REMARK  11 active torsions:
REMARK  status: ('A' for Active; 'I' for Inactive)
REMARK    1  A    between atoms: C01_1  and  C02_2 
REMARK    2  A    between atoms: C02_2  and  C03_3 
REMARK    3  A    between atoms: C03_3  and  C04_4 
REMARK    4  A    between atoms: C04_4  and  C05_5 
REMARK    5  A    between atoms: C05_5  and  C06_6 
REMARK    6  A    between atoms: C10_17  and  C11_20 
REMARK    7  A    between atoms: C11_20  and  C12_21 
REMARK    8  A    between atoms: C12_21  and  C13_22 
REMARK    9  A    between atoms: C12_21  and  C14_23 
REMARK   10  A    between atoms: C17_25  and  C20_30 
REMARK   11  A    between atoms: C20_30  and  O21_31 
ROOT
ATOM      1  C06 V69 d   1      58.949 -55.625  21.506  0.00  0.00     0.050 C 
ATOM      2  C08 V69 d   1      61.013 -55.291  20.375  0.00  0.00     0.361 C 
ATOM      3  C24 V69 d   1      57.982 -56.745  21.165  0.00  0.00    -0.040 C 
ATOM      4  C25 V69 d   1      57.936 -56.978  19.661  0.00  0.00    -0.063 C 
ATOM      5  C26 V69 d   1      57.115 -55.885  18.985  0.00  0.00    -0.064 C 
ATOM      6  C27 V69 d   1      57.233 -55.898  17.461  0.00  0.00    -0.050 C 
ATOM      7  C28 V69 d   1      56.882 -54.531  16.888  0.00  0.00    -0.005 C 
ATOM      8  N29 V69 d   1      57.885 -53.615  17.386  0.00  0.00    -0.361 N 
ATOM      9  O07 V69 d   1      60.222 -56.088  21.180  0.00  0.00    -0.299 OA
ATOM     10  O23 V69 d   1      60.711 -54.182  20.080  0.00  0.00    -0.238 OA
ATOM     11  N09 V69 d   1      62.235 -55.918  19.944  0.00  0.00    -0.324 N 
ATOM     12  C10 V69 d   1      63.122 -55.189  19.077  0.00  0.00     0.092 C 
ATOM     13  C15 V69 d   1      62.405 -54.825  17.788  0.00  0.00     0.240 C 
ATOM     14  O22 V69 d   1      61.517 -55.496  17.346  0.00  0.00    -0.271 OA
ATOM     15  N16 V69 d   1      62.850 -53.630  17.090  0.00  0.00    -0.353 N 
ATOM     16  C17 V69 d   1      62.172 -53.251  15.875  0.00  0.00     0.033 C 
ATOM     17  C18 V69 d   1      61.230 -52.068  16.135  0.00  0.00    -0.036 C 
ATOM     18  C19 V69 d   1      60.072 -52.363  17.092  0.00  0.00     0.011 C 
ATOM     19  C30 V69 d   1      59.012 -53.308  16.538  0.00  0.00     0.217 C 
ATOM     20  O31 V69 d   1      59.075 -53.790  15.449  0.00  0.00    -0.274 OA
ATOM     21  H12 V69 d   1      58.692 -54.716  20.942  0.00  0.00     0.084 H 
ATOM     22  H13 V69 d   1      56.976 -56.474  21.519  0.00  0.00     0.036 H 
ATOM     23  H14 V69 d   1      58.310 -57.669  21.663  0.00  0.00     0.036 H 
ATOM     24  H15 V69 d   1      57.476 -57.956  19.459  0.00  0.00     0.033 H 
ATOM     25  H16 V69 d   1      58.960 -56.964  19.259  0.00  0.00     0.033 H 
ATOM     26  H17 V69 d   1      57.462 -54.908  19.354  0.00  0.00     0.033 H 
ATOM     27  H18 V69 d   1      56.058 -56.025  19.255  0.00  0.00     0.033 H 
ATOM     28  H19 V69 d   1      56.544 -56.651  17.051  0.00  0.00     0.035 H 
ATOM     29  H20 V69 d   1      58.265 -56.154  17.180  0.00  0.00     0.035 H 
ATOM     30  H21 V69 d   1      55.882 -54.221  17.225  0.00  0.00     0.064 H 
ATOM     31  H22 V69 d   1      56.905 -54.561  15.789  0.00  0.00     0.064 H 
ATOM     32  H23 V69 d   1      57.800 -53.205  18.294  0.00  0.00     0.162 HD
ATOM     33  H24 V69 d   1      62.464 -56.845  20.242  0.00  0.00     0.165 HD
ATOM     34  H25 V69 d   1      63.434 -54.260  19.577  0.00  0.00     0.087 H 
ATOM     35  H35 V69 d   1      63.609 -53.083  17.444  0.00  0.00     0.163 HD
ATOM     36  H36 V69 d   1      61.590 -54.106  15.502  0.00  0.00     0.075 H 
ATOM     37  H37 V69 d   1      60.804 -51.752  15.171  0.00  0.00     0.036 H 
ATOM     38  H38 V69 d   1      61.824 -51.246  16.561  0.00  0.00     0.036 H 
ATOM     39  H39 V69 d   1      59.584 -51.410  17.343  0.00  0.00     0.047 H 
ATOM     40  H40 V69 d   1      60.489 -52.813  18.005  0.00  0.00     0.047 H 
ENDROOT
BRANCH   1  41
ATOM     41  C05 V69 d   1      58.990 -55.333  22.983  0.00  0.00    -0.040 C 
ATOM     42  H10 V69 d   1      57.965 -55.175  23.350  0.00  0.00     0.036 H 
ATOM     43  H11 V69 d   1      59.440 -56.188  23.509  0.00  0.00     0.036 H 
BRANCH  41  44
ATOM     44  C04 V69 d   1      59.819 -54.082  23.255  0.00  0.00    -0.063 C 
ATOM     45  H8  V69 d   1      60.883 -54.356  23.305  0.00  0.00     0.033 H 
ATOM     46  H9  V69 d   1      59.664 -53.360  22.440  0.00  0.00     0.033 H 
BRANCH  44  47
ATOM     47  C03 V69 d   1      59.405 -53.452  24.564  0.00  0.00    -0.065 C 
ATOM     48  H6  V69 d   1      58.327 -53.239  24.525  0.00  0.00     0.033 H 
ATOM     49  H7  V69 d   1      59.609 -54.165  25.376  0.00  0.00     0.033 H 
BRANCH  47  50
ATOM     50  C02 V69 d   1      60.144 -52.157  24.860  0.00  0.00    -0.069 C 
ATOM     51  H4  V69 d   1      60.228 -52.035  25.950  0.00  0.00     0.032 H 
ATOM     52  H5  V69 d   1      61.150 -52.211  24.418  0.00  0.00     0.032 H 
BRANCH  50  53
ATOM     53  C01 V69 d   1      59.413 -50.949  24.282  0.00  0.00    -0.077 C 
ATOM     54  H1  V69 d   1      59.976 -50.033  24.516  0.00  0.00     0.027 H 
ATOM     55  H2  V69 d   1      58.407 -50.883  24.723  0.00  0.00     0.027 H 
ATOM     56  H3  V69 d   1      59.329 -51.059  23.191  0.00  0.00     0.027 H 
ENDBRANCH  50  53
ENDBRANCH  47  50
ENDBRANCH  44  47
ENDBRANCH  41  44
ENDBRANCH   1  41
BRANCH  12  57
ATOM     57  C11 V69 d   1      64.354 -56.043  18.817  0.00  0.00    -0.035 C 
ATOM     58  H26 V69 d   1      64.958 -55.553  18.039  0.00  0.00     0.037 H 
ATOM     59  H27 V69 d   1      64.023 -57.029  18.458  0.00  0.00     0.037 H 
BRANCH  57  60
ATOM     60  C12 V69 d   1      65.232 -56.250  20.048  0.00  0.00    -0.059 C 
ATOM     61  H28 V69 d   1      64.602 -56.719  20.818  0.00  0.00     0.038 H 
BRANCH  60  62
ATOM     62  C13 V69 d   1      66.381 -57.203  19.740  0.00  0.00    -0.073 C 
ATOM     63  H29 V69 d   1      66.998 -57.336  20.641  0.00  0.00     0.028 H 
ATOM     64  H30 V69 d   1      66.998 -56.784  18.931  0.00  0.00     0.028 H 
ATOM     65  H31 V69 d   1      65.976 -58.176  19.426  0.00  0.00     0.028 H 
ENDBRANCH  60  62
BRANCH  60  66
ATOM     66  C14 V69 d   1      65.778 -54.961  20.637  0.00  0.00    -0.073 C 
ATOM     67  H32 V69 d   1      64.945 -54.277  20.857  0.00  0.00     0.028 H 
ATOM     68  H33 V69 d   1      66.460 -54.488  19.915  0.00  0.00     0.028 H 
ATOM     69  H34 V69 d   1      66.324 -55.184  21.565  0.00  0.00     0.028 H 
ENDBRANCH  60  66
ENDBRANCH  57  60
ENDBRANCH  12  57
BRANCH  16  70
ATOM     70  C20 V69 d   1      63.202 -52.838  14.827  0.00  0.00     0.035 C 
ATOM     71  H41 V69 d   1      63.845 -52.039  15.225  0.00  0.00     0.077 H 
ATOM     72  H42 V69 d   1      62.694 -52.482  13.919  0.00  0.00     0.077 H 
BRANCH  70  73
ATOM     73  O21 V69 d   1      63.981 -53.984  14.529  0.00  0.00    -0.399 OA
ATOM     74  H43 V69 d   1      64.412 -54.287  15.320  0.00  0.00     0.209 HD
ENDBRANCH  70  73
ENDBRANCH  16  70
TORSDOF 11
