REMARK  9 active torsions:
REMARK  status: ('A' for Active; 'I' for Inactive)
REMARK    1  A    between atoms: C4_4  and  B7_7 
REMARK    2  A    between atoms: C6_6  and  N10_10 
REMARK    3  A    between atoms: B7_7  and  O8_8 
REMARK    4  A    between atoms: B7_7  and  O9_9 
REMARK       I    between atoms: N10_10  and  C11_11 
REMARK    5  A    between atoms: C11_11  and  O12_12 
REMARK    6  A    between atoms: O12_12  and  C13_13 
REMARK    7  A    between atoms: C13_13  and  C14_14 
REMARK    8  A    between atoms: C13_13  and  C15_15 
REMARK    9  A    between atoms: C13_13  and  C16_16 
ROOT
ATOM      1  N10 JW1 d   1       2.994  30.878 -17.050  0.00  0.00    -0.303 N 
ATOM      2  C11 JW1 d   1       4.138  30.971 -17.670  0.00  0.00     0.365 C 
ATOM      3  O17 JW1 d   1       5.227  31.193 -17.169  0.00  0.00    -0.238 OA
ATOM      4  H   JW1 d   1       2.148  30.796 -17.613  0.00  0.00     0.171 HD
ENDROOT
BRANCH   1   5
ATOM      5  C6  JW1 d   1       2.860  30.884 -15.654  0.00  0.00     0.036 A 
ATOM      6  C1  JW1 d   1       3.749  31.397 -14.744  0.00  0.00    -0.057 A 
ATOM      7  C2  JW1 d   1       3.536  31.262 -13.418  0.00  0.00    -0.081 A 
ATOM      8  H   JW1 d   1       4.638  31.920 -15.096  0.00  0.00     0.086 H 
ATOM      9  C3  JW1 d   1       2.378  30.746 -12.875  0.00  0.00    -0.082 A 
ATOM     10  H   JW1 d   1       4.325  31.579 -12.736  0.00  0.00     0.083 H 
ATOM     11  C4  JW1 d   1       1.405  30.232 -13.736  0.00  0.00    -0.030 A 
ATOM     12  H   JW1 d   1       2.225  30.739 -11.796  0.00  0.00     0.083 H 
ATOM     13  C5  JW1 d   1       1.705  30.373 -15.113  0.00  0.00    -0.056 A 
ATOM     14  H   JW1 d   1       0.941  30.042 -15.816  0.00  0.00     0.086 H 
BRANCH  11  15
ATOM     15  B7  JW1 d   1       0.031  29.665 -13.166  0.00  0.00     0.529 B 
BRANCH  15  16
ATOM     16  O8  JW1 d   1      -0.349  30.443 -11.919  0.00  0.00    -0.433 OA
ATOM     17  H   JW1 d   1       0.358  30.375 -11.273  0.00  0.00     0.185 HD
ENDBRANCH  15  16
BRANCH  15  18
ATOM     18  O9  JW1 d   1      -1.063  29.761 -14.188  0.00  0.00    -0.433 OA
ATOM     19  H   JW1 d   1      -1.202  30.682 -14.421  0.00  0.00     0.185 HD
ENDBRANCH  15  18
ENDBRANCH  11  15
ENDBRANCH   1   5
BRANCH   2  20
ATOM     20  O12 JW1 d   1       3.953  30.894 -19.047  0.00  0.00    -0.294 OA
BRANCH  20  21
ATOM     21  C13 JW1 d   1       4.999  31.115 -19.999  0.00  0.00     0.061 C 
BRANCH  21  22
ATOM     22  C14 JW1 d   1       5.598  32.516 -19.812  0.00  0.00    -0.048 C 
ATOM     23  H   JW1 d   1       4.819  33.265 -19.956  0.00  0.00     0.031 H 
ATOM     24  H   JW1 d   1       6.006  32.604 -18.805  0.00  0.00     0.031 H 
ATOM     25  H   JW1 d   1       6.392  32.671 -20.542  0.00  0.00     0.031 H 
ENDBRANCH  21  22
BRANCH  21  26
ATOM     26  C15 JW1 d   1       4.213  30.977 -21.293  0.00  0.00    -0.048 C 
ATOM     27  H   JW1 d   1       3.771  29.982 -21.344  0.00  0.00     0.031 H 
ATOM     28  H   JW1 d   1       3.424  31.729 -21.319  0.00  0.00     0.031 H 
ATOM     29  H   JW1 d   1       4.883  31.122 -22.141  0.00  0.00     0.031 H 
ENDBRANCH  21  26
BRANCH  21  30
ATOM     30  C16 JW1 d   1       6.108  30.059 -19.841  0.00  0.00    -0.048 C 
ATOM     31  H   JW1 d   1       6.526  30.120 -18.836  0.00  0.00     0.031 H 
ATOM     32  H   JW1 d   1       5.688  29.066 -20.001  0.00  0.00     0.031 H 
ATOM     33  H   JW1 d   1       6.893  30.246 -20.574  0.00  0.00     0.031 H 
ENDBRANCH  21  30
ENDBRANCH  20  21
ENDBRANCH   2  20
TORSDOF 9
