REMARK  5 active torsions:
REMARK  status: ('A' for Active; 'I' for Inactive)
REMARK    1  A    between atoms: C1_1  and  S10_10 
REMARK    2  A    between atoms: C4_4  and  B7_7 
REMARK    3  A    between atoms: B7_7  and  O8_8 
REMARK    4  A    between atoms: B7_7  and  O9_9 
REMARK    5  A    between atoms: S10_10  and  N11_11 
ROOT
ATOM      1  C1  JW8 d   1       3.523  32.028 -15.123  0.00  0.00     0.079 A 
ATOM      2  C2  JW8 d   1       3.148  32.273 -13.789  0.00  0.00    -0.061 A 
ATOM      3  C3  JW8 d   1       2.032  31.632 -13.212  0.00  0.00    -0.081 A 
ATOM      4  C4  JW8 d   1       1.247  30.718 -13.936  0.00  0.00    -0.032 A 
ATOM      5  C5  JW8 d   1       1.590  30.511 -15.285  0.00  0.00    -0.081 A 
ATOM      6  C6  JW8 d   1       2.715  31.142 -15.861  0.00  0.00    -0.061 A 
ATOM      7  H   JW8 d   1       3.732  32.972 -13.190  0.00  0.00     0.085 H 
ATOM      8  H   JW8 d   1       1.771  31.851 -12.177  0.00  0.00     0.083 H 
ATOM      9  H   JW8 d   1       0.976  29.851 -15.897  0.00  0.00     0.083 H 
ATOM     10  H   JW8 d   1       2.964  30.938 -16.902  0.00  0.00     0.085 H 
ENDROOT
BRANCH   1  11
ATOM     11  S10 JW8 d   1       4.815  32.757 -15.821  0.00  0.00     0.260 S 
ATOM     12  O15 JW8 d   1       4.382  33.257 -17.097  0.00  0.00    -0.200 OA
ATOM     13  O16 JW8 d   1       5.218  33.875 -15.013  0.00  0.00    -0.200 OA
BRANCH  11  14
ATOM     14  N11 JW8 d   1       6.034  31.862 -16.134  0.00  0.00    -0.307 N 
ATOM     15  C12 JW8 d   1       6.205  30.824 -17.139  0.00  0.00     0.007 A 
ATOM     16  C13 JW8 d   1       7.669  30.839 -16.685  0.00  0.00    -0.034 A 
ATOM     17  H   JW8 d   1       5.899  30.940 -18.179  0.00  0.00     0.065 H 
ATOM     18  H   JW8 d   1       5.598  29.919 -17.175  0.00  0.00     0.065 H 
ATOM     19  C14 JW8 d   1       7.383  31.872 -15.588  0.00  0.00     0.007 A 
ATOM     20  H   JW8 d   1       8.443  31.058 -17.421  0.00  0.00     0.037 H 
ATOM     21  H   JW8 d   1       8.140  29.896 -16.406  0.00  0.00     0.037 H 
ATOM     22  H   JW8 d   1       7.604  31.704 -14.534  0.00  0.00     0.065 H 
ATOM     23  H   JW8 d   1       7.969  32.781 -15.453  0.00  0.00     0.065 H 
ENDBRANCH  11  14
ENDBRANCH   1  11
BRANCH   4  24
ATOM     24  B7  JW8 d   1      -0.030  30.095 -13.302  0.00  0.00     0.529 B 
BRANCH  24  25
ATOM     25  O8  JW8 d   1      -0.446  30.715 -11.992  0.00  0.00    -0.433 OA
ATOM     26  H   JW8 d   1      -1.148  30.190 -11.600  0.00  0.00     0.185 HD
ENDBRANCH  24  25
BRANCH  24  27
ATOM     27  O9  JW8 d   1      -1.165  30.020 -14.295  0.00  0.00    -0.433 OA
ATOM     28  H   JW8 d   1      -1.489  30.905 -14.477  0.00  0.00     0.185 HD
ENDBRANCH  24  27
ENDBRANCH   4  24
TORSDOF 5
