REMARK  7 active torsions:
REMARK  status: ('A' for Active; 'I' for Inactive)
REMARK    1  A    between atoms: C8_2  and  O11_3 
REMARK       I    between atoms: C8_2  and  N1_8 
REMARK    2  A    between atoms: O11_3  and  C12_4 
REMARK    3  A    between atoms: C12_4  and  C15_5 
REMARK    4  A    between atoms: C12_4  and  C14_6 
REMARK    5  A    between atoms: C12_4  and  C13_7 
REMARK    6  A    between atoms: N1_8  and  C5_9 
REMARK    7  A    between atoms: B9_15  and  O10_16 
ROOT
ATOM      1  O9  J4W d   1       2.671  30.891 -17.898  0.00  0.00    -0.238 OA
ATOM      2  C8  J4W d   1       3.788  31.005 -17.383  0.00  0.00     0.365 C 
ATOM      3  N1  J4W d   1       4.017  31.210 -16.092  0.00  0.00    -0.303 N 
ATOM      4  H   J4W d   1       4.994  31.264 -15.804  0.00  0.00     0.171 HD
ENDROOT
BRANCH   3   5
ATOM      5  C5  J4W d   1       3.036  31.363 -15.064  0.00  0.00     0.036 C 
ATOM      6  C6  J4W d   1       3.263  32.450 -14.248  0.00  0.00    -0.057 C 
ATOM      7  C7  J4W d   1       2.493  32.622 -13.120  0.00  0.00    -0.073 C 
ATOM      8  H   J4W d   1       4.046  33.168 -14.494  0.00  0.00     0.086 H 
ATOM      9  C2  J4W d   1       1.467  31.697 -12.856  0.00  0.00    -0.035 C 
ATOM     10  H   J4W d   1       2.675  33.458 -12.445  0.00  0.00     0.084 H 
ATOM     11  C3  J4W d   1       1.299  30.551 -13.587  0.00  0.00    -0.022 C 
ATOM     12  C1  J4W d   1       0.493  31.795 -11.740  0.00  0.00     0.027 C 
ATOM     13  C4  J4W d   1       2.023  30.402 -14.784  0.00  0.00    -0.056 C 
ATOM     14  B9  J4W d   1       0.027  29.801 -13.046  0.00  0.00     0.532 B 
ATOM     15  H   J4W d   1       1.816  29.582 -15.471  0.00  0.00     0.086 H 
ATOM     16  O8  J4W d   1      -0.275  30.574 -11.851  0.00  0.00    -0.419 OA
ATOM     17  H   J4W d   1      -0.130  32.687 -11.807  0.00  0.00     0.079 H 
ATOM     18  H   J4W d   1       0.979  31.895 -10.770  0.00  0.00     0.079 H 
BRANCH  14  19
ATOM     19  O10 J4W d   1      -1.146  29.948 -14.021  0.00  0.00    -0.433 OA
ATOM     20  H   J4W d   1      -1.259  30.874 -14.247  0.00  0.00     0.185 HD
ENDBRANCH  14  19
ENDBRANCH   3   5
BRANCH   2  21
ATOM     21  O11 J4W d   1       5.006  31.082 -18.192  0.00  0.00    -0.294 OA
BRANCH  21  22
ATOM     22  C12 J4W d   1       5.040  31.421 -19.592  0.00  0.00     0.061 C 
BRANCH  22  23
ATOM     23  C15 J4W d   1       6.518  31.504 -19.991  0.00  0.00    -0.048 C 
ATOM     24  H   J4W d   1       6.594  31.753 -21.049  0.00  0.00     0.031 H 
ATOM     25  H   J4W d   1       7.010  32.276 -19.399  0.00  0.00     0.031 H 
ATOM     26  H   J4W d   1       6.997  30.542 -19.807  0.00  0.00     0.031 H 
ENDBRANCH  22  23
BRANCH  22  27
ATOM     27  C14 J4W d   1       4.374  30.328 -20.417  0.00  0.00    -0.048 C 
ATOM     28  H   J4W d   1       3.324  30.252 -20.136  0.00  0.00     0.031 H 
ATOM     29  H   J4W d   1       4.452  30.575 -21.476  0.00  0.00     0.031 H 
ATOM     30  H   J4W d   1       4.872  29.377 -20.227  0.00  0.00     0.031 H 
ENDBRANCH  22  27
BRANCH  22  31
ATOM     31  C13 J4W d   1       4.351  32.772 -19.846  0.00  0.00    -0.048 C 
ATOM     32  H   J4W d   1       4.429  33.025 -20.903  0.00  0.00     0.031 H 
ATOM     33  H   J4W d   1       3.300  32.701 -19.564  0.00  0.00     0.031 H 
ATOM     34  H   J4W d   1       4.837  33.544 -19.250  0.00  0.00     0.031 H 
ENDBRANCH  22  31
ENDBRANCH  21  22
ENDBRANCH   2  21
TORSDOF 7
