REMARK  6 active torsions:
REMARK  status: ('A' for Active; 'I' for Inactive)
REMARK    1  A    between atoms: C10_2  and  C6_3 
REMARK       I    between atoms: C10_2  and  N11_12 
REMARK    2  A    between atoms: C4_5  and  B7_6 
REMARK    3  A    between atoms: B7_6  and  O9_7 
REMARK    4  A    between atoms: B7_6  and  O8_8 
REMARK    5  A    between atoms: N11_12  and  C12_13 
REMARK    6  A    between atoms: C12_13  and  C13_14 
ROOT
ATOM      1  C6  JW3 d   1       2.661  31.288 -15.896  0.00  0.00     0.031 A 
ATOM      2  C5  JW3 d   1       1.446  30.720 -15.330  0.00  0.00    -0.067 A 
ATOM      3  C4  JW3 d   1       1.199  30.640 -13.926  0.00  0.00    -0.031 A 
ATOM      4  C3  JW3 d   1       2.228  31.185 -13.129  0.00  0.00    -0.082 A 
ATOM      5  C2  JW3 d   1       3.393  31.793 -13.699  0.00  0.00    -0.082 A 
ATOM      6  C1  JW3 d   1       3.652  31.855 -15.075  0.00  0.00    -0.068 A 
ATOM      7  H   JW3 d   1       0.687  30.337 -16.012  0.00  0.00     0.084 H 
ATOM      8  H   JW3 d   1       2.133  31.142 -12.044  0.00  0.00     0.083 H 
ATOM      9  H   JW3 d   1       4.123  32.235 -13.021  0.00  0.00     0.083 H 
ATOM     10  H   JW3 d   1       4.556  32.310 -15.479  0.00  0.00     0.085 H 
ENDROOT
BRANCH   1  11
ATOM     11  C10 JW3 d   1       2.807  31.373 -17.399  0.00  0.00     0.251 C 
ATOM     12  O19 JW3 d   1       1.692  31.321 -17.934  0.00  0.00    -0.268 OA
ATOM     13  N11 JW3 d   1       3.971  31.601 -18.082  0.00  0.00    -0.351 N 
ATOM     14  H   JW3 d   1       4.852  31.684 -17.574  0.00  0.00     0.163 HD
BRANCH  13  15
ATOM     15  C12 JW3 d   1       3.953  31.726 -19.548  0.00  0.00     0.040 C 
ATOM     16  H   JW3 d   1       3.178  32.473 -19.722  0.00  0.00     0.074 H 
ATOM     17  H   JW3 d   1       3.872  30.692 -19.882  0.00  0.00     0.074 H 
BRANCH  15  18
ATOM     18  C13 JW3 d   1       5.134  32.259 -20.358  0.00  0.00     0.070 A 
ATOM     19  O18 JW3 d   1       5.089  33.534 -20.952  0.00  0.00    -0.325 OA
ATOM     20  C15 JW3 d   1       5.676  33.479 -22.211  0.00  0.00     0.019 A 
ATOM     21  C16 JW3 d   1       6.111  32.172 -22.415  0.00  0.00    -0.059 A 
ATOM     22  H   JW3 d   1       5.777  34.308 -22.911  0.00  0.00     0.123 H 
ATOM     23  C17 JW3 d   1       5.792  31.426 -21.284  0.00  0.00    -0.051 A 
ATOM     24  H   JW3 d   1       6.614  31.798 -23.306  0.00  0.00     0.086 H 
ATOM     25  H   JW3 d   1       6.015  30.369 -21.139  0.00  0.00     0.087 H 
ENDBRANCH  15  18
ENDBRANCH  13  15
ENDBRANCH   1  11
BRANCH   3  26
ATOM     26  B7  JW3 d   1      -0.111  30.068 -13.250  0.00  0.00     0.529 B 
BRANCH  26  27
ATOM     27  O9  JW3 d   1      -0.305  30.556 -11.843  0.00  0.00    -0.433 OA
ATOM     28  H   JW3 d   1      -0.942  29.994 -11.396  0.00  0.00     0.185 HD
ENDBRANCH  26  27
BRANCH  26  29
ATOM     29  O8  JW3 d   1      -1.369  30.074 -14.075  0.00  0.00    -0.433 OA
ATOM     30  H   JW3 d   1      -2.023  29.504 -13.663  0.00  0.00     0.185 HD
ENDBRANCH  26  29
ENDBRANCH   3  26
TORSDOF 6
