REMARK  10 active torsions:
REMARK  status: ('A' for Active; 'I' for Inactive)
REMARK    1  A    between atoms: O3B_8  and  PG_1 
REMARK    2  A    between atoms: PB_5  and  O3B_8 
REMARK    3  A    between atoms: O3A_12  and  PB_5 
REMARK    4  A    between atoms: PA_9  and  O3A_12 
REMARK    5  A    between atoms: PA_9  and  O5'_13 
REMARK    6  A    between atoms: O5'_13  and  C5'_14 
REMARK    7  A    between atoms: C5'_14  and  C4'_15 
REMARK    8  A    between atoms: C3'_17  and  O3'_18 
REMARK    9  A    between atoms: C2'_19  and  O2'_20 
REMARK   10  A    between atoms: C1'_21  and  N9_22 
ROOT
ATOM      1  C4' ATP d   1     -70.600  55.900  10.803  0.00  0.00     0.089 C 
ATOM      2  O4' ATP d   1     -70.029  56.980  10.067  0.00  0.00    -0.353 OA
ATOM      3  C3' ATP d   1     -71.545  56.497  11.837  0.00  0.00     0.091 C 
ATOM      4  C2' ATP d   1     -71.688  57.961  11.466  0.00  0.00     0.105 C 
ATOM      5  C1' ATP d   1     -70.511  58.239  10.540  0.00  0.00     0.139 C 
ATOM      6  H3  ATP d   1     -69.812  55.331  11.318  0.00  0.00     0.090 H 
ATOM      7  H4  ATP d   1     -72.524  55.998  11.790  0.00  0.00     0.091 H 
ATOM      8  H6  ATP d   1     -72.637  58.125  10.934  0.00  0.00     0.093 H 
ATOM      9  H8  ATP d   1     -69.720  58.744  11.114  0.00  0.00     0.122 H 
ENDROOT
BRANCH   1  10
ATOM     10  C5' ATP d   1     -71.313  54.987   9.812  0.00  0.00     0.058 C 
ATOM     11  H1  ATP d   1     -72.102  54.429  10.338  0.00  0.00     0.079 H 
ATOM     12  H2  ATP d   1     -71.765  55.599   9.018  0.00  0.00     0.079 H 
BRANCH  10  13
ATOM     13  O5' ATP d   1     -70.398  54.066   9.229  0.00  0.00    -0.287 OA
BRANCH  13  14
ATOM     14  PA  ATP d   1     -70.901  53.037   8.096  0.00  0.00     0.417 P 
ATOM     15  O1A ATP d   1     -69.711  52.705   7.226  0.00  0.00    -0.624 OA
ATOM     16  O2A ATP d   1     -72.164  53.579   7.468  0.00  0.00    -0.624 OA
BRANCH  14  17
ATOM     17  O3A ATP d   1     -71.293  51.769   9.005  0.00  0.00    -0.180 OA
BRANCH  17  18
ATOM     18  PB  ATP d   1     -71.412  50.274   8.426  0.00  0.00     0.428 P 
ATOM     19  O1B ATP d   1     -70.629  50.152   7.139  0.00  0.00    -0.624 OA
ATOM     20  O2B ATP d   1     -72.870  49.886   8.460  0.00  0.00    -0.624 OA
BRANCH  18  21
ATOM     21  O3B ATP d   1     -70.633  49.496   9.603  0.00  0.00    -0.173 OA
BRANCH  21  22
ATOM     22  PG  ATP d   1     -69.122  48.971   9.400  0.00  0.00     0.431 P 
ATOM     23  O1G ATP d   1     -69.256  47.871   8.374  0.00  0.00    -0.616 OA
ATOM     24  O2G ATP d   1     -68.365  50.187   8.921  0.00  0.00    -0.616 OA
ATOM     25  O3G ATP d   1     -68.710  48.501  10.774  0.00  0.00    -0.616 OA
ENDBRANCH  21  22
ENDBRANCH  18  21
ENDBRANCH  17  18
ENDBRANCH  14  17
ENDBRANCH  13  14
ENDBRANCH  10  13
ENDBRANCH   1  10
BRANCH   3  26
ATOM     26  O3' ATP d   1     -71.005  56.351  13.155  0.00  0.00    -0.390 OA
ATOM     27  H5  ATP d   1     -71.607  56.728  13.786  0.00  0.00     0.210 HD
ENDBRANCH   3  26
BRANCH   5  28
ATOM     28  N9  ATP d   1     -70.871  59.095   9.382  0.00  0.00    -0.294 N 
ATOM     29  C8  ATP d   1     -71.941  58.963   8.572  0.00  0.00     0.071 A 
ATOM     30  N7  ATP d   1     -71.941  59.930   7.618  0.00  0.00    -0.236 NA
ATOM     31  H9  ATP d   1     -72.700  58.188   8.669  0.00  0.00     0.144 H 
ATOM     32  C5  ATP d   1     -70.852  60.696   7.813  0.00  0.00     0.149 A 
ATOM     33  C6  ATP d   1     -70.244  61.882   7.169  0.00  0.00     0.155 A 
ATOM     34  C4  ATP d   1     -70.153  60.142   8.978  0.00  0.00     0.167 A 
ATOM     35  N6  ATP d   1     -70.825  62.462   6.089  0.00  0.00    -0.382 N 
ATOM     36  N1  ATP d   1     -69.095  62.367   7.693  0.00  0.00    -0.222 NA
ATOM     37  H10 ATP d   1     -70.390  63.287   5.651  0.00  0.00     0.157 HD
ATOM     38  H11 ATP d   1     -71.701  62.078   5.707  0.00  0.00     0.157 HD
ATOM     39  C2  ATP d   1     -68.505  61.807   8.765  0.00  0.00     0.091 A 
ATOM     40  N3  ATP d   1     -69.006  60.730   9.394  0.00  0.00    -0.222 NA
ATOM     41  H12 ATP d   1     -67.585  62.244   9.138  0.00  0.00     0.146 H 
ENDBRANCH   5  28
BRANCH   4  42
ATOM     42  O2' ATP d   1     -71.655  58.806  12.620  0.00  0.00    -0.388 OA
ATOM     43  H7  ATP d   1     -70.827  58.691  13.072  0.00  0.00     0.210 HD
ENDBRANCH   4  42
TORSDOF 10
