REMARK  4 active torsions:
REMARK  status: ('A' for Active; 'I' for Inactive)
REMARK    1  A    between atoms: CHA_4  and  C1FA_12 
REMARK    2  A    between atoms: CHB_5  and  C1FB_13 
REMARK    3  A    between atoms: CHC_6  and  C1FC_14 
REMARK    4  A    between atoms: CHD_7  and  C1FD_15 
ROOT
ATOM      1  NA1 7BU d   1      -0.519  -8.320 -18.808  0.00  0.00    -0.247 N 
ATOM      2  NB2 7BU d   1      -2.710  -8.002 -20.619  0.00  0.00    -0.247 N 
ATOM      3  ND4 7BU d   1      -2.229  -9.616 -16.896  0.00  0.00    -0.247 N 
ATOM      4  CHA 7BU d   1       0.230  -9.756 -16.930  0.00  0.00     0.105 C 
ATOM      5  CHB 7BU d   1      -0.575  -6.779 -20.734  0.00  0.00     0.105 C 
ATOM      6  CHC 7BU d   1      -4.880  -9.039 -21.140  0.00  0.00     0.105 C 
ATOM      7  CHD 7BU d   1      -4.616  -9.901 -16.327  0.00  0.00     0.105 C 
ATOM      8  C1A 7BU d   1       0.460  -8.883 -18.031  0.00  0.00     0.075 A 
ATOM      9  C1B 7BU d   1      -1.844  -7.152 -21.258  0.00  0.00     0.075 A 
ATOM     10  C1C 7BU d   1      -5.232  -9.426 -19.817  0.00  0.00     0.075 A 
ATOM     11  C1D 7BU d   1      -3.223  -9.969 -16.021  0.00  0.00     0.075 A 
ATOM     12  C2A 7BU d   1       1.759  -8.354 -18.443  0.00  0.00    -0.052 A 
ATOM     13  C2B 7BU d   1      -2.358  -6.849 -22.582  0.00  0.00    -0.052 A 
ATOM     14  C2C 7BU d   1      -6.558  -9.860 -19.381  0.00  0.00    -0.052 A 
ATOM     15  C2D 7BU d   1      -2.626 -10.582 -14.844  0.00  0.00    -0.052 A 
ATOM     16  C3A 7BU d   1       1.531  -7.485 -19.453  0.00  0.00    -0.052 A 
ATOM     17  C3B 7BU d   1      -3.522  -7.529 -22.721  0.00  0.00    -0.052 A 
ATOM     18  C3C 7BU d   1      -6.501 -10.037 -18.044  0.00  0.00    -0.052 A 
ATOM     19  C3D 7BU d   1      -1.288 -10.602 -15.040  0.00  0.00    -0.052 A 
ATOM     20  C4A 7BU d   1       0.093  -7.473 -19.689  0.00  0.00     0.075 A 
ATOM     21  C4B 7BU d   1      -3.749  -8.257 -21.482  0.00  0.00     0.075 A 
ATOM     22  C4C 7BU d   1      -5.144  -9.720 -17.632  0.00  0.00     0.075 A 
ATOM     23  C4D 7BU d   1      -1.031  -9.994 -16.333  0.00  0.00     0.075 A 
ATOM     24  NC3 7BU d   1      -4.404  -9.356 -18.730  0.00  0.00    -0.247 N 
ATOM     25 ZN   7BU d   1      -2.569  -8.436 -18.591  0.00  0.00     0.000 Zn
ATOM     26  H   7BU d   1       2.728  -8.612 -18.016  0.00  0.00     0.087 H 
ATOM     27  H   7BU d   1      -1.895  -6.198 -23.324  0.00  0.00     0.087 H 
ATOM     28  H   7BU d   1      -7.430 -10.012 -20.017  0.00  0.00     0.087 H 
ATOM     29  H   7BU d   1      -3.158 -10.955 -13.969  0.00  0.00     0.087 H 
ATOM     30  H   7BU d   1       2.281  -6.903 -19.989  0.00  0.00     0.087 H 
ATOM     31  H   7BU d   1      -4.168  -7.530 -23.599  0.00  0.00     0.087 H 
ATOM     32  H   7BU d   1      -7.317 -10.357 -17.397  0.00  0.00     0.087 H 
ATOM     33  H   7BU d   1      -0.541 -11.001 -14.354  0.00  0.00     0.087 H 
ENDROOT
BRANCH   4  34
ATOM     34  C1F 7BU d   1       1.501 -10.322 -16.282  0.00  0.00     0.421 C 
ATOM     35  F21 7BU d   1       2.101  -9.408 -15.493  0.00  0.00    -0.166 F 
ATOM     36  F22 7BU d   1       2.430 -10.665 -17.203  0.00  0.00    -0.166 F 
ATOM     37  F23 7BU d   1       1.314 -11.420 -15.514  0.00  0.00    -0.166 F 
ENDBRANCH   4  34
BRANCH   5  38
ATOM     38  C1F 7BU d   1       0.242  -5.708 -21.456  0.00  0.00     0.421 C 
ATOM     39  F21 7BU d   1      -0.545  -4.738 -21.984  0.00  0.00    -0.166 F 
ATOM     40  F22 7BU d   1       0.977  -6.182 -22.485  0.00  0.00    -0.166 F 
ATOM     41  F23 7BU d   1       1.099  -5.094 -20.620  0.00  0.00    -0.166 F 
ENDBRANCH   5  38
BRANCH   7  42
ATOM     42  C1F 7BU d   1      -5.623 -10.210 -15.217  0.00  0.00     0.421 C 
ATOM     43  F21 7BU d   1      -6.710  -9.406 -15.250  0.00  0.00    -0.166 F 
ATOM     44  F22 7BU d   1      -5.083 -10.040 -13.994  0.00  0.00    -0.166 F 
ATOM     45  F23 7BU d   1      -6.075 -11.484 -15.277  0.00  0.00    -0.166 F 
ENDBRANCH   7  42
BRANCH   6  46
ATOM     46  C1F 7BU d   1      -5.956  -9.329 -22.188  0.00  0.00     0.421 C 
ATOM     47  F21 7BU d   1      -5.521  -9.374 -23.457  0.00  0.00    -0.166 F 
ATOM     48  F22 7BU d   1      -6.548 -10.528 -21.977  0.00  0.00    -0.166 F 
ATOM     49  F23 7BU d   1      -6.938  -8.399 -22.153  0.00  0.00    -0.166 F 
ENDBRANCH   6  46
TORSDOF 4
