REMARK WARNING: 32 MAX_TORS EXCEEDED!!!
REMARK  34 active torsions:
REMARK  status: ('A' for Active; 'I' for Inactive)
REMARK    1  A    between atoms: N_1  and  CA_2 
REMARK    2  A    between atoms: CA_8  and  CB_11 
REMARK    3  A    between atoms: CB_11  and  CG_12 
REMARK    4  A    between atoms: CG_12  and  CD_13 
REMARK       I    between atoms: CD_13  and  NE2_15 
REMARK    5  A    between atoms: CA_17  and  CB_20 
REMARK    6  A    between atoms: CB_20  and  CG_21 
REMARK    7  A    between atoms: CA_28  and  CB_31 
REMARK    8  A    between atoms: CB_31  and  CG_32 
REMARK    9  A    between atoms: CA_36  and  CB_39 
REMARK   10  A    between atoms: CB_39  and  CG_40 
REMARK   11  A    between atoms: CG_40  and  CD_41 
REMARK       I    between atoms: CD_41  and  NE2_43 
REMARK   12  A    between atoms: CA_45  and  CB_48 
REMARK   13  A    between atoms: CB_48  and  OG_49 
REMARK   14  A    between atoms: CA_51  and  CB_54 
REMARK   15  A    between atoms: CB_54  and  OG1_55 
REMARK   16  A    between atoms: CB_54  and  CG2_56 
REMARK   17  A    between atoms: CA_58  and  CB_61 
REMARK   18  A    between atoms: CB_61  and  CG_62 
REMARK   19  A    between atoms: CG_62  and  CD_63 
REMARK   20  A    between atoms: CD_63  and  NE_64 
REMARK       I    between atoms: NE_64  and  CZ_65 
REMARK       I    between atoms: CZ_65  and  NH1_66 
REMARK       I    between atoms: CZ_65  and  NH2_67 
REMARK   21  A    between atoms: CA_69  and  CB_72 
REMARK   22  A    between atoms: CB_72  and  CG_73 
REMARK   23  A    between atoms: CG_73  and  CD_74 
REMARK   24  A    between atoms: CD_74  and  NE_75 
REMARK       I    between atoms: NE_75  and  CZ_76 
REMARK       I    between atoms: CZ_76  and  NH1_77 
REMARK   25  A    between atoms: CA_80  and  CB_83 
REMARK   26  A    between atoms: CB_83  and  CG_84 
REMARK   27  A    between atoms: CG_84  and  CD1_85 
REMARK   28  A    between atoms: CG_84  and  CD2_86 
REMARK   29  A    between atoms: CA_88  and  CB_91 
REMARK   30  A    between atoms: CB_91  and  CG_92 
REMARK   31  A    between atoms: CG_92  and  CD_93 
REMARK   32  A    between atoms: CD_93  and  CE_94 
REMARK   33  A    between atoms: CE_94  and  NZ_95 
REMARK   34  A    between atoms: CA_97  and  C_98 
ROOT
ATOM      1  CA  CYS d   1     -15.052   7.403 -26.641  0.00  0.00     0.184 C 
ATOM      2  C   CYS d   1     -14.814   5.957 -26.218  0.00  0.00     0.249 C 
ATOM      3  O   CYS d   1     -15.510   5.422 -25.354  0.00  0.00    -0.271 OA
ATOM      4  CB  CYS d   1     -13.876   8.266 -26.169  0.00  0.00     0.021 C 
ATOM      5  SG  CYS d   1     -13.939  10.013 -26.676  0.00  0.00    -0.095 SA
ATOM      6  N   CYS d   1     -13.080   8.217 -30.682  0.00  0.00    -0.344 N 
ATOM      7  CA  CYS d   1     -14.372   8.805 -30.350  0.00  0.00     0.105 C 
ATOM      8  CB  CYS d   1     -14.156  10.168 -29.704  0.00  0.00     0.015 C 
ATOM      9  SG  CYS d   1     -12.881  10.148 -28.404  0.00  0.00    -0.095 SA
ATOM     10  H4  CYS d   1     -15.091   7.438 -27.740  0.00  0.00     0.100 H 
ATOM     11  H5  CYS d   1     -12.951   7.829 -26.572  0.00  0.00     0.054 H 
ATOM     12  H6  CYS d   1     -13.850   8.232 -25.070  0.00  0.00     0.054 H 
ATOM     13  H98 CYS d   1     -12.495   8.652 -31.366  0.00  0.00     0.163 HD
ATOM     14  H99 CYS d   1     -14.862   8.149 -29.615  0.00  0.00     0.090 H 
ATOM     15 0H10 CYS d   1     -15.106  10.498 -29.258  0.00  0.00     0.054 H 
ATOM     16 1H10 CYS d   1     -13.850  10.881 -30.484  0.00  0.00     0.054 H 
ATOM     17  N   GLN d   1     -13.810   5.340 -26.838  0.00  0.00    -0.346 N 
ATOM     18  CA  GLN d   1     -13.428   3.971 -26.534  0.00  0.00     0.090 C 
ATOM     19  C   GLN d   1     -11.931   3.810 -26.762  0.00  0.00     0.241 C 
ATOM     20  O   GLN d   1     -11.407   4.271 -27.778  0.00  0.00    -0.271 OA
ATOM     21  N   GLN d   1      -6.498  -0.122 -28.822  0.00  0.00    -0.346 N 
ATOM     22  CA  GLN d   1      -5.203  -0.685 -28.451  0.00  0.00     0.090 C 
ATOM     23  C   GLN d   1      -4.153  -0.552 -29.545  0.00  0.00     0.241 C 
ATOM     24  O   GLN d   1      -2.970  -0.762 -29.262  0.00  0.00    -0.271 OA
ATOM     25  H7  GLN d   1     -13.300   5.837 -27.539  0.00  0.00     0.163 HD
ATOM     26  H8  GLN d   1     -13.651   3.761 -25.477  0.00  0.00     0.087 H 
ATOM     27  H28 GLN d   1      -7.267  -0.722 -29.043  0.00  0.00     0.163 HD
ATOM     28  H29 GLN d   1      -4.842  -0.130 -27.573  0.00  0.00     0.087 H 
ATOM     29  N   PHE d   1     -11.248   3.166 -25.819  0.00  0.00    -0.346 N 
ATOM     30  CA  PHE d   1      -9.808   2.978 -25.945  0.00  0.00     0.093 C 
ATOM     31  C   PHE d   1      -9.487   2.064 -27.122  0.00  0.00     0.241 C 
ATOM     32  O   PHE d   1     -10.135   1.035 -27.327  0.00  0.00    -0.271 OA
ATOM     33  H15 PHE d   1     -11.726   2.808 -25.017  0.00  0.00     0.163 HD
ATOM     34  H16 PHE d   1      -9.343   3.958 -26.125  0.00  0.00     0.088 H 
ATOM     35  N   ASP d   1      -8.454   2.436 -27.877  0.00  0.00    -0.345 N 
ATOM     36  CA  ASP d   1      -8.044   1.748 -29.098  0.00  0.00     0.098 C 
ATOM     37  C   ASP d   1      -6.641   1.207 -28.862  0.00  0.00     0.241 C 
ATOM     38  O   ASP d   1      -5.693   1.984 -28.727  0.00  0.00    -0.271 OA
ATOM     39  H24 ASP d   1      -7.927   3.236 -27.590  0.00  0.00     0.163 HD
ATOM     40  H25 ASP d   1      -8.727   0.910 -29.301  0.00  0.00     0.088 H 
ATOM     41  N   SER d   1      -4.544  -0.207 -30.774  0.00  0.00    -0.344 N 
ATOM     42  CA  SER d   1      -3.567  -0.033 -31.844  0.00  0.00     0.109 C 
ATOM     43  C   SER d   1      -2.822   1.287 -31.730  0.00  0.00     0.243 C 
ATOM     44  O   SER d   1      -1.670   1.385 -32.169  0.00  0.00    -0.271 OA
ATOM     45  H36 SER d   1      -5.516  -0.066 -30.963  0.00  0.00     0.163 HD
ATOM     46  H37 SER d   1      -2.833  -0.849 -31.771  0.00  0.00     0.090 H 
ATOM     47  N   THR d   1      -3.460   2.308 -31.156  0.00  0.00    -0.344 N 
ATOM     48  CA  THR d   1      -2.848   3.611 -30.984  0.00  0.00     0.113 C 
ATOM     49  C   THR d   1      -2.617   3.965 -29.525  0.00  0.00     0.243 C 
ATOM     50  O   THR d   1      -1.944   4.963 -29.250  0.00  0.00    -0.271 OA
ATOM     51  H41 THR d   1      -4.396   2.170 -30.832  0.00  0.00     0.163 HD
ATOM     52  H42 THR d   1      -1.874   3.598 -31.495  0.00  0.00     0.091 H 
ATOM     53  N   ARG d   1      -3.179   3.187 -28.596  0.00  0.00    -0.346 N 
ATOM     54  CA  ARG d   1      -3.247   3.535 -27.172  0.00  0.00     0.089 C 
ATOM     55  C   ARG d   1      -3.921   4.884 -26.934  0.00  0.00     0.241 C 
ATOM     56  O   ARG d   1      -3.622   5.588 -25.968  0.00  0.00    -0.271 OA
ATOM     57  N   ARG d   1      -4.874   5.244 -27.782  0.00  0.00    -0.346 N 
ATOM     58  CA  ARG d   1      -5.597   6.493 -27.641  0.00  0.00     0.089 C 
ATOM     59  C   ARG d   1      -7.090   6.217 -27.594  0.00  0.00     0.241 C 
ATOM     60  O   ARG d   1      -7.579   5.209 -28.112  0.00  0.00    -0.271 OA
ATOM     61  H48 ARG d   1      -3.576   2.317 -28.888  0.00  0.00     0.163 HD
ATOM     62  H49 ARG d   1      -3.866   2.770 -26.680  0.00  0.00     0.087 H 
ATOM     63  H61 ARG d   1      -5.101   4.636 -28.542  0.00  0.00     0.163 HD
ATOM     64  H62 ARG d   1      -5.292   6.968 -26.697  0.00  0.00     0.087 H 
ATOM     65  N   LEU d   1      -7.803   7.135 -26.960  0.00  0.00    -0.346 N 
ATOM     66  CA  LEU d   1      -9.252   7.126 -27.013  0.00  0.00     0.089 C 
ATOM     67  C   LEU d   1      -9.705   7.399 -28.438  0.00  0.00     0.241 C 
ATOM     68  O   LEU d   1      -9.224   8.335 -29.085  0.00  0.00    -0.271 OA
ATOM     69  H74 LEU d   1      -7.335   7.846 -26.436  0.00  0.00     0.163 HD
ATOM     70  H75 LEU d   1      -9.616   6.134 -26.706  0.00  0.00     0.087 H 
ATOM     71  N   LYS d   1     -10.627   6.579 -28.925  0.00  0.00    -0.346 N 
ATOM     72  CA  LYS d   1     -11.215   6.731 -30.252  0.00  0.00     0.089 C 
ATOM     73  C   LYS d   1     -12.679   7.108 -30.080  0.00  0.00     0.241 C 
ATOM     74  O   LYS d   1     -13.429   6.404 -29.399  0.00  0.00    -0.271 OA
ATOM     75  H85 LYS d   1     -10.935   5.818 -28.354  0.00  0.00     0.163 HD
ATOM     76  H86 LYS d   1     -10.698   7.542 -30.785  0.00  0.00     0.087 H 
ENDROOT
BRANCH  54  77
ATOM     77  CB  ARG d   1      -1.862   3.492 -26.522  0.00  0.00    -0.036 C 
ATOM     78  H50 ARG d   1      -1.978   3.528 -25.429  0.00  0.00     0.036 H 
ATOM     79  H51 ARG d   1      -1.282   4.364 -26.858  0.00  0.00     0.036 H 
BRANCH  77  80
ATOM     80  CG  ARG d   1      -1.107   2.214 -26.902  0.00  0.00    -0.048 C 
ATOM     81  H52 ARG d   1      -0.464   2.420 -27.771  0.00  0.00     0.035 H 
ATOM     82  H53 ARG d   1      -1.833   1.430 -27.161  0.00  0.00     0.035 H 
BRANCH  80  83
ATOM     83  CD  ARG d   1      -0.258   1.739 -25.766  0.00  0.00     0.009 C 
ATOM     84  H54 ARG d   1      -0.916   1.469 -24.927  0.00  0.00     0.064 H 
ATOM     85  H55 ARG d   1       0.409   2.559 -25.461  0.00  0.00     0.064 H 
BRANCH  83  86
ATOM     86  NE  ARG d   1       0.559   0.579 -26.107  0.00  0.00    -0.227 N 
ATOM     87  CZ  ARG d   1       1.635   0.235 -25.411  0.00  0.00     0.665 C 
ATOM     88  NH1 ARG d   1       1.987   0.973 -24.361  0.00  0.00    -0.235 N 
ATOM     89  NH2 ARG d   1       2.350  -0.823 -25.758  0.00  0.00    -0.235 N 
ATOM     90  H57 ARG d   1       2.820   0.720 -23.810  0.00  0.00     0.174 HD
ATOM     91  H58 ARG d   1       1.427   1.797 -24.100  0.00  0.00     0.174 HD
ATOM     92  H59 ARG d   1       2.071  -1.389 -26.572  0.00  0.00     0.174 HD
ATOM     93  H60 ARG d   1       3.186  -1.081 -25.214  0.00  0.00     0.174 HD
ATOM     94  H56 ARG d   1       0.290   0.005 -26.919  0.00  0.00     0.177 HD
ENDBRANCH  83  86
ENDBRANCH  80  83
ENDBRANCH  77  80
ENDBRANCH  54  77
BRANCH  48  95
ATOM     95  CB  THR d   1      -3.725   4.698 -31.619  0.00  0.00     0.060 C 
ATOM     96  H43 THR d   1      -3.275   5.683 -31.428  0.00  0.00     0.086 H 
BRANCH  95  97
ATOM     97  OG1 THR d   1      -5.028   4.646 -31.033  0.00  0.00    -0.393 OA
ATOM     98  H44 THR d   1      -5.576   5.317 -31.422  0.00  0.00     0.210 HD
ENDBRANCH  95  97
BRANCH  95  99
ATOM     99  CG2 THR d   1      -3.848   4.486 -33.125  0.00  0.00    -0.050 C 
ATOM    100  H45 THR d   1      -4.480   5.276 -33.556  0.00  0.00     0.031 H 
ATOM    101  H46 THR d   1      -4.304   3.504 -33.321  0.00  0.00     0.031 H 
ATOM    102  H47 THR d   1      -2.849   4.525 -33.584  0.00  0.00     0.031 H 
ENDBRANCH  95  99
ENDBRANCH  48  95
BRANCH  58 103
ATOM    103  CB  ARG d   1      -5.292   7.465 -28.801  0.00  0.00    -0.036 C 
ATOM    104  H63 ARG d   1      -5.904   8.369 -28.666  0.00  0.00     0.036 H 
ATOM    105  H64 ARG d   1      -5.566   6.974 -29.746  0.00  0.00     0.036 H 
BRANCH 103 106
ATOM    106  CG  ARG d   1      -3.827   7.884 -28.884  0.00  0.00    -0.048 C 
ATOM    107  H65 ARG d   1      -3.688   8.512 -29.776  0.00  0.00     0.035 H 
ATOM    108  H66 ARG d   1      -3.204   6.981 -28.970  0.00  0.00     0.035 H 
BRANCH 106 109
ATOM    109  CD  ARG d   1      -3.382   8.677 -27.645  0.00  0.00     0.009 C 
ATOM    110  H67 ARG d   1      -2.385   9.101 -27.837  0.00  0.00     0.064 H 
ATOM    111  H68 ARG d   1      -3.329   7.991 -26.787  0.00  0.00     0.064 H 
BRANCH 109 112
ATOM    112  NE  ARG d   1      -4.303   9.769 -27.318  0.00  0.00    -0.227 N 
ATOM    113  CZ  ARG d   1      -4.347  10.936 -27.948  0.00  0.00     0.665 C 
ATOM    114  NH1 ARG d   1      -3.515  11.191 -28.958  0.00  0.00    -0.235 N 
ATOM    115  NH2 ARG d   1      -5.238  11.849 -27.575  0.00  0.00    -0.235 N 
ATOM    116  H70 ARG d   1      -3.556  12.099 -29.442  0.00  0.00     0.174 HD
ATOM    117  H71 ARG d   1      -2.832  10.480 -29.255  0.00  0.00     0.174 HD
ATOM    118  H72 ARG d   1      -5.881  11.652 -26.795  0.00  0.00     0.174 HD
ATOM    119  H73 ARG d   1      -5.285  12.753 -28.066  0.00  0.00     0.174 HD
ATOM    120  H69 ARG d   1      -4.964   9.620 -26.543  0.00  0.00     0.177 HD
ENDBRANCH 109 112
ENDBRANCH 106 109
ENDBRANCH 103 106
ENDBRANCH  58 103
BRANCH  42 121
ATOM    121  CB  SER d   1      -4.254  -0.118 -33.207  0.00  0.00     0.044 C 
ATOM    122  H38 SER d   1      -3.490  -0.115 -33.999  0.00  0.00     0.077 H 
ATOM    123  H39 SER d   1      -4.917   0.751 -33.334  0.00  0.00     0.077 H 
BRANCH 121 124
ATOM    124  OG  SER d   1      -5.017  -1.303 -33.300  0.00  0.00    -0.398 OA
ATOM    125  H40 SER d   1      -4.446  -2.055 -33.193  0.00  0.00     0.209 HD
ENDBRANCH 121 124
ENDBRANCH  42 121
BRANCH  66 126
ATOM    126  CB  LEU d   1      -9.820   8.175 -26.059  0.00  0.00    -0.035 C 
ATOM    127  H76 LEU d   1     -10.903   8.246 -26.238  0.00  0.00     0.037 H 
ATOM    128  H77 LEU d   1      -9.345   9.139 -26.292  0.00  0.00     0.037 H 
BRANCH 126 129
ATOM    129  CG  LEU d   1      -9.603   7.888 -24.567  0.00  0.00    -0.059 C 
ATOM    130  H78 LEU d   1      -8.541   7.647 -24.410  0.00  0.00     0.038 H 
BRANCH 129 131
ATOM    131  CD1 LEU d   1      -9.955   9.103 -23.692  0.00  0.00    -0.073 C 
ATOM    132  H79 LEU d   1      -9.786   8.854 -22.634  0.00  0.00     0.028 H 
ATOM    133  H80 LEU d   1     -11.012   9.369 -23.841  0.00  0.00     0.028 H 
ATOM    134  H81 LEU d   1      -9.319   9.955 -23.975  0.00  0.00     0.028 H 
ENDBRANCH 129 131
BRANCH 129 135
ATOM    135  CD2 LEU d   1     -10.440   6.691 -24.160  0.00  0.00    -0.073 C 
ATOM    136  H82 LEU d   1     -10.179   5.829 -24.792  0.00  0.00     0.028 H 
ATOM    137  H83 LEU d   1     -11.506   6.929 -24.286  0.00  0.00     0.028 H 
ATOM    138  H84 LEU d   1     -10.241   6.446 -23.106  0.00  0.00     0.028 H 
ENDBRANCH 129 135
ENDBRANCH 126 129
ENDBRANCH  66 126
BRANCH  22 139
ATOM    139  CB  GLN d   1      -5.347  -2.158 -28.059  0.00  0.00    -0.030 C 
ATOM    140  H30 GLN d   1      -6.018  -2.218 -27.189  0.00  0.00     0.037 H 
ATOM    141  H31 GLN d   1      -4.353  -2.539 -27.782  0.00  0.00     0.037 H 
BRANCH 139 142
ATOM    142  CG  GLN d   1      -5.903  -3.040 -29.144  0.00  0.00     0.011 C 
ATOM    143  H32 GLN d   1      -5.432  -4.031 -29.070  0.00  0.00     0.047 H 
ATOM    144  H33 GLN d   1      -5.665  -2.592 -30.120  0.00  0.00     0.047 H 
BRANCH 142 145
ATOM    145  CD  GLN d   1      -7.419  -3.208 -29.038  0.00  0.00     0.215 C 
ATOM    146  OE1 GLN d   1      -8.156  -2.234 -28.861  0.00  0.00    -0.274 OA
ATOM    147  NE2 GLN d   1      -7.885  -4.449 -29.135  0.00  0.00    -0.370 N 
ATOM    148  H34 GLN d   1      -8.868  -4.620 -29.073  0.00  0.00     0.159 HD
ATOM    149  H35 GLN d   1      -7.252  -5.212 -29.270  0.00  0.00     0.159 HD
ENDBRANCH 142 145
ENDBRANCH 139 142
ENDBRANCH  22 139
BRANCH  72 150
ATOM    150  CB  LYS d   1     -11.056   5.441 -31.060  0.00  0.00    -0.038 C 
ATOM    151  H87 LYS d   1     -11.655   4.657 -30.574  0.00  0.00     0.036 H 
ATOM    152  H88 LYS d   1      -9.994   5.155 -31.042  0.00  0.00     0.036 H 
BRANCH 150 153
ATOM    153  CG  LYS d   1     -11.493   5.539 -32.507  0.00  0.00    -0.061 C 
ATOM    154  H89 LYS d   1     -10.932   6.345 -33.002  0.00  0.00     0.033 H 
ATOM    155  H90 LYS d   1     -12.569   5.764 -32.547  0.00  0.00     0.033 H 
BRANCH 153 156
ATOM    156  CD  LYS d   1     -11.228   4.229 -33.228  0.00  0.00    -0.043 C 
ATOM    157  H91 LYS d   1     -10.143   4.047 -33.257  0.00  0.00     0.035 H 
ATOM    158  H92 LYS d   1     -11.616   4.299 -34.255  0.00  0.00     0.035 H 
BRANCH 156 159
ATOM    159  CE  LYS d   1     -11.909   3.066 -32.516  0.00  0.00     0.080 C 
ATOM    160  H93 LYS d   1     -11.593   3.063 -31.462  0.00  0.00     0.075 H 
ATOM    161  H94 LYS d   1     -11.597   2.126 -32.995  0.00  0.00     0.075 H 
BRANCH 159 162
ATOM    162  NZ  LYS d   1     -13.397   3.162 -32.571  0.00  0.00    -0.079 N 
ATOM    163  H95 LYS d   1     -13.803   2.375 -32.089  0.00  0.00     0.274 HD
ATOM    164  H96 LYS d   1     -13.699   3.159 -33.533  0.00  0.00     0.274 HD
ATOM    165  H97 LYS d   1     -13.695   4.017 -32.128  0.00  0.00     0.274 HD
ENDBRANCH 159 162
ENDBRANCH 156 159
ENDBRANCH 153 156
ENDBRANCH 150 153
ENDBRANCH  72 150
BRANCH  36 166
ATOM    166  CB  ASP d   1      -8.094   2.725 -30.278  0.00  0.00     0.043 C 
ATOM    167  H26 ASP d   1      -7.437   3.577 -30.051  0.00  0.00     0.052 H 
ATOM    168  H27 ASP d   1      -9.129   3.080 -30.392  0.00  0.00     0.052 H 
BRANCH 166 169
ATOM    169  CG  ASP d   1      -7.650   2.114 -31.594  0.00  0.00     0.175 C 
ATOM    170  OD1 ASP d   1      -7.095   0.998 -31.611  0.00  0.00    -0.648 OA
ATOM    171  OD2 ASP d   1      -7.867   2.787 -32.628  0.00  0.00    -0.648 OA
ENDBRANCH 166 169
ENDBRANCH  36 166
BRANCH   7 172
ATOM    172  C   CYS d   1     -15.299   8.920 -31.553  0.00  0.00     0.197 C 
ATOM    173  O   CYS d   1     -14.862   9.090 -32.691  0.00  0.00    -0.646 OA
ATOM    174  OXT CYS d   1     -16.518   8.845 -31.413  0.00  0.00    -0.646 OA
ENDBRANCH   7 172
BRANCH  30 175
ATOM    175  CB  PHE d   1      -9.230   2.392 -24.660  0.00  0.00    -0.014 C 
ATOM    176  H17 PHE d   1      -9.776   1.466 -24.425  0.00  0.00     0.043 H 
ATOM    177  H18 PHE d   1      -9.378   3.121 -23.850  0.00  0.00     0.043 H 
BRANCH 175 178
ATOM    178  CG  PHE d   1      -7.753   2.066 -24.745  0.00  0.00    -0.056 A 
ATOM    179  CD1 PHE d   1      -6.798   3.061 -24.584  0.00  0.00    -0.077 A 
ATOM    180  CE1 PHE d   1      -5.435   2.763 -24.634  0.00  0.00    -0.082 A 
ATOM    181  H19 PHE d   1      -7.115   4.084 -24.417  0.00  0.00     0.084 H 
ATOM    182  CZ  PHE d   1      -5.021   1.459 -24.859  0.00  0.00    -0.083 A 
ATOM    183  H21 PHE d   1      -4.702   3.550 -24.497  0.00  0.00     0.083 H 
ATOM    184  CE2 PHE d   1      -5.972   0.451 -25.018  0.00  0.00    -0.082 A 
ATOM    185  H23 PHE d   1      -3.964   1.224 -24.911  0.00  0.00     0.083 H 
ATOM    186  CD2 PHE d   1      -7.328   0.762 -24.953  0.00  0.00    -0.077 A 
ATOM    187  H22 PHE d   1      -5.657  -0.571 -25.192  0.00  0.00     0.083 H 
ATOM    188  H20 PHE d   1      -8.063  -0.027 -25.067  0.00  0.00     0.084 H 
ENDBRANCH 175 178
ENDBRANCH  30 175
BRANCH   1 189
ATOM    189  N   CYS d   1     -16.320   7.923 -26.130  0.00  0.00    -0.066 N 
ATOM    190  H1  CYS d   1     -16.438   8.878 -26.431  0.00  0.00     0.275 HD
ATOM    191  H2  CYS d   1     -16.317   7.887 -25.123  0.00  0.00     0.275 HD
ATOM    192  H3  CYS d   1     -17.080   7.363 -26.484  0.00  0.00     0.275 HD
ENDBRANCH   1 189
BRANCH  18 193
ATOM    193  CB  GLN d   1     -14.227   3.001 -27.404  0.00  0.00    -0.030 C 
ATOM    194  H9  GLN d   1     -14.223   3.384 -28.435  0.00  0.00     0.037 H 
ATOM    195  H10 GLN d   1     -15.260   2.975 -27.027  0.00  0.00     0.037 H 
BRANCH 193 196
ATOM    196  CG  GLN d   1     -13.704   1.598 -27.426  0.00  0.00     0.011 C 
ATOM    197  H11 GLN d   1     -13.402   1.312 -26.408  0.00  0.00     0.047 H 
ATOM    198  H12 GLN d   1     -12.831   1.551 -28.094  0.00  0.00     0.047 H 
BRANCH 196 199
ATOM    199  CD  GLN d   1     -14.753   0.629 -27.919  0.00  0.00     0.215 C 
ATOM    200  OE1 GLN d   1     -15.687   0.290 -27.192  0.00  0.00    -0.274 OA
ATOM    201  NE2 GLN d   1     -14.614   0.186 -29.164  0.00  0.00    -0.370 N 
ATOM    202  H13 GLN d   1     -15.279  -0.457 -29.543  0.00  0.00     0.159 HD
ATOM    203  H14 GLN d   1     -13.844   0.496 -29.722  0.00  0.00     0.159 HD
ENDBRANCH 196 199
ENDBRANCH 193 196
ENDBRANCH  18 193
TORSDOF 34
