REMARK  7 active torsions:
REMARK  status: ('A' for Active; 'I' for Inactive)
REMARK    1  A    between atoms: C1D_20  and  N9A_1 
REMARK    2  A    between atoms: C2A_8  and  N2A_9 
REMARK    3  A    between atoms: C5D_13  and  O5D_12 
REMARK    4  A    between atoms: O5D_12  and  PA_21 
REMARK    5  A    between atoms: C4D_14  and  C5D_13 
REMARK    6  A    between atoms: C3D_16  and  O3D_17 
REMARK    7  A    between atoms: C2D_18  and  O2D_19 
ROOT
ATOM      1  C4D GP3 d   1      37.339  65.412  29.669  0.00  0.00     0.089 C 
ATOM      2  O4D GP3 d   1      37.715  66.155  30.851  0.00  0.00    -0.353 OA
ATOM      3  C3D GP3 d   1      35.807  65.468  29.633  0.00  0.00     0.091 C 
ATOM      4  C2D GP3 d   1      35.443  65.515  31.129  0.00  0.00     0.105 C 
ATOM      5  C1D GP3 d   1      36.576  66.396  31.674  0.00  0.00     0.139 C 
ATOM      6  H8  GP3 d   1      37.661  64.365  29.767  0.00  0.00     0.090 H 
ATOM      7  H9  GP3 d   1      35.467  66.391  29.140  0.00  0.00     0.091 H 
ATOM      8  H11 GP3 d   1      34.461  65.987  31.277  0.00  0.00     0.093 H 
ATOM      9  H13 GP3 d   1      36.788  66.117  32.717  0.00  0.00     0.122 H 
ENDROOT
BRANCH   5  10
ATOM     10  N9A GP3 d   1      36.264  67.853  31.610  0.00  0.00    -0.295 N 
ATOM     11  C8A GP3 d   1      36.708  68.745  30.649  0.00  0.00     0.071 A 
ATOM     12  N7A GP3 d   1      36.284  69.986  30.825  0.00  0.00    -0.234 NA
ATOM     13  H1  GP3 d   1      37.350  68.451  29.820  0.00  0.00     0.144 H 
ATOM     14  C5A GP3 d   1      35.505  69.917  31.966  0.00  0.00     0.171 A 
ATOM     15  C6A GP3 d   1      34.726  70.925  32.663  0.00  0.00     0.292 A 
ATOM     16  C4A GP3 d   1      35.488  68.593  32.473  0.00  0.00     0.161 A 
ATOM     17  O6A GP3 d   1      34.543  72.106  32.326  0.00  0.00    -0.265 OA
ATOM     18  N1A GP3 d   1      34.084  70.405  33.775  0.00  0.00    -0.154 N 
ATOM     19  C2A GP3 d   1      34.137  69.088  34.203  0.00  0.00     0.680 A 
ATOM     20  H2  GP3 d   1      33.532  71.038  34.318  0.00  0.00     0.187 HD
ATOM     21  N3A GP3 d   1      34.828  68.128  33.562  0.00  0.00    -0.174 N 
ATOM     22  H5  GP3 d   1      34.853  67.144  33.866  0.00  0.00     0.186 HD
BRANCH  19  23
ATOM     23  N2A GP3 d   1      33.441  68.785  35.323  0.00  0.00    -0.234 N 
ATOM     24  H3  GP3 d   1      33.445  67.821  35.687  0.00  0.00     0.174 HD
ATOM     25  H4  GP3 d   1      32.907  69.518  35.812  0.00  0.00     0.174 HD
ENDBRANCH  19  23
ENDBRANCH   5  10
BRANCH   4  26
ATOM     26  O2D GP3 d   1      35.439  64.234  31.763  0.00  0.00    -0.388 OA
ATOM     27  H12 GP3 d   1      34.803  63.672  31.335  0.00  0.00     0.210 HD
ENDBRANCH   4  26
BRANCH   1  28
ATOM     28  C5D GP3 d   1      38.007  66.000  28.436  0.00  0.00     0.059 C 
ATOM     29  H6  GP3 d   1      37.767  65.365  27.570  0.00  0.00     0.079 H 
ATOM     30  H7  GP3 d   1      37.609  67.012  28.270  0.00  0.00     0.079 H 
BRANCH  28  31
ATOM     31  O5D GP3 d   1      39.445  66.084  28.562  0.00  0.00    -0.280 OA
BRANCH  31  32
ATOM     32  PA  GP3 d   1      40.331  66.570  27.237  0.00  0.00     0.422 P 
ATOM     33  O1A GP3 d   1      40.635  65.416  26.184  0.00  0.00    -0.617 OA
ATOM     34  O2A GP3 d   1      39.622  67.672  26.558  0.00  0.00    -0.617 OA
ATOM     35  O3A GP3 d   1      41.672  66.997  27.751  0.00  0.00    -0.617 OA
ENDBRANCH  31  32
ENDBRANCH  28  31
ENDBRANCH   1  28
BRANCH   3  36
ATOM     36  O3D GP3 d   1      35.264  64.358  28.913  0.00  0.00    -0.390 OA
ATOM     37  H10 GP3 d   1      34.316  64.419  28.907  0.00  0.00     0.210 HD
ENDBRANCH   3  36
TORSDOF 7
