REMARK  1 active torsions:
REMARK  status: ('A' for Active; 'I' for Inactive)
REMARK    1  A    between atoms: CA2_3  and  OA2_4 
ROOT
ATOM      1  CA1 0TR d   1      -6.446   1.198  16.590  0.00  0.00     0.204 A 
ATOM      2  OA1 0TR d   1      -7.357   0.328  16.599  0.00  0.00    -0.285 OA
ATOM      3  CA2 0TR d   1      -5.207   0.721  16.106  0.00  0.00     0.115 A 
ATOM      4  CA3 0TR d   1      -4.055   1.480  15.998  0.00  0.00    -0.047 A 
ATOM      5  CB3 0TR d   1      -3.839   2.818  16.317  0.00  0.00    -0.080 A 
ATOM      6  CA5 0TR d   1      -6.005   3.638  17.160  0.00  0.00    -0.079 A 
ATOM      7  CA6 0TR d   1      -6.756   2.474  17.040  0.00  0.00    -0.032 A 
ATOM      8  CAE 0TR d   1      -4.690   3.797  16.835  0.00  0.00    -0.083 A 
ATOM      9  H2  0TR d   1      -3.188   0.952  15.605  0.00  0.00     0.087 H 
ATOM     10  H3  0TR d   1      -2.824   3.163  16.129  0.00  0.00     0.083 H 
ATOM     11  H4  0TR d   1      -6.520   4.513  17.554  0.00  0.00     0.083 H 
ATOM     12  H5  0TR d   1      -7.790   2.585  17.362  0.00  0.00     0.089 H 
ATOM     13  H6  0TR d   1      -4.261   4.785  16.995  0.00  0.00     0.083 H 
ENDROOT
BRANCH   3  14
ATOM     14  OA2 0TR d   1      -5.241  -0.560  15.751  0.00  0.00    -0.357 OA
ATOM     15  H1  0TR d   1      -5.884  -0.679  15.062  0.00  0.00     0.218 HD
ENDBRANCH   3  14
TORSDOF 1
