REMARK  1 active torsions:
REMARK  status: ('A' for Active; 'I' for Inactive)
REMARK    1  A    between atoms: CA2_3  and  OA2_4 
ROOT
ATOM      1  CA1 MOL d   1      -6.211   1.421  15.670  0.00  0.00     0.204 A 
ATOM      2  OA1 MOL d   1      -7.018   0.622  16.216  0.00  0.00    -0.285 OA
ATOM      3  CA2 MOL d   1      -5.004   0.858  14.973  0.00  0.00     0.115 A 
ATOM      4  CA3 MOL d   1      -4.024   1.563  14.329  0.00  0.00    -0.047 A 
ATOM      5  CB3 MOL d   1      -3.792   2.939  14.096  0.00  0.00    -0.080 A 
ATOM      6  CA5 MOL d   1      -5.788   3.923  15.246  0.00  0.00    -0.079 A 
ATOM      7  CA6 MOL d   1      -6.508   2.804  15.759  0.00  0.00    -0.032 A 
ATOM      8  CAE MOL d   1      -4.579   4.013  14.504  0.00  0.00    -0.083 A 
ATOM      9  H2  MOL d   1      -3.253   0.924  13.902  0.00  0.00     0.087 H 
ATOM     10  H3  MOL d   1      -2.894   3.187  13.532  0.00  0.00     0.083 H 
ATOM     11  H4  MOL d   1      -6.249   4.885  15.463  0.00  0.00     0.083 H 
ATOM     12  H5  MOL d   1      -7.421   3.048  16.299  0.00  0.00     0.089 H 
ATOM     13  H6  MOL d   1      -4.238   5.010  14.230  0.00  0.00     0.083 H 
ENDROOT
BRANCH   3  14
ATOM     14  OA2 MOL d   1      -4.887  -0.467  14.990  0.00  0.00    -0.357 OA
ATOM     15  H1  MOL d   1      -5.643  -0.856  14.566  0.00  0.00     0.218 HD
ENDBRANCH   3  14
TORSDOF 1
