REMARK  2 active torsions:
REMARK  status: ('A' for Active; 'I' for Inactive)
REMARK    1  A    between atoms: SAH_1  and  CAF_2 
REMARK    2  A    between atoms: CAE_8  and  OAI_9 
ROOT
ATOM      1  CAF 7CZ d   1      -5.752   1.626  16.060  0.00  0.00     0.007 A 
ATOM      2  CAG 7CZ d   1      -6.241   2.938  16.388  0.00  0.00    -0.068 A 
ATOM      3  CAD 7CZ d   1      -6.103   4.217  15.763  0.00  0.00    -0.082 A 
ATOM      4  CAC 7CZ d   1      -5.426   4.499  14.633  0.00  0.00    -0.083 A 
ATOM      5  CAB 7CZ d   1      -4.748   3.617  13.875  0.00  0.00    -0.084 A 
ATOM      6  CAA 7CZ d   1      -4.539   2.247  13.996  0.00  0.00    -0.071 A 
ATOM      7  CAE 7CZ d   1      -4.969   1.381  14.937  0.00  0.00     0.083 A 
ATOM      8  H2  7CZ d   1      -6.838   2.963  17.298  0.00  0.00     0.085 H 
ATOM      9  H3  7CZ d   1      -6.599   5.053  16.254  0.00  0.00     0.083 H 
ATOM     10  H4  7CZ d   1      -5.427   5.537  14.302  0.00  0.00     0.083 H 
ATOM     11  H5  7CZ d   1      -4.273   4.060  13.001  0.00  0.00     0.083 H 
ATOM     12  H6  7CZ d   1      -3.933   1.804  13.207  0.00  0.00     0.081 H 
ATOM     13  H7  7CZ d   1      -4.076   1.605  15.538  0.00  0.00     0.097 H 
ENDROOT
BRANCH   7  14
ATOM     14  OAI 7CZ d   1      -4.568   0.108  14.730  0.00  0.00    -0.387 OA
ATOM     15  H8  7CZ d   1      -4.901  -0.196  13.893  0.00  0.00     0.210 HD
ENDBRANCH   7  14
BRANCH   1  16
ATOM     16  SAH 7CZ d   1      -6.122   0.298  17.057  0.00  0.00    -0.144 SA
ATOM     17  H1  7CZ d   1      -5.699  -0.534  16.677  0.00  0.00     0.107 HD
ENDBRANCH   1  16
TORSDOF 2
