REMARK  18 active torsions:
REMARK  status: ('A' for Active; 'I' for Inactive)
REMARK    1  A    between atoms: C32_1  and  C33_3 
REMARK       I    between atoms: N31_22  and  C32_1 
REMARK    2  A    between atoms: C33_3  and  C34_4 
REMARK    3  A    between atoms: C34_4  and  C35_5 
REMARK    4  A    between atoms: C02_12  and  C22_13 
REMARK       I    between atoms: N03_24  and  C02_12 
REMARK    5  A    between atoms: C22_13  and  C23_14 
REMARK    6  A    between atoms: C22_13  and  N31_22 
REMARK    7  A    between atoms: C23_14  and  C24_15 
REMARK       I    between atoms: C24_15  and  N25_16 
REMARK    8  A    between atoms: N25_16  and  C26_17 
REMARK    9  A    between atoms: N25_16  and  C28_19 
REMARK   10  A    between atoms: C26_17  and  C27_18 
REMARK   11  A    between atoms: C28_19  and  C29_20 
REMARK   12  A    between atoms: C19_28  and  O20_23 
REMARK   13  A    between atoms: O20_23  and  C21_29 
REMARK   14  A    between atoms: C04_25  and  N03_24 
REMARK   15  A    between atoms: C05_26  and  C04_25 
REMARK   16  A    between atoms: C04_25  and  C19_28 
REMARK       I    between atoms: N06_36  and  C05_26 
REMARK   17  A    between atoms: C07_37  and  N06_36 
REMARK   18  A    between atoms: C07_37  and  C08_38 
ROOT
ATOM      1  C22 7C7 d   1      72.810 -29.059 197.992  0.00  0.00     0.097 C 
ATOM      2  H10 7C7 d   1      72.808 -29.705 198.882  0.00  0.00     0.088 H 
ENDROOT
BRANCH   1   3
ATOM      3  C02 7C7 d   1      73.195 -29.894 196.704  0.00  0.00     0.241 C 
ATOM      4  O01 7C7 d   1      73.597 -29.303 195.713  0.00  0.00    -0.271 OA
ATOM      5  N03 7C7 d   1      73.087 -31.271 196.648  0.00  0.00    -0.344 N 
ATOM      6  H24 7C7 d   1      72.775 -31.728 197.481  0.00  0.00     0.163 HD
BRANCH   5   7
ATOM      7  C04 7C7 d   1      73.381 -32.133 195.500  0.00  0.00     0.109 C 
ATOM      8  H25 7C7 d   1      73.971 -31.579 194.756  0.00  0.00     0.090 H 
BRANCH   7   9
ATOM      9  C05 7C7 d   1      72.009 -32.553 194.878  0.00  0.00     0.242 C 
ATOM     10  O18 7C7 d   1      71.042 -32.616 195.631  0.00  0.00    -0.271 OA
ATOM     11  N06 7C7 d   1      71.825 -32.831 193.506  0.00  0.00    -0.355 N 
ATOM     12  H35 7C7 d   1      72.621 -32.764 192.904  0.00  0.00     0.162 HD
BRANCH  11  13
ATOM     13  C07 7C7 d   1      70.509 -33.222 192.891  0.00  0.00     0.020 C 
ATOM     14  H36 7C7 d   1      69.844 -33.531 193.711  0.00  0.00     0.071 H 
ATOM     15  H37 7C7 d   1      70.699 -34.080 192.229  0.00  0.00     0.071 H 
BRANCH  13  16
ATOM     16  C08 7C7 d   1      69.753 -32.160 192.061  0.00  0.00    -0.029 A 
ATOM     17  C13 7C7 d   1      69.009 -31.075 192.661  0.00  0.00    -0.018 A 
ATOM     18  C12 7C7 d   1      68.335 -30.136 191.852  0.00  0.00    -0.025 A 
ATOM     19  C14 7C7 d   1      68.907 -30.870 194.059  0.00  0.00    -0.072 A 
ATOM     20  C11 7C7 d   1      68.384 -30.270 190.441  0.00  0.00    -0.072 A 
ATOM     21  C17 7C7 d   1      67.610 -29.056 192.432  0.00  0.00    -0.072 A 
ATOM     22  C10 7C7 d   1      69.081 -31.296 189.881  0.00  0.00    -0.082 A 
ATOM     23  H31 7C7 d   1      67.867 -29.556 189.810  0.00  0.00     0.084 H 
ATOM     24  C09 7C7 d   1      69.763 -32.238 190.694  0.00  0.00    -0.074 A 
ATOM     25  H32 7C7 d   1      69.115 -31.395 188.802  0.00  0.00     0.083 H 
ATOM     26  H38 7C7 d   1      70.309 -33.044 190.218  0.00  0.00     0.084 H 
ATOM     27  C16 7C7 d   1      67.539 -28.901 193.786  0.00  0.00    -0.082 A 
ATOM     28  H40 7C7 d   1      67.106 -28.345 191.787  0.00  0.00     0.084 H 
ATOM     29  C15 7C7 d   1      68.206 -29.830 194.606  0.00  0.00    -0.082 A 
ATOM     30  H39 7C7 d   1      66.981 -28.080 194.221  0.00  0.00     0.083 H 
ATOM     31  H34 7C7 d   1      68.164 -29.720 195.684  0.00  0.00     0.083 H 
ATOM     32  H33 7C7 d   1      69.405 -31.567 194.724  0.00  0.00     0.084 H 
ENDBRANCH  13  16
ENDBRANCH  11  13
ENDBRANCH   7   9
BRANCH   7  33
ATOM     33  C19 7C7 d   1      74.187 -33.375 195.967  0.00  0.00     0.046 C 
ATOM     34  H26 7C7 d   1      74.573 -33.206 196.983  0.00  0.00     0.078 H 
ATOM     35  H27 7C7 d   1      73.536 -34.262 195.965  0.00  0.00     0.078 H 
BRANCH  33  36
ATOM     36  O20 7C7 d   1      75.263 -33.572 195.076  0.00  0.00    -0.393 OA
BRANCH  36  37
ATOM     37  C21 7C7 d   1      75.042 -34.636 194.160  0.00  0.00     0.004 C 
ATOM     38  H28 7C7 d   1      75.914 -34.736 193.497  0.00  0.00     0.066 H 
ATOM     39  H29 7C7 d   1      74.147 -34.422 193.558  0.00  0.00     0.066 H 
ATOM     40  H30 7C7 d   1      74.894 -35.574 194.716  0.00  0.00     0.066 H 
ENDBRANCH  36  37
ENDBRANCH  33  36
ENDBRANCH   7  33
ENDBRANCH   5   7
ENDBRANCH   1   3
BRANCH   1  41
ATOM     41  C23 7C7 d   1      71.347 -28.544 197.730  0.00  0.00     0.036 C 
ATOM     42  H11 7C7 d   1      70.762 -29.417 197.405  0.00  0.00     0.051 H 
ATOM     43  H12 7C7 d   1      71.414 -27.820 196.904  0.00  0.00     0.051 H 
BRANCH  41  44
ATOM     44  C24 7C7 d   1      70.542 -27.871 198.828  0.00  0.00     0.222 C 
ATOM     45  N25 7C7 d   1      69.699 -26.759 198.609  0.00  0.00    -0.353 N 
ATOM     46  O30 7C7 d   1      70.617 -28.310 199.978  0.00  0.00    -0.273 OA
BRANCH  45  47
ATOM     47  C26 7C7 d   1      68.906 -26.121 199.674  0.00  0.00    -0.006 C 
ATOM     48  H13 7C7 d   1      68.517 -26.911 200.333  0.00  0.00     0.063 H 
ATOM     49  H14 7C7 d   1      68.066 -25.587 199.205  0.00  0.00     0.063 H 
BRANCH  47  50
ATOM     50  C27 7C7 d   1      69.687 -25.125 200.530  0.00  0.00    -0.061 C 
ATOM     51  H15 7C7 d   1      69.022 -24.699 201.296  0.00  0.00     0.029 H 
ATOM     52  H16 7C7 d   1      70.075 -24.318 199.891  0.00  0.00     0.029 H 
ATOM     53  H17 7C7 d   1      70.526 -25.641 201.019  0.00  0.00     0.029 H 
ENDBRANCH  47  50
ENDBRANCH  45  47
BRANCH  45  54
ATOM     54  C28 7C7 d   1      69.540 -26.162 197.257  0.00  0.00    -0.006 C 
ATOM     55  H18 7C7 d   1      70.470 -26.314 196.689  0.00  0.00     0.063 H 
ATOM     56  H19 7C7 d   1      69.348 -25.084 197.364  0.00  0.00     0.063 H 
BRANCH  54  57
ATOM     57  C29 7C7 d   1      68.377 -26.799 196.485  0.00  0.00    -0.061 C 
ATOM     58  H20 7C7 d   1      68.295 -26.330 195.493  0.00  0.00     0.029 H 
ATOM     59  H21 7C7 d   1      67.441 -26.647 197.042  0.00  0.00     0.029 H 
ATOM     60  H22 7C7 d   1      68.562 -27.877 196.367  0.00  0.00     0.029 H 
ENDBRANCH  54  57
ENDBRANCH  45  54
ENDBRANCH  41  44
ENDBRANCH   1  41
BRANCH   1  61
ATOM     61  N31 7C7 d   1      73.791 -28.040 198.178  0.00  0.00    -0.347 N 
ATOM     62  C32 7C7 d   1      75.130 -28.241 198.469  0.00  0.00     0.218 C 
ATOM     63  O41 7C7 d   1      75.524 -29.388 198.596  0.00  0.00    -0.274 OA
ATOM     64  H23 7C7 d   1      73.483 -27.093 198.090  0.00  0.00     0.163 HD
BRANCH  62  65
ATOM     65  C33 7C7 d   1      76.059 -27.043 198.636  0.00  0.00     0.013 C 
ATOM     66  H1  7C7 d   1      76.531 -27.123 199.627  0.00  0.00     0.047 H 
ATOM     67  H2  7C7 d   1      75.441 -26.134 198.597  0.00  0.00     0.047 H 
BRANCH  65  68
ATOM     68  C34 7C7 d   1      77.186 -26.886 197.594  0.00  0.00    -0.033 C 
ATOM     69  H3  7C7 d   1      76.754 -26.455 196.679  0.00  0.00     0.040 H 
ATOM     70  H4  7C7 d   1      77.594 -27.883 197.372  0.00  0.00     0.040 H 
BRANCH  68  71
ATOM     71  C35 7C7 d   1      78.317 -26.000 198.048  0.00  0.00    -0.058 A 
ATOM     72  C36 7C7 d   1      78.601 -24.836 197.345  0.00  0.00    -0.077 A 
ATOM     73  C37 7C7 d   1      79.627 -23.981 197.719  0.00  0.00    -0.082 A 
ATOM     74  H5  7C7 d   1      78.002 -24.588 196.476  0.00  0.00     0.084 H 
ATOM     75  C38 7C7 d   1      80.411 -24.268 198.824  0.00  0.00    -0.083 A 
ATOM     76  H6  7C7 d   1      79.816 -23.082 197.143  0.00  0.00     0.083 H 
ATOM     77  C39 7C7 d   1      80.146 -25.420 199.545  0.00  0.00    -0.082 A 
ATOM     78  H7  7C7 d   1      81.216 -23.604 199.119  0.00  0.00     0.083 H 
ATOM     79  C40 7C7 d   1      79.114 -26.271 199.161  0.00  0.00    -0.077 A 
ATOM     80  H8  7C7 d   1      80.747 -25.661 200.415  0.00  0.00     0.083 H 
ATOM     81  H9  7C7 d   1      78.924 -27.167 199.741  0.00  0.00     0.084 H 
ENDBRANCH  68  71
ENDBRANCH  65  68
ENDBRANCH  62  65
ENDBRANCH   1  61
TORSDOF 18
