REMARK  4 active torsions:
REMARK  status: ('A' for Active; 'I' for Inactive)
REMARK    1  A    between atoms: N03_9  and  S02_8 
REMARK    2  A    between atoms: S02_8  and  C16_19 
REMARK    3  A    between atoms: C04_10  and  N03_9 
REMARK    4  A    between atoms: N07_13  and  C06_12 
ROOT
ATOM      1  C13 7CJ d   1      50.970  -6.528  -1.624  0.00  0.00    -0.057 A 
ATOM      2  C15 7CJ d   1      49.820  -8.338  -2.790  0.00  0.00    -0.057 A 
ATOM      3  C04 7CJ d   1      48.676  -8.151  -1.988  0.00  0.00     0.044 A 
ATOM      4  C05 7CJ d   1      48.711  -7.148  -1.009  0.00  0.00    -0.031 A 
ATOM      5  C06 7CJ d   1      49.837  -6.319  -0.802  0.00  0.00     0.039 A 
ATOM      6  C14 7CJ d   1      50.969  -7.533  -2.608  0.00  0.00    -0.079 A 
ATOM      7  H3  7CJ d   1      51.849  -5.907  -1.494  0.00  0.00     0.086 H 
ATOM      8  H4  7CJ d   1      49.819  -9.107  -3.554  0.00  0.00     0.086 H 
ATOM      9  H8  7CJ d   1      47.837  -7.002  -0.384  0.00  0.00     0.090 H 
ATOM     10  H13 7CJ d   1      51.846  -7.690  -3.225  0.00  0.00     0.083 H 
ENDROOT
BRANCH   3  11
ATOM     11  N03 7CJ d   1      47.534  -8.911  -2.048  0.00  0.00    -0.281 N 
ATOM     12  H7  7CJ d   1      47.628  -9.897  -1.913  0.00  0.00     0.179 HD
BRANCH  11  13
ATOM     13  S02 7CJ d   1      45.941  -8.290  -2.341  0.00  0.00     0.263 S 
ATOM     14  O01 7CJ d   1      45.502  -7.420  -1.055  0.00  0.00    -0.200 OA
ATOM     15  O23 7CJ d   1      44.915  -9.473  -2.665  0.00  0.00    -0.200 OA
BRANCH  13  16
ATOM     16  C16 7CJ d   1      46.038  -7.248  -3.751  0.00  0.00     0.082 A 
ATOM     17  C17 7CJ d   1      46.461  -7.773  -4.992  0.00  0.00    -0.060 A 
ATOM     18  C18 7CJ d   1      46.542  -6.929  -6.116  0.00  0.00    -0.079 A 
ATOM     19  H5  7CJ d   1      46.722  -8.822  -5.079  0.00  0.00     0.085 H 
ATOM     20  C19 7CJ d   1      46.196  -5.574  -5.981  0.00  0.00    -0.046 A 
ATOM     21  H14 7CJ d   1      46.867  -7.320  -7.073  0.00  0.00     0.083 H 
ATOM     22  C20 7CJ d   1      45.782  -5.077  -4.730  0.00  0.00     0.117 A 
ATOM     23  H15 7CJ d   1      46.248  -4.912  -6.838  0.00  0.00     0.088 H 
ATOM     24  C22 7CJ d   1      45.701  -5.902  -3.611  0.00  0.00    -0.023 A 
ATOM     25  F21 7CJ d   1      45.454  -3.842  -4.582  0.00  0.00    -0.206 F 
ATOM     26  H6  7CJ d   1      45.383  -5.507  -2.653  0.00  0.00     0.090 H 
ENDBRANCH  13  16
ENDBRANCH  11  13
ENDBRANCH   3  11
BRANCH   5  27
ATOM     27  N07 7CJ d   1      49.750  -5.343   0.176  0.00  0.00    -0.318 N 
ATOM     28  C08 7CJ d   1      48.525  -5.104   0.929  0.00  0.00     0.003 A 
ATOM     29  C09 7CJ d   1      48.833  -3.931   1.880  0.00  0.00    -0.042 A 
ATOM     30  H9  7CJ d   1      48.249  -6.000   1.504  0.00  0.00     0.065 H 
ATOM     31  H10 7CJ d   1      47.703  -4.838   0.248  0.00  0.00     0.065 H 
ATOM     32  C10 7CJ d   1      50.312  -3.575   1.643  0.00  0.00     0.011 A 
ATOM     33  H11 7CJ d   1      48.190  -3.070   1.647  0.00  0.00     0.036 H 
ATOM     34  H12 7CJ d   1      48.675  -4.234   2.925  0.00  0.00     0.036 H 
ATOM     35  C11 7CJ d   1      50.739  -4.491   0.585  0.00  0.00     0.224 A 
ATOM     36  H1  7CJ d   1      50.902  -3.734   2.558  0.00  0.00     0.047 H 
ATOM     37  H2  7CJ d   1      50.414  -2.529   1.317  0.00  0.00     0.047 H 
ATOM     38  O12 7CJ d   1      51.903  -4.426   0.149  0.00  0.00    -0.273 OA
ENDBRANCH   5  27
TORSDOF 4
