REMARK  4 active torsions:
REMARK  status: ('A' for Active; 'I' for Inactive)
REMARK    1  A    between atoms: S02_7  and  C03_8 
REMARK    2  A    between atoms: N11_15  and  S02_7 
REMARK    3  A    between atoms: C12_16  and  N11_15 
REMARK    4  A    between atoms: N15_18  and  C14_17 
ROOT
ATOM      1  C13 7CG d   1      48.726  36.615  77.470  0.00  0.00    -0.031 A 
ATOM      2  C21 7CG d   1      50.951  37.314  76.818  0.00  0.00    -0.057 A 
ATOM      3  C22 7CG d   1      50.969  36.307  75.835  0.00  0.00    -0.079 A 
ATOM      4  C12 7CG d   1      48.729  35.587  76.510  0.00  0.00     0.044 A 
ATOM      5  C14 7CG d   1      49.812  37.485  77.649  0.00  0.00     0.039 A 
ATOM      6  C23 7CG d   1      49.853  35.447  75.681  0.00  0.00    -0.057 A 
ATOM      7  H2  7CG d   1      47.850  36.740  78.096  0.00  0.00     0.090 H 
ATOM      8  H5  7CG d   1      51.811  37.962  76.942  0.00  0.00     0.086 H 
ATOM      9  H6  7CG d   1      51.836  36.189  75.196  0.00  0.00     0.083 H 
ATOM     10  H14 7CG d   1      49.868  34.677  74.918  0.00  0.00     0.086 H 
ENDROOT
BRANCH   4  11
ATOM     11  N11 7CG d   1      47.678  34.741  76.327  0.00  0.00    -0.281 N 
ATOM     12  H9  7CG d   1      47.822  33.752  76.329  0.00  0.00     0.179 HD
BRANCH  11  13
ATOM     13  S02 7CG d   1      46.101  35.385  76.092  0.00  0.00     0.264 S 
ATOM     14  O01 7CG d   1      45.741  36.390  77.303  0.00  0.00    -0.200 OA
ATOM     15  O24 7CG d   1      45.034  34.186  76.008  0.00  0.00    -0.200 OA
BRANCH  13  16
ATOM     16  C03 7CG d   1      46.202  36.314  74.584  0.00  0.00     0.098 A 
ATOM     17  C10 7CG d   1      45.820  37.650  74.664  0.00  0.00    -0.042 A 
ATOM     18  C08 7CG d   1      45.868  38.431  73.519  0.00  0.00     0.012 A 
ATOM     19  H1  7CG d   1      45.490  38.073  75.606  0.00  0.00     0.088 H 
ATOM     20  C07 7CG d   1      46.306  37.974  72.273  0.00  0.00    -0.065 A 
ATOM     21 BR2  7CG d   1      45.316  40.151  73.715  0.00  0.00    -0.051 Br
ATOM     22  C06 7CG d   1      46.716  36.648  72.178  0.00  0.00    -0.063 A 
ATOM     23  H8  7CG d   1      46.326  38.630  71.410  0.00  0.00     0.085 H 
ATOM     24  C04 7CG d   1      46.663  35.832  73.325  0.00  0.00     0.034 A 
ATOM     25  H7  7CG d   1      47.071  36.248  71.235  0.00  0.00     0.085 H 
ATOM     26 BR1  7CG d   1      47.233  34.094  73.034  0.00  0.00    -0.049 Br
ENDBRANCH  13  16
ENDBRANCH  11  13
ENDBRANCH   4  11
BRANCH   5  27
ATOM     27  N15 7CG d   1      49.700  38.443  78.632  0.00  0.00    -0.318 N 
ATOM     28  C16 7CG d   1      48.482  38.622  79.370  0.00  0.00     0.003 C 
ATOM     29  C17 7CG d   1      48.683  39.891  80.228  0.00  0.00    -0.042 C 
ATOM     30  H10 7CG d   1      47.635  38.757  78.681  0.00  0.00     0.065 H 
ATOM     31  H11 7CG d   1      48.295  37.751  80.015  0.00  0.00     0.065 H 
ATOM     32  C18 7CG d   1      50.198  40.179  80.147  0.00  0.00     0.011 C 
ATOM     33  H3  7CG d   1      48.377  39.709  81.269  0.00  0.00     0.036 H 
ATOM     34  H4  7CG d   1      48.105  40.733  79.818  0.00  0.00     0.036 H 
ATOM     35  C19 7CG d   1      50.661  39.299  79.060  0.00  0.00     0.224 C 
ATOM     36  H12 7CG d   1      50.697  39.928  81.095  0.00  0.00     0.047 H 
ATOM     37  H13 7CG d   1      50.384  41.235  79.903  0.00  0.00     0.047 H 
ATOM     38  O20 7CG d   1      51.828  39.374  78.619  0.00  0.00    -0.273 OA
ENDBRANCH   5  27
TORSDOF 4
