REMARK  4 active torsions:
REMARK  status: ('A' for Active; 'I' for Inactive)
REMARK    1  A    between atoms: S02_6  and  C03_7 
REMARK    2  A    between atoms: N11_15  and  S02_6 
REMARK    3  A    between atoms: C12_16  and  N11_15 
REMARK    4  A    between atoms: N15_18  and  C14_17 
ROOT
ATOM      1  C13 7CM d   1     -11.446  -7.214   0.956  0.00  0.00    -0.031 A 
ATOM      2  C21 7CM d   1     -13.671  -6.567   1.628  0.00  0.00    -0.057 A 
ATOM      3  C22 7CM d   1     -13.669  -7.574   2.614  0.00  0.00    -0.079 A 
ATOM      4  C12 7CM d   1     -11.419  -8.231   1.934  0.00  0.00     0.044 A 
ATOM      5  C14 7CM d   1     -12.555  -6.374   0.773  0.00  0.00     0.039 A 
ATOM      6  C23 7CM d   1     -12.540  -8.404   2.765  0.00  0.00    -0.057 A 
ATOM      7  H1  7CM d   1     -10.577  -7.077   0.322  0.00  0.00     0.090 H 
ATOM      8  H4  7CM d   1     -14.540  -5.929   1.521  0.00  0.00     0.086 H 
ATOM      9  H5  7CM d   1     -14.533  -7.710   3.254  0.00  0.00     0.083 H 
ATOM     10  H14 7CM d   1     -12.536  -9.178   3.524  0.00  0.00     0.086 H 
ENDROOT
BRANCH   4  11
ATOM     11  N11 7CM d   1     -10.332  -9.042   2.084  0.00  0.00    -0.281 N 
ATOM     12  H9  7CM d   1     -10.467 -10.033   2.091  0.00  0.00     0.179 HD
BRANCH  11  13
ATOM     13  S02 7CM d   1      -8.730  -8.418   2.263  0.00  0.00     0.263 S 
ATOM     14  O01 7CM d   1      -8.264  -7.652   0.929  0.00  0.00    -0.200 OA
ATOM     15  O24 7CM d   1      -7.715  -9.607   2.591  0.00  0.00    -0.200 OA
BRANCH  13  16
ATOM     16  C03 7CM d   1      -8.708  -7.131   3.474  0.00  0.00     0.081 A 
ATOM     17  C04 7CM d   1      -8.223  -5.888   3.026  0.00  0.00    -0.057 A 
ATOM     18  C05 7CM d   1      -8.153  -4.792   3.888  0.00  0.00    -0.043 A 
ATOM     19  H6  7CM d   1      -7.899  -5.780   1.997  0.00  0.00     0.086 H 
ATOM     20  C09 7CM d   1      -8.571  -4.942   5.206  0.00  0.00     0.138 A 
ATOM     21  H7  7CM d   1      -7.778  -3.838   3.535  0.00  0.00     0.088 H 
ATOM     22  C07 7CM d   1      -9.068  -6.179   5.677  0.00  0.00     0.074 A 
ATOM     23  F10 7CM d   1      -8.482  -3.896   5.962  0.00  0.00    -0.204 F 
ATOM     24  C06 7CM d   1      -9.134  -7.293   4.804  0.00  0.00    -0.036 A 
ATOM     25 CL1  7CM d   1      -9.582  -6.319   7.284  0.00  0.00    -0.081 Cl
ATOM     26  H8  7CM d   1      -9.505  -8.249   5.154  0.00  0.00     0.088 H 
ENDBRANCH  13  16
ENDBRANCH  11  13
ENDBRANCH   4  11
BRANCH   5  27
ATOM     27  N15 7CM d   1     -12.476  -5.406  -0.215  0.00  0.00    -0.318 N 
ATOM     28  C16 7CM d   1     -11.255  -5.201  -0.955  0.00  0.00     0.003 C 
ATOM     29  C17 7CM d   1     -11.480  -3.907  -1.760  0.00  0.00    -0.042 C 
ATOM     30  H10 7CM d   1     -10.403  -5.085  -0.269  0.00  0.00     0.065 H 
ATOM     31  H11 7CM d   1     -11.068  -6.048  -1.631  0.00  0.00     0.065 H 
ATOM     32  C18 7CM d   1     -13.005  -3.681  -1.711  0.00  0.00     0.011 C 
ATOM     33  H2  7CM d   1     -11.139  -4.031  -2.798  0.00  0.00     0.036 H 
ATOM     34  H3  7CM d   1     -10.947  -3.063  -1.297  0.00  0.00     0.036 H 
ATOM     35  C19 7CM d   1     -13.462  -4.562  -0.633  0.00  0.00     0.224 C 
ATOM     36  H12 7CM d   1     -13.472  -3.959  -2.667  0.00  0.00     0.047 H 
ATOM     37  H13 7CM d   1     -13.237  -2.631  -1.482  0.00  0.00     0.047 H 
ATOM     38  O20 7CM d   1     -14.636  -4.502  -0.183  0.00  0.00    -0.273 OA
ENDBRANCH   5  27
TORSDOF 4
