REMARK  4 active torsions:
REMARK  status: ('A' for Active; 'I' for Inactive)
REMARK    1  A    between atoms: N03_9  and  S02_8 
REMARK    2  A    between atoms: S02_8  and  C16_19 
REMARK    3  A    between atoms: C04_10  and  N03_9 
REMARK    4  A    between atoms: N07_13  and  C06_12 
ROOT
ATOM      1  C13 7CN d   1     -13.315  -6.967   1.441  0.00  0.00    -0.057 A 
ATOM      2  C15 7CN d   1     -12.333  -8.923   2.501  0.00  0.00    -0.057 A 
ATOM      3  C04 7CN d   1     -11.203  -8.796   1.672  0.00  0.00     0.044 A 
ATOM      4  C05 7CN d   1     -11.144  -7.750   0.727  0.00  0.00    -0.031 A 
ATOM      5  C06 7CN d   1     -12.195  -6.814   0.587  0.00  0.00     0.039 A 
ATOM      6  C14 7CN d   1     -13.389  -8.011   2.377  0.00  0.00    -0.079 A 
ATOM      7  H3  7CN d   1     -14.135  -6.261   1.370  0.00  0.00     0.086 H 
ATOM      8  H4  7CN d   1     -12.386  -9.722   3.232  0.00  0.00     0.086 H 
ATOM      9  H8  7CN d   1     -10.270  -7.661   0.092  0.00  0.00     0.090 H 
ATOM     10  H13 7CN d   1     -14.266  -8.112   3.006  0.00  0.00     0.083 H 
ENDROOT
BRANCH   3  11
ATOM     11  N03 7CN d   1     -10.147  -9.645   1.704  0.00  0.00    -0.281 N 
ATOM     12  H7  7CN d   1     -10.285 -10.594   1.420  0.00  0.00     0.179 HD
BRANCH  11  13
ATOM     13  S02 7CN d   1      -8.590  -9.157   2.210  0.00  0.00     0.263 S 
ATOM     14  O01 7CN d   1      -7.980  -8.077   1.195  0.00  0.00    -0.200 OA
ATOM     15  O23 7CN d   1      -7.607 -10.409   2.339  0.00  0.00    -0.200 OA
BRANCH  13  16
ATOM     16  C16 7CN d   1      -8.809  -8.368   3.764  0.00  0.00     0.081 A 
ATOM     17  C17 7CN d   1      -9.354  -9.084   4.848  0.00  0.00    -0.060 A 
ATOM     18  C18 7CN d   1      -9.529  -8.451   6.090  0.00  0.00    -0.080 A 
ATOM     19  H5  7CN d   1      -9.638 -10.123   4.724  0.00  0.00     0.085 H 
ATOM     20  C19 7CN d   1      -9.155  -7.101   6.235  0.00  0.00    -0.066 A 
ATOM     21  H14 7CN d   1      -9.948  -8.996   6.928  0.00  0.00     0.083 H 
ATOM     22  C20 7CN d   1      -8.616  -6.404   5.134  0.00  0.00     0.012 A 
ATOM     23  H15 7CN d   1      -9.281  -6.600   7.188  0.00  0.00     0.085 H 
ATOM     24  C22 7CN d   1      -8.440  -7.023   3.895  0.00  0.00    -0.044 A 
ATOM     25 BR1  7CN d   1      -8.104  -4.635   5.271  0.00  0.00    -0.051 Br
ATOM     26  H6  7CN d   1      -8.028  -6.476   3.055  0.00  0.00     0.087 H 
ENDBRANCH  13  16
ENDBRANCH  11  13
ENDBRANCH   3  11
BRANCH   5  27
ATOM     27  N07 7CN d   1     -12.076  -5.792  -0.342  0.00  0.00    -0.318 N 
ATOM     28  C08 7CN d   1     -10.848  -5.502  -1.015  0.00  0.00     0.003 A 
ATOM     29  C09 7CN d   1     -11.115  -4.243  -1.871  0.00  0.00    -0.042 A 
ATOM     30  H9  7CN d   1     -10.556  -6.346  -1.658  0.00  0.00     0.065 H 
ATOM     31  H10 7CN d   1     -10.050  -5.305  -0.284  0.00  0.00     0.065 H 
ATOM     32  C10 7CN d   1     -12.619  -3.952  -1.738  0.00  0.00     0.011 A 
ATOM     33  H11 7CN d   1     -10.526  -3.393  -1.495  0.00  0.00     0.036 H 
ATOM     34  H12 7CN d   1     -10.854  -4.433  -2.922  0.00  0.00     0.036 H 
ATOM     35  C11 7CN d   1     -13.057  -4.928  -0.738  0.00  0.00     0.224 A 
ATOM     36  H1  7CN d   1     -13.138  -4.107  -2.696  0.00  0.00     0.047 H 
ATOM     37  H2  7CN d   1     -12.793  -2.924  -1.389  0.00  0.00     0.047 H 
ATOM     38  O12 7CN d   1     -14.244  -4.915  -0.338  0.00  0.00    -0.273 OA
ENDBRANCH   5  27
TORSDOF 4
