REMARK  4 active torsions:
REMARK  status: ('A' for Active; 'I' for Inactive)
REMARK    1  A    between atoms: S02_6  and  C03_7 
REMARK    2  A    between atoms: N11_15  and  S02_6 
REMARK    3  A    between atoms: C12_16  and  N11_15 
REMARK    4  A    between atoms: N15_18  and  C14_17 
ROOT
ATOM      1  C13 7CO d   1      48.949  36.657  77.635  0.00  0.00    -0.031 A 
ATOM      2  C21 7CO d   1      51.190  37.293  76.967  0.00  0.00    -0.057 A 
ATOM      3  C22 7CO d   1      51.200  36.268  76.000  0.00  0.00    -0.079 A 
ATOM      4  C12 7CO d   1      48.918  35.620  76.702  0.00  0.00     0.044 A 
ATOM      5  C14 7CO d   1      50.057  37.508  77.781  0.00  0.00     0.039 A 
ATOM      6  C23 7CO d   1      50.055  35.440  75.871  0.00  0.00    -0.057 A 
ATOM      7  H1  7CO d   1      48.085  36.812  78.271  0.00  0.00     0.090 H 
ATOM      8  H4  7CO d   1      52.063  37.924  77.087  0.00  0.00     0.086 H 
ATOM      9  H5  7CO d   1      52.066  36.115  75.367  0.00  0.00     0.083 H 
ATOM     10  H14 7CO d   1      50.048  34.655  75.124  0.00  0.00     0.086 H 
ENDROOT
BRANCH   4  11
ATOM     11  N11 7CO d   1      47.820  34.812  76.562  0.00  0.00    -0.280 N 
ATOM     12  H9  7CO d   1      47.961  33.823  76.518  0.00  0.00     0.179 HD
BRANCH  11  13
ATOM     13  S02 7CO d   1      46.196  35.417  76.457  0.00  0.00     0.269 S 
ATOM     14  O01 7CO d   1      45.733  36.280  77.728  0.00  0.00    -0.200 OA
ATOM     15  O24 7CO d   1      45.237  34.184  76.150  0.00  0.00    -0.200 OA
BRANCH  13  16
ATOM     16  C03 7CO d   1      46.316  36.526  75.090  0.00  0.00     0.156 A 
ATOM     17  C04 7CO d   1      46.065  37.907  75.213  0.00  0.00     0.142 A 
ATOM     18  F05 7CO d   1      45.714  38.445  76.350  0.00  0.00    -0.204 F 
ATOM     19  C06 7CO d   1      46.205  38.730  74.078  0.00  0.00    -0.044 A 
ATOM     20  C07 7CO d   1      46.583  38.177  72.850  0.00  0.00    -0.077 A 
ATOM     21  H6  7CO d   1      46.019  39.795  74.157  0.00  0.00     0.088 H 
ATOM     22  C08 7CO d   1      46.835  36.810  72.734  0.00  0.00    -0.044 A 
ATOM     23  H7  7CO d   1      46.681  38.817  71.980  0.00  0.00     0.083 H 
ATOM     24  C09 7CO d   1      46.709  35.983  73.859  0.00  0.00     0.142 A 
ATOM     25  H8  7CO d   1      47.127  36.389  71.779  0.00  0.00     0.088 H 
ATOM     26  F10 7CO d   1      46.926  34.697  73.763  0.00  0.00    -0.204 F 
ENDBRANCH  13  16
ENDBRANCH  11  13
ENDBRANCH   4  11
BRANCH   5  27
ATOM     27  N15 7CO d   1      49.957  38.470  78.751  0.00  0.00    -0.318 N 
ATOM     28  C16 7CO d   1      48.718  38.675  79.472  0.00  0.00     0.003 C 
ATOM     29  C17 7CO d   1      48.940  39.929  80.333  0.00  0.00    -0.042 C 
ATOM     30  H10 7CO d   1      47.887  38.835  78.769  0.00  0.00     0.065 H 
ATOM     31  H11 7CO d   1      48.497  37.806  80.109  0.00  0.00     0.065 H 
ATOM     32  C18 7CO d   1      50.455  40.159  80.285  0.00  0.00     0.011 C 
ATOM     33  H2  7CO d   1      48.605  39.756  81.366  0.00  0.00     0.036 H 
ATOM     34  H3  7CO d   1      48.402  40.791  79.912  0.00  0.00     0.036 H 
ATOM     35  C19 7CO d   1      50.931  39.300  79.206  0.00  0.00     0.224 C 
ATOM     36  H12 7CO d   1      50.920  39.874  81.240  0.00  0.00     0.047 H 
ATOM     37  H13 7CO d   1      50.680  41.214  80.068  0.00  0.00     0.047 H 
ATOM     38  O20 7CO d   1      52.123  39.382  78.804  0.00  0.00    -0.273 OA
ENDBRANCH   5  27
TORSDOF 4
