REMARK  6 active torsions:
REMARK  status: ('A' for Active; 'I' for Inactive)
REMARK    1  A    between atoms: C13_2  and  N12_1 
REMARK    2  A    between atoms: N12_1  and  S02_9 
REMARK    3  A    between atoms: C15_3  and  N16_20 
REMARK    4  A    between atoms: S02_9  and  C03_10 
REMARK    5  A    between atoms: C04_11  and  O05_12 
REMARK    6  A    between atoms: O05_12  and  C06_13 
ROOT
ATOM      1  C13 7CQ d   1     -11.435  -8.641   1.662  0.00  0.00     0.044 A 
ATOM      2  C15 7CQ d   1     -12.494  -6.681   0.614  0.00  0.00     0.039 A 
ATOM      3  C22 7CQ d   1     -13.592  -6.861   1.468  0.00  0.00    -0.057 A 
ATOM      4  C24 7CQ d   1     -12.546  -8.783   2.509  0.00  0.00    -0.057 A 
ATOM      5  C14 7CQ d   1     -11.426  -7.594   0.737  0.00  0.00    -0.031 A 
ATOM      6  C23 7CQ d   1     -13.622  -7.897   2.406  0.00  0.00    -0.079 A 
ATOM      7  H4  7CQ d   1     -14.435  -6.183   1.399  0.00  0.00     0.086 H 
ATOM      8  H5  7CQ d   1     -12.569  -9.580   3.243  0.00  0.00     0.086 H 
ATOM      9  H12 7CQ d   1     -10.565  -7.479   0.089  0.00  0.00     0.090 H 
ATOM     10  H17 7CQ d   1     -14.482  -8.014   3.055  0.00  0.00     0.083 H 
ENDROOT
BRANCH   1  11
ATOM     11  N12 7CQ d   1     -10.414  -9.530   1.798  0.00  0.00    -0.280 N 
ATOM     12  H1  7CQ d   1     -10.583 -10.511   1.702  0.00  0.00     0.179 HD
BRANCH  11  13
ATOM     13  S02 7CQ d   1      -8.848  -8.958   2.133  0.00  0.00     0.266 S 
ATOM     14  O01 7CQ d   1      -8.336  -7.941   1.021  0.00  0.00    -0.200 OA
ATOM     15  O25 7CQ d   1      -7.877 -10.198   2.290  0.00  0.00    -0.200 OA
BRANCH  13  16
ATOM     16  C03 7CQ d   1      -8.988  -8.054   3.622  0.00  0.00     0.114 A 
ATOM     17  C04 7CQ d   1      -9.522  -8.656   4.767  0.00  0.00     0.091 A 
ATOM     18  C07 7CQ d   1      -9.620  -7.907   5.951  0.00  0.00    -0.048 A 
ATOM     19  C08 7CQ d   1      -9.180  -6.575   5.954  0.00  0.00    -0.063 A 
ATOM     20  H9  7CQ d   1     -10.030  -8.352   6.850  0.00  0.00     0.087 H 
ATOM     21  C09 7CQ d   1      -8.647  -6.010   4.799  0.00  0.00     0.012 A 
ATOM     22  H10 7CQ d   1      -9.255  -5.984   6.859  0.00  0.00     0.085 H 
ATOM     23 BR1  7CQ d   1      -8.063  -4.268   4.811  0.00  0.00    -0.051 Br
ATOM     24  C11 7CQ d   1      -8.556  -6.732   3.617  0.00  0.00    -0.041 A 
ATOM     25  H11 7CQ d   1      -8.160  -6.278   2.716  0.00  0.00     0.088 H 
BRANCH  17  26
ATOM     26  O05 7CQ d   1      -9.926  -9.949   4.668  0.00  0.00    -0.354 OA
BRANCH  26  27
ATOM     27  C06 7CQ d   1     -10.244 -10.662   5.882  0.00  0.00     0.010 C 
ATOM     28  H6  7CQ d   1     -10.552 -11.688   5.634  0.00  0.00     0.066 H 
ATOM     29  H7  7CQ d   1     -11.065 -10.149   6.404  0.00  0.00     0.066 H 
ATOM     30  H8  7CQ d   1      -9.357 -10.692   6.532  0.00  0.00     0.066 H 
ENDBRANCH  26  27
ENDBRANCH  17  26
ENDBRANCH  13  16
ENDBRANCH  11  13
ENDBRANCH   1  11
BRANCH   2  31
ATOM     31  N16 7CQ d   1     -12.407  -5.675  -0.332  0.00  0.00    -0.318 N 
ATOM     32  C17 7CQ d   1     -11.190  -5.415  -1.056  0.00  0.00     0.003 C 
ATOM     33  C18 7CQ d   1     -11.401  -4.061  -1.762  0.00  0.00    -0.042 C 
ATOM     34  H2  7CQ d   1     -11.008  -6.208  -1.796  0.00  0.00     0.065 H 
ATOM     35  H3  7CQ d   1     -10.337  -5.357  -0.363  0.00  0.00     0.065 H 
ATOM     36  C19 7CQ d   1     -12.924  -3.891  -1.761  0.00  0.00     0.011 C 
ATOM     37  H13 7CQ d   1     -11.009  -4.088  -2.789  0.00  0.00     0.036 H 
ATOM     38  H14 7CQ d   1     -10.914  -3.247  -1.205  0.00  0.00     0.036 H 
ATOM     39  C20 7CQ d   1     -13.380  -4.822  -0.733  0.00  0.00     0.224 C 
ATOM     40  H15 7CQ d   1     -13.202  -2.858  -1.505  0.00  0.00     0.047 H 
ATOM     41  H16 7CQ d   1     -13.348  -4.153  -2.742  0.00  0.00     0.047 H 
ATOM     42  O21 7CQ d   1     -14.556  -4.781  -0.319  0.00  0.00    -0.273 OA
ENDBRANCH   2  31
TORSDOF 6
