REMARK  7 active torsions:
REMARK  status: ('A' for Active; 'I' for Inactive)
REMARK    1  A    between atoms: C_1  and  C5_8 
REMARK    2  A    between atoms: C1_4  and  C10_13 
REMARK    3  A    between atoms: C3_6  and  N6_9 
REMARK       I    between atoms: C5_8  and  N20_23 
REMARK    4  A    between atoms: N6_9  and  C7_10 
REMARK    5  A    between atoms: C7_10  and  C8_11 
REMARK    6  A    between atoms: C8_11  and  N9_12 
REMARK    7  A    between atoms: C8_11  and  C11_14 
ROOT
ATOM      1  C   7CU d   1      -4.029   0.564 -14.652  0.00  0.00     0.154 A 
ATOM      2  N   7CU d   1      -4.940   1.524 -14.370  0.00  0.00    -0.249 NA
ATOM      3  C1  7CU d   1      -2.719   0.669 -14.202  0.00  0.00     0.120 A 
ATOM      4  N2  7CU d   1      -2.328   1.700 -13.437  0.00  0.00    -0.225 NA
ATOM      5  C3  7CU d   1      -3.221   2.654 -13.150  0.00  0.00     0.142 A 
ATOM      6  C4  7CU d   1      -4.512   2.545 -13.620  0.00  0.00     0.047 A 
ATOM      7  H1  7CU d   1      -5.218   3.328 -13.368  0.00  0.00     0.120 H 
ENDROOT
BRANCH   3   8
ATOM      8  C10 7CU d   1      -1.558  -0.201 -14.412  0.00  0.00     0.065 A 
ATOM      9  N12 7CU d   1      -1.494  -1.348 -15.163  0.00  0.00    -0.354 N 
ATOM     10  C13 7CU d   1      -0.221  -1.872 -15.118  0.00  0.00     0.043 A 
ATOM     11  H12 7CU d   1      -2.283  -1.757 -15.684  0.00  0.00     0.166 HD
ATOM     12  C14 7CU d   1       0.552  -1.060 -14.303  0.00  0.00    -0.007 A 
ATOM     13  C16 7CU d   1       0.302  -2.979 -15.766  0.00  0.00    -0.056 A 
ATOM     14  C15 7CU d   1      -0.311  -0.019 -13.862  0.00  0.00    -0.043 A 
ATOM     15  C19 7CU d   1       1.908  -1.305 -14.090  0.00  0.00    -0.071 A 
ATOM     16  H13 7CU d   1      -0.029   0.794 -13.194  0.00  0.00     0.088 H 
ATOM     17  C18 7CU d   1       2.418  -2.442 -14.702  0.00  0.00    -0.082 A 
ATOM     18  H17 7CU d   1       2.525  -0.650 -13.485  0.00  0.00     0.084 H 
ATOM     19  C17 7CU d   1       1.635  -3.243 -15.512  0.00  0.00    -0.081 A 
ATOM     20  H16 7CU d   1       3.456  -2.708 -14.541  0.00  0.00     0.083 H 
ATOM     21  H15 7CU d   1       2.086  -4.117 -15.968  0.00  0.00     0.083 H 
ATOM     22  H14 7CU d   1      -0.294  -3.597 -16.428  0.00  0.00     0.086 H 
ENDBRANCH   3   8
BRANCH   1  23
ATOM     23  C5  7CU d   1      -4.574  -0.482 -15.550  0.00  0.00     0.270 C 
ATOM     24  O   7CU d   1      -3.921  -1.374 -16.104  0.00  0.00    -0.266 OA
ATOM     25  N20 7CU d   1      -5.914  -0.351 -15.781  0.00  0.00    -0.365 N 
ATOM     26  H18 7CU d   1      -6.385  -1.004 -16.374  0.00  0.00     0.159 HD
ATOM     27  H19 7CU d   1      -6.423   0.398 -15.357  0.00  0.00     0.159 HD
ENDBRANCH   1  23
BRANCH   5  28
ATOM     28  N6  7CU d   1      -2.881   3.771 -12.377  0.00  0.00    -0.372 N 
ATOM     29  H2  7CU d   1      -3.601   4.417 -12.023  0.00  0.00     0.161 HD
BRANCH  28  30
ATOM     30  C7  7CU d   1      -1.470   3.981 -12.094  0.00  0.00     0.020 C 
ATOM     31  H3  7CU d   1      -1.048   3.034 -11.728  0.00  0.00     0.067 H 
ATOM     32  H4  7CU d   1      -1.387   4.747 -11.309  0.00  0.00     0.067 H 
BRANCH  30  33
ATOM     33  C8  7CU d   1      -0.649   4.436 -13.292  0.00  0.00     0.111 C 
ATOM     34  H5  7CU d   1      -0.781   3.731 -14.126  0.00  0.00     0.085 H 
BRANCH  33  35
ATOM     35  N9  7CU d   1      -1.073   5.812 -13.674  0.00  0.00    -0.074 N 
ATOM     36  H6  7CU d   1      -0.534   6.122 -14.467  0.00  0.00     0.274 HD
ATOM     37  H7  7CU d   1      -0.920   6.438 -12.899  0.00  0.00     0.274 HD
ATOM     38  H8  7CU d   1      -2.052   5.808 -13.914  0.00  0.00     0.274 HD
ENDBRANCH  33  35
BRANCH  33  39
ATOM     39  C11 7CU d   1       0.808   4.578 -12.936  0.00  0.00    -0.048 C 
ATOM     40  H9  7CU d   1       1.210   3.598 -12.638  0.00  0.00     0.030 H 
ATOM     41  H10 7CU d   1       0.914   5.287 -12.102  0.00  0.00     0.030 H 
ATOM     42  H11 7CU d   1       1.364   4.952 -13.808  0.00  0.00     0.030 H 
ENDBRANCH  33  39
ENDBRANCH  30  33
ENDBRANCH  28  30
ENDBRANCH   5  28
TORSDOF 7
