REMARK  4 active torsions:
REMARK  status: ('A' for Active; 'I' for Inactive)
REMARK    1  A    between atoms: C01_1  and  C02_2 
REMARK    2  A    between atoms: C04_4  and  N05_5 
REMARK    3  A    between atoms: C19_19  and  C20_20 
REMARK    4  A    between atoms: C20_20  and  N21_21 
ROOT
ATOM      1  C02 GBT d   1     -11.450   0.928 -11.452  0.00  0.00     0.043 A 
ATOM      2  N03 GBT d   1     -10.210   1.198 -11.100  0.00  0.00    -0.236 NA
ATOM      3  C04 GBT d   1      -9.313   0.237 -10.892  0.00  0.00     0.124 A 
ATOM      4  C06 GBT d   1      -9.691  -1.100 -10.999  0.00  0.00    -0.006 A 
ATOM      5  C07 GBT d   1     -10.983  -1.394 -11.354  0.00  0.00     0.082 A 
ATOM      6  O08 GBT d   1     -11.476  -2.687 -11.486  0.00  0.00    -0.350 OA
ATOM      7  C09 GBT d   1     -10.559  -3.798 -11.306  0.00  0.00     0.029 C 
ATOM      8  C10 GBT d   1     -11.086  -4.994 -12.114  0.00  0.00    -0.030 C 
ATOM      9  C11 GBT d   1     -11.307  -4.614 -13.579  0.00  0.00    -0.105 C 
ATOM     10  C12 GBT d   1     -11.646  -5.596 -14.495  0.00  0.00    -0.106 C 
ATOM     11  C13 GBT d   1     -12.033  -5.202 -15.916  0.00  0.00    -0.048 C 
ATOM     12  C14 GBT d   1     -12.348  -6.405 -16.876  0.00  0.00    -0.042 C 
ATOM     13  C15 GBT d   1     -11.996  -6.048 -18.357  0.00  0.00     0.026 C 
ATOM     14  O16 GBT d   1     -12.559  -4.752 -18.631  0.00  0.00    -0.350 OA
ATOM     15  C17 GBT d   1     -11.790  -3.657 -19.016  0.00  0.00     0.077 A 
ATOM     16  C18 GBT d   1     -10.431  -3.762 -19.354  0.00  0.00    -0.042 A 
ATOM     17  C19 GBT d   1      -9.685  -2.637 -19.720  0.00  0.00    -0.036 A 
ATOM     18  C26 GBT d   1     -10.283  -1.391 -19.729  0.00  0.00    -0.074 A 
ATOM     19  C27 GBT d   1     -11.628  -1.289 -19.366  0.00  0.00    -0.072 A 
ATOM     20  C28 GBT d   1     -12.397  -2.404 -19.008  0.00  0.00    -0.005 A 
ATOM     21  C29 GBT d   1     -13.923  -2.299 -18.683  0.00  0.00     0.043 C 
ATOM     22  N30 GBT d   1     -14.294  -2.681 -17.328  0.00  0.00    -0.276 N 
ATOM     23  C31 GBT d   1     -13.835  -2.076 -16.232  0.00  0.00     0.015 A 
ATOM     24  C32 GBT d   1     -14.391  -2.653 -15.144  0.00  0.00     0.068 A 
ATOM     25  C33 GBT d   1     -15.243  -3.646 -15.643  0.00  0.00     0.038 A 
ATOM     26  N34 GBT d   1     -15.139  -3.600 -16.925  0.00  0.00    -0.184 NA
ATOM     27  C35 GBT d   1     -14.203  -2.316 -13.681  0.00  0.00     0.254 C 
ATOM     28  O36 GBT d   1     -14.537  -3.023 -12.837  0.00  0.00    -0.268 OA
ATOM     29  N37 GBT d   1     -13.551  -1.115 -13.305  0.00  0.00    -0.352 N 
ATOM     30  C38 GBT d   1     -13.367  -0.742 -11.921  0.00  0.00     0.024 C 
ATOM     31  C39 GBT d   1     -11.890  -0.378 -11.564  0.00  0.00     0.017 A 
ATOM     32  H6  GBT d   1      -8.977  -1.893 -10.805  0.00  0.00     0.093 H 
ATOM     33  H7  GBT d   1     -10.503  -4.065 -10.240  0.00  0.00     0.075 H 
ATOM     34  H8  GBT d   1      -9.559  -3.517 -11.667  0.00  0.00     0.075 H 
ATOM     35  H9  GBT d   1     -12.041  -5.327 -11.681  0.00  0.00     0.042 H 
ATOM     36  H10 GBT d   1     -10.354  -5.813 -12.062  0.00  0.00     0.042 H 
ATOM     37  H11 GBT d   1     -11.199  -3.579 -13.899  0.00  0.00     0.076 H 
ATOM     38  H12 GBT d   1     -11.636  -6.645 -14.201  0.00  0.00     0.076 H 
ATOM     39  H13 GBT d   1     -11.201  -4.628 -16.350  0.00  0.00     0.038 H 
ATOM     40  H14 GBT d   1     -12.928  -4.565 -15.862  0.00  0.00     0.038 H 
ATOM     41  H15 GBT d   1     -13.419  -6.647 -16.809  0.00  0.00     0.036 H 
ATOM     42  H16 GBT d   1     -11.755  -7.278 -16.566  0.00  0.00     0.036 H 
ATOM     43  H17 GBT d   1     -12.427  -6.797 -19.037  0.00  0.00     0.075 H 
ATOM     44  H18 GBT d   1     -10.904  -6.019 -18.488  0.00  0.00     0.075 H 
ATOM     45  H19 GBT d   1      -9.951  -4.734 -19.331  0.00  0.00     0.088 H 
ATOM     46  H25 GBT d   1      -9.719  -0.510 -20.012  0.00  0.00     0.084 H 
ATOM     47  H26 GBT d   1     -12.094  -0.310 -19.361  0.00  0.00     0.084 H 
ATOM     48  H27 GBT d   1     -14.466  -2.952 -19.382  0.00  0.00     0.074 H 
ATOM     49  H28 GBT d   1     -14.234  -1.256 -18.840  0.00  0.00     0.074 H 
ATOM     50  H29 GBT d   1     -13.126  -1.250 -16.216  0.00  0.00     0.115 H 
ATOM     51  H30 GBT d   1     -15.869  -4.322 -15.062  0.00  0.00     0.119 H 
ATOM     52  H31 GBT d   1     -13.207  -0.506 -14.020  0.00  0.00     0.163 HD
ATOM     53  H32 GBT d   1     -13.680  -1.586 -11.289  0.00  0.00     0.071 H 
ATOM     54  H33 GBT d   1     -14.002   0.131 -11.708  0.00  0.00     0.071 H 
ENDROOT
BRANCH  17  55
ATOM     55  C20 GBT d   1      -8.178  -2.762 -20.102  0.00  0.00     0.040 C 
ATOM     56  H20 GBT d   1      -7.973  -3.779 -20.468  0.00  0.00     0.074 H 
ATOM     57  H21 GBT d   1      -7.555  -2.558 -19.219  0.00  0.00     0.074 H 
BRANCH  55  58
ATOM     58  N21 GBT d   1      -7.877  -1.800 -21.143  0.00  0.00    -0.277 N 
ATOM     59  C22 GBT d   1      -7.157  -0.673 -21.024  0.00  0.00     0.000 A 
ATOM     60  C23 GBT d   1      -7.097  -0.054 -22.207  0.00  0.00    -0.048 A 
ATOM     61  H22 GBT d   1      -6.693  -0.318 -20.105  0.00  0.00     0.114 H 
ATOM     62  C24 GBT d   1      -7.846  -0.836 -23.060  0.00  0.00     0.023 A 
ATOM     63  H23 GBT d   1      -6.570   0.869 -22.445  0.00  0.00     0.087 H 
ATOM     64  N25 GBT d   1      -8.284  -1.860 -22.382  0.00  0.00    -0.185 NA
ATOM     65  H24 GBT d   1      -8.038  -0.634 -24.113  0.00  0.00     0.117 H 
ENDBRANCH  55  58
ENDBRANCH  17  55
BRANCH   1  66
ATOM     66  C01 GBT d   1     -12.371   2.144 -11.676  0.00  0.00    -0.035 C 
ATOM     67  H1  GBT d   1     -13.374   1.796 -11.964  0.00  0.00     0.035 H 
ATOM     68  H2  GBT d   1     -11.957   2.775 -12.477  0.00  0.00     0.035 H 
ATOM     69  H3  GBT d   1     -12.439   2.729 -10.747  0.00  0.00     0.035 H 
ENDBRANCH   1  66
BRANCH   3  70
ATOM     70  N05 GBT d   1      -8.016   0.607 -10.554  0.00  0.00    -0.384 N 
ATOM     71  H4  GBT d   1      -7.301  -0.116 -10.387  0.00  0.00     0.157 HD
ATOM     72  H5  GBT d   1      -7.770   1.604 -10.470  0.00  0.00     0.157 HD
ENDBRANCH   3  70
TORSDOF 4
