REMARK  11 active torsions:
REMARK  status: ('A' for Active; 'I' for Inactive)
REMARK    1  A    between atoms: C9_20  and  C11_5 
REMARK    2  A    between atoms: N5_12  and  C12_6 
REMARK    3  A    between atoms: C1_13  and  N5_12 
REMARK    4  A    between atoms: C7_17  and  C6_16 
REMARK       I    between atoms: N4_18  and  C7_17 
REMARK    5  A    between atoms: C8_19  and  N4_18 
REMARK    6  A    between atoms: C8_19  and  C9_20 
REMARK    7  A    between atoms: C9_20  and  O2_21 
REMARK    8  A    between atoms: C9_20  and  C10_22 
REMARK    9  A    between atoms: C10_22  and  O1_23 
REMARK   10  A    between atoms: C3_28  and  N2_30 
REMARK   11  A    between atoms: N2_30  and  C4_31 
ROOT
ATOM      1  C1  7DJ d   1      21.459  -2.846  31.259  0.00  0.00     0.151 A 
ATOM      2  N   7DJ d   1      21.791  -4.110  30.916  0.00  0.00    -0.147 NA
ATOM      3  N1  7DJ d   1      22.287  -4.887  31.957  0.00  0.00    -0.204 N 
ATOM      4  C6  7DJ d   1      22.699  -6.214  31.871  0.00  0.00     0.145 A 
ATOM      5  C5  7DJ d   1      23.072  -6.563  33.141  0.00  0.00     0.038 A 
ATOM      6  N3  7DJ d   1      22.933  -5.496  33.994  0.00  0.00    -0.237 NA
ATOM      7  C2  7DJ d   1      22.469  -4.490  33.265  0.00  0.00     0.178 A 
ATOM      8  C3  7DJ d   1      22.145  -3.072  33.625  0.00  0.00     0.079 A 
ATOM      9  C   7DJ d   1      21.625  -2.279  32.625  0.00  0.00    -0.008 A 
ATOM     10  H13 7DJ d   1      23.429  -7.549  33.434  0.00  0.00     0.118 H 
ATOM     11  H14 7DJ d   1      21.339  -1.249  32.832  0.00  0.00     0.093 H 
ENDROOT
BRANCH   4  12
ATOM     12  C7  7DJ d   1      22.839  -7.013  30.615  0.00  0.00     0.271 C 
ATOM     13  N4  7DJ d   1      22.396  -6.425  29.501  0.00  0.00    -0.353 N 
ATOM     14  H6  7DJ d   1      21.791  -5.637  29.616  0.00  0.00     0.162 HD
ATOM     15  O   7DJ d   1      23.396  -8.106  30.615  0.00  0.00    -0.266 OA
BRANCH  13  16
ATOM     16  C8  7DJ d   1      22.709  -6.820  28.135  0.00  0.00     0.026 C 
ATOM     17  H7  7DJ d   1      23.624  -7.430  28.151  0.00  0.00     0.068 H 
ATOM     18  H8  7DJ d   1      22.885  -5.910  27.542  0.00  0.00     0.068 H 
BRANCH  16  19
ATOM     19  C9  7DJ d   1      21.583  -7.643  27.448  0.00  0.00     0.091 C 
BRANCH  19  20
ATOM     20  C11 7DJ d   1      21.182  -8.919  28.177  0.00  0.00    -0.044 C 
ATOM     21  H2  7DJ d   1      20.384  -9.427  27.615  0.00  0.00     0.031 H 
ATOM     22  H3  7DJ d   1      20.818  -8.667  29.184  0.00  0.00     0.031 H 
ATOM     23  H4  7DJ d   1      22.054  -9.585  28.258  0.00  0.00     0.031 H 
ENDBRANCH  19  20
BRANCH  19  24
ATOM     24  O2  7DJ d   1      20.484  -6.725  27.354  0.00  0.00    -0.386 OA
ATOM     25  H9  7DJ d   1      19.746  -7.157  26.940  0.00  0.00     0.210 HD
ENDBRANCH  19  24
BRANCH  19  26
ATOM     26  C10 7DJ d   1      22.113  -7.981  26.039  0.00  0.00     0.046 C 
ATOM     27  H10 7DJ d   1      22.881  -8.766  26.102  0.00  0.00     0.078 H 
ATOM     28  H11 7DJ d   1      22.544  -7.083  25.572  0.00  0.00     0.078 H 
BRANCH  26  29
ATOM     29  O1  7DJ d   1      21.004  -8.443  25.278  0.00  0.00    -0.398 OA
ATOM     30  H12 7DJ d   1      20.345  -7.760  25.235  0.00  0.00     0.209 HD
ENDBRANCH  26  29
ENDBRANCH  19  26
ENDBRANCH  16  19
ENDBRANCH  13  16
ENDBRANCH   4  12
BRANCH   1  31
ATOM     31  N5  7DJ d   1      20.900  -2.035  30.245  0.00  0.00    -0.334 N 
ATOM     32  H5  7DJ d   1      20.836  -1.025  30.435  0.00  0.00     0.168 HD
BRANCH  31  33
ATOM     33  C12 7DJ d   1      20.414  -2.493  28.974  0.00  0.00     0.118 A 
ATOM     34  C13 7DJ d   1      19.386  -3.427  28.856  0.00  0.00     0.184 A 
ATOM     35  F3  7DJ d   1      18.800  -3.912  29.963  0.00  0.00    -0.200 F 
ATOM     36  C14 7DJ d   1      18.904  -3.827  27.629  0.00  0.00     0.160 A 
ATOM     37  C15 7DJ d   1      19.390  -3.309  26.454  0.00  0.00    -0.002 A 
ATOM     38  F2  7DJ d   1      17.913  -4.751  27.591  0.00  0.00    -0.203 F 
ATOM     39  C16 7DJ d   1      20.398  -2.381  26.554  0.00  0.00     0.160 A 
ATOM     40  H1  7DJ d   1      18.997  -3.618  25.492  0.00  0.00     0.093 H 
ATOM     41  C17 7DJ d   1      20.911  -1.989  27.773  0.00  0.00     0.184 A 
ATOM     42  F1  7DJ d   1      20.896  -1.815  25.430  0.00  0.00    -0.203 F 
ATOM     43  F   7DJ d   1      21.914  -1.093  27.801  0.00  0.00    -0.200 F 
ENDBRANCH  31  33
ENDBRANCH   1  31
BRANCH   8  44
ATOM     44  N2  7DJ d   1      22.462  -2.697  34.936  0.00  0.00    -0.391 N 
ATOM     45  H15 7DJ d   1      22.870  -3.421  35.545  0.00  0.00     0.159 HD
BRANCH  44  46
ATOM     46  C4  7DJ d   1      22.268  -1.381  35.515  0.00  0.00    -0.021 C 
ATOM     47  H16 7DJ d   1      22.609  -1.387  36.561  0.00  0.00     0.056 H 
ATOM     48  H17 7DJ d   1      21.200  -1.118  35.479  0.00  0.00     0.056 H 
ATOM     49  H18 7DJ d   1      22.847  -0.640  34.944  0.00  0.00     0.056 H 
ENDBRANCH  44  46
ENDBRANCH   8  44
TORSDOF 11
