REMARK  7 active torsions:
REMARK  status: ('A' for Active; 'I' for Inactive)
REMARK    1  A    between atoms: C16_4  and  C18_2 
REMARK    2  A    between atoms: C14_20  and  C19_6 
REMARK    3  A    between atoms: N20_21  and  C21_7 
REMARK    4  A    between atoms: C9_18  and  C11_8 
REMARK       I    between atoms: C11_8  and  N22_22 
REMARK    5  A    between atoms: N10_19  and  C12_9 
REMARK    6  A    between atoms: C4_13  and  N10_19 
REMARK    7  A    between atoms: C6_15  and  N20_21 
ROOT
ATOM      1  C1  7GL d   1      12.091  -1.808  31.733  0.00  0.00     0.178 A 
ATOM      2  N2  7GL d   1      13.024  -2.302  30.835  0.00  0.00    -0.205 N 
ATOM      3  N3  7GL d   1      12.866  -3.421  30.040  0.00  0.00    -0.147 NA
ATOM      4  C4  7GL d   1      11.726  -4.021  30.183  0.00  0.00     0.151 A 
ATOM      5  C5  7GL d   1      10.689  -3.602  31.051  0.00  0.00    -0.008 A 
ATOM      6  C6  7GL d   1      10.838  -2.490  31.834  0.00  0.00     0.079 A 
ATOM      7  N7  7GL d   1      12.552  -0.720  32.336  0.00  0.00    -0.237 NA
ATOM      8  C8  7GL d   1      13.795  -0.511  31.794  0.00  0.00     0.038 A 
ATOM      9  C9  7GL d   1      14.138  -1.461  30.861  0.00  0.00     0.145 A 
ATOM     10  H13 7GL d   1       9.762  -4.171  31.096  0.00  0.00     0.093 H 
ATOM     11  H14 7GL d   1      14.442   0.320  32.073  0.00  0.00     0.118 H 
ENDROOT
BRANCH   4  12
ATOM     12  N10 7GL d   1      11.583  -5.162  29.395  0.00  0.00    -0.340 N 
ATOM     13  H15 7GL d   1      10.734  -5.707  29.603  0.00  0.00     0.167 HD
BRANCH  12  14
ATOM     14  C12 7GL d   1      12.380  -5.715  28.364  0.00  0.00     0.034 A 
ATOM     15  C13 7GL d   1      11.720  -6.262  27.268  0.00  0.00    -0.051 A 
ATOM     16  C14 7GL d   1      12.433  -6.847  26.229  0.00  0.00    -0.059 A 
ATOM     17  H1  7GL d   1      10.637  -6.231  27.224  0.00  0.00     0.087 H 
ATOM     18  C15 7GL d   1      13.819  -6.848  26.297  0.00  0.00    -0.071 A 
ATOM     19  C16 7GL d   1      14.509  -6.295  27.367  0.00  0.00    -0.059 A 
ATOM     20  H6  7GL d   1      14.382  -7.296  25.486  0.00  0.00     0.085 H 
ATOM     21  C17 7GL d   1      13.773  -5.752  28.413  0.00  0.00    -0.051 A 
ATOM     22  H5  7GL d   1      14.289  -5.352  29.279  0.00  0.00     0.087 H 
BRANCH  16  23
ATOM     23  C19 7GL d   1      11.716  -7.451  25.043  0.00  0.00    -0.051 C 
ATOM     24  H7  7GL d   1      10.629  -7.350  25.181  0.00  0.00     0.033 H 
ATOM     25  H8  7GL d   1      11.977  -8.516  24.960  0.00  0.00     0.033 H 
ATOM     26  H9  7GL d   1      12.020  -6.926  24.125  0.00  0.00     0.033 H 
ENDBRANCH  16  23
BRANCH  19  27
ATOM     27  C18 7GL d   1      16.016  -6.199  27.347  0.00  0.00    -0.051 C 
ATOM     28  H2  7GL d   1      16.366  -5.734  28.280  0.00  0.00     0.033 H 
ATOM     29  H3  7GL d   1      16.333  -5.586  26.491  0.00  0.00     0.033 H 
ATOM     30  H4  7GL d   1      16.447  -7.207  27.256  0.00  0.00     0.033 H 
ENDBRANCH  19  27
ENDBRANCH  12  14
ENDBRANCH   4  12
BRANCH   6  31
ATOM     31  N20 7GL d   1       9.897  -2.003  32.665  0.00  0.00    -0.391 N 
ATOM     32  H16 7GL d   1      10.118  -1.163  33.219  0.00  0.00     0.159 HD
BRANCH  31  33
ATOM     33  C21 7GL d   1       8.585  -2.607  32.816  0.00  0.00    -0.021 C 
ATOM     34  H10 7GL d   1       7.998  -2.032  33.547  0.00  0.00     0.056 H 
ATOM     35  H11 7GL d   1       8.697  -3.643  33.169  0.00  0.00     0.056 H 
ATOM     36  H12 7GL d   1       8.066  -2.604  31.846  0.00  0.00     0.056 H 
ENDBRANCH  31  33
ENDBRANCH   6  31
BRANCH   9  37
ATOM     37  C11 7GL d   1      15.383  -1.530  30.057  0.00  0.00     0.269 C 
ATOM     38  N22 7GL d   1      15.548  -2.482  29.142  0.00  0.00    -0.365 N 
ATOM     39  H17 7GL d   1      16.391  -2.519  28.606  0.00  0.00     0.159 HD
ATOM     40  H18 7GL d   1      14.829  -3.160  28.991  0.00  0.00     0.159 HD
ATOM     41  O23 7GL d   1      16.260  -0.675  30.278  0.00  0.00    -0.266 OA
ENDBRANCH   9  37
TORSDOF 7
