REMARK  7 active torsions:
REMARK  status: ('A' for Active; 'I' for Inactive)
REMARK    1  A    between atoms: C16_1  and  C15_2 
REMARK       I    between atoms: N18_27  and  C16_1 
REMARK    2  A    between atoms: C19_3  and  N18_27 
REMARK    3  A    between atoms: C14_25  and  C7_18 
REMARK    4  A    between atoms: C8_19  and  N9_20 
REMARK    5  A    between atoms: C25_28  and  N38_38 
REMARK       I    between atoms: N38_38  and  C39_39 
REMARK    6  A    between atoms: C39_39  and  O40_40 
REMARK    7  A    between atoms: O40_40  and  C42_42 
ROOT
ATOM      1  C19 7DL d   1      39.805 -20.874  28.687  0.00  0.00     0.070 C 
ATOM      2  C20 7DL d   1      41.300 -20.765  28.694  0.00  0.00     0.129 A 
ATOM      3  C21 7DL d   1      39.377 -21.962  27.702  0.00  0.00    -0.039 C 
ATOM      4  C22 7DL d   1      44.460 -21.380  30.241  0.00  0.00     0.002 A 
ATOM      5  C23 7DL d   1      45.520 -20.488  30.463  0.00  0.00    -0.068 A 
ATOM      6  C24 7DL d   1      46.558 -20.823  31.312  0.00  0.00    -0.056 A 
ATOM      7  C34 7DL d   1      40.097 -23.821  29.400  0.00  0.00    -0.065 C 
ATOM      8  C27 7DL d   1      44.457 -22.620  30.901  0.00  0.00    -0.043 A 
ATOM      9  C33 7DL d   1      40.019 -23.361  27.946  0.00  0.00    -0.063 C 
ATOM     10 CL2  7DL d   1      44.691 -20.452  26.965  0.00  0.00    -0.062 Cl
ATOM     11  C25 7DL d   1      46.523 -22.022  32.021  0.00  0.00     0.037 A 
ATOM     12  C26 7DL d   1      45.484 -22.917  31.790  0.00  0.00    -0.050 A 
ATOM     13  N28 7DL d   1      42.043 -20.508  27.579  0.00  0.00    -0.331 N 
ATOM     14  C29 7DL d   1      43.366 -20.646  28.022  0.00  0.00     0.134 A 
ATOM     15  C30 7DL d   1      43.365 -20.981  29.327  0.00  0.00     0.108 A 
ATOM     16  N31 7DL d   1      42.049 -21.036  29.752  0.00  0.00    -0.229 NA
ATOM     17  C32 7DL d   1      43.366 -23.669  30.732  0.00  0.00    -0.040 C 
ATOM     18  C35 7DL d   1      40.804 -25.147  29.633  0.00  0.00    -0.065 C 
ATOM     19  C36 7DL d   1      42.214 -25.309  29.049  0.00  0.00    -0.065 C 
ATOM     20  C37 7DL d   1      43.240 -24.179  29.288  0.00  0.00    -0.061 C 
ATOM     21  H2  7DL d   1      39.494 -21.195  29.692  0.00  0.00     0.085 H 
ATOM     22  H3  7DL d   1      39.652 -21.633  26.689  0.00  0.00     0.036 H 
ATOM     23  H4  7DL d   1      38.285 -22.072  27.768  0.00  0.00     0.036 H 
ATOM     24  H5  7DL d   1      45.525 -19.526  29.963  0.00  0.00     0.085 H 
ATOM     25  H6  7DL d   1      47.401 -20.151  31.427  0.00  0.00     0.086 H 
ATOM     26  H7  7DL d   1      39.069 -23.914  29.781  0.00  0.00     0.033 H 
ATOM     27  H8  7DL d   1      40.631 -23.048  29.971  0.00  0.00     0.033 H 
ATOM     28  H9  7DL d   1      41.044 -23.335  27.547  0.00  0.00     0.033 H 
ATOM     29  H10 7DL d   1      39.428 -24.104  27.390  0.00  0.00     0.033 H 
ATOM     30  H17 7DL d   1      45.475 -23.866  32.314  0.00  0.00     0.087 H 
ATOM     31  H18 7DL d   1      41.710 -20.269  26.634  0.00  0.00     0.168 HD
ATOM     32  H19 7DL d   1      42.405 -23.226  31.032  0.00  0.00     0.040 H 
ATOM     33  H20 7DL d   1      43.597 -24.523  31.386  0.00  0.00     0.040 H 
ATOM     34  H21 7DL d   1      40.174 -25.937  29.198  0.00  0.00     0.033 H 
ATOM     35  H22 7DL d   1      40.879 -25.294  30.721  0.00  0.00     0.033 H 
ATOM     36  H23 7DL d   1      42.104 -25.424  27.961  0.00  0.00     0.033 H 
ATOM     37  H24 7DL d   1      42.639 -26.230  29.475  0.00  0.00     0.033 H 
ATOM     38  H25 7DL d   1      44.227 -24.551  28.977  0.00  0.00     0.033 H 
ATOM     39  H26 7DL d   1      42.953 -23.326  28.655  0.00  0.00     0.033 H 
ENDROOT
BRANCH   1  40
ATOM     40  N18 7DL d   1      39.138 -19.600  28.423  0.00  0.00    -0.346 N 
ATOM     41  C16 7DL d   1      39.082 -18.687  29.415  0.00  0.00     0.241 C 
ATOM     42  O17 7DL d   1      39.713 -18.818  30.445  0.00  0.00    -0.269 OA
ATOM     43  H16 7DL d   1      38.733 -19.410  27.529  0.00  0.00     0.163 HD
BRANCH  41  44
ATOM     44  C15 7DL d   1      38.314 -17.458  29.133  0.00  0.00    -0.017 C 
ATOM     45  C14 7DL d   1      37.859 -16.977  27.988  0.00  0.00    -0.066 C 
ATOM     46  H15 7DL d   1      38.052 -17.539  27.075  0.00  0.00     0.085 H 
ATOM     47  H1  7DL d   1      38.086 -16.850  30.008  0.00  0.00     0.092 H 
BRANCH  45  48
ATOM     48  C7  7DL d   1      37.105 -15.719  27.891  0.00  0.00    -0.005 A 
ATOM     49  C6  7DL d   1      35.999 -15.512  28.726  0.00  0.00    -0.050 A 
ATOM     50  C5  7DL d   1      35.282 -14.331  28.638  0.00  0.00     0.035 A 
ATOM     51  H13 7DL d   1      35.706 -16.274  29.439  0.00  0.00     0.087 H 
ATOM     52 CL1  7DL d   1      33.861 -14.123  29.621  0.00  0.00    -0.084 Cl
ATOM     53  C4  7DL d   1      35.653 -13.324  27.772  0.00  0.00    -0.060 A 
ATOM     54  C3  7DL d   1      36.762 -13.507  26.960  0.00  0.00    -0.053 A 
ATOM     55  H12 7DL d   1      35.085 -12.402  27.727  0.00  0.00     0.086 H 
ATOM     56  C8  7DL d   1      37.464 -14.710  26.987  0.00  0.00     0.071 A 
ATOM     57  H11 7DL d   1      37.085 -12.710  26.300  0.00  0.00     0.087 H 
BRANCH  56  58
ATOM     58  N9  7DL d   1      38.543 -14.913  26.078  0.00  0.00    -0.205 N 
ATOM     59  C10 7DL d   1      38.595 -15.011  24.742  0.00  0.00     0.113 A 
ATOM     60  N11 7DL d   1      39.834 -15.180  24.362  0.00  0.00    -0.122 NA
ATOM     61  H14 7DL d   1      37.736 -14.958  24.075  0.00  0.00     0.149 H 
ATOM     62  N12 7DL d   1      40.565 -15.204  25.503  0.00  0.00    -0.023 NA
ATOM     63  N13 7DL d   1      39.804 -15.042  26.546  0.00  0.00    -0.040 NA
ENDBRANCH  56  58
ENDBRANCH  45  48
ENDBRANCH  41  44
ENDBRANCH   1  40
BRANCH  11  64
ATOM     64  N38 7DL d   1      47.516 -22.411  32.959  0.00  0.00    -0.303 N 
ATOM     65  C39 7DL d   1      48.777 -21.915  33.063  0.00  0.00     0.364 C 
ATOM     66  O41 7DL d   1      49.330 -21.187  32.268  0.00  0.00    -0.238 OA
ATOM     67  H27 7DL d   1      47.261 -23.125  33.611  0.00  0.00     0.171 HD
BRANCH  65  68
ATOM     68  O40 7DL d   1      49.366 -22.408  34.158  0.00  0.00    -0.309 OA
BRANCH  68  69
ATOM     69  C42 7DL d   1      50.744 -21.989  34.362  0.00  0.00     0.015 C 
ATOM     70  H28 7DL d   1      51.134 -22.446  35.283  0.00  0.00     0.067 H 
ATOM     71  H29 7DL d   1      50.785 -20.893  34.451  0.00  0.00     0.067 H 
ATOM     72  H30 7DL d   1      51.355 -22.310  33.506  0.00  0.00     0.067 H 
ENDBRANCH  68  69
ENDBRANCH  65  68
ENDBRANCH  11  64
TORSDOF 7
