REMARK  7 active torsions:
REMARK  status: ('A' for Active; 'I' for Inactive)
REMARK    1  A    between atoms: C13_1  and  C6_17 
REMARK    2  A    between atoms: C18_2  and  N17_26 
REMARK    3  A    between atoms: C15_3  and  C14_24 
REMARK       I    between atoms: N17_26  and  C15_3 
REMARK    4  A    between atoms: C24_9  and  N37_37 
REMARK    5  A    between atoms: C7_18  and  N8_19 
REMARK       I    between atoms: N37_37  and  C38_38 
REMARK    6  A    between atoms: C38_38  and  O39_39 
REMARK    7  A    between atoms: O39_39  and  C41_41 
ROOT
ATOM      1  C18 7DS d   1      39.589 -20.898  28.560  0.00  0.00     0.073 C 
ATOM      2  C19 7DS d   1      41.093 -20.837  28.593  0.00  0.00     0.127 A 
ATOM      3  C20 7DS d   1      39.135 -21.903  27.492  0.00  0.00    -0.025 C 
ATOM      4  C21 7DS d   1      44.226 -21.485  30.124  0.00  0.00     0.021 A 
ATOM      5  C22 7DS d   1      45.376 -20.689  30.152  0.00  0.00    -0.066 A 
ATOM      6  C23 7DS d   1      46.404 -20.951  31.044  0.00  0.00    -0.056 A 
ATOM      7  C24 7DS d   1      46.310 -22.026  31.930  0.00  0.00     0.039 A 
ATOM      8  C34 7DS d   1      40.523 -25.242  29.095  0.00  0.00    -0.042 C 
ATOM      9  C33 7DS d   1      39.889 -23.900  28.891  0.00  0.00    -0.106 C 
ATOM     10  C25 7DS d   1      45.190 -22.852  31.885  0.00  0.00    -0.030 A 
ATOM     11  C26 7DS d   1      44.150 -22.595  31.001  0.00  0.00     0.049 A 
ATOM     12  N27 7DS d   1      41.858 -20.593  27.509  0.00  0.00    -0.350 N 
ATOM     13  C28 7DS d   1      43.159 -20.765  27.879  0.00  0.00     0.007 A 
ATOM     14  C29 7DS d   1      43.141 -21.114  29.199  0.00  0.00     0.086 A 
ATOM     15  N30 7DS d   1      41.827 -21.148  29.645  0.00  0.00    -0.231 NA
ATOM     16  N31 7DS d   1      43.030 -23.466  30.977  0.00  0.00    -0.326 N 
ATOM     17  C32 7DS d   1      39.721 -23.277  27.710  0.00  0.00    -0.104 C 
ATOM     18  C35 7DS d   1      41.575 -25.245  30.224  0.00  0.00     0.012 C 
ATOM     19  C36 7DS d   1      42.698 -24.267  29.942  0.00  0.00     0.222 C 
ATOM     20  O42 7DS d   1      43.258 -24.217  28.852  0.00  0.00    -0.273 OA
ATOM     21  H2  7DS d   1      39.253 -21.282  29.535  0.00  0.00     0.085 H 
ATOM     22  H3  7DS d   1      39.452 -21.536  26.504  0.00  0.00     0.042 H 
ATOM     23  H4  7DS d   1      38.038 -21.978  27.521  0.00  0.00     0.042 H 
ATOM     24  H5  7DS d   1      45.465 -19.855  29.466  0.00  0.00     0.085 H 
ATOM     25  H6  7DS d   1      47.285 -20.319  31.054  0.00  0.00     0.086 H 
ATOM     26  H7  7DS d   1      41.013 -25.544  28.158  0.00  0.00     0.039 H 
ATOM     27  H8  7DS d   1      39.736 -25.967  29.348  0.00  0.00     0.039 H 
ATOM     28  H9  7DS d   1      39.532 -23.381  29.779  0.00  0.00     0.076 H 
ATOM     29  H16 7DS d   1      45.129 -23.707  32.549  0.00  0.00     0.090 H 
ATOM     30  H17 7DS d   1      41.521 -20.326  26.573  0.00  0.00     0.166 HD
ATOM     31  H18 7DS d   1      44.038 -20.647  27.247  0.00  0.00     0.115 H 
ATOM     32  H19 7DS d   1      42.443 -23.488  31.787  0.00  0.00     0.169 HD
ATOM     33  H20 7DS d   1      40.040 -23.819  26.821  0.00  0.00     0.076 H 
ATOM     34  H21 7DS d   1      41.997 -26.257  30.316  0.00  0.00     0.047 H 
ATOM     35  H22 7DS d   1      41.086 -24.964  31.169  0.00  0.00     0.047 H 
ENDROOT
BRANCH   1  36
ATOM     36  N17 7DS d   1      38.981 -19.577  28.393  0.00  0.00    -0.346 N 
ATOM     37  C15 7DS d   1      38.989 -18.699  29.417  0.00  0.00     0.241 C 
ATOM     38  O16 7DS d   1      39.630 -18.914  30.453  0.00  0.00    -0.269 OA
ATOM     39  H15 7DS d   1      38.560 -19.326  27.521  0.00  0.00     0.163 HD
BRANCH  37  40
ATOM     40  C14 7DS d   1      38.261 -17.430  29.190  0.00  0.00    -0.017 C 
ATOM     41  C13 7DS d   1      37.723 -16.996  28.050  0.00  0.00    -0.066 C 
ATOM     42  H1  7DS d   1      37.828 -17.630  27.171  0.00  0.00     0.085 H 
ATOM     43  H14 7DS d   1      38.153 -16.776  30.054  0.00  0.00     0.092 H 
BRANCH  41  44
ATOM     44  C6  7DS d   1      36.999 -15.728  27.888  0.00  0.00    -0.005 A 
ATOM     45  C5  7DS d   1      35.879 -15.496  28.706  0.00  0.00    -0.050 A 
ATOM     46  C4  7DS d   1      35.225 -14.281  28.645  0.00  0.00     0.035 A 
ATOM     47  H12 7DS d   1      35.530 -16.268  29.382  0.00  0.00     0.087 H 
ATOM     48 CL1  7DS d   1      33.821 -14.016  29.651  0.00  0.00    -0.084 Cl
ATOM     49  C3  7DS d   1      35.650 -13.275  27.799  0.00  0.00    -0.060 A 
ATOM     50  C2  7DS d   1      36.759 -13.489  26.990  0.00  0.00    -0.053 A 
ATOM     51  H11 7DS d   1      35.123 -12.328  27.767  0.00  0.00     0.086 H 
ATOM     52  C7  7DS d   1      37.424 -14.715  27.014  0.00  0.00     0.071 A 
ATOM     53  H10 7DS d   1      37.110 -12.699  26.336  0.00  0.00     0.087 H 
BRANCH  52  54
ATOM     54  N8  7DS d   1      38.520 -14.932  26.122  0.00  0.00    -0.205 N 
ATOM     55  C9  7DS d   1      38.602 -14.946  24.787  0.00  0.00     0.113 A 
ATOM     56  N10 7DS d   1      39.811 -15.270  24.424  0.00  0.00    -0.122 NA
ATOM     57  H13 7DS d   1      37.782 -14.721  24.106  0.00  0.00     0.149 H 
ATOM     58  N11 7DS d   1      40.501 -15.455  25.576  0.00  0.00    -0.023 NA
ATOM     59  N12 7DS d   1      39.742 -15.255  26.608  0.00  0.00    -0.040 NA
ENDBRANCH  52  54
ENDBRANCH  41  44
ENDBRANCH  37  40
ENDBRANCH   1  36
BRANCH   7  60
ATOM     60  N37 7DS d   1      47.327 -22.423  32.840  0.00  0.00    -0.303 N 
ATOM     61  C38 7DS d   1      48.619 -22.003  32.856  0.00  0.00     0.364 C 
ATOM     62  O40 7DS d   1      49.159 -21.331  32.003  0.00  0.00    -0.238 OA
ATOM     63  H23 7DS d   1      47.063 -23.082  33.544  0.00  0.00     0.171 HD
BRANCH  61  64
ATOM     64  O39 7DS d   1      49.229 -22.456  33.970  0.00  0.00    -0.309 OA
BRANCH  64  65
ATOM     65  C41 7DS d   1      50.647 -22.165  34.095  0.00  0.00     0.015 C 
ATOM     66  H24 7DS d   1      51.025 -22.584  35.039  0.00  0.00     0.067 H 
ATOM     67  H25 7DS d   1      50.800 -21.076  34.090  0.00  0.00     0.067 H 
ATOM     68  H26 7DS d   1      51.190 -22.615  33.251  0.00  0.00     0.067 H 
ENDBRANCH  64  65
ENDBRANCH  61  64
ENDBRANCH   7  60
TORSDOF 7
