REMARK  7 active torsions:
REMARK  status: ('A' for Active; 'I' for Inactive)
REMARK    1  A    between atoms: C13_1  and  C6_17 
REMARK    2  A    between atoms: C18_2  and  N17_26 
REMARK    3  A    between atoms: C15_3  and  C14_24 
REMARK       I    between atoms: N17_26  and  C15_3 
REMARK    4  A    between atoms: C24_9  and  N37_37 
REMARK    5  A    between atoms: C7_18  and  N8_19 
REMARK       I    between atoms: N37_37  and  C38_38 
REMARK    6  A    between atoms: C38_38  and  O39_39 
REMARK    7  A    between atoms: O39_39  and  C41_41 
ROOT
ATOM      1  C18 7DK d   1      39.676 -20.889  28.539  0.00  0.00     0.070 C 
ATOM      2  C19 7DK d   1      41.178 -20.810  28.563  0.00  0.00     0.127 A 
ATOM      3  C20 7DK d   1      39.203 -21.901  27.487  0.00  0.00    -0.039 C 
ATOM      4  C21 7DK d   1      44.293 -21.469  30.106  0.00  0.00     0.021 A 
ATOM      5  C22 7DK d   1      45.443 -20.672  30.145  0.00  0.00    -0.066 A 
ATOM      6  C23 7DK d   1      46.473 -20.946  31.030  0.00  0.00    -0.056 A 
ATOM      7  C24 7DK d   1      46.377 -22.029  31.907  0.00  0.00     0.039 A 
ATOM      8  C34 7DK d   1      40.621 -25.248  29.118  0.00  0.00    -0.057 C 
ATOM      9  C33 7DK d   1      39.862 -23.927  29.036  0.00  0.00    -0.065 C 
ATOM     10  C25 7DK d   1      45.249 -22.844  31.863  0.00  0.00    -0.030 A 
ATOM     11  C26 7DK d   1      44.211 -22.580  30.981  0.00  0.00     0.049 A 
ATOM     12  N27 7DK d   1      41.937 -20.602  27.468  0.00  0.00    -0.350 N 
ATOM     13  C28 7DK d   1      43.238 -20.784  27.833  0.00  0.00     0.007 A 
ATOM     14  C29 7DK d   1      43.222 -21.105  29.162  0.00  0.00     0.086 A 
ATOM     15  N30 7DK d   1      41.918 -21.103  29.617  0.00  0.00    -0.231 NA
ATOM     16  N31 7DK d   1      43.091 -23.451  30.951  0.00  0.00    -0.326 N 
ATOM     17  C32 7DK d   1      39.840 -23.310  27.624  0.00  0.00    -0.063 C 
ATOM     18  C35 7DK d   1      41.712 -25.277  30.178  0.00  0.00     0.010 C 
ATOM     19  C36 7DK d   1      42.812 -24.275  29.918  0.00  0.00     0.222 C 
ATOM     20  O42 7DK d   1      43.389 -24.218  28.837  0.00  0.00    -0.273 OA
ATOM     21  H2  7DK d   1      39.349 -21.262  29.521  0.00  0.00     0.085 H 
ATOM     22  H3  7DK d   1      39.453 -21.505  26.491  0.00  0.00     0.036 H 
ATOM     23  H4  7DK d   1      38.112 -22.006  27.576  0.00  0.00     0.036 H 
ATOM     24  H5  7DK d   1      45.529 -19.827  29.472  0.00  0.00     0.085 H 
ATOM     25  H6  7DK d   1      47.356 -20.318  31.042  0.00  0.00     0.086 H 
ATOM     26  H7  7DK d   1      41.086 -25.440  28.140  0.00  0.00     0.033 H 
ATOM     27  H8  7DK d   1      39.899 -26.047  29.344  0.00  0.00     0.033 H 
ATOM     28  H9  7DK d   1      40.339 -23.210  29.721  0.00  0.00     0.033 H 
ATOM     29  H10 7DK d   1      38.824 -24.103  29.354  0.00  0.00     0.033 H 
ATOM     30  H17 7DK d   1      45.181 -23.698  32.528  0.00  0.00     0.090 H 
ATOM     31  H18 7DK d   1      41.596 -20.352  26.529  0.00  0.00     0.166 HD
ATOM     32  H19 7DK d   1      44.115 -20.692  27.194  0.00  0.00     0.115 H 
ATOM     33  H20 7DK d   1      42.474 -23.455  31.738  0.00  0.00     0.169 HD
ATOM     34  H21 7DK d   1      40.881 -23.240  27.275  0.00  0.00     0.033 H 
ATOM     35  H22 7DK d   1      39.279 -23.994  26.970  0.00  0.00     0.033 H 
ATOM     36  H23 7DK d   1      42.153 -26.284  30.200  0.00  0.00     0.047 H 
ATOM     37  H24 7DK d   1      41.258 -25.054  31.155  0.00  0.00     0.047 H 
ENDROOT
BRANCH   1  38
ATOM     38  N17 7DK d   1      39.071 -19.569  28.357  0.00  0.00    -0.346 N 
ATOM     39  C15 7DK d   1      39.041 -18.701  29.388  0.00  0.00     0.241 C 
ATOM     40  O16 7DK d   1      39.673 -18.913  30.429  0.00  0.00    -0.269 OA
ATOM     41  H16 7DK d   1      38.682 -19.312  27.472  0.00  0.00     0.163 HD
BRANCH  39  42
ATOM     42  C14 7DK d   1      38.275 -17.451  29.169  0.00  0.00    -0.017 C 
ATOM     43  C13 7DK d   1      37.739 -17.001  28.028  0.00  0.00    -0.066 C 
ATOM     44  H1  7DK d   1      37.842 -17.633  27.147  0.00  0.00     0.085 H 
ATOM     45  H15 7DK d   1      38.130 -16.821  30.045  0.00  0.00     0.092 H 
BRANCH  43  46
ATOM     46  C6  7DK d   1      37.022 -15.726  27.859  0.00  0.00    -0.005 A 
ATOM     47  C5  7DK d   1      35.888 -15.495  28.658  0.00  0.00    -0.050 A 
ATOM     48  C4  7DK d   1      35.219 -14.288  28.568  0.00  0.00     0.035 A 
ATOM     49  H13 7DK d   1      35.539 -16.260  29.342  0.00  0.00     0.087 H 
ATOM     50 CL1  7DK d   1      33.814 -14.014  29.572  0.00  0.00    -0.084 Cl
ATOM     51  C3  7DK d   1      35.637 -13.294  27.706  0.00  0.00    -0.060 A 
ATOM     52  C2  7DK d   1      36.756 -13.510  26.910  0.00  0.00    -0.053 A 
ATOM     53  H12 7DK d   1      35.098 -12.355  27.650  0.00  0.00     0.086 H 
ATOM     54  C7  7DK d   1      37.443 -14.723  26.968  0.00  0.00     0.071 A 
ATOM     55  H11 7DK d   1      37.097 -12.730  26.239  0.00  0.00     0.087 H 
BRANCH  54  56
ATOM     56  N8  7DK d   1      38.532 -14.948  26.067  0.00  0.00    -0.205 N 
ATOM     57  C9  7DK d   1      38.604 -14.939  24.729  0.00  0.00     0.113 A 
ATOM     58  N10 7DK d   1      39.803 -15.288  24.351  0.00  0.00    -0.122 NA
ATOM     59  H14 7DK d   1      37.786 -14.680  24.059  0.00  0.00     0.149 H 
ATOM     60  N11 7DK d   1      40.496 -15.514  25.497  0.00  0.00    -0.023 NA
ATOM     61  N12 7DK d   1      39.747 -15.316  26.538  0.00  0.00    -0.040 NA
ENDBRANCH  54  56
ENDBRANCH  43  46
ENDBRANCH  39  42
ENDBRANCH   1  38
BRANCH   7  62
ATOM     62  N37 7DK d   1      47.402 -22.436  32.804  0.00  0.00    -0.303 N 
ATOM     63  C38 7DK d   1      48.692 -22.002  32.826  0.00  0.00     0.364 C 
ATOM     64  O40 7DK d   1      49.229 -21.318  31.982  0.00  0.00    -0.238 OA
ATOM     65  H25 7DK d   1      47.148 -23.114  33.493  0.00  0.00     0.171 HD
BRANCH  63  66
ATOM     66  O39 7DK d   1      49.302 -22.452  33.939  0.00  0.00    -0.309 OA
BRANCH  66  67
ATOM     67  C41 7DK d   1      50.732 -22.221  34.024  0.00  0.00     0.015 C 
ATOM     68  H26 7DK d   1      51.114 -22.630  34.971  0.00  0.00     0.067 H 
ATOM     69  H27 7DK d   1      50.932 -21.140  33.985  0.00  0.00     0.067 H 
ATOM     70  H28 7DK d   1      51.234 -22.718  33.181  0.00  0.00     0.067 H 
ENDBRANCH  66  67
ENDBRANCH  63  66
ENDBRANCH   7  62
TORSDOF 7
