REMARK  8 active torsions:
REMARK  status: ('A' for Active; 'I' for Inactive)
REMARK    1  A    between atoms: C15_12  and  C1_5 
REMARK    2  A    between atoms: N_29  and  C5_7 
REMARK       I    between atoms: N2_13  and  C15_12 
REMARK    3  A    between atoms: C16_14  and  N2_13 
REMARK    4  A    between atoms: C18_19  and  C17_18 
REMARK    5  A    between atoms: C19_20  and  C18_19 
REMARK    6  A    between atoms: C20_21  and  C19_20 
REMARK    7  A    between atoms: C25_26  and  C26_27 
REMARK    8  A    between atoms: C10_35  and  C14_36 
ROOT
ATOM      1  O   7DN d   1       9.653 -15.825  30.575  0.00  0.00    -0.273 OA
ATOM      2  C15 7DN d   1       8.443 -15.748  30.403  0.00  0.00     0.222 C 
ATOM      3  N2  7DN d   1       7.507 -16.015  31.376  0.00  0.00    -0.356 N 
ATOM      4  H10 7DN d   1       6.537 -15.907  31.157  0.00  0.00     0.162 HD
ENDROOT
BRANCH   2   5
ATOM      5  C1  7DN d   1       7.803 -15.385  29.077  0.00  0.00     0.026 C 
ATOM      6  C2  7DN d   1       7.697 -16.695  28.276  0.00  0.00    -0.039 C 
ATOM      7  C3  7DN d   1       7.140 -16.460  26.872  0.00  0.00    -0.003 C 
ATOM      8  H8  7DN d   1       7.031 -17.387  28.812  0.00  0.00     0.036 H 
ATOM      9  H9  7DN d   1       8.698 -17.142  28.191  0.00  0.00     0.036 H 
ATOM     10  N   7DN d   1       7.958 -15.451  26.189  0.00  0.00    -0.366 N 
ATOM     11  H6  7DN d   1       6.101 -16.104  26.943  0.00  0.00     0.064 H 
ATOM     12  H7  7DN d   1       7.167 -17.401  26.303  0.00  0.00     0.064 H 
ATOM     13  C4  7DN d   1       8.075 -14.144  26.876  0.00  0.00    -0.003 C 
ATOM     14  C   7DN d   1       8.594 -14.302  28.309  0.00  0.00    -0.039 C 
ATOM     15  H4  7DN d   1       8.772 -13.506  26.313  0.00  0.00     0.064 H 
ATOM     16  H5  7DN d   1       7.084 -13.667  26.906  0.00  0.00     0.064 H 
ATOM     17  H27 7DN d   1       9.655 -14.589  28.276  0.00  0.00     0.036 H 
ATOM     18  H28 7DN d   1       8.490 -13.342  28.835  0.00  0.00     0.036 H 
ATOM     19  H3  7DN d   1       6.792 -14.995  29.264  0.00  0.00     0.054 H 
BRANCH  10  20
ATOM     20  C5  7DN d   1       8.294 -15.545  24.848  0.00  0.00     0.126 A 
ATOM     21  C6  7DN d   1       8.537 -16.766  24.197  0.00  0.00    -0.038 A 
ATOM     22  C7  7DN d   1       8.878 -16.792  22.840  0.00  0.00    -0.067 A 
ATOM     23  H2  7DN d   1       8.460 -17.695  24.750  0.00  0.00     0.089 H 
ATOM     24  C8  7DN d   1       8.975 -15.592  22.124  0.00  0.00    -0.007 A 
ATOM     25  H1  7DN d   1       9.066 -17.738  22.345  0.00  0.00     0.085 H 
ATOM     26  C9  7DN d   1       8.722 -14.380  22.823  0.00  0.00     0.075 A 
ATOM     27  C13 7DN d   1       9.318 -15.569  20.756  0.00  0.00    -0.071 A 
ATOM     28  N1  7DN d   1       8.398 -14.393  24.136  0.00  0.00    -0.230 NA
ATOM     29  C10 7DN d   1       8.806 -13.155  22.124  0.00  0.00    -0.032 A 
ATOM     30  C11 7DN d   1       9.148 -13.148  20.751  0.00  0.00    -0.075 A 
ATOM     31  C12 7DN d   1       9.403 -14.348  20.077  0.00  0.00    -0.082 A 
ATOM     32  H31 7DN d   1       9.213 -12.207  20.217  0.00  0.00     0.084 H 
ATOM     33  H30 7DN d   1       9.667 -14.332  19.026  0.00  0.00     0.083 H 
ATOM     34  H29 7DN d   1       9.516 -16.497  20.231  0.00  0.00     0.084 H 
BRANCH  29  35
ATOM     35  C14 7DN d   1       8.527 -11.855  22.840  0.00  0.00    -0.049 C 
ATOM     36  H32 7DN d   1       8.280 -12.061  23.892  0.00  0.00     0.033 H 
ATOM     37  H33 7DN d   1       7.680 -11.345  22.358  0.00  0.00     0.033 H 
ATOM     38  H34 7DN d   1       9.418 -11.211  22.792  0.00  0.00     0.033 H 
ENDBRANCH  29  35
ENDBRANCH  10  20
ENDBRANCH   2   5
BRANCH   3  39
ATOM     39  C16 7DN d   1       7.883 -16.452  32.720  0.00  0.00     0.015 C 
ATOM     40  C29 7DN d   1       7.533 -15.439  33.808  0.00  0.00    -0.046 C 
ATOM     41  C28 7DN d   1       6.159 -15.828  34.335  0.00  0.00    -0.063 C 
ATOM     42  H12 7DN d   1       7.505 -14.423  33.387  0.00  0.00     0.036 H 
ATOM     43  H13 7DN d   1       8.276 -15.479  34.618  0.00  0.00     0.036 H 
ATOM     44  C27 7DN d   1       5.893 -17.257  33.875  0.00  0.00    -0.060 C 
ATOM     45  H14 7DN d   1       5.393 -15.152  33.928  0.00  0.00     0.033 H 
ATOM     46  H15 7DN d   1       6.147 -15.777  35.434  0.00  0.00     0.033 H 
ATOM     47  C17 7DN d   1       7.137 -17.742  33.133  0.00  0.00    -0.034 C 
ATOM     48  H16 7DN d   1       5.023 -17.279  33.203  0.00  0.00     0.033 H 
ATOM     49  H17 7DN d   1       5.700 -17.901  34.745  0.00  0.00     0.033 H 
ATOM     50  H18 7DN d   1       7.778 -18.309  33.824  0.00  0.00     0.043 H 
ATOM     51  H11 7DN d   1       8.968 -16.633  32.727  0.00  0.00     0.073 H 
BRANCH  47  52
ATOM     52  C18 7DN d   1       6.756 -18.683  31.988  0.00  0.00    -0.056 C 
ATOM     53  H19 7DN d   1       6.971 -18.169  31.040  0.00  0.00     0.034 H 
ATOM     54  H20 7DN d   1       5.677 -18.885  32.059  0.00  0.00     0.034 H 
BRANCH  52  55
ATOM     55  C19 7DN d   1       7.487 -20.023  31.974  0.00  0.00    -0.040 C 
ATOM     56  H21 7DN d   1       7.281 -20.542  32.922  0.00  0.00     0.040 H 
ATOM     57  H22 7DN d   1       8.567 -19.830  31.889  0.00  0.00     0.040 H 
BRANCH  55  58
ATOM     58  C20 7DN d   1       7.069 -20.931  30.827  0.00  0.00    -0.041 A 
ATOM     59  C21 7DN d   1       7.043 -20.385  29.515  0.00  0.00    -0.076 A 
ATOM     60  C22 7DN d   1       6.679 -21.154  28.401  0.00  0.00    -0.082 A 
ATOM     61  H23 7DN d   1       7.312 -19.345  29.372  0.00  0.00     0.084 H 
ATOM     62  C23 7DN d   1       6.332 -22.494  28.567  0.00  0.00    -0.082 A 
ATOM     63  H24 7DN d   1       6.667 -20.708  27.413  0.00  0.00     0.083 H 
ATOM     64  C24 7DN d   1       6.355 -23.063  29.847  0.00  0.00    -0.066 A 
ATOM     65  H25 7DN d   1       6.046 -23.093  27.710  0.00  0.00     0.083 H 
ATOM     66  C25 7DN d   1       6.722 -22.307  30.994  0.00  0.00     0.047 A 
ATOM     67  H26 7DN d   1       6.086 -24.106  29.966  0.00  0.00     0.085 H 
BRANCH  66  68
ATOM     68  C26 7DN d   1       6.708 -23.041  32.322  0.00  0.00     0.209 C 
ATOM     69  O1  7DN d   1       6.152 -22.459  33.298  0.00  0.00    -0.644 OA
ATOM     70  O2  7DN d   1       7.286 -24.167  32.388  0.00  0.00    -0.644 OA
ENDBRANCH  66  68
ENDBRANCH  55  58
ENDBRANCH  52  55
ENDBRANCH  47  52
ENDBRANCH   3  39
TORSDOF 8
