REMARK  11 active torsions:
REMARK  status: ('A' for Active; 'I' for Inactive)
REMARK    1  A    between atoms: OH1_6  and  N1_7 
REMARK    2  A    between atoms: C1_8  and  CA2_10 
REMARK    3  A    between atoms: CA2_10  and  CB2_11 
REMARK    4  A    between atoms: CA2_10  and  C2_18 
REMARK    5  A    between atoms: CB2_11  and  CG2_12 
REMARK       I    between atoms: C2_18  and  N3_20 
REMARK    6  A    between atoms: N3_20  and  CA3_21 
REMARK    7  A    between atoms: CA3_21  and  CB3_22 
REMARK    8  A    between atoms: CA3_21  and  C3_23 
REMARK       I    between atoms: C3_23  and  N4_25 
REMARK    9  A    between atoms: N4_25  and  CA4_26 
REMARK   10  A    between atoms: CA4_26  and  C4_27 
REMARK   11  A    between atoms: C4_27  and  O4_28 
ROOT
ATOM      1  H3  BAN d   1      54.250  17.997  -3.536  0.00  0.00     0.068 H 
ATOM      2  CA2 BAN d   1      53.257  17.580  -3.759  0.00  0.00     0.093 C 
ENDROOT
BRANCH   2   3
ATOM      3  C1  BAN d   1      53.121  18.531  -4.889  0.00  0.00     0.188 C 
ATOM      4  N1  BAN d   1      52.092  19.379  -4.866  0.00  0.00    -0.248 N 
ATOM      5  H2  BAN d   1      51.349  19.432  -4.199  0.00  0.00     0.196 HD
ATOM      6  O1  BAN d   1      54.027  18.603  -5.934  0.00  0.00    -0.174 OA
BRANCH   4   7
ATOM      7  OH1 BAN d   1      52.308  20.209  -6.041  0.00  0.00    -0.288 OA
ATOM      8  H1  BAN d   1      51.612  20.852  -6.106  0.00  0.00     0.244 HD
ENDBRANCH   4   7
ENDBRANCH   2   3
BRANCH   2   9
ATOM      9  CB2 BAN d   1      52.725  17.998  -2.605  0.00  0.00    -0.022 C 
ATOM     10  H4  BAN d   1      51.882  17.317  -2.414  0.00  0.00     0.042 H 
ATOM     11  H5  BAN d   1      52.341  19.007  -2.814  0.00  0.00     0.042 H 
BRANCH   9  12
ATOM     12  CG2 BAN d   1      53.452  18.117  -1.270  0.00  0.00    -0.057 A 
ATOM     13  CD1 BAN d   1      52.709  17.714  -0.207  0.00  0.00    -0.077 A 
ATOM     14  CE1 BAN d   1      53.259  17.795   1.005  0.00  0.00    -0.082 A 
ATOM     15  H6  BAN d   1      51.701  17.338  -0.340  0.00  0.00     0.084 H 
ATOM     16  CZ2 BAN d   1      54.532  18.277   1.145  0.00  0.00    -0.083 A 
ATOM     17  H8  BAN d   1      52.699  17.480   1.878  0.00  0.00     0.083 H 
ATOM     18  CE2 BAN d   1      55.246  18.708   0.074  0.00  0.00    -0.082 A 
ATOM     19  H10 BAN d   1      54.980  18.315   2.132  0.00  0.00     0.083 H 
ATOM     20  CD2 BAN d   1      54.702  18.632  -1.132  0.00  0.00    -0.077 A 
ATOM     21  H9  BAN d   1      56.245  19.108   0.203  0.00  0.00     0.083 H 
ATOM     22  H7  BAN d   1      55.250  18.978  -2.001  0.00  0.00     0.084 H 
ENDBRANCH   9  12
ENDBRANCH   2   9
BRANCH   2  23
ATOM     23  C2  BAN d   1      53.783  16.276  -3.671  0.00  0.00     0.230 C 
ATOM     24  O2  BAN d   1      55.036  16.158  -3.612  0.00  0.00    -0.273 OA
ATOM     25  N3  BAN d   1      52.762  15.306  -3.667  0.00  0.00    -0.347 N 
ATOM     26  H11 BAN d   1      51.793  15.548  -3.711  0.00  0.00     0.163 HD
BRANCH  25  27
ATOM     27  CA3 BAN d   1      53.262  13.794  -3.587  0.00  0.00     0.086 C 
ATOM     28  H12 BAN d   1      54.356  13.846  -3.483  0.00  0.00     0.086 H 
BRANCH  27  29
ATOM     29  CB3 BAN d   1      52.903  13.113  -2.482  0.00  0.00    -0.049 C 
ATOM     30  H13 BAN d   1      53.301  12.089  -2.537  0.00  0.00     0.030 H 
ATOM     31  H14 BAN d   1      51.806  13.076  -2.414  0.00  0.00     0.030 H 
ATOM     32  H15 BAN d   1      53.309  13.617  -1.593  0.00  0.00     0.030 H 
ENDBRANCH  27  29
BRANCH  27  33
ATOM     33  C3  BAN d   1      53.041  13.254  -4.991  0.00  0.00     0.240 C 
ATOM     34  O3  BAN d   1      52.252  14.066  -5.609  0.00  0.00    -0.271 OA
ATOM     35  N4  BAN d   1      53.642  12.112  -5.496  0.00  0.00    -0.357 N 
ATOM     36  H16 BAN d   1      54.236  11.534  -4.936  0.00  0.00     0.162 HD
BRANCH  35  37
ATOM     37  CA4 BAN d   1      53.361  11.809  -6.870  0.00  0.00     0.015 C 
ATOM     38  H17 BAN d   1      53.942  12.425  -7.572  0.00  0.00     0.067 H 
ATOM     39  H18 BAN d   1      52.291  11.883  -7.115  0.00  0.00     0.067 H 
BRANCH  37  40
ATOM     40  C4  BAN d   1      53.904  10.223  -6.788  0.00  0.00     0.031 C 
ATOM     41  H19 BAN d   1      54.958  10.126  -6.487  0.00  0.00     0.076 H 
ATOM     42  H20 BAN d   1      53.730   9.643  -7.707  0.00  0.00     0.076 H 
BRANCH  40  43
ATOM     43  O4  BAN d   1      53.024   9.959  -5.798  0.00  0.00    -0.399 OA
ATOM     44  H21 BAN d   1      53.114   9.052  -5.529  0.00  0.00     0.209 HD
ENDBRANCH  40  43
ENDBRANCH  37  40
ENDBRANCH  35  37
ENDBRANCH  27  33
ENDBRANCH  25  27
ENDBRANCH   2  23
TORSDOF 11
