REMARK  6 active torsions:
REMARK  status: ('A' for Active; 'I' for Inactive)
REMARK    1  A    between atoms: C21_4  and  N7_5 
REMARK    2  A    between atoms: C16_11  and  N4_12 
REMARK    3  A    between atoms: C10_18  and  N3_19 
REMARK       I    between atoms: N3_19  and  C9_20 
REMARK    4  A    between atoms: C9_20  and  C6_22 
REMARK    5  A    between atoms: C3_28  and  N1_29 
REMARK    6  A    between atoms: C1_33  and  C_34 
ROOT
ATOM      1  N4  7GQ d   1     -13.987 -35.430 -11.953  0.00  0.00    -0.356 N 
ATOM      2  C15 7GQ d   1     -13.312 -36.086 -13.135  0.00  0.00     0.002 C 
ATOM      3  C11 7GQ d   1     -14.490 -36.334 -14.076  0.00  0.00    -0.017 C 
ATOM      4  C14 7GQ d   1     -15.427 -35.284 -12.226  0.00  0.00     0.033 C 
ATOM      5  C13 7GQ d   1     -15.272 -34.171 -13.275  0.00  0.00    -0.044 C 
ATOM      6  C12 7GQ d   1     -14.726 -34.888 -14.542  0.00  0.00    -0.056 C 
ATOM      7  C10 7GQ d   1     -15.641 -36.530 -13.098  0.00  0.00     0.037 C 
ATOM      8  H4  7GQ d   1     -12.827 -37.029 -12.845  0.00  0.00     0.065 H 
ATOM      9  H5  7GQ d   1     -12.569 -35.417 -13.593  0.00  0.00     0.065 H 
ATOM     10  H6  7GQ d   1     -14.363 -37.103 -14.852  0.00  0.00     0.045 H 
ATOM     11  H7  7GQ d   1     -16.119 -35.121 -11.386  0.00  0.00     0.075 H 
ATOM     12  H8  7GQ d   1     -14.562 -33.407 -12.926  0.00  0.00     0.036 H 
ATOM     13  H9  7GQ d   1     -16.243 -33.700 -13.486  0.00  0.00     0.036 H 
ATOM     14  H10 7GQ d   1     -15.463 -34.855 -15.358  0.00  0.00     0.033 H 
ATOM     15  H11 7GQ d   1     -13.786 -34.427 -14.878  0.00  0.00     0.033 H 
ATOM     16  H12 7GQ d   1     -16.615 -36.523 -13.609  0.00  0.00     0.076 H 
ENDROOT
BRANCH   7  17
ATOM     17  N3  7GQ d   1     -15.524 -37.736 -12.288  0.00  0.00    -0.350 N 
ATOM     18  C9  7GQ d   1     -15.530 -38.972 -12.813  0.00  0.00     0.253 C 
ATOM     19  O   7GQ d   1     -15.670 -39.181 -14.020  0.00  0.00    -0.268 OA
ATOM     20  H13 7GQ d   1     -15.435 -37.639 -11.297  0.00  0.00     0.163 HD
BRANCH  18  21
ATOM     21  C6  7GQ d   1     -15.364 -40.115 -11.858  0.00  0.00     0.053 A 
ATOM     22  C5  7GQ d   1     -16.327 -41.121 -11.863  0.00  0.00    -0.064 A 
ATOM     23  C4  7GQ d   1     -16.199 -42.235 -11.059  0.00  0.00    -0.054 A 
ATOM     24  H14 7GQ d   1     -17.192 -41.027 -12.510  0.00  0.00     0.085 H 
ATOM     25  C3  7GQ d   1     -15.111 -42.375 -10.203  0.00  0.00     0.061 A 
ATOM     26  H15 7GQ d   1     -16.955 -43.011 -11.095  0.00  0.00     0.087 H 
ATOM     27  C8  7GQ d   1     -14.130 -41.374 -10.187  0.00  0.00    -0.033 A 
ATOM     28  C7  7GQ d   1     -14.260 -40.270 -11.015  0.00  0.00     0.051 A 
ATOM     29  H16 7GQ d   1     -13.273 -41.463  -9.530  0.00  0.00     0.089 H 
ATOM     30 CL   7GQ d   1     -12.944 -39.128 -11.072  0.00  0.00    -0.083 Cl
BRANCH  25  31
ATOM     31  N1  7GQ d   1     -15.019 -43.538  -9.368  0.00  0.00    -0.226 N 
ATOM     32  C2  7GQ d   1     -14.666 -43.671  -8.081  0.00  0.00     0.090 A 
ATOM     33  N   7GQ d   1     -14.777 -44.919  -7.670  0.00  0.00    -0.225 NA
ATOM     34  H17 7GQ d   1     -14.329 -42.849  -7.452  0.00  0.00     0.146 H 
ATOM     35  C1  7GQ d   1     -15.201 -45.538  -8.822  0.00  0.00     0.144 A 
ATOM     36  N2  7GQ d   1     -15.377 -44.759  -9.870  0.00  0.00    -0.151 NA
BRANCH  35  37
ATOM     37  C   7GQ d   1     -15.399 -47.012  -8.890  0.00  0.00    -0.018 C 
ATOM     38  H18 7GQ d   1     -15.198 -47.455  -7.903  0.00  0.00     0.038 H 
ATOM     39  H19 7GQ d   1     -14.709 -47.441  -9.632  0.00  0.00     0.038 H 
ATOM     40  H20 7GQ d   1     -16.436 -47.230  -9.185  0.00  0.00     0.038 H 
ENDBRANCH  35  37
ENDBRANCH  25  31
ENDBRANCH  18  21
ENDBRANCH   7  17
BRANCH   1  41
ATOM     41  C16 7GQ d   1     -13.271 -35.030 -10.805  0.00  0.00     0.163 A 
ATOM     42  C17 7GQ d   1     -13.831 -34.412  -9.672  0.00  0.00     0.162 A 
ATOM     43  C18 7GQ d   1     -13.088 -34.055  -8.534  0.00  0.00     0.075 A 
ATOM     44  O1  7GQ d   1     -15.139 -34.101  -9.507  0.00  0.00    -0.207 OA
ATOM     45  C19 7GQ d   1     -11.716 -34.347  -8.596  0.00  0.00     0.068 A 
ATOM     46  C21 7GQ d   1     -14.109 -33.499  -7.646  0.00  0.00     0.164 A 
ATOM     47 CL1  7GQ d   1     -10.615 -34.017  -7.281  0.00  0.00    -0.082 Cl
ATOM     48  C20 7GQ d   1     -11.242 -34.950  -9.764  0.00  0.00     0.026 A 
ATOM     49  N5  7GQ d   1     -11.958 -35.298 -10.841  0.00  0.00    -0.239 NA
ATOM     50  H3  7GQ d   1     -10.179 -35.159  -9.803  0.00  0.00     0.117 H 
ATOM     51  N6  7GQ d   1     -15.278 -33.500  -8.225  0.00  0.00    -0.109 NA
BRANCH  46  52
ATOM     52  N7  7GQ d   1     -13.960 -33.174  -6.356  0.00  0.00    -0.381 N 
ATOM     53  H1  7GQ d   1     -14.755 -32.788  -5.827  0.00  0.00     0.157 HD
ATOM     54  H2  7GQ d   1     -13.050 -33.310  -5.892  0.00  0.00     0.157 HD
ENDBRANCH  46  52
ENDBRANCH   1  41
TORSDOF 6
