REMARK  3 active torsions:
REMARK  status: ('A' for Active; 'I' for Inactive)
REMARK    1  A    between atoms: C05_11  and  C07_13 
REMARK    2  A    between atoms: N26_26  and  S28_28 
REMARK    3  A    between atoms: S28_28  and  C36_36 
ROOT
ATOM      1  C10 7FM d   1      -2.061 -10.359  40.570  0.00  0.00    -0.054 C 
ATOM      2  C13 7FM d   1      -3.117 -11.795  42.672  0.00  0.00    -0.005 C 
ATOM      3  C17 7FM d   1      -3.864 -12.610  43.680  0.00  0.00    -0.055 C 
ATOM      4  C20 7FM d   1      -0.697 -10.329  36.575  0.00  0.00     0.006 A 
ATOM      5  C21 7FM d   1      -1.821 -10.908  35.989  0.00  0.00     0.146 A 
ATOM      6  C24 7FM d   1      -1.660  -8.194  35.953  0.00  0.00    -0.065 A 
ATOM      7  N01 7FM d   1       2.030  -9.034  41.465  0.00  0.00    -0.074 NA
ATOM      8  C02 7FM d   1       0.939  -9.668  41.012  0.00  0.00     0.728 A 
ATOM      9  N03 7FM d   1       0.798 -10.080  39.725  0.00  0.00    -0.044 NA
ATOM     10  C04 7FM d   1       1.772  -9.843  38.830  0.00  0.00     0.159 A 
ATOM     11  C05 7FM d   1       2.920  -9.193  39.233  0.00  0.00     0.112 A 
ATOM     12  C06 7FM d   1       2.991  -8.802  40.558  0.00  0.00     0.039 A 
ATOM     13  N08 7FM d   1      -0.083  -9.881  41.951  0.00  0.00    -0.188 N 
ATOM     14  C09 7FM d   1      -1.338 -10.467  41.776  0.00  0.00     0.050 C 
ATOM     15  C11 7FM d   1      -3.302 -10.967  40.424  0.00  0.00    -0.054 C 
ATOM     16  C12 7FM d   1      -3.829 -11.687  41.476  0.00  0.00     0.052 C 
ATOM     17  C14 7FM d   1      -1.880 -11.195  42.837  0.00  0.00    -0.044 C 
ATOM     18  N15 7FM d   1      -5.040 -12.413  41.584  0.00  0.00    -0.292 N 
ATOM     19  C16 7FM d   1      -5.246 -12.699  43.018  0.00  0.00    -0.011 C 
ATOM     20  N18 7FM d   1       1.516 -10.293  37.549  0.00  0.00    -0.369 N 
ATOM     21  C19 7FM d   1       0.406 -11.143  37.209  0.00  0.00     0.021 C 
ATOM     22  N22 7FM d   1      -2.842 -10.220  35.405  0.00  0.00    -0.242 NA
ATOM     23  C23 7FM d   1      -2.736  -8.869  35.400  0.00  0.00     0.004 A 
ATOM     24  C25 7FM d   1      -0.624  -8.933  36.538  0.00  0.00    -0.070 A 
ATOM     25  N26 7FM d   1      -1.967 -12.341  35.995  0.00  0.00    -0.259 N 
ATOM     26  C27 7FM d   1      -2.568 -13.087  37.155  0.00  0.00     0.012 C 
ATOM     27  C29 7FM d   1      -4.044 -12.731  37.348  0.00  0.00    -0.049 C 
ATOM     28  C30 7FM d   1      -5.967 -12.865  40.643  0.00  0.00     0.228 C 
ATOM     29  O31 7FM d   1      -6.972 -13.505  40.969  0.00  0.00    -0.273 OA
ATOM     30  C32 7FM d   1      -4.620 -13.413  38.590  0.00  0.00    -0.056 C 
ATOM     31  C33 7FM d   1      -5.801 -12.620  39.151  0.00  0.00     0.010 C 
ATOM     32  H1  7FM d   1      -1.643  -9.794  39.745  0.00  0.00     0.087 H 
ATOM     33  H2  7FM d   1      -3.521 -13.027  44.626  0.00  0.00     0.087 H 
ATOM     34  H3  7FM d   1      -1.621  -7.111  35.933  0.00  0.00     0.085 H 
ATOM     35  H4  7FM d   1       3.880  -8.274  40.884  0.00  0.00     0.117 H 
ATOM     36  H5  7FM d   1       0.123  -9.558  42.907  0.00  0.00     0.184 HD
ATOM     37  H6  7FM d   1      -3.850 -10.876  39.493  0.00  0.00     0.087 H 
ATOM     38  H7  7FM d   1      -1.342 -11.289  43.773  0.00  0.00     0.088 H 
ATOM     39  H8  7FM d   1      -6.191 -12.928  43.509  0.00  0.00     0.112 H 
ATOM     40  H9  7FM d   1       2.156 -10.004  36.795  0.00  0.00     0.161 HD
ATOM     41  H10 7FM d   1       0.742 -11.914  36.500  0.00  0.00     0.071 H 
ATOM     42  H11 7FM d   1       0.024 -11.625  38.121  0.00  0.00     0.071 H 
ATOM     43  H12 7FM d   1      -3.530  -8.290  34.942  0.00  0.00     0.114 H 
ATOM     44  H13 7FM d   1       0.234  -8.423  36.962  0.00  0.00     0.084 H 
ATOM     45  H14 7FM d   1      -2.016 -12.829  38.071  0.00  0.00     0.066 H 
ATOM     46  H15 7FM d   1      -2.483 -14.168  36.968  0.00  0.00     0.066 H 
ATOM     47  H16 7FM d   1      -4.611 -13.058  36.464  0.00  0.00     0.035 H 
ATOM     48  H17 7FM d   1      -4.138 -11.641  37.461  0.00  0.00     0.035 H 
ATOM     49  H18 7FM d   1      -3.836 -13.483  39.358  0.00  0.00     0.033 H 
ATOM     50  H19 7FM d   1      -4.961 -14.424  38.320  0.00  0.00     0.033 H 
ATOM     51  H20 7FM d   1      -5.627 -11.547  38.980  0.00  0.00     0.047 H 
ATOM     52  H21 7FM d   1      -6.720 -12.929  38.632  0.00  0.00     0.047 H 
ENDROOT
BRANCH  25  53
ATOM     53  S28 7FM d   1      -1.469 -13.193  34.567  0.00  0.00     0.230 S 
ATOM     54  O34 7FM d   1      -0.552 -12.369  33.794  0.00  0.00    -0.206 OA
ATOM     55  O35 7FM d   1      -1.143 -14.564  34.890  0.00  0.00    -0.206 OA
BRANCH  53  56
ATOM     56  C36 7FM d   1      -3.053 -13.214  33.759  0.00  0.00     0.033 C 
ATOM     57  H22 7FM d   1      -2.964 -13.730  32.791  0.00  0.00     0.051 H 
ATOM     58  H23 7FM d   1      -3.394 -12.181  33.594  0.00  0.00     0.051 H 
ATOM     59  H24 7FM d   1      -3.780 -13.744  34.392  0.00  0.00     0.051 H 
ENDBRANCH  53  56
ENDBRANCH  25  53
BRANCH  11  60
ATOM     60  C07 7FM d   1       4.034  -8.869  38.315  0.00  0.00     0.422 C 
ATOM     61  F37 7FM d   1       5.049  -8.144  38.871  0.00  0.00    -0.166 F 
ATOM     62  F38 7FM d   1       4.612  -9.943  37.739  0.00  0.00    -0.166 F 
ATOM     63  F39 7FM d   1       3.535  -8.108  37.310  0.00  0.00    -0.166 F 
ENDBRANCH  11  60
TORSDOF 3
