REMARK  10 active torsions:
REMARK  status: ('A' for Active; 'I' for Inactive)
REMARK    1  A    between atoms: N30_16  and  C35_1 
REMARK    2  A    between atoms: S31_14  and  C34_2 
REMARK    3  A    between atoms: C6_5  and  C8_9 
REMARK    4  A    between atoms: C12_19  and  C13_6 
REMARK    5  A    between atoms: C20_7  and  N30_16 
REMARK    6  A    between atoms: N30_16  and  S31_14 
REMARK    7  A    between atoms: N10_20  and  C12_19 
REMARK    8  A    between atoms: C5_21  and  N10_20 
REMARK    9  A    between atoms: N9_27  and  C3_26 
REMARK   10  A    between atoms: N9_27  and  C11_28 
ROOT
ATOM      1  N2  YAM d   1       3.265  -8.883  41.442  0.00  0.00    -0.074 NA
ATOM      2  C7  YAM d   1       4.231  -8.555  40.563  0.00  0.00     0.039 A 
ATOM      3  C6  YAM d   1       4.171  -8.843  39.208  0.00  0.00     0.112 A 
ATOM      4  C5  YAM d   1       3.014  -9.477  38.758  0.00  0.00     0.159 A 
ATOM      5  N4  YAM d   1       2.034  -9.819  39.625  0.00  0.00    -0.044 NA
ATOM      6  C3  YAM d   1       2.178  -9.504  40.932  0.00  0.00     0.728 A 
ATOM      7  H7  YAM d   1       5.106  -8.036  40.936  0.00  0.00     0.117 H 
ENDROOT
BRANCH   4   8
ATOM      8  N10 YAM d   1       2.872  -9.776  37.410  0.00  0.00    -0.369 N 
ATOM      9  H14 YAM d   1       3.550  -9.417  36.722  0.00  0.00     0.161 HD
BRANCH   8  10
ATOM     10  C12 YAM d   1       1.762 -10.597  36.983  0.00  0.00     0.021 C 
ATOM     11  H12 YAM d   1       2.065 -11.193  36.109  0.00  0.00     0.071 H 
ATOM     12  H13 YAM d   1       1.471 -11.270  37.803  0.00  0.00     0.071 H 
BRANCH  10  13
ATOM     13  C13 YAM d   1       0.594  -9.731  36.613  0.00  0.00     0.006 A 
ATOM     14  C20 YAM d   1      -0.660 -10.275  36.309  0.00  0.00     0.146 A 
ATOM     15  N1  YAM d   1      -1.733  -9.510  35.967  0.00  0.00    -0.242 NA
ATOM     16  C19 YAM d   1      -1.548  -8.172  35.933  0.00  0.00     0.004 A 
ATOM     17  C18 YAM d   1      -0.348  -7.532  36.225  0.00  0.00    -0.065 A 
ATOM     18  H10 YAM d   1      -2.395  -7.553  35.659  0.00  0.00     0.114 H 
ATOM     19  C17 YAM d   1       0.735  -8.331  36.569  0.00  0.00    -0.070 A 
ATOM     20  H8  YAM d   1      -0.261  -6.452  36.186  0.00  0.00     0.085 H 
ATOM     21  H11 YAM d   1       1.690  -7.876  36.804  0.00  0.00     0.084 H 
BRANCH  14  22
ATOM     22  N30 YAM d   1      -0.888 -11.728  36.329  0.00  0.00    -0.264 N 
BRANCH  22  23
ATOM     23  C35 YAM d   1      -1.634 -12.372  37.433  0.00  0.00    -0.002 C 
ATOM     24  H1  YAM d   1      -1.890 -11.618  38.192  0.00  0.00     0.058 H 
ATOM     25  H2  YAM d   1      -1.010 -13.155  37.890  0.00  0.00     0.058 H 
ATOM     26  H3  YAM d   1      -2.557 -12.822  37.038  0.00  0.00     0.058 H 
ENDBRANCH  22  23
BRANCH  22  27
ATOM     27  S31 YAM d   1      -0.362 -12.680  35.002  0.00  0.00     0.230 S 
ATOM     28  O33 YAM d   1       0.751 -12.047  34.307  0.00  0.00    -0.206 OA
ATOM     29  O32 YAM d   1      -0.382 -14.088  35.321  0.00  0.00    -0.206 OA
BRANCH  27  30
ATOM     30  C34 YAM d   1      -1.798 -12.338  33.985  0.00  0.00     0.033 C 
ATOM     31  H4  YAM d   1      -1.815 -11.270  33.722  0.00  0.00     0.051 H 
ATOM     32  H5  YAM d   1      -2.711 -12.593  34.542  0.00  0.00     0.051 H 
ATOM     33  H6  YAM d   1      -1.749 -12.941  33.066  0.00  0.00     0.051 H 
ENDBRANCH  27  30
ENDBRANCH  22  27
ENDBRANCH  14  22
ENDBRANCH  10  13
ENDBRANCH   8  10
ENDBRANCH   4   8
BRANCH   3  34
ATOM     34  C8  YAM d   1       5.262  -8.419  38.285  0.00  0.00     0.422 C 
ATOM     35  F29 YAM d   1       4.772  -7.592  37.311  0.00  0.00    -0.166 F 
ATOM     36  F28 YAM d   1       6.206  -7.635  38.877  0.00  0.00    -0.166 F 
ATOM     37  F27 YAM d   1       5.898  -9.444  37.667  0.00  0.00    -0.166 F 
ENDBRANCH   3  34
BRANCH   6  38
ATOM     38  N9  YAM d   1       1.167  -9.820  41.835  0.00  0.00    -0.188 N 
ATOM     39  H15 YAM d   1       1.438  -9.732  42.825  0.00  0.00     0.184 HD
BRANCH  38  40
ATOM     40  C11 YAM d   1      -0.159 -10.238  41.632  0.00  0.00     0.050 A 
ATOM     41  C16 YAM d   1      -0.906 -10.003  40.447  0.00  0.00    -0.054 A 
ATOM     42  C15 YAM d   1      -2.223 -10.442  40.294  0.00  0.00    -0.054 A 
ATOM     43  H9  YAM d   1      -0.437  -9.463  39.632  0.00  0.00     0.087 H 
ATOM     44  C21 YAM d   1      -2.766 -11.123  41.360  0.00  0.00     0.041 A 
ATOM     45  H19 YAM d   1      -2.786 -10.257  39.386  0.00  0.00     0.087 H 
ATOM     46  C22 YAM d   1      -2.053 -11.368  42.526  0.00  0.00    -0.021 A 
ATOM     47  N25 YAM d   1      -4.042 -11.667  41.473  0.00  0.00    -0.326 N 
ATOM     48  C14 YAM d   1      -0.757 -10.948  42.689  0.00  0.00    -0.048 A 
ATOM     49  C23 YAM d   1      -2.904 -12.127  43.488  0.00  0.00     0.035 A 
ATOM     50  H16 YAM d   1      -0.212 -11.156  43.602  0.00  0.00     0.087 H 
ATOM     51  C24 YAM d   1      -4.218 -12.295  42.714  0.00  0.00     0.226 A 
ATOM     52  H17 YAM d   1      -3.060 -11.557  44.416  0.00  0.00     0.054 H 
ATOM     53  H18 YAM d   1      -2.458 -13.103  43.728  0.00  0.00     0.054 H 
ATOM     54  O26 YAM d   1      -5.206 -12.881  43.144  0.00  0.00    -0.273 OA
ATOM     55  H20 YAM d   1      -4.743 -11.617  40.761  0.00  0.00     0.169 HD
ENDBRANCH  38  40
ENDBRANCH   6  38
TORSDOF 10
