REMARK  2 active torsions:
REMARK  status: ('A' for Active; 'I' for Inactive)
REMARK    1  A    between atoms: NAQ_6  and  CAN_7 
REMARK    2  A    between atoms: CAJ_12  and  CAH_13 
ROOT
ATOM      1  CAH 7GK d   1      22.684  35.483  -1.882  0.00  0.00     0.045 A 
ATOM      2  CAI 7GK d   1      23.012  36.648  -1.340  0.00  0.00    -0.041 A 
ATOM      3  CAE 7GK d   1      23.012  36.470  -0.020  0.00  0.00     0.033 A 
ATOM      4  CAD 7GK d   1      23.269  37.321   0.973  0.00  0.00     0.060 A 
ATOM      5  CAK 7GK d   1      23.613  38.674   0.678  0.00  0.00     0.100 C 
ATOM      6  NAW 7GK d   1      23.887  39.749   0.446  0.00  0.00    -0.191 NA
ATOM      7  CAA 7GK d   1      23.206  36.902   2.295  0.00  0.00    -0.045 A 
ATOM      8  CAB 7GK d   1      22.870  35.585   2.563  0.00  0.00     0.006 A 
ATOM      9  NAC 7GK d   1      22.611  34.736   1.486  0.00  0.00    -0.242 NA
ATOM     10  CAF 7GK d   1      22.687  35.196   0.229  0.00  0.00     0.139 A 
ATOM     11  NAG 7GK d   1      22.487  34.581  -0.933  0.00  0.00    -0.340 N 
ATOM     12  H15 7GK d   1      23.238  37.571  -1.871  0.00  0.00     0.088 H 
ATOM     13  H16 7GK d   1      23.416  37.593   3.103  0.00  0.00     0.088 H 
ATOM     14  H17 7GK d   1      22.810  35.223   3.583  0.00  0.00     0.114 H 
ATOM     15  H18 7GK d   1      22.229  33.593  -1.069  0.00  0.00     0.167 HD
ENDROOT
BRANCH   1  16
ATOM     16  CAJ 7GK d   1      22.584  35.245  -3.186  0.00  0.00    -0.009 A 
ATOM     17  CAP 7GK d   1      22.800  36.267  -4.103  0.00  0.00    -0.069 A 
ATOM     18  CAO 7GK d   1      22.694  36.013  -5.465  0.00  0.00    -0.057 A 
ATOM     19  H12 7GK d   1      23.051  37.263  -3.756  0.00  0.00     0.085 H 
ATOM     20  CAN 7GK d   1      22.373  34.736  -5.910  0.00  0.00     0.030 A 
ATOM     21  H11 7GK d   1      22.862  36.810  -6.180  0.00  0.00     0.086 H 
ATOM     22  CAM 7GK d   1      22.157  33.714  -4.994  0.00  0.00    -0.057 A 
ATOM     23  CAL 7GK d   1      22.261  33.969  -3.632  0.00  0.00    -0.069 A 
ATOM     24  H13 7GK d   1      21.907  32.718  -5.342  0.00  0.00     0.086 H 
ATOM     25  H14 7GK d   1      22.090  33.172  -2.917  0.00  0.00     0.085 H 
BRANCH  20  26
ATOM     26  NAQ 7GK d   1      22.272  34.488  -7.221  0.00  0.00    -0.378 N 
ATOM     27  CAR 7GK d   1      22.069  35.545  -8.220  0.00  0.00     0.018 C 
ATOM     28  CAS 7GK d   1      22.836  35.205  -9.488  0.00  0.00     0.096 C 
ATOM     29  H1  7GK d   1      20.997  35.628  -8.452  0.00  0.00     0.066 H 
ATOM     30  H2  7GK d   1      22.432  36.502  -7.818  0.00  0.00     0.066 H 
ATOM     31  NAT 7GK d   1      22.420  33.923 -10.089  0.00  0.00    -0.072 N 
ATOM     32  H3  7GK d   1      23.907  35.146  -9.244  0.00  0.00     0.078 H 
ATOM     33  H4  7GK d   1      22.670  36.006 -10.223  0.00  0.00     0.078 H 
ATOM     34  CAU 7GK d   1      22.710  32.921  -9.044  0.00  0.00     0.096 C 
ATOM     35  H5  7GK d   1      22.950  33.731 -10.925  0.00  0.00     0.277 HD
ATOM     36  H6  7GK d   1      21.437  33.934 -10.310  0.00  0.00     0.277 HD
ATOM     37  CAV 7GK d   1      21.937  33.163  -7.757  0.00  0.00     0.018 C 
ATOM     38  H7  7GK d   1      23.786  32.952  -8.818  0.00  0.00     0.078 H 
ATOM     39  H8  7GK d   1      22.445  31.925  -9.430  0.00  0.00     0.078 H 
ATOM     40  H9  7GK d   1      22.204  32.392  -7.019  0.00  0.00     0.066 H 
ATOM     41  H10 7GK d   1      20.858  33.114  -7.964  0.00  0.00     0.066 H 
ENDBRANCH  20  26
ENDBRANCH   1  16
TORSDOF 2
