REMARK  3 active torsions:
REMARK  status: ('A' for Active; 'I' for Inactive)
REMARK    1  A    between atoms: C4_13  and  C17_3 
REMARK    2  A    between atoms: N7_16  and  C6_15 
REMARK       I    between atoms: C8_17  and  N7_16 
REMARK    3  A    between atoms: C8_17  and  C10_19 
ROOT
ATOM      1  C1  7H3 d   1     -28.304  49.990  20.998  0.00  0.00    -0.054 A 
ATOM      2  C2  7H3 d   1     -28.750  50.632  19.825  0.00  0.00    -0.043 A 
ATOM      3  C3  7H3 d   1     -28.186  51.862  19.416  0.00  0.00     0.127 A 
ATOM      4  C4  7H3 d   1     -27.179  52.494  20.170  0.00  0.00     0.038 A 
ATOM      5  C5  7H3 d   1     -26.748  51.826  21.324  0.00  0.00    -0.043 A 
ATOM      6  C6  7H3 d   1     -27.278  50.600  21.750  0.00  0.00     0.035 A 
ATOM      7  F27 7H3 d   1     -28.662  52.410  18.284  0.00  0.00    -0.205 F 
ATOM      8  H10 7H3 d   1     -28.739  49.049  21.315  0.00  0.00     0.087 H 
ATOM      9  H11 7H3 d   1     -29.534  50.178  19.230  0.00  0.00     0.088 H 
ATOM     10  H12 7H3 d   1     -25.964  52.281  21.918  0.00  0.00     0.088 H 
ENDROOT
BRANCH   4  11
ATOM     11  C17 7H3 d   1     -26.577  53.831  19.714  0.00  0.00     0.171 C 
ATOM     12  C18 7H3 d   1     -25.671  53.591  18.503  0.00  0.00     0.009 C 
ATOM     13  C19 7H3 d   1     -25.554  55.016  17.948  0.00  0.00    -0.036 C 
ATOM     14  C22 7H3 d   1     -24.304  52.991  18.808  0.00  0.00    -0.008 C 
ATOM     15  H1  7H3 d   1     -26.175  52.931  17.782  0.00  0.00     0.049 H 
ATOM     16  C20 7H3 d   1     -26.990  55.513  18.139  0.00  0.00     0.024 C 
ATOM     17  H2  7H3 d   1     -25.263  55.015  16.887  0.00  0.00     0.036 H 
ATOM     18  H3  7H3 d   1     -24.837  55.618  18.525  0.00  0.00     0.036 H 
ATOM     19  O21 7H3 d   1     -27.595  54.693  19.166  0.00  0.00    -0.356 OA
ATOM     20  H4  7H3 d   1     -27.551  55.413  17.198  0.00  0.00     0.074 H 
ATOM     21  H5  7H3 d   1     -26.985  56.567  18.453  0.00  0.00     0.074 H 
ATOM     22  S23 7H3 d   1     -23.593  53.829  20.231  0.00  0.00    -0.094 SA
ATOM     23  H6  7H3 d   1     -23.644  53.120  17.938  0.00  0.00     0.050 H 
ATOM     24  H7  7H3 d   1     -24.414  51.919  19.030  0.00  0.00     0.050 H 
ATOM     25  C24 7H3 d   1     -24.862  54.304  21.351  0.00  0.00     0.136 C 
ATOM     26  N25 7H3 d   1     -26.014  54.577  20.840  0.00  0.00    -0.335 N 
ATOM     27  N26 7H3 d   1     -24.486  55.035  22.408  0.00  0.00    -0.380 N 
ATOM     28  H15 7H3 d   1     -26.561  55.352  21.241  0.00  0.00     0.165 HD
ATOM     29  H16 7H3 d   1     -25.187  55.342  23.098  0.00  0.00     0.158 HD
ATOM     30  H17 7H3 d   1     -23.496  55.290  22.532  0.00  0.00     0.158 HD
ENDBRANCH   4  11
BRANCH   6  31
ATOM     31  N7  7H3 d   1     -26.792  50.073  22.890  0.00  0.00    -0.322 N 
ATOM     32  C8  7H3 d   1     -26.834  48.836  23.441  0.00  0.00     0.274 C 
ATOM     33  O9  7H3 d   1     -27.482  47.936  22.911  0.00  0.00    -0.266 OA
ATOM     34  H13 7H3 d   1     -26.294  50.736  23.449  0.00  0.00     0.169 HD
BRANCH  32  35
ATOM     35  C10 7H3 d   1     -26.155  48.494  24.718  0.00  0.00     0.124 A 
ATOM     36  C11 7H3 d   1     -25.874  49.441  25.694  0.00  0.00    -0.048 A 
ATOM     37  C12 7H3 d   1     -25.252  49.048  26.893  0.00  0.00    -0.062 A 
ATOM     38  H8  7H3 d   1     -26.133  50.481  25.532  0.00  0.00     0.087 H 
ATOM     39  C13 7H3 d   1     -24.919  47.699  27.124  0.00  0.00     0.028 A 
ATOM     40  H9  7H3 d   1     -25.026  49.792  27.648  0.00  0.00     0.085 H 
ATOM     41  C14 7H3 d   1     -25.240  46.799  26.097  0.00  0.00     0.020 A 
ATOM     42 BR16 7H3 d   1     -24.115  47.082  28.730  0.00  0.00    -0.050 Br
ATOM     43  N15 7H3 d   1     -25.834  47.207  24.944  0.00  0.00    -0.254 NA
ATOM     44  H14 7H3 d   1     -25.008  45.748  26.226  0.00  0.00     0.116 H 
ENDBRANCH  32  35
ENDBRANCH   6  31
TORSDOF 3
