REMARK  5 active torsions:
REMARK  status: ('A' for Active; 'I' for Inactive)
REMARK    1  A    between atoms: N2_3  and  C5_13 
REMARK    2  A    between atoms: C10_16  and  N2_3 
REMARK    3  A    between atoms: C7_4  and  C8_8 
REMARK       I    between atoms: N1_14  and  C7_4 
REMARK    4  A    between atoms: C8_8  and  C9_6 
REMARK    5  A    between atoms: C2_11  and  C1_10 
ROOT
ATOM      1  C4  7H4 d   1      -2.754  17.864  -4.456  0.00  0.00    -0.043 C 
ATOM      2  C7  7H4 d   1       0.058  20.476  -6.106  0.00  0.00     0.219 C 
ATOM      3  C6  7H4 d   1      -0.613  18.056  -5.771  0.00  0.00     0.017 C 
ATOM      4  C2  7H4 d   1      -2.427  19.758  -6.121  0.00  0.00     0.011 C 
ATOM      5  C3  7H4 d   1      -3.082  19.323  -4.815  0.00  0.00    -0.044 C 
ATOM      6  C5  7H4 d   1      -1.257  17.579  -4.477  0.00  0.00     0.026 C 
ATOM      7  N1  7H4 d   1      -0.950  19.462  -6.054  0.00  0.00    -0.346 N 
ATOM      8  O1  7H4 d   1       1.228  20.249  -5.758  0.00  0.00    -0.273 OA
ATOM      9  H2  7H4 d   1      -3.249  17.202  -5.182  0.00  0.00     0.036 H 
ATOM     10  H3  7H4 d   1      -3.139  17.654  -3.447  0.00  0.00     0.036 H 
ATOM     11  H5  7H4 d   1      -0.970  17.429  -6.601  0.00  0.00     0.067 H 
ATOM     12  H6  7H4 d   1       0.479  17.961  -5.683  0.00  0.00     0.067 H 
ATOM     13  H16 7H4 d   1      -2.527  20.852  -6.180  0.00  0.00     0.072 H 
ATOM     14  H17 7H4 d   1      -2.724  19.976  -4.005  0.00  0.00     0.036 H 
ATOM     15  H18 7H4 d   1      -4.173  19.426  -4.915  0.00  0.00     0.036 H 
ATOM     16  H19 7H4 d   1      -0.784  18.087  -3.624  0.00  0.00     0.074 H 
ENDROOT
BRANCH   6  17
ATOM     17  N2  7H4 d   1      -1.034  16.144  -4.383  0.00  0.00    -0.368 N 
ATOM     18  H4  7H4 d   1      -1.818  15.544  -4.677  0.00  0.00     0.161 HD
BRANCH  17  19
ATOM     19  C10 7H4 d   1       0.107  15.484  -3.945  0.00  0.00     0.139 A 
ATOM     20  N5  7H4 d   1       1.223  16.187  -3.533  0.00  0.00    -0.224 NA
ATOM     21  C15 7H4 d   1       2.303  15.454  -3.133  0.00  0.00     0.091 A 
ATOM     22  N4  7H4 d   1       2.449  14.103  -3.062  0.00  0.00    -0.223 NA
ATOM     23  H21 7H4 d   1       3.168  16.031  -2.828  0.00  0.00     0.146 H 
ATOM     24  C14 7H4 d   1       1.311  13.437  -3.484  0.00  0.00     0.142 A 
ATOM     25  N3  7H4 d   1       1.153  12.078  -3.567  0.00  0.00    -0.350 N 
ATOM     26  C11 7H4 d   1       0.103  14.052  -3.949  0.00  0.00     0.057 A 
ATOM     27  C13 7H4 d   1      -0.142  11.810  -4.084  0.00  0.00    -0.020 A 
ATOM     28  H1  7H4 d   1       1.854  11.372  -3.300  0.00  0.00     0.166 HD
ATOM     29  C12 7H4 d   1      -0.791  13.008  -4.338  0.00  0.00    -0.051 A 
ATOM     30  H10 7H4 d   1      -0.560  10.819  -4.254  0.00  0.00     0.111 H 
ATOM     31  H20 7H4 d   1      -1.790  13.130  -4.754  0.00  0.00     0.087 H 
ENDBRANCH  17  19
ENDBRANCH   6  17
BRANCH   4  32
ATOM     32  C1  7H4 d   1      -3.124  19.209  -7.362  0.00  0.00    -0.057 C 
ATOM     33  H13 7H4 d   1      -4.192  19.470  -7.328  0.00  0.00     0.030 H 
ATOM     34  H14 7H4 d   1      -3.015  18.115  -7.390  0.00  0.00     0.030 H 
ATOM     35  H15 7H4 d   1      -2.668  19.646  -8.262  0.00  0.00     0.030 H 
ENDBRANCH   4  32
BRANCH   2  36
ATOM     36  C8  7H4 d   1      -0.262  21.938  -6.503  0.00  0.00     0.006 C 
ATOM     37  H11 7H4 d   1       0.591  22.587  -6.254  0.00  0.00     0.046 H 
ATOM     38  H12 7H4 d   1      -1.156  22.284  -5.963  0.00  0.00     0.046 H 
BRANCH  36  39
ATOM     39  C9  7H4 d   1      -0.519  21.978  -8.001  0.00  0.00    -0.068 C 
ATOM     40  H7  7H4 d   1      -0.749  23.009  -8.306  0.00  0.00     0.028 H 
ATOM     41  H8  7H4 d   1      -1.370  21.325  -8.245  0.00  0.00     0.028 H 
ATOM     42  H9  7H4 d   1       0.376  21.628  -8.536  0.00  0.00     0.028 H 
ENDBRANCH  36  39
ENDBRANCH   2  36
TORSDOF 5
