REMARK  10 active torsions:
REMARK  status: ('A' for Active; 'I' for Inactive)
REMARK    1  A    between atoms: C2_2  and  C1_1 
REMARK    2  A    between atoms: C4_4  and  O4_15 
REMARK    3  A    between atoms: N5_12  and  C5_5 
REMARK    4  A    between atoms: C6_6  and  C7_7 
REMARK    5  A    between atoms: C7_7  and  C8_8 
REMARK    6  A    between atoms: C7_7  and  O7_17 
REMARK    7  A    between atoms: C8_8  and  C9_9 
REMARK    8  A    between atoms: C8_8  and  O8_18 
REMARK    9  A    between atoms: C9_9  and  O9_19 
REMARK   10  A    between atoms: C10_10  and  C11_11 
REMARK       I    between atoms: C10_10  and  N5_12 
ROOT
ATOM      1  C2  SIA d   1      39.955  13.695  60.980  0.00  0.00     0.125 C 
ATOM      2  C3  SIA d   1      40.099  15.212  60.910  0.00  0.00    -0.005 C 
ATOM      3  C4  SIA d   1      40.220  15.734  59.512  0.00  0.00     0.060 C 
ATOM      4  C5  SIA d   1      39.113  15.130  58.669  0.00  0.00     0.064 C 
ATOM      5  C6  SIA d   1      39.286  13.631  58.690  0.00  0.00     0.088 C 
ATOM      6  O6  SIA d   1      38.987  13.248  60.031  0.00  0.00    -0.365 OA
ATOM      7  H1  SIA d   1      39.238  13.744  61.812  0.00  0.00     0.100 H 
ATOM      8  H2  SIA d   1      41.000  15.503  61.470  0.00  0.00     0.041 H 
ATOM      9  H3  SIA d   1      39.214  15.668  61.377  0.00  0.00     0.041 H 
ATOM     10  H4  SIA d   1      41.199  15.455  59.095  0.00  0.00     0.086 H 
ATOM     11  H5  SIA d   1      38.135  15.396  59.097  0.00  0.00     0.080 H 
ATOM     12  H6  SIA d   1      40.320  13.361  58.430  0.00  0.00     0.090 H 
ENDROOT
BRANCH   5  13
ATOM     13  C7  SIA d   1      38.328  12.944  57.726  0.00  0.00     0.089 C 
ATOM     14  H7  SIA d   1      38.701  13.075  56.700  0.00  0.00     0.091 H 
BRANCH  13  15
ATOM     15  C8  SIA d   1      38.226  11.454  58.027  0.00  0.00     0.083 C 
ATOM     16  H8  SIA d   1      37.959  11.323  59.086  0.00  0.00     0.090 H 
BRANCH  15  17
ATOM     17  C9  SIA d   1      37.158  10.794  57.164  0.00  0.00     0.043 C 
ATOM     18  H9  SIA d   1      37.230  11.176  56.135  0.00  0.00     0.078 H 
ATOM     19  H10 SIA d   1      36.163  11.025  57.572  0.00  0.00     0.078 H 
BRANCH  17  20
ATOM     20  O9  SIA d   1      37.355   9.375  57.161  0.00  0.00    -0.398 OA
ATOM     21  H18 SIA d   1      38.215   9.177  56.809  0.00  0.00     0.209 HD
ENDBRANCH  17  20
ENDBRANCH  15  17
BRANCH  15  22
ATOM     22  O8  SIA d   1      39.491  10.830  57.781  0.00  0.00    -0.391 OA
ATOM     23  H17 SIA d   1      39.435   9.907  57.997  0.00  0.00     0.210 HD
ENDBRANCH  15  22
ENDBRANCH  13  15
BRANCH  13  24
ATOM     24  O7  SIA d   1      37.031  13.543  57.835  0.00  0.00    -0.390 OA
ATOM     25  H16 SIA d   1      37.096  14.472  57.647  0.00  0.00     0.210 HD
ENDBRANCH  13  24
ENDBRANCH   5  13
BRANCH   4  26
ATOM     26  N5  SIA d   1      39.187  15.627  57.310  0.00  0.00    -0.352 N 
ATOM     27  C10 SIA d   1      38.217  16.374  56.789  0.00  0.00     0.214 C 
ATOM     28  O10 SIA d   1      37.201  16.642  57.408  0.00  0.00    -0.274 OA
ATOM     29  H14 SIA d   1      39.985  15.403  56.751  0.00  0.00     0.163 HD
BRANCH  27  30
ATOM     30  C11 SIA d   1      38.455  16.865  55.392  0.00  0.00    -0.003 C 
ATOM     31  H11 SIA d   1      37.595  17.468  55.064  0.00  0.00     0.040 H 
ATOM     32  H12 SIA d   1      38.579  16.005  54.717  0.00  0.00     0.040 H 
ATOM     33  H13 SIA d   1      39.365  17.482  55.370  0.00  0.00     0.040 H 
ENDBRANCH  27  30
ENDBRANCH   4  26
BRANCH   3  34
ATOM     34  O4  SIA d   1      40.092  17.160  59.520  0.00  0.00    -0.393 OA
ATOM     35  H15 SIA d   1      40.786  17.536  60.048  0.00  0.00     0.210 HD
ENDBRANCH   3  34
BRANCH   1  36
ATOM     36  C1  SIA d   1      40.792  12.742  61.729  0.00  0.00     0.203 C 
ATOM     37  O1A SIA d   1      41.147  11.730  61.108  0.00  0.00    -0.646 OA
ATOM     38  O1B SIA d   1      41.026  13.016  62.911  0.00  0.00    -0.646 OA
ENDBRANCH   1  36
TORSDOF 10
