REMARK WARNING: 32 MAX_TORS EXCEEDED!!!
REMARK  41 active torsions:
REMARK  status: ('A' for Active; 'I' for Inactive)
REMARK    1  A    between atoms: C1_1  and  O1_7 
REMARK    2  A    between atoms: C2_2  and  O2_8 
REMARK    3  A    between atoms: C3_3  and  O3_9 
REMARK    4  A    between atoms: O4_10  and  C4_4 
REMARK    5  A    between atoms: C5_5  and  C6_6 
REMARK    6  A    between atoms: C6_6  and  O6_12 
REMARK    7  A    between atoms: O3_9  and  C2_14 
REMARK    8  A    between atoms: C1_33  and  O4_10 
REMARK    9  A    between atoms: C2_14  and  C1_13 
REMARK   10  A    between atoms: C4_16  and  O4_27 
REMARK   11  A    between atoms: C5_17  and  N5_24 
REMARK   12  A    between atoms: C6_18  and  C7_19 
REMARK   13  A    between atoms: C7_19  and  C8_20 
REMARK   14  A    between atoms: C7_19  and  O7_29 
REMARK   15  A    between atoms: C8_20  and  C9_21 
REMARK   16  A    between atoms: C8_20  and  O8_30 
REMARK   17  A    between atoms: C9_21  and  O9_31 
REMARK   18  A    between atoms: C10_22  and  C11_23 
REMARK       I    between atoms: N5_24  and  C10_22 
REMARK   19  A    between atoms: C2_34  and  N2_41 
REMARK   20  A    between atoms: O3_42  and  C3_35 
REMARK   21  A    between atoms: C4_36  and  O4_43 
REMARK   22  A    between atoms: C5_37  and  C6_38 
REMARK   23  A    between atoms: C6_38  and  O6_45 
REMARK   24  A    between atoms: C7_39  and  C8_40 
REMARK       I    between atoms: N2_41  and  C7_39 
REMARK   25  A    between atoms: C1_47  and  O3_42 
REMARK   26  A    between atoms: C2_48  and  O2_53 
REMARK   27  A    between atoms: O3_54  and  C3_49 
REMARK   28  A    between atoms: C4_50  and  O4_55 
REMARK   29  A    between atoms: C5_51  and  C6_52 
REMARK   30  A    between atoms: C6_52  and  O6_57 
REMARK   31  A    between atoms: C2_59  and  O3_54 
REMARK   32  A    between atoms: C2_59  and  C1_58 
REMARK   33  A    between atoms: C4_61  and  O4_72 
REMARK   34  A    between atoms: N5_69  and  C5_62 
REMARK   35  A    between atoms: C6_63  and  C7_64 
REMARK   36  A    between atoms: C7_64  and  C8_65 
REMARK   37  A    between atoms: C7_64  and  O7_74 
REMARK   38  A    between atoms: C8_65  and  C9_66 
REMARK   39  A    between atoms: C8_65  and  O8_75 
REMARK   40  A    between atoms: C9_66  and  O9_76 
REMARK   41  A    between atoms: C10_67  and  C11_68 
REMARK       I    between atoms: C10_67  and  N5_69 
ROOT
ATOM      1  H28 GAL d   1      -1.475  -2.002  12.820  0.00  0.00     0.132 H 
ATOM      2  H29 GAL d   1      -0.593  -1.295  15.638  0.00  0.00     0.084 H 
ATOM      3  H30 GAL d   1       0.475   0.049  13.128  0.00  0.00     0.091 H 
ATOM      4  H31 GAL d   1       2.521  -1.213  13.298  0.00  0.00     0.091 H 
ATOM      5  H32 GAL d   1       0.591  -2.182  12.029  0.00  0.00     0.090 H 
ATOM      6  C1  NGA d   1      -1.174  -2.300  13.835  0.00  0.00     0.154 C 
ATOM      7  C2  NGA d   1      -0.708  -1.032  14.576  0.00  0.00     0.087 C 
ATOM      8  C3  NGA d   1       0.640  -0.485  14.075  0.00  0.00     0.093 C 
ATOM      9  C4  NGA d   1       1.638  -1.614  13.816  0.00  0.00     0.089 C 
ATOM     10  C5  NGA d   1       0.981  -2.676  12.931  0.00  0.00     0.089 C 
ATOM     11  O5  NGA d   1      -0.106  -3.235  13.665  0.00  0.00    -0.349 OA
ENDROOT
BRANCH   6  12
ATOM     12  O4  GAL d   1      -2.459  -2.815  14.546  0.00  0.00    -0.348 OA
BRANCH  12  13
ATOM     13  C4  GAL d   1      -3.513  -3.407  13.777  0.00  0.00     0.096 C 
ATOM     14  C3  GAL d   1      -4.716  -2.472  13.753  0.00  0.00     0.099 C 
ATOM     15  C2  GAL d   1      -5.405  -2.432  15.114  0.00  0.00     0.110 C 
ATOM     16  H3  GAL d   1      -5.433  -2.833  13.001  0.00  0.00     0.091 H 
ATOM     17  C1  GAL d   1      -5.664  -3.838  15.637  0.00  0.00     0.156 C 
ATOM     18  H2  GAL d   1      -4.756  -1.901  15.826  0.00  0.00     0.094 H 
ATOM     19  O5  GAL d   1      -4.434  -4.558  15.685  0.00  0.00    -0.349 OA
ATOM     20  H1  GAL d   1      -6.367  -4.355  14.968  0.00  0.00     0.133 H 
ATOM     21  C5  GAL d   1      -3.885  -4.754  14.381  0.00  0.00     0.089 C 
ATOM     22  H5  GAL d   1      -4.639  -5.235  13.741  0.00  0.00     0.090 H 
ATOM     23  H4  GAL d   1      -3.163  -3.563  12.746  0.00  0.00     0.091 H 
BRANCH  14  24
ATOM     24  O3  GAL d   1      -4.285  -1.155  13.398  0.00  0.00    -0.336 OA
BRANCH  24  25
ATOM     25  C2  SIA d   1      -4.759  -0.824  11.981  0.00  0.00     0.259 C 
ATOM     26  C3  SIA d   1      -6.220  -0.826  11.562  0.00  0.00     0.024 C 
ATOM     27  C4  SIA d   1      -6.410  -0.047  10.253  0.00  0.00     0.063 C 
ATOM     28  H11 GAL d   1      -6.823  -0.356  12.353  0.00  0.00     0.045 H 
ATOM     29  H12 GAL d   1      -6.552  -1.864  11.416  0.00  0.00     0.045 H 
ATOM     30  C5  SIA d   1      -5.559  -0.653   9.171  0.00  0.00     0.064 C 
ATOM     31  H13 GAL d   1      -6.110   1.000  10.407  0.00  0.00     0.086 H 
ATOM     32  C6  SIA d   1      -4.117  -0.651   9.640  0.00  0.00     0.091 C 
ATOM     33  H14 GAL d   1      -5.883  -1.688   8.987  0.00  0.00     0.080 H 
ATOM     34  O6  SIA d   1      -3.946  -1.264  10.918  0.00  0.00    -0.336 OA
ATOM     35  H15 GAL d   1      -3.790   0.396   9.717  0.00  0.00     0.090 H 
BRANCH  25  36
ATOM     36  C1  SIA d   1      -4.259   0.555  12.218  0.00  0.00     0.239 C 
ATOM     37  O1A SIA d   1      -3.026   0.760  12.171  0.00  0.00    -0.644 OA
ATOM     38  O1B SIA d   1      -5.089   1.459  12.457  0.00  0.00    -0.644 OA
ENDBRANCH  25  36
BRANCH  27  39
ATOM     39  O4  SIA d   1      -7.789  -0.092   9.862  0.00  0.00    -0.393 OA
ATOM     40  H24 GAL d   1      -8.324   0.291  10.547  0.00  0.00     0.210 HD
ENDBRANCH  27  39
BRANCH  30  41
ATOM     41  N5  SIA d   1      -5.688   0.110   7.944  0.00  0.00    -0.352 N 
ATOM     42  C10 SIA d   1      -6.247  -0.411   6.854  0.00  0.00     0.214 C 
ATOM     43  O10 SIA d   1      -6.704  -1.540   6.836  0.00  0.00    -0.274 OA
ATOM     44  H23 GAL d   1      -5.349   1.050   7.916  0.00  0.00     0.163 HD
BRANCH  42  45
ATOM     45  C11 SIA d   1      -6.279   0.480   5.648  0.00  0.00    -0.003 C 
ATOM     46  H20 GAL d   1      -6.760  -0.051   4.813  0.00  0.00     0.040 H 
ATOM     47  H21 GAL d   1      -5.251   0.753   5.366  0.00  0.00     0.040 H 
ATOM     48  H22 GAL d   1      -6.849   1.391   5.880  0.00  0.00     0.040 H 
ENDBRANCH  42  45
ENDBRANCH  30  41
BRANCH  32  49
ATOM     49  C7  SIA d   1      -3.228  -1.366   8.626  0.00  0.00     0.089 C 
ATOM     50  H16 GAL d   1      -3.527  -1.060   7.613  0.00  0.00     0.091 H 
BRANCH  49  51
ATOM     51  C8  SIA d   1      -1.761  -1.008   8.836  0.00  0.00     0.083 C 
ATOM     52  H17 GAL d   1      -1.367  -1.602   9.674  0.00  0.00     0.090 H 
BRANCH  51  53
ATOM     53  C9  SIA d   1      -0.940  -1.312   7.587  0.00  0.00     0.043 C 
ATOM     54  H18 GAL d   1      -1.209  -2.308   7.205  0.00  0.00     0.078 H 
ATOM     55  H19 GAL d   1       0.131  -1.293   7.839  0.00  0.00     0.078 H 
BRANCH  53  56
ATOM     56  O9  SIA d   1      -1.212  -0.327   6.584  0.00  0.00    -0.398 OA
ATOM     57  H27 GAL d   1      -0.979   0.533   6.915  0.00  0.00     0.209 HD
ENDBRANCH  53  56
ENDBRANCH  51  53
BRANCH  51  58
ATOM     58  O8  SIA d   1      -1.650   0.381   9.154  0.00  0.00    -0.391 OA
ATOM     59  H26 GAL d   1      -1.976   0.898   8.427  0.00  0.00     0.210 HD
ENDBRANCH  51  58
ENDBRANCH  49  51
BRANCH  49  60
ATOM     60  O7  SIA d   1      -3.398  -2.779   8.759  0.00  0.00    -0.390 OA
ATOM     61  H25 GAL d   1      -3.127  -3.049   9.629  0.00  0.00     0.210 HD
ENDBRANCH  49  60
ENDBRANCH  32  49
ENDBRANCH  24  25
ENDBRANCH  14  24
BRANCH  15  62
ATOM     62  O2  GAL d   1      -6.650  -1.731  14.999  0.00  0.00    -0.388 OA
ATOM     63  H9  GAL d   1      -7.078  -1.707  15.847  0.00  0.00     0.210 HD
ENDBRANCH  15  62
BRANCH  17  64
ATOM     64  O1  GAL d   1      -6.224  -3.763  16.955  0.00  0.00    -0.369 OA
ATOM     65  H8  GAL d   1      -7.043  -3.283  16.923  0.00  0.00     0.212 HD
ENDBRANCH  17  64
BRANCH  21  66
ATOM     66  C6  GAL d   1      -2.666  -5.663  14.475  0.00  0.00     0.043 C 
ATOM     67  H6  GAL d   1      -1.917  -5.206  15.139  0.00  0.00     0.078 H 
ATOM     68  H7  GAL d   1      -2.233  -5.801  13.473  0.00  0.00     0.078 H 
BRANCH  66  69
ATOM     69  O6  GAL d   1      -3.060  -6.933  15.003  0.00  0.00    -0.398 OA
ATOM     70  H10 GAL d   1      -3.434  -6.813  15.868  0.00  0.00     0.209 HD
ENDBRANCH  66  69
ENDBRANCH  21  66
ENDBRANCH  12  13
ENDBRANCH   6  12
BRANCH   7  71
ATOM     71  N2  NGA d   1      -1.697   0.025  14.468  0.00  0.00    -0.349 N 
ATOM     72  C7  NGA d   1      -2.166   0.668  15.534  0.00  0.00     0.214 C 
ATOM     73  O7  NGA d   1      -1.805   0.411  16.674  0.00  0.00    -0.274 OA
ATOM     74  H38 GAL d   1      -2.037   0.278  13.562  0.00  0.00     0.163 HD
BRANCH  72  75
ATOM     75  C8  NGA d   1      -3.179   1.734  15.242  0.00  0.00    -0.003 C 
ATOM     76  H35 GAL d   1      -3.501   2.202  16.184  0.00  0.00     0.040 H 
ATOM     77  H36 GAL d   1      -4.049   1.286  14.739  0.00  0.00     0.040 H 
ATOM     78  H37 GAL d   1      -2.731   2.497  14.588  0.00  0.00     0.040 H 
ENDBRANCH  72  75
ENDBRANCH   7  71
BRANCH   8  79
ATOM     79  O3  NGA d   1       1.140   0.449  15.051  0.00  0.00    -0.348 OA
BRANCH  79  80
ATOM     80  C1  GAL d   1       2.025   1.418  14.451  0.00  0.00     0.159 C 
ATOM     81  C2  GAL d   1       1.878   2.761  15.167  0.00  0.00     0.110 C 
ATOM     82  C3  GAL d   1       2.937   3.767  14.685  0.00  0.00     0.099 C 
ATOM     83  H42 GAL d   1       2.015   2.602  16.247  0.00  0.00     0.094 H 
ATOM     84  C4  GAL d   1       4.340   3.170  14.703  0.00  0.00     0.090 C 
ATOM     85  H43 GAL d   1       2.691   4.032  13.646  0.00  0.00     0.091 H 
ATOM     86  C5  GAL d   1       4.325   1.855  13.936  0.00  0.00     0.089 C 
ATOM     87  H44 GAL d   1       5.044   3.868  14.227  0.00  0.00     0.091 H 
ATOM     88  O5  GAL d   1       3.371   0.974  14.506  0.00  0.00    -0.348 OA
ATOM     89  H45 GAL d   1       4.037   2.060  12.894  0.00  0.00     0.090 H 
ATOM     90  H41 GAL d   1       1.742   1.547  13.396  0.00  0.00     0.133 H 
BRANCH  81  91
ATOM     91  O2  GAL d   1       0.579   3.267  14.942  0.00  0.00    -0.388 OA
ATOM     92  H48 GAL d   1       0.471   4.082  15.418  0.00  0.00     0.210 HD
ENDBRANCH  81  91
BRANCH  82  93
ATOM     93  O3  GAL d   1       2.939   4.961  15.454  0.00  0.00    -0.336 OA
BRANCH  93  94
ATOM     94  C2  SIA d   1       2.320   6.060  15.033  0.00  0.00     0.259 C 
ATOM     95  C3  SIA d   1       3.094   6.896  16.046  0.00  0.00     0.024 C 
ATOM     96  C4  SIA d   1       2.341   8.172  16.396  0.00  0.00     0.063 C 
ATOM     97  H51 GAL d   1       4.072   7.162  15.619  0.00  0.00     0.045 H 
ATOM     98  H52 GAL d   1       3.242   6.304  16.961  0.00  0.00     0.045 H 
ATOM     99  C5  SIA d   1       0.893   7.866  16.763  0.00  0.00     0.064 C 
ATOM    100  H53 GAL d   1       2.353   8.844  15.525  0.00  0.00     0.086 H 
ATOM    101  C6  SIA d   1       0.236   7.002  15.693  0.00  0.00     0.091 C 
ATOM    102  H54 GAL d   1       0.881   7.316  17.715  0.00  0.00     0.080 H 
ATOM    103  O6  SIA d   1       0.996   5.810  15.509  0.00  0.00    -0.336 OA
ATOM    104  H55 GAL d   1       0.214   7.564  14.748  0.00  0.00     0.090 H 
BRANCH  94 105
ATOM    105  C1  SIA d   1       2.274   6.772  13.703  0.00  0.00     0.239 C 
ATOM    106  O1A SIA d   1       1.182   6.833  13.097  0.00  0.00    -0.644 OA
ATOM    107  O1B SIA d   1       3.330   7.273  13.259  0.00  0.00    -0.644 OA
ENDBRANCH  94 105
BRANCH  96 108
ATOM    108  O4  SIA d   1       2.987   8.819  17.499  0.00  0.00    -0.393 OA
ATOM    109  H64 GAL d   1       3.889   9.009  17.269  0.00  0.00     0.210 HD
ENDBRANCH  96 108
BRANCH  99 110
ATOM    110  N5  SIA d   1       0.149   9.098  16.928  0.00  0.00    -0.352 N 
ATOM    111  C10 SIA d   1      -0.329   9.468  18.111  0.00  0.00     0.214 C 
ATOM    112  O10 SIA d   1      -0.270   8.744  19.091  0.00  0.00    -0.274 OA
ATOM    113  H63 GAL d   1      -0.009   9.684  16.133  0.00  0.00     0.163 HD
BRANCH 111 114
ATOM    114  C11 SIA d   1      -0.946  10.833  18.165  0.00  0.00    -0.003 C 
ATOM    115  H60 GAL d   1      -1.306  11.033  19.185  0.00  0.00     0.040 H 
ATOM    116  H61 GAL d   1      -1.791  10.882  17.462  0.00  0.00     0.040 H 
ATOM    117  H62 GAL d   1      -0.194  11.586  17.887  0.00  0.00     0.040 H 
ENDBRANCH 111 114
ENDBRANCH  99 110
BRANCH 101 118
ATOM    118  C7  SIA d   1      -1.193   6.642  16.084  0.00  0.00     0.089 C 
ATOM    119  H56 GAL d   1      -1.500   7.273  16.931  0.00  0.00     0.091 H 
BRANCH 118 120
ATOM    120  C8  SIA d   1      -2.153   6.875  14.922  0.00  0.00     0.083 C 
ATOM    121  H57 GAL d   1      -3.070   6.293  15.097  0.00  0.00     0.090 H 
BRANCH 120 122
ATOM    122  C9  SIA d   1      -2.519   8.347  14.804  0.00  0.00     0.043 C 
ATOM    123  H58 GAL d   1      -1.677   8.900  14.362  0.00  0.00     0.078 H 
ATOM    124  H59 GAL d   1      -2.739   8.751  15.803  0.00  0.00     0.078 H 
BRANCH 122 125
ATOM    125  O9  SIA d   1      -3.675   8.487  13.966  0.00  0.00    -0.398 OA
ATOM    126  H67 GAL d   1      -3.902   9.406  13.893  0.00  0.00     0.209 HD
ENDBRANCH 122 125
ENDBRANCH 120 122
BRANCH 120 127
ATOM    127  O8  SIA d   1      -1.543   6.437  13.701  0.00  0.00    -0.391 OA
ATOM    128  H66 GAL d   1      -0.758   6.948  13.539  0.00  0.00     0.210 HD
ENDBRANCH 120 127
ENDBRANCH 118 120
BRANCH 118 129
ATOM    129  O7  SIA d   1      -1.247   5.268  16.477  0.00  0.00    -0.390 OA
ATOM    130  H65 GAL d   1      -0.996   4.720  15.743  0.00  0.00     0.210 HD
ENDBRANCH 118 129
ENDBRANCH 101 118
ENDBRANCH  93  94
ENDBRANCH  82  93
BRANCH  84 131
ATOM    131  O4  GAL d   1       4.741   2.934  16.038  0.00  0.00    -0.390 OA
ATOM    132  H49 GAL d   1       4.130   2.334  16.450  0.00  0.00     0.210 HD
ENDBRANCH  84 131
BRANCH  86 133
ATOM    133  C6  GAL d   1       5.705   1.209  13.938  0.00  0.00     0.043 C 
ATOM    134  H46 GAL d   1       6.172   1.336  14.926  0.00  0.00     0.078 H 
ATOM    135  H47 GAL d   1       6.336   1.681  13.170  0.00  0.00     0.078 H 
BRANCH 133 136
ATOM    136  O6  GAL d   1       5.560  -0.159  13.656  0.00  0.00    -0.398 OA
ATOM    137  H50 GAL d   1       5.013  -0.562  14.320  0.00  0.00     0.209 HD
ENDBRANCH 133 136
ENDBRANCH  86 133
ENDBRANCH  79  80
ENDBRANCH   8  79
BRANCH  10 138
ATOM    138  C6  NGA d   1       1.932  -3.783  12.485  0.00  0.00     0.043 C 
ATOM    139  H33 GAL d   1       2.884  -3.337  12.161  0.00  0.00     0.078 H 
ATOM    140  H34 GAL d   1       1.481  -4.335  11.647  0.00  0.00     0.078 H 
BRANCH 138 141
ATOM    141  O6  NGA d   1       2.176  -4.685  13.571  0.00  0.00    -0.398 OA
ATOM    142  H40 GAL d   1       2.566  -4.209  14.295  0.00  0.00     0.209 HD
ENDBRANCH 138 141
ENDBRANCH  10 138
BRANCH   9 143
ATOM    143  O4  NGA d   1       2.043  -2.164  15.078  0.00  0.00    -0.390 OA
ATOM    144  H39 GAL d   1       2.668  -2.864  14.931  0.00  0.00     0.210 HD
ENDBRANCH   9 143
TORSDOF 41
