REMARK  10 active torsions:
REMARK  status: ('A' for Active; 'I' for Inactive)
REMARK    1  A    between atoms: C2_7  and  C4_1 
REMARK    2  A    between atoms: C7_4  and  N1_40 
REMARK    3  A    between atoms: S_13  and  C25_15 
REMARK    4  A    between atoms: C23_16  and  S_13 
REMARK    5  A    between atoms: C14_22  and  C19_21 
REMARK    6  A    between atoms: C11_29  and  C13_28 
REMARK    7  A    between atoms: C11_29  and  C12_30 
REMARK    8  A    between atoms: O2_33  and  C11_29 
REMARK    9  A    between atoms: C9_34  and  O2_33 
REMARK   10  A    between atoms: C10_37  and  N4_38 
ROOT
ATOM      1  C7  7H5 d   1       8.828  -8.756  19.582  0.00  0.00     0.149 A 
ATOM      2  C9  7H5 d   1       7.121  -9.616  20.948  0.00  0.00     0.188 A 
ATOM      3  C8  7H5 d   1       8.076  -8.683  20.747  0.00  0.00     0.013 A 
ATOM      4  N2  7H5 d   1       6.932 -10.617  20.074  0.00  0.00    -0.039 NA
ATOM      5  C10 7H5 d   1       7.722 -10.702  18.992  0.00  0.00     0.724 A 
ATOM      6  N3  7H5 d   1       8.660  -9.786  18.753  0.00  0.00    -0.045 NA
ATOM      7  H23 7H5 d   1       8.251  -7.899  21.475  0.00  0.00     0.096 H 
ENDROOT
BRANCH   2   8
ATOM      8  O2  7H5 d   1       6.402  -9.525  22.096  0.00  0.00    -0.314 OA
BRANCH   8   9
ATOM      9  C11 7H5 d   1       5.706 -10.675  22.541  0.00  0.00     0.166 C 
ATOM     10  H22 7H5 d   1       5.983 -11.549  21.933  0.00  0.00     0.106 H 
BRANCH   9  11
ATOM     11  C13 7H5 d   1       4.273 -10.339  22.286  0.00  0.00    -0.009 A 
ATOM     12  C14 7H5 d   1       3.378 -11.202  21.469  0.00  0.00    -0.015 A 
ATOM     13  C15 7H5 d   1       2.071 -10.771  21.283  0.00  0.00    -0.051 A 
ATOM     14  C16 7H5 d   1       1.625  -9.589  21.870  0.00  0.00     0.035 A 
ATOM     15  H19 7H5 d   1       1.392 -11.359  20.676  0.00  0.00     0.087 H 
ATOM     16 CL   7H5 d   1      -0.054  -9.057  21.651  0.00  0.00    -0.084 Cl
ATOM     17  C17 7H5 d   1       2.449  -8.794  22.645  0.00  0.00    -0.061 A 
ATOM     18  C18 7H5 d   1       3.755  -9.164  22.840  0.00  0.00    -0.072 A 
ATOM     19  H20 7H5 d   1       2.066  -7.885  23.095  0.00  0.00     0.086 H 
ATOM     20  H21 7H5 d   1       4.401  -8.531  23.438  0.00  0.00     0.084 H 
BRANCH  12  21
ATOM     21  C19 7H5 d   1       3.867 -12.444  20.793  0.00  0.00    -0.024 A 
ATOM     22  C20 7H5 d   1       4.581 -13.477  21.423  0.00  0.00    -0.072 A 
ATOM     23  C21 7H5 d   1       5.034 -14.577  20.691  0.00  0.00    -0.081 A 
ATOM     24  H17 7H5 d   1       4.782 -13.420  22.487  0.00  0.00     0.084 H 
ATOM     25  C22 7H5 d   1       4.753 -14.675  19.324  0.00  0.00    -0.062 A 
ATOM     26  H16 7H5 d   1       5.604 -15.356  21.183  0.00  0.00     0.083 H 
ATOM     27  C23 7H5 d   1       4.065 -13.644  18.697  0.00  0.00     0.059 A 
ATOM     28  H15 7H5 d   1       5.069 -15.546  18.761  0.00  0.00     0.085 H 
ATOM     29  C24 7H5 d   1       3.613 -12.539  19.426  0.00  0.00    -0.051 A 
ATOM     30  H18 7H5 d   1       3.062 -11.752  18.925  0.00  0.00     0.087 H 
BRANCH  27  31
ATOM     31  S   7H5 d   1       3.699 -13.744  17.153  0.00  0.00     0.171 S 
ATOM     32  O4  7H5 d   1       3.702 -15.121  16.781  0.00  0.00    -0.223 OA
ATOM     33  O3  7H5 d   1       2.425 -13.127  16.893  0.00  0.00    -0.223 OA
BRANCH  31  34
ATOM     34  C25 7H5 d   1       4.737 -12.891  16.173  0.00  0.00     0.020 C 
ATOM     35  H12 7H5 d   1       5.758 -13.283  16.291  0.00  0.00     0.049 H 
ATOM     36  H13 7H5 d   1       4.717 -11.828  16.455  0.00  0.00     0.049 H 
ATOM     37  H14 7H5 d   1       4.422 -12.998  15.124  0.00  0.00     0.049 H 
ENDBRANCH  31  34
ENDBRANCH  27  31
ENDBRANCH  12  21
ENDBRANCH   9  11
BRANCH   9  38
ATOM     38  C12 7H5 d   1       6.077 -10.977  23.992  0.00  0.00     0.418 C 
ATOM     39  F   7H5 d   1       7.367 -11.331  24.051  0.00  0.00    -0.168 F 
ATOM     40  F2  7H5 d   1       5.919  -9.918  24.756  0.00  0.00    -0.168 F 
ATOM     41  F1  7H5 d   1       5.313 -11.964  24.413  0.00  0.00    -0.168 F 
ENDBRANCH   9  38
ENDBRANCH   8   9
ENDBRANCH   2   8
BRANCH   1  42
ATOM     42  N1  7H5 d   1       9.852  -7.860  19.390  0.00  0.00    -0.365 N 
ATOM     43  C6  7H5 d   1       9.914  -6.607  20.126  0.00  0.00    -0.003 C 
ATOM     44  C5  7H5 d   1      10.915  -5.650  19.529  0.00  0.00    -0.041 C 
ATOM     45  H3  7H5 d   1       8.920  -6.136  20.110  0.00  0.00     0.064 H 
ATOM     46  H4  7H5 d   1      10.203  -6.820  21.166  0.00  0.00     0.064 H 
ATOM     47  C   7H5 d   1      12.262  -6.263  19.154  0.00  0.00    -0.011 C 
ATOM     48  H1  7H5 d   1      11.098  -4.850  20.261  0.00  0.00     0.036 H 
ATOM     49  H2  7H5 d   1      10.472  -5.220  18.619  0.00  0.00     0.036 H 
ATOM     50  C3  7H5 d   1      13.015  -5.234  18.343  0.00  0.00    -0.020 C 
ATOM     51  C1  7H5 d   1      13.213  -6.623  20.329  0.00  0.00     0.090 C 
ATOM     52  C27 7H5 d   1      11.962  -7.419  18.228  0.00  0.00    -0.041 C 
ATOM     53  C2  7H5 d   1      14.482  -5.531  18.590  0.00  0.00     0.185 C 
ATOM     54  H5  7H5 d   1      12.775  -5.334  17.274  0.00  0.00     0.038 H 
ATOM     55  H6  7H5 d   1      12.765  -4.218  18.681  0.00  0.00     0.038 H 
ATOM     56  N   7H5 d   1      14.433  -5.874  19.996  0.00  0.00    -0.060 N 
ATOM     57  H7  7H5 d   1      14.807  -6.407  18.010  0.00  0.00     0.101 H 
ATOM     58  H10 7H5 d   1      14.455  -5.026  20.540  0.00  0.00     0.278 HD
ATOM     59  H11 7H5 d   1      15.236  -6.440  20.223  0.00  0.00     0.278 HD
ATOM     60  H8  7H5 d   1      13.409  -7.705  20.364  0.00  0.00     0.076 H 
ATOM     61  H9  7H5 d   1      12.796  -6.294  21.292  0.00  0.00     0.076 H 
ATOM     62  C26 7H5 d   1      10.991  -8.464  18.700  0.00  0.00    -0.003 C 
ATOM     63  H28 7H5 d   1      12.915  -7.928  18.020  0.00  0.00     0.036 H 
ATOM     64  H29 7H5 d   1      11.560  -6.996  17.295  0.00  0.00     0.036 H 
ATOM     65  H26 7H5 d   1      10.624  -9.030  17.831  0.00  0.00     0.064 H 
ATOM     66  H27 7H5 d   1      11.507  -9.146  19.391  0.00  0.00     0.064 H 
BRANCH  53  67
ATOM     67  C4  7H5 d   1      15.340  -4.391  18.187  0.00  0.00     0.204 C 
ATOM     68  O   7H5 d   1      15.439  -4.120  16.898  0.00  0.00    -0.646 OA
ATOM     69  O1  7H5 d   1      15.905  -3.697  19.027  0.00  0.00    -0.646 OA
ENDBRANCH  53  67
ENDBRANCH   1  42
BRANCH   5  70
ATOM     70  N4  7H5 d   1       7.501 -11.695  18.151  0.00  0.00    -0.231 N 
ATOM     71  H24 7H5 d   1       6.771 -12.391  18.357  0.00  0.00     0.174 HD
ATOM     72  H25 7H5 d   1       8.059 -11.774  17.289  0.00  0.00     0.174 HD
ENDBRANCH   5  70
TORSDOF 10
