REMARK WARNING: 32 MAX_TORS EXCEEDED!!!
REMARK  34 active torsions:
REMARK  status: ('A' for Active; 'I' for Inactive)
REMARK    1  A    between atoms: N_1  and  CA_2 
REMARK    2  A    between atoms: CA_2  and  C_3 
REMARK    3  A    between atoms: CA_2  and  CB_5 
REMARK       I    between atoms: C_3  and  N_7 
REMARK    4  A    between atoms: CB_5  and  OG_6 
REMARK    5  A    between atoms: N_7  and  CA_8 
REMARK    6  A    between atoms: CA_8  and  C_9 
REMARK    7  A    between atoms: CA_8  and  CB_11 
REMARK       I    between atoms: C_9  and  N_13 
REMARK    8  A    between atoms: CB_11  and  OG_12 
REMARK    9  A    between atoms: N_13  and  CA_14 
REMARK   10  A    between atoms: CA_14  and  C_15 
REMARK   11  A    between atoms: CA_14  and  CB_17 
REMARK       I    between atoms: C_15  and  N_20 
REMARK   12  A    between atoms: CB_17  and  CG1_18 
REMARK   13  A    between atoms: CB_17  and  CG2_19 
REMARK   14  A    between atoms: N_20  and  CA_21 
REMARK   15  A    between atoms: CA_21  and  C_22 
REMARK   16  A    between atoms: CA_21  and  CB_24 
REMARK       I    between atoms: C_22  and  N_36 
REMARK   17  A    between atoms: CB_24  and  CG_25 
REMARK   18  A    between atoms: CZ_30  and  OH_31 
REMARK   19  A    between atoms: OH_31  and  P_32 
REMARK   20  A    between atoms: N_36  and  CA_37 
REMARK   21  A    between atoms: CA_37  and  C_38 
REMARK   22  A    between atoms: CA_37  and  CB_40 
REMARK       I    between atoms: C_38  and  N_43 
REMARK   23  A    between atoms: CB_40  and  CG1_41 
REMARK   24  A    between atoms: CB_40  and  CG2_42 
REMARK   25  A    between atoms: CA_44  and  C_45 
REMARK       I    between atoms: C_45  and  N_50 
REMARK   26  A    between atoms: N_50  and  CA_51 
REMARK   27  A    between atoms: CA_51  and  C_52 
REMARK   28  A    between atoms: CA_51  and  CB_54 
REMARK       I    between atoms: C_52  and  N_58 
REMARK   29  A    between atoms: CB_54  and  CG_55 
REMARK   30  A    between atoms: N_58  and  CA_59 
REMARK   31  A    between atoms: CA_59  and  C_60 
REMARK   32  A    between atoms: CA_59  and  CB_62 
REMARK   33  A    between atoms: CB_62  and  CG_63 
REMARK   34  A    between atoms: CG_63  and  CD_64 
ROOT
ATOM      1  CA  PTR d   1      -4.355   5.328  23.110  0.00  0.00     0.093 C 
ATOM      2  H23 PTR d   1      -3.836   4.976  22.206  0.00  0.00     0.088 H 
ENDROOT
BRANCH   1   3
ATOM      3  N   PTR d   1      -3.431   6.112  23.912  0.00  0.00    -0.346 N 
ATOM      4  C   VAL d   1      -2.185   6.338  23.510  0.00  0.00     0.241 C 
ATOM      5  O   VAL d   1      -1.706   5.844  22.486  0.00  0.00    -0.271 OA
ATOM      6  H22 PTR d   1      -3.740   6.489  24.785  0.00  0.00     0.163 HD
BRANCH   4   7
ATOM      7  CA  VAL d   1      -1.353   7.253  24.395  0.00  0.00     0.092 C 
ATOM      8  H14 VAL d   1      -1.941   7.486  25.295  0.00  0.00     0.088 H 
BRANCH   7   9
ATOM      9  N   VAL d   1      -0.139   6.562  24.807  0.00  0.00    -0.346 N 
ATOM     10  C   SER d   1      -0.055   5.932  25.971  0.00  0.00     0.243 C 
ATOM     11  O   SER d   1      -0.980   5.901  26.792  0.00  0.00    -0.271 OA
ATOM     12  H13 VAL d   1       0.652   6.563  24.196  0.00  0.00     0.163 HD
BRANCH  10  13
ATOM     13  CA  SER d   1       1.273   5.252  26.268  0.00  0.00     0.109 C 
ATOM     14  H9  SER d   1       2.021   5.584  25.533  0.00  0.00     0.090 H 
BRANCH  13  15
ATOM     15  N   SER d   1       1.717   5.628  27.603  0.00  0.00    -0.344 N 
ATOM     16  C   SER d   1       2.106   6.875  27.860  0.00  0.00     0.251 C 
ATOM     17  O   SER d   1       2.250   7.724  26.978  0.00  0.00    -0.271 OA
ATOM     18  H8  SER d   1       1.730   4.944  28.332  0.00  0.00     0.163 HD
BRANCH  16  19
ATOM     19  CA  SER d   1       2.388   7.213  29.324  0.00  0.00     0.195 C 
ATOM     20  H4  SER d   1       1.508   7.728  29.737  0.00  0.00     0.102 H 
BRANCH  19  21
ATOM     21  N   SER d   1       2.621   6.006  30.105  0.00  0.00    -0.064 N 
ATOM     22  H1  SER d   1       2.804   6.256  31.064  0.00  0.00     0.275 HD
ATOM     23  H2  SER d   1       3.415   5.511  29.730  0.00  0.00     0.275 HD
ATOM     24  H3  SER d   1       1.806   5.415  30.062  0.00  0.00     0.275 HD
ENDBRANCH  19  21
BRANCH  19  25
ATOM     25  CB  SER d   1       3.592   8.152  29.423  0.00  0.00     0.051 C 
ATOM     26  H5  SER d   1       3.789   8.372  30.483  0.00  0.00     0.077 H 
ATOM     27  H6  SER d   1       3.363   9.087  28.890  0.00  0.00     0.077 H 
BRANCH  25  28
ATOM     28  OG  SER d   1       4.748   7.565  28.850  0.00  0.00    -0.398 OA
ATOM     29  H7  SER d   1       4.585   7.376  27.933  0.00  0.00     0.209 HD
ENDBRANCH  25  28
ENDBRANCH  19  25
ENDBRANCH  16  19
ENDBRANCH  13  15
BRANCH  13  30
ATOM     30  CB  SER d   1       1.117   3.734  26.166  0.00  0.00     0.044 C 
ATOM     31  H10 SER d   1       0.537   3.491  25.264  0.00  0.00     0.077 H 
ATOM     32  H11 SER d   1       0.583   3.366  27.055  0.00  0.00     0.077 H 
BRANCH  30  33
ATOM     33  OG  SER d   1       2.380   3.101  26.089  0.00  0.00    -0.398 OA
ATOM     34  H12 SER d   1       2.259   2.161  26.026  0.00  0.00     0.209 HD
ENDBRANCH  30  33
ENDBRANCH  13  30
ENDBRANCH  10  13
ENDBRANCH   7   9
BRANCH   7  35
ATOM     35  CB  VAL d   1      -1.019   8.580  23.693  0.00  0.00    -0.033 C 
ATOM     36  H15 VAL d   1      -0.301   8.375  22.885  0.00  0.00     0.042 H 
BRANCH  35  37
ATOM     37  CG1 VAL d   1      -2.263   9.212  23.081  0.00  0.00    -0.071 C 
ATOM     38  H16 VAL d   1      -1.990  10.157  22.588  0.00  0.00     0.028 H 
ATOM     39  H17 VAL d   1      -3.000   9.411  23.873  0.00  0.00     0.028 H 
ATOM     40  H18 VAL d   1      -2.697   8.524  22.340  0.00  0.00     0.028 H 
ENDBRANCH  35  37
BRANCH  35  41
ATOM     41  CG2 VAL d   1      -0.375   9.539  24.686  0.00  0.00    -0.071 C 
ATOM     42  H19 VAL d   1       0.521   9.071  25.120  0.00  0.00     0.028 H 
ATOM     43  H20 VAL d   1      -1.091   9.773  25.488  0.00  0.00     0.028 H 
ATOM     44  H21 VAL d   1      -0.089  10.466  24.168  0.00  0.00     0.028 H 
ENDBRANCH  35  41
ENDBRANCH   7  35
ENDBRANCH   4   7
ENDBRANCH   1   3
BRANCH   1  45
ATOM     45  C   PTR d   1      -5.554   6.173  22.701  0.00  0.00     0.241 C 
ATOM     46  O   PTR d   1      -5.843   7.210  23.310  0.00  0.00    -0.271 OA
ATOM     47  N   VAL d   1      -6.257   5.731  21.669  0.00  0.00    -0.346 N 
ATOM     48  H30 VAL d   1      -5.918   4.946  21.150  0.00  0.00     0.163 HD
BRANCH  47  49
ATOM     49  CA  VAL d   1      -7.508   6.355  21.270  0.00  0.00     0.092 C 
ATOM     50  H31 VAL d   1      -7.325   7.410  21.016  0.00  0.00     0.088 H 
BRANCH  49  51
ATOM     51  C   VAL d   1      -8.438   6.283  22.475  0.00  0.00     0.243 C 
ATOM     52  O   VAL d   1      -8.496   5.248  23.139  0.00  0.00    -0.271 OA
ATOM     53  N   PRO d   1      -9.148   7.374  22.775  0.00  0.00    -0.337 N 
ATOM     54  CA  PRO d   1      -9.958   7.403  24.000  0.00  0.00     0.091 C 
ATOM     55  CD  PRO d   1      -9.149   8.682  22.095  0.00  0.00    -0.001 C 
ATOM     56  CB  PRO d   1     -10.604   8.792  23.968  0.00  0.00    -0.036 C 
ATOM     57  H39 PRO d   1      -9.316   7.295  24.887  0.00  0.00     0.087 H 
ATOM     58  CG  PRO d   1      -9.696   9.610  23.139  0.00  0.00    -0.048 C 
ATOM     59  H40 PRO d   1     -10.681   9.207  24.984  0.00  0.00     0.036 H 
ATOM     60  H41 PRO d   1     -11.605   8.744  23.515  0.00  0.00     0.036 H 
ATOM     61  H42 PRO d   1      -8.880  10.019  23.753  0.00  0.00     0.035 H 
ATOM     62  H43 PRO d   1     -10.248  10.435  22.666  0.00  0.00     0.035 H 
ATOM     63  H44 PRO d   1      -9.796   8.664  21.206  0.00  0.00     0.064 H 
ATOM     64  H45 PRO d   1      -8.130   8.975  21.802  0.00  0.00     0.064 H 
BRANCH  54  65
ATOM     65  C   PRO d   1     -11.010   6.307  24.020  0.00  0.00     0.241 C 
ATOM     66  O   PRO d   1     -11.599   5.963  22.992  0.00  0.00    -0.271 OA
ATOM     67  N   ASP d   1     -11.243   5.764  25.214  0.00  0.00    -0.346 N 
ATOM     68  H46 ASP d   1     -10.679   6.041  25.992  0.00  0.00     0.163 HD
BRANCH  67  69
ATOM     69  CA  ASP d   1     -12.293   4.781  25.418  0.00  0.00     0.098 C 
ATOM     70  H47 ASP d   1     -12.062   3.882  24.828  0.00  0.00     0.088 H 
BRANCH  69  71
ATOM     71  C   ASP d   1     -13.641   5.345  24.975  0.00  0.00     0.241 C 
ATOM     72  O   ASP d   1     -13.795   6.538  24.703  0.00  0.00    -0.271 OA
ATOM     73  N   GLU d   1     -14.630   4.458  24.916  0.00  0.00    -0.345 N 
ATOM     74  H50 GLU d   1     -14.413   3.488  25.023  0.00  0.00     0.163 HD
BRANCH  73  75
ATOM     75  CA  GLU d   1     -16.021   4.848  24.700  0.00  0.00     0.097 C 
ATOM     76  H51 GLU d   1     -16.661   3.984  24.931  0.00  0.00     0.089 H 
BRANCH  75  77
ATOM     77  C   GLU d   1     -16.254   5.248  23.246  0.00  0.00     0.196 C 
ATOM     78  O   GLU d   1     -15.524   4.825  22.349  0.00  0.00    -0.646 OA
ATOM     79  OXT GLU d   1     -17.177   6.003  22.938  0.00  0.00    -0.646 OA
ENDBRANCH  75  77
BRANCH  75  80
ATOM     80  CB  GLU d   1     -16.416   6.007  25.627  0.00  0.00    -0.028 C 
ATOM     81  H52 GLU d   1     -17.514   6.065  25.648  0.00  0.00     0.037 H 
ATOM     82  H53 GLU d   1     -16.008   6.936  25.201  0.00  0.00     0.037 H 
BRANCH  80  83
ATOM     83  CG  GLU d   1     -15.920   5.893  27.075  0.00  0.00     0.018 C 
ATOM     84  H54 GLU d   1     -16.051   6.868  27.568  0.00  0.00     0.049 H 
ATOM     85  H55 GLU d   1     -14.852   5.630  27.060  0.00  0.00     0.049 H 
BRANCH  83  86
ATOM     86  CD  GLU d   1     -16.663   4.844  27.876  0.00  0.00     0.172 C 
ATOM     87  OE1 GLU d   1     -17.909   4.817  27.811  0.00  0.00    -0.648 OA
ATOM     88  OE2 GLU d   1     -15.999   4.045  28.572  0.00  0.00    -0.648 OA
ENDBRANCH  83  86
ENDBRANCH  80  83
ENDBRANCH  75  80
ENDBRANCH  73  75
ENDBRANCH  69  71
BRANCH  69  89
ATOM     89  CB  ASP d   1     -12.385   4.408  26.899  0.00  0.00     0.043 C 
ATOM     90  H48 ASP d   1     -13.367   3.948  27.085  0.00  0.00     0.052 H 
ATOM     91  H49 ASP d   1     -12.290   5.325  27.499  0.00  0.00     0.052 H 
BRANCH  89  92
ATOM     92  CG  ASP d   1     -11.304   3.434  27.329  0.00  0.00     0.175 C 
ATOM     93  OD1 ASP d   1     -10.954   2.548  26.523  0.00  0.00    -0.648 OA
ATOM     94  OD2 ASP d   1     -10.809   3.550  28.474  0.00  0.00    -0.648 OA
ENDBRANCH  89  92
ENDBRANCH  69  89
ENDBRANCH  67  69
ENDBRANCH  54  65
ENDBRANCH  49  51
BRANCH  49  95
ATOM     95  CB  VAL d   1      -8.106   5.658  20.041  0.00  0.00    -0.033 C 
ATOM     96  H32 VAL d   1      -8.150   4.577  20.239  0.00  0.00     0.042 H 
BRANCH  95  97
ATOM     97  CG1 VAL d   1      -9.519   6.156  19.766  0.00  0.00    -0.071 C 
ATOM     98  H33 VAL d   1      -9.924   5.641  18.882  0.00  0.00     0.028 H 
ATOM     99  H34 VAL d   1      -9.496   7.240  19.581  0.00  0.00     0.028 H 
ATOM    100  H35 VAL d   1     -10.158   5.946  20.637  0.00  0.00     0.028 H 
ENDBRANCH  95  97
BRANCH  95 101
ATOM    101  CG2 VAL d   1      -7.221   5.894  18.833  0.00  0.00    -0.071 C 
ATOM    102  H36 VAL d   1      -6.205   5.530  19.046  0.00  0.00     0.028 H 
ATOM    103  H37 VAL d   1      -7.185   6.970  18.609  0.00  0.00     0.028 H 
ATOM    104  H38 VAL d   1      -7.630   5.353  17.967  0.00  0.00     0.028 H 
ENDBRANCH  95 101
ENDBRANCH  49  95
ENDBRANCH  47  49
ENDBRANCH   1  45
BRANCH   1 105
ATOM    105  CB  PTR d   1      -4.844   4.125  23.912  0.00  0.00    -0.014 C 
ATOM    106  H24 PTR d   1      -5.614   3.609  23.319  0.00  0.00     0.043 H 
ATOM    107  H25 PTR d   1      -5.289   4.496  24.847  0.00  0.00     0.043 H 
BRANCH 105 108
ATOM    108  CG  PTR d   1      -3.772   3.117  24.269  0.00  0.00    -0.056 A 
ATOM    109  CD1 PTR d   1      -3.131   3.169  25.497  0.00  0.00    -0.074 A 
ATOM    110  CE1 PTR d   1      -2.154   2.250  25.836  0.00  0.00    -0.050 A 
ATOM    111  H26 PTR d   1      -3.400   3.944  26.205  0.00  0.00     0.084 H 
ATOM    112  CZ  PTR d   1      -1.802   1.263  24.945  0.00  0.00     0.082 A 
ATOM    113  H28 PTR d   1      -1.667   2.308  26.802  0.00  0.00     0.087 H 
ATOM    114  CE2 PTR d   1      -2.440   1.173  23.722  0.00  0.00    -0.050 A 
ATOM    115  CD2 PTR d   1      -3.412   2.103  23.390  0.00  0.00    -0.074 A 
ATOM    116  H29 PTR d   1      -2.182   0.381  23.028  0.00  0.00     0.087 H 
ATOM    117  H27 PTR d   1      -3.901   2.038  22.425  0.00  0.00     0.084 H 
BRANCH 112 118
ATOM    118  OH  PTR d   1      -0.897   0.387  25.299  0.00  0.00    -0.240 OA
BRANCH 118 119
ATOM    119  P   PTR d   1       0.541   0.096  24.621  0.00  0.00     0.427 P 
ATOM    120  O1P PTR d   1       0.632   0.793  23.258  0.00  0.00    -0.617 OA
ATOM    121  O2P PTR d   1       1.598   0.580  25.619  0.00  0.00    -0.617 OA
ATOM    122  O3P PTR d   1       0.626  -1.374  24.484  0.00  0.00    -0.617 OA
ENDBRANCH 118 119
ENDBRANCH 112 118
ENDBRANCH 105 108
ENDBRANCH   1 105
TORSDOF 34
