REMARK  5 active torsions:
REMARK  status: ('A' for Active; 'I' for Inactive)
REMARK    1  A    between atoms: C9_4  and  C8_8 
REMARK    2  A    between atoms: C17_20  and  C18_9 
REMARK    3  A    between atoms: C2_11  and  C1_10 
REMARK    4  A    between atoms: C3_12  and  C2_11 
REMARK    5  A    between atoms: C5_13  and  O27_27 
ROOT
ATOM      1  C9  7GZ d   1       5.400  -3.542  12.020  0.00  0.00    -0.023 A 
ATOM      2  C13 7GZ d   1       4.607  -2.331  10.095  0.00  0.00     0.090 A 
ATOM      3  C10 7GZ d   1       6.349  -2.535  12.219  0.00  0.00    -0.071 A 
ATOM      4  C11 7GZ d   1       6.434  -1.439  11.375  0.00  0.00    -0.068 A 
ATOM      5  C12 7GZ d   1       5.563  -1.319  10.296  0.00  0.00     0.026 A 
ATOM      6  C14 7GZ d   1       4.520  -3.432  10.941  0.00  0.00    -0.042 A 
ATOM      7  N15 7GZ d   1       3.896  -1.973   8.997  0.00  0.00    -0.174 NA
ATOM      8  N16 7GZ d   1       4.330  -0.792   8.474  0.00  0.00    -0.273 N 
ATOM      9  C17 7GZ d   1       5.349  -0.342   9.225  0.00  0.00     0.108 A 
ATOM     10  H10 7GZ d   1       7.035  -2.613  13.054  0.00  0.00     0.084 H 
ATOM     11  H11 7GZ d   1       7.180  -0.674  11.556  0.00  0.00     0.085 H 
ATOM     12  H12 7GZ d   1       3.775  -4.199  10.764  0.00  0.00     0.088 H 
ATOM     13  H13 7GZ d   1       3.942  -0.323   7.643  0.00  0.00     0.189 HD
ENDROOT
BRANCH   1  14
ATOM     14  C8  7GZ d   1       5.315  -4.704  12.950  0.00  0.00    -0.019 A 
ATOM     15  C7  7GZ d   1       4.284  -4.726  13.891  0.00  0.00    -0.069 A 
ATOM     16  C6  7GZ d   1       4.165  -5.767  14.795  0.00  0.00    -0.050 A 
ATOM     17  H2  7GZ d   1       3.565  -3.915  13.914  0.00  0.00     0.085 H 
ATOM     18  C5  7GZ d   1       5.080  -6.807  14.772  0.00  0.00     0.066 A 
ATOM     19  H3  7GZ d   1       3.358  -5.769  15.519  0.00  0.00     0.087 H 
ATOM     20  C4  7GZ d   1       6.106  -6.805  13.841  0.00  0.00    -0.044 A 
ATOM     21  C3  7GZ d   1       6.236  -5.763  12.925  0.00  0.00    -0.045 A 
ATOM     22  H1  7GZ d   1       6.816  -7.624  13.825  0.00  0.00     0.088 H 
BRANCH  18  23
ATOM     23  O27 7GZ d   1       4.976  -7.833  15.666  0.00  0.00    -0.361 OA
ATOM     24  H18 7GZ d   1       5.676  -8.456  15.514  0.00  0.00     0.217 HD
ENDBRANCH  18  23
BRANCH  21  25
ATOM     25  C2  7GZ d   1       7.367  -5.812  11.921  0.00  0.00    -0.043 C 
ATOM     26  H8  7GZ d   1       7.810  -4.808  11.852  0.00  0.00     0.039 H 
ATOM     27  H9  7GZ d   1       8.123  -6.522  12.288  0.00  0.00     0.039 H 
BRANCH  25  28
ATOM     28  C1  7GZ d   1       6.949  -6.241  10.534  0.00  0.00    -0.073 C 
ATOM     29  H5  7GZ d   1       7.828  -6.249   9.872  0.00  0.00     0.028 H 
ATOM     30  H6  7GZ d   1       6.201  -5.536  10.142  0.00  0.00     0.028 H 
ATOM     31  H7  7GZ d   1       6.514  -7.250  10.578  0.00  0.00     0.028 H 
ENDBRANCH  25  28
ENDBRANCH  21  25
ENDBRANCH   1  14
BRANCH   9  32
ATOM     32  C18 7GZ d   1       6.053   0.906   8.932  0.00  0.00     0.158 A 
ATOM     33  N19 7GZ d   1       7.106   1.386   9.649  0.00  0.00    -0.227 NA
ATOM     34  C20 7GZ d   1       7.476   2.583   9.062  0.00  0.00     0.086 A 
ATOM     35  C21 7GZ d   1       8.471   3.505   9.357  0.00  0.00    -0.053 A 
ATOM     36  C25 7GZ d   1       6.601   2.765   7.993  0.00  0.00     0.062 A 
ATOM     37  C22 7GZ d   1       8.580   4.631   8.554  0.00  0.00    -0.081 A 
ATOM     38  H4  7GZ d   1       9.144   3.349  10.192  0.00  0.00     0.087 H 
ATOM     39  C23 7GZ d   1       7.712   4.827   7.482  0.00  0.00    -0.081 A 
ATOM     40  H14 7GZ d   1       9.349   5.366   8.763  0.00  0.00     0.083 H 
ATOM     41  C24 7GZ d   1       6.719   3.901   7.193  0.00  0.00    -0.055 A 
ATOM     42  H15 7GZ d   1       7.813   5.713   6.866  0.00  0.00     0.083 H 
ATOM     43  H16 7GZ d   1       6.046   4.059   6.358  0.00  0.00     0.087 H 
ATOM     44  N26 7GZ d   1       5.709   1.694   7.926  0.00  0.00    -0.337 N 
ATOM     45  H17 7GZ d   1       4.951   1.549   7.244  0.00  0.00     0.167 HD
ENDBRANCH   9  32
TORSDOF 5
