REMARK  5 active torsions:
REMARK  status: ('A' for Active; 'I' for Inactive)
REMARK    1  A    between atoms: C9_4  and  C8_6 
REMARK    2  A    between atoms: C17_18  and  C18_7 
REMARK       I    between atoms: C18_7  and  N20_20 
REMARK    3  A    between atoms: C2_9  and  C1_8 
REMARK    4  A    between atoms: C3_10  and  C2_9 
REMARK    5  A    between atoms: C5_11  and  O21_21 
ROOT
ATOM      1  C9  7GY d   1      15.983 -13.391  27.237  0.00  0.00    -0.023 A 
ATOM      2  C13 7GY d   1      15.204 -15.263  25.932  0.00  0.00     0.090 A 
ATOM      3  C10 7GY d   1      17.028 -13.233  26.320  0.00  0.00    -0.071 A 
ATOM      4  C11 7GY d   1      17.161 -14.064  25.218  0.00  0.00    -0.067 A 
ATOM      5  C12 7GY d   1      16.244 -15.090  25.001  0.00  0.00     0.028 A 
ATOM      6  C14 7GY d   1      15.071 -14.433  27.041  0.00  0.00    -0.042 A 
ATOM      7  N15 7GY d   1      14.460 -16.306  25.485  0.00  0.00    -0.174 NA
ATOM      8  N16 7GY d   1      14.949 -16.816  24.317  0.00  0.00    -0.271 N 
ATOM      9  C17 7GY d   1      16.040 -16.113  23.971  0.00  0.00     0.130 A 
ATOM     10  H9  7GY d   1      17.752 -12.441  26.475  0.00  0.00     0.084 H 
ATOM     11  H10 7GY d   1      17.980 -13.915  24.524  0.00  0.00     0.085 H 
ATOM     12  H11 7GY d   1      14.265 -14.593  27.749  0.00  0.00     0.088 H 
ATOM     13  H12 7GY d   1      14.549 -17.606  23.790  0.00  0.00     0.189 HD
ENDROOT
BRANCH   1  14
ATOM     14  C8  7GY d   1      15.794 -12.424  28.357  0.00  0.00    -0.019 A 
ATOM     15  C7  7GY d   1      14.675 -11.588  28.318  0.00  0.00    -0.069 A 
ATOM     16  C6  7GY d   1      14.474 -10.617  29.285  0.00  0.00    -0.050 A 
ATOM     17  H2  7GY d   1      13.953 -11.701  27.518  0.00  0.00     0.085 H 
ATOM     18  C5  7GY d   1      15.391 -10.469  30.314  0.00  0.00     0.066 A 
ATOM     19  H3  7GY d   1      13.602  -9.975  29.237  0.00  0.00     0.087 H 
ATOM     20  C4  7GY d   1      16.494 -11.306  30.383  0.00  0.00    -0.044 A 
ATOM     21  C3  7GY d   1      16.708 -12.287  29.415  0.00  0.00    -0.045 A 
ATOM     22  H1  7GY d   1      17.199 -11.197  31.199  0.00  0.00     0.088 H 
BRANCH  18  23
ATOM     23  O21 7GY d   1      15.229  -9.479  31.243  0.00  0.00    -0.361 OA
ATOM     24  H15 7GY d   1      15.939  -9.518  31.873  0.00  0.00     0.217 HD
ENDBRANCH  18  23
BRANCH  21  25
ATOM     25  C2  7GY d   1      17.922 -13.179  29.544  0.00  0.00    -0.043 C 
ATOM     26  H7  7GY d   1      18.262 -13.448  28.533  0.00  0.00     0.039 H 
ATOM     27  H8  7GY d   1      18.713 -12.613  30.058  0.00  0.00     0.039 H 
BRANCH  25  28
ATOM     28  C1  7GY d   1      17.672 -14.455  30.317  0.00  0.00    -0.073 C 
ATOM     29  H4  7GY d   1      18.600 -15.043  30.364  0.00  0.00     0.028 H 
ATOM     30  H5  7GY d   1      16.891 -15.043  29.812  0.00  0.00     0.028 H 
ATOM     31  H6  7GY d   1      17.343 -14.207  31.337  0.00  0.00     0.028 H 
ENDBRANCH  25  28
ENDBRANCH  21  25
ENDBRANCH   1  14
BRANCH   9  32
ATOM     32  C18 7GY d   1      16.899 -16.357  22.753  0.00  0.00     0.268 C 
ATOM     33  O19 7GY d   1      17.919 -15.683  22.560  0.00  0.00    -0.266 OA
ATOM     34  N20 7GY d   1      16.527 -17.329  21.929  0.00  0.00    -0.365 N 
ATOM     35  H13 7GY d   1      17.067 -17.525  21.110  0.00  0.00     0.159 HD
ATOM     36  H14 7GY d   1      15.707 -17.866  22.127  0.00  0.00     0.159 HD
ENDBRANCH   9  32
TORSDOF 5
