REMARK  7 active torsions:
REMARK  status: ('A' for Active; 'I' for Inactive)
REMARK    1  A    between atoms: C9_4  and  C8_7 
REMARK    2  A    between atoms: N20_22  and  C21_6 
REMARK    3  A    between atoms: C17_20  and  C18_8 
REMARK       I    between atoms: C18_8  and  N20_22 
REMARK    4  A    between atoms: C2_11  and  C1_10 
REMARK    5  A    between atoms: C3_12  and  C2_11 
REMARK    6  A    between atoms: C5_13  and  O28_28 
REMARK    7  A    between atoms: C24_25  and  C27_27 
ROOT
ATOM      1  C9  7GX d   1       3.070   0.929  10.617  0.00  0.00    -0.023 A 
ATOM      2  C13 7GX d   1       2.474  -0.913  12.047  0.00  0.00     0.090 A 
ATOM      3  C10 7GX d   1       4.073   0.132  10.062  0.00  0.00    -0.071 A 
ATOM      4  C11 7GX d   1       4.281  -1.169  10.478  0.00  0.00    -0.067 A 
ATOM      5  C12 7GX d   1       3.477  -1.715  11.476  0.00  0.00     0.028 A 
ATOM      6  C14 7GX d   1       2.264   0.400  11.632  0.00  0.00    -0.042 A 
ATOM      7  N15 7GX d   1       1.852  -1.684  12.969  0.00  0.00    -0.174 NA
ATOM      8  N16 7GX d   1       2.375  -2.938  13.019  0.00  0.00    -0.271 N 
ATOM      9  C17 7GX d   1       3.367  -3.001  12.118  0.00  0.00     0.130 A 
ATOM     10  H10 7GX d   1       4.705   0.545   9.284  0.00  0.00     0.084 H 
ATOM     11  H11 7GX d   1       5.068  -1.764  10.029  0.00  0.00     0.085 H 
ATOM     12  H12 7GX d   1       1.488   1.003  12.088  0.00  0.00     0.088 H 
ATOM     13  H13 7GX d   1       2.066  -3.702  13.637  0.00  0.00     0.189 HD
ENDROOT
BRANCH   1  14
ATOM     14  C8  7GX d   1       2.844   2.303  10.097  0.00  0.00    -0.019 A 
ATOM     15  C7  7GX d   1       1.705   2.550   9.326  0.00  0.00    -0.069 A 
ATOM     16  C6  7GX d   1       1.550   3.752   8.654  0.00  0.00    -0.050 A 
ATOM     17  H2  7GX d   1       0.933   1.792   9.253  0.00  0.00     0.085 H 
ATOM     18  C5  7GX d   1       2.527   4.733   8.758  0.00  0.00     0.066 A 
ATOM     19  H3  7GX d   1       0.668   3.926   8.049  0.00  0.00     0.087 H 
ATOM     20  C4  7GX d   1       3.655   4.508   9.537  0.00  0.00    -0.044 A 
ATOM     21  C3  7GX d   1       3.818   3.306  10.222  0.00  0.00    -0.045 A 
ATOM     22  H1  7GX d   1       4.416   5.276   9.613  0.00  0.00     0.088 H 
BRANCH  18  23
ATOM     23  O28 7GX d   1       2.379   5.920   8.090  0.00  0.00    -0.361 OA
ATOM     24  H20 7GX d   1       3.129   6.476   8.266  0.00  0.00     0.217 HD
ENDBRANCH  18  23
BRANCH  21  25
ATOM     25  C2  7GX d   1       5.023   3.112  11.122  0.00  0.00    -0.043 C 
ATOM     26  H8  7GX d   1       5.559   2.207  10.799  0.00  0.00     0.039 H 
ATOM     27  H9  7GX d   1       5.683   3.986  11.017  0.00  0.00     0.039 H 
BRANCH  25  28
ATOM     28  C1  7GX d   1       4.643   2.953  12.638  0.00  0.00    -0.073 C 
ATOM     29  H5  7GX d   1       5.558   2.817  13.233  0.00  0.00     0.028 H 
ATOM     30  H6  7GX d   1       3.991   2.076  12.762  0.00  0.00     0.028 H 
ATOM     31  H7  7GX d   1       4.114   3.855  12.980  0.00  0.00     0.028 H 
ENDBRANCH  25  28
ENDBRANCH  21  25
ENDBRANCH   1  14
BRANCH   9  32
ATOM     32  C18 7GX d   1       4.311  -4.111  11.831  0.00  0.00     0.275 C 
ATOM     33  O19 7GX d   1       5.319  -3.908  11.180  0.00  0.00    -0.266 OA
ATOM     34  N20 7GX d   1       4.044  -5.287  12.431  0.00  0.00    -0.320 N 
ATOM     35  H14 7GX d   1       3.160  -5.354  12.894  0.00  0.00     0.169 HD
BRANCH  34  36
ATOM     36  C21 7GX d   1       4.866  -6.442  12.485  0.00  0.00     0.052 A 
ATOM     37  C26 7GX d   1       6.045  -6.592  11.760  0.00  0.00     0.028 A 
ATOM     38  N25 7GX d   1       6.863  -7.645  11.864  0.00  0.00    -0.264 NA
ATOM     39  H4  7GX d   1       6.318  -5.805  11.067  0.00  0.00     0.118 H 
ATOM     40  C24 7GX d   1       6.515  -8.646  12.693  0.00  0.00     0.030 A 
ATOM     41  C23 7GX d   1       5.341  -8.586  13.445  0.00  0.00    -0.057 A 
ATOM     42  C22 7GX d   1       4.520  -7.478  13.338  0.00  0.00    -0.054 A 
ATOM     43  H16 7GX d   1       5.075  -9.401  14.108  0.00  0.00     0.086 H 
ATOM     44  H15 7GX d   1       3.607  -7.420  13.920  0.00  0.00     0.087 H 
BRANCH  40  45
ATOM     45  C27 7GX d   1       7.415  -9.845  12.731  0.00  0.00    -0.035 C 
ATOM     46  H17 7GX d   1       8.276  -9.678  12.067  0.00  0.00     0.035 H 
ATOM     47  H18 7GX d   1       6.859 -10.732  12.394  0.00  0.00     0.035 H 
ATOM     48  H19 7GX d   1       7.771 -10.004  13.760  0.00  0.00     0.035 H 
ENDBRANCH  40  45
ENDBRANCH  34  36
ENDBRANCH   9  32
TORSDOF 7
