REMARK  4 active torsions:
REMARK  status: ('A' for Active; 'I' for Inactive)
REMARK    1  A    between atoms: N8_11  and  C7_2 
REMARK    2  A    between atoms: N8_11  and  C9_4 
REMARK       I    between atoms: N5_6  and  C19_7 
REMARK       I    between atoms: C19_7  and  N21_21 
REMARK    3  A    between atoms: C2_9  and  C1_8 
REMARK    4  A    between atoms: C10_12  and  N8_11 
ROOT
ATOM      1  C4  7GV d   1      -8.464  -1.760  29.296  0.00  0.00    -0.012 C 
ATOM      2  C7  7GV d   1      -7.569  -1.126  32.004  0.00  0.00     0.028 C 
ATOM      3  C6  7GV d   1      -8.987  -0.944  31.484  0.00  0.00     0.007 C 
ATOM      4  N5  7GV d   1      -9.308  -1.960  30.481  0.00  0.00    -0.233 NA
ATOM      5  C19 7GV d   1     -10.638  -2.184  30.286  0.00  0.00     0.298 C 
ATOM      6  C2  7GV d   1      -6.608  -0.930  30.822  0.00  0.00    -0.036 C 
ATOM      7  C3  7GV d   1      -6.978  -1.834  29.643  0.00  0.00    -0.049 C 
ATOM      8  O20 7GV d   1     -11.517  -1.486  30.767  0.00  0.00    -0.254 OA
ATOM      9  N21 7GV d   1     -10.929  -3.239  29.446  0.00  0.00    -0.339 N 
ATOM     10  C22 7GV d   1     -12.345  -3.480  29.131  0.00  0.00    -0.001 C 
ATOM     11  C23 7GV d   1     -12.355  -4.860  28.497  0.00  0.00    -0.049 C 
ATOM     12  C24 7GV d   1     -11.042  -5.487  28.861  0.00  0.00    -0.049 C 
ATOM     13  C25 7GV d   1     -10.084  -4.315  28.920  0.00  0.00    -0.001 C 
ATOM     14  H1  7GV d   1      -8.681  -0.771  28.866  0.00  0.00     0.056 H 
ATOM     15  H2  7GV d   1      -8.697  -2.540  28.556  0.00  0.00     0.056 H 
ATOM     16  H3  7GV d   1      -7.465  -2.168  32.342  0.00  0.00     0.075 H 
ATOM     17  H4  7GV d   1      -9.079   0.053  31.029  0.00  0.00     0.059 H 
ATOM     18  H5  7GV d   1      -9.693  -1.031  32.323  0.00  0.00     0.059 H 
ATOM     19  H13 7GV d   1      -5.620  -1.263  31.174  0.00  0.00     0.042 H 
ATOM     20  H14 7GV d   1      -6.394  -1.524  28.764  0.00  0.00     0.035 H 
ATOM     21  H15 7GV d   1      -6.727  -2.873  29.902  0.00  0.00     0.035 H 
ATOM     22  H19 7GV d   1     -12.722  -2.724  28.427  0.00  0.00     0.064 H 
ATOM     23  H20 7GV d   1     -12.956  -3.466  30.046  0.00  0.00     0.064 H 
ATOM     24  H21 7GV d   1     -12.451  -4.779  27.404  0.00  0.00     0.035 H 
ATOM     25  H22 7GV d   1     -13.188  -5.458  28.895  0.00  0.00     0.035 H 
ATOM     26  H23 7GV d   1     -10.728  -6.211  28.095  0.00  0.00     0.035 H 
ATOM     27  H24 7GV d   1     -11.106  -5.990  29.837  0.00  0.00     0.035 H 
ATOM     28  H25 7GV d   1      -9.241  -4.524  29.595  0.00  0.00     0.064 H 
ATOM     29  H26 7GV d   1      -9.700  -4.066  27.920  0.00  0.00     0.064 H 
ENDROOT
BRANCH   2  30
ATOM     30  N8  7GV d   1      -7.285  -0.268  33.188  0.00  0.00    -0.363 N 
BRANCH  30  31
ATOM     31  C9  7GV d   1      -7.866   1.071  33.195  0.00  0.00    -0.017 C 
ATOM     32  H6  7GV d   1      -7.578   1.591  34.121  0.00  0.00     0.056 H 
ATOM     33  H7  7GV d   1      -8.962   0.995  33.143  0.00  0.00     0.056 H 
ATOM     34  H8  7GV d   1      -7.496   1.636  32.327  0.00  0.00     0.056 H 
ENDBRANCH  30  31
BRANCH  30  35
ATOM     35  C10 7GV d   1      -6.473  -0.650  34.260  0.00  0.00     0.141 A 
ATOM     36  C11 7GV d   1      -5.743  -1.882  34.269  0.00  0.00     0.057 A 
ATOM     37  C12 7GV d   1      -5.596  -3.102  33.531  0.00  0.00    -0.051 A 
ATOM     38  C15 7GV d   1      -4.839  -1.956  35.386  0.00  0.00     0.142 A 
ATOM     39  C13 7GV d   1      -4.661  -3.837  34.181  0.00  0.00    -0.020 A 
ATOM     40  H16 7GV d   1      -6.131  -3.383  32.625  0.00  0.00     0.087 H 
ATOM     41  N14 7GV d   1      -4.200  -3.155  35.283  0.00  0.00    -0.350 N 
ATOM     42  H9  7GV d   1      -4.323  -4.826  33.875  0.00  0.00     0.111 H 
ATOM     43  H17 7GV d   1      -3.479  -3.499  35.933  0.00  0.00     0.166 HD
ATOM     44  N16 7GV d   1      -4.661  -1.039  36.351  0.00  0.00    -0.223 NA
ATOM     45  C17 7GV d   1      -5.450   0.020  36.195  0.00  0.00     0.091 A 
ATOM     46  N18 7GV d   1      -6.333   0.271  35.224  0.00  0.00    -0.224 NA
ATOM     47  H18 7GV d   1      -5.365   0.784  36.960  0.00  0.00     0.146 H 
ENDBRANCH  30  35
ENDBRANCH   2  30
BRANCH   6  48
ATOM     48  C1  7GV d   1      -6.433   0.529  30.390  0.00  0.00    -0.071 C 
ATOM     49  H10 7GV d   1      -5.733   0.579  29.543  0.00  0.00     0.028 H 
ATOM     50  H11 7GV d   1      -6.034   1.115  31.231  0.00  0.00     0.028 H 
ATOM     51  H12 7GV d   1      -7.407   0.941  30.086  0.00  0.00     0.028 H 
ENDBRANCH   6  48
TORSDOF 4
