REMARK  6 active torsions:
REMARK  status: ('A' for Active; 'I' for Inactive)
REMARK    1  A    between atoms: C7_5  and  N8_14 
REMARK    2  A    between atoms: N8_14  and  C9_7 
REMARK       I    between atoms: C19_10  and  N5_9 
REMARK       I    between atoms: N21_24  and  C19_10 
REMARK    3  A    between atoms: C2_12  and  C1_11 
REMARK    4  A    between atoms: N8_14  and  C10_15 
REMARK    5  A    between atoms: S26_29  and  C24_27 
REMARK    6  A    between atoms: S26_29  and  C29_32 
ROOT
ATOM      1  C4  7GT d   1      10.723  -1.624  11.121  0.00  0.00    -0.012 C 
ATOM      2  C7  7GT d   1      10.222  -1.020   8.302  0.00  0.00     0.028 C 
ATOM      3  C6  7GT d   1      11.566  -0.859   8.989  0.00  0.00     0.007 C 
ATOM      4  N5  7GT d   1      11.715  -1.846  10.064  0.00  0.00    -0.233 NA
ATOM      5  C19 7GT d   1      13.017  -1.940  10.504  0.00  0.00     0.298 C 
ATOM      6  C2  7GT d   1       9.142  -0.730   9.352  0.00  0.00    -0.036 C 
ATOM      7  C3  7GT d   1       9.301  -1.647  10.563  0.00  0.00    -0.049 C 
ATOM      8  O20 7GT d   1      13.914  -1.198  10.134  0.00  0.00    -0.254 OA
ATOM      9  N21 7GT d   1      13.224  -2.933  11.409  0.00  0.00    -0.337 N 
ATOM     10  C22 7GT d   1      12.450  -4.167  11.572  0.00  0.00     0.000 C 
ATOM     11  C23 7GT d   1      13.519  -5.231  11.789  0.00  0.00    -0.032 C 
ATOM     12  C24 7GT d   1      14.763  -4.536  12.353  0.00  0.00     0.066 C 
ATOM     13  C25 7GT d   1      14.553  -3.043  12.020  0.00  0.00     0.015 C 
ATOM     14  H4  7GT d   1      10.909  -0.645  11.587  0.00  0.00     0.056 H 
ATOM     15  H5  7GT d   1      10.823  -2.416  11.878  0.00  0.00     0.056 H 
ATOM     16  H6  7GT d   1      10.132  -2.068   7.981  0.00  0.00     0.075 H 
ATOM     17  H7  7GT d   1      11.636   0.153   9.415  0.00  0.00     0.059 H 
ATOM     18  H8  7GT d   1      12.369  -1.003   8.251  0.00  0.00     0.059 H 
ATOM     19  H16 7GT d   1       8.173  -0.961   8.886  0.00  0.00     0.042 H 
ATOM     20  H17 7GT d   1       8.606  -1.318  11.350  0.00  0.00     0.035 H 
ATOM     21  H18 7GT d   1       9.055  -2.676  10.263  0.00  0.00     0.035 H 
ATOM     22  H22 7GT d   1      11.858  -4.382  10.670  0.00  0.00     0.064 H 
ATOM     23  H23 7GT d   1      11.780  -4.099  12.442  0.00  0.00     0.064 H 
ATOM     24  H24 7GT d   1      13.763  -5.717  10.833  0.00  0.00     0.037 H 
ATOM     25  H25 7GT d   1      13.156  -5.986  12.502  0.00  0.00     0.037 H 
ATOM     26  H26 7GT d   1      14.813  -4.676  13.443  0.00  0.00     0.067 H 
ATOM     27  H27 7GT d   1      14.600  -2.439  12.938  0.00  0.00     0.066 H 
ATOM     28  H28 7GT d   1      15.324  -2.699  11.315  0.00  0.00     0.066 H 
ENDROOT
BRANCH   2  29
ATOM     29  N8  7GT d   1      10.018  -0.178   7.105  0.00  0.00    -0.363 N 
BRANCH  29  30
ATOM     30  C9  7GT d   1      10.734   1.091   7.026  0.00  0.00    -0.017 C 
ATOM     31  H9  7GT d   1      10.479   1.598   6.083  0.00  0.00     0.056 H 
ATOM     32  H10 7GT d   1      11.817   0.903   7.060  0.00  0.00     0.056 H 
ATOM     33  H11 7GT d   1      10.445   1.728   7.875  0.00  0.00     0.056 H 
ENDBRANCH  29  30
BRANCH  29  34
ATOM     34  C10 7GT d   1       9.152  -0.518   6.094  0.00  0.00     0.141 A 
ATOM     35  C11 7GT d   1       8.399  -1.731   6.250  0.00  0.00     0.057 A 
ATOM     36  C12 7GT d   1       8.367  -2.928   7.042  0.00  0.00    -0.051 A 
ATOM     37  C15 7GT d   1       7.379  -1.843   5.303  0.00  0.00     0.142 A 
ATOM     38  C13 7GT d   1       7.344  -3.684   6.558  0.00  0.00    -0.020 A 
ATOM     39  H19 7GT d   1       9.031  -3.181   7.867  0.00  0.00     0.087 H 
ATOM     40  N14 7GT d   1       6.751  -3.044   5.496  0.00  0.00    -0.350 N 
ATOM     41  H12 7GT d   1       7.040  -4.652   6.953  0.00  0.00     0.111 H 
ATOM     42  H20 7GT d   1       5.965  -3.408   4.938  0.00  0.00     0.166 HD
ATOM     43  N16 7GT d   1       7.135  -0.954   4.331  0.00  0.00    -0.223 NA
ATOM     44  C17 7GT d   1       7.973   0.085   4.291  0.00  0.00     0.091 A 
ATOM     45  N18 7GT d   1       8.986   0.377   5.111  0.00  0.00    -0.224 NA
ATOM     46  H21 7GT d   1       7.809   0.788   3.482  0.00  0.00     0.146 H 
ENDBRANCH  29  34
ENDBRANCH   2  29
BRANCH   6  47
ATOM     47  C1  7GT d   1       9.087   0.727   9.792  0.00  0.00    -0.071 C 
ATOM     48  H13 7GT d   1       8.292   0.854  10.542  0.00  0.00     0.028 H 
ATOM     49  H14 7GT d   1       8.875   1.365   8.921  0.00  0.00     0.028 H 
ATOM     50  H15 7GT d   1      10.054   1.014  10.231  0.00  0.00     0.028 H 
ENDBRANCH   6  47
BRANCH  12  51
ATOM     51  S26 7GT d   1      16.271  -5.178  11.624  0.00  0.00     0.181 S 
ATOM     52  O27 7GT d   1      15.933  -5.841  10.395  0.00  0.00    -0.222 OA
ATOM     53  O28 7GT d   1      17.253  -4.128  11.598  0.00  0.00    -0.222 OA
BRANCH  51  54
ATOM     54  C29 7GT d   1      16.805  -6.388  12.788  0.00  0.00     0.059 A 
ATOM     55  C34 7GT d   1      16.538  -7.725  12.553  0.00  0.00    -0.062 A 
ATOM     56  C33 7GT d   1      16.903  -8.660  13.507  0.00  0.00    -0.082 A 
ATOM     57  H2  7GT d   1      16.050  -8.036  11.636  0.00  0.00     0.085 H 
ATOM     58  C32 7GT d   1      17.546  -8.262  14.670  0.00  0.00    -0.083 A 
ATOM     59  H1  7GT d   1      16.685  -9.709  13.344  0.00  0.00     0.083 H 
ATOM     60  C31 7GT d   1      17.825  -6.922  14.882  0.00  0.00    -0.082 A 
ATOM     61  H3  7GT d   1      17.830  -8.999  15.412  0.00  0.00     0.083 H 
ATOM     62  C30 7GT d   1      17.450  -5.974  13.945  0.00  0.00    -0.062 A 
ATOM     63  H30 7GT d   1      18.339  -6.614  15.785  0.00  0.00     0.083 H 
ATOM     64  H29 7GT d   1      17.657  -4.923  14.113  0.00  0.00     0.085 H 
ENDBRANCH  51  54
ENDBRANCH  12  51
TORSDOF 6
