REMARK  7 active torsions:
REMARK  status: ('A' for Active; 'I' for Inactive)
REMARK    1  A    between atoms: C5_2  and  O6_15 
REMARK    2  A    between atoms: C11_18  and  C10_4 
REMARK    3  A    between atoms: C15_6  and  C21_8 
REMARK    4  A    between atoms: C2_13  and  C1_12 
REMARK    5  A    between atoms: C3_14  and  C2_13 
REMARK       I    between atoms: N25_26  and  C31_29 
REMARK    6  A    between atoms: C31_29  and  C33_31 
REMARK    7  A    between atoms: C36_34  and  N39_37 
ROOT
ATOM      1  C21 7GS d   1       4.362  -4.189  12.117  0.00  0.00     0.160 A 
ATOM      2  C24 7GS d   1       7.046  -6.313  10.999  0.00  0.00     0.040 C 
ATOM      3  C26 7GS d   1       5.939  -8.354  11.990  0.00  0.00     0.003 C 
ATOM      4  C28 7GS d   1       4.903  -6.233  12.343  0.00  0.00     0.039 A 
ATOM      5  N22 7GS d   1       5.452  -4.341  11.449  0.00  0.00    -0.230 NA
ATOM      6  C23 7GS d   1       5.842  -5.633  11.604  0.00  0.00     0.077 A 
ATOM      7  N25 7GS d   1       7.170  -7.653  11.685  0.00  0.00    -0.341 N 
ATOM      8  C27 7GS d   1       4.894  -7.672  12.789  0.00  0.00    -0.010 C 
ATOM      9  N29 7GS d   1       3.997  -5.339  12.680  0.00  0.00    -0.341 N 
ATOM     10  C31 7GS d   1       8.364  -8.160  12.041  0.00  0.00     0.274 C 
ATOM     11  O32 7GS d   1       8.429  -9.202  12.661  0.00  0.00    -0.266 OA
ATOM     12  H4  7GS d   1       7.950  -5.711  11.174  0.00  0.00     0.074 H 
ATOM     13  H5  7GS d   1       6.901  -6.452   9.918  0.00  0.00     0.074 H 
ATOM     14  H6  7GS d   1       6.217  -9.267  12.538  0.00  0.00     0.065 H 
ATOM     15  H7  7GS d   1       5.480  -8.629  11.029  0.00  0.00     0.065 H 
ATOM     16  H17 7GS d   1       5.127  -7.741  13.862  0.00  0.00     0.044 H 
ATOM     17  H18 7GS d   1       3.910  -8.125  12.598  0.00  0.00     0.044 H 
ATOM     18  H19 7GS d   1       3.166  -5.499  13.267  0.00  0.00     0.167 HD
ENDROOT
BRANCH   1  19
ATOM     19  C15 7GS d   1       3.572  -2.997  12.326  0.00  0.00     0.135 A 
ATOM     20  C14 7GS d   1       3.735  -1.671  11.684  0.00  0.00     0.026 A 
ATOM     21  C13 7GS d   1       4.665  -1.183  10.696  0.00  0.00    -0.068 A 
ATOM     22  C19 7GS d   1       2.685  -0.929  12.140  0.00  0.00     0.063 A 
ATOM     23  C12 7GS d   1       4.404   0.128  10.288  0.00  0.00    -0.071 A 
ATOM     24  H2  7GS d   1       5.486  -1.775  10.308  0.00  0.00     0.085 H 
ATOM     25  C11 7GS d   1       3.351   0.881  10.758  0.00  0.00    -0.023 A 
ATOM     26  H15 7GS d   1       5.069   0.578   9.560  0.00  0.00     0.084 H 
ATOM     27  C20 7GS d   1       2.442   0.383  11.710  0.00  0.00    -0.044 A 
ATOM     28  H3  7GS d   1       1.613   0.972  12.084  0.00  0.00     0.088 H 
ATOM     29  N17 7GS d   1       1.977  -1.712  13.030  0.00  0.00    -0.277 N 
ATOM     30  N16 7GS d   1       2.521  -2.949  13.068  0.00  0.00    -0.170 NA
ATOM     31  H16 7GS d   1       1.162  -1.402  13.579  0.00  0.00     0.189 HD
BRANCH  25  32
ATOM     32  C10 7GS d   1       3.226   2.261  10.165  0.00  0.00    -0.017 A 
ATOM     33  C3  7GS d   1       4.139   3.320  10.272  0.00  0.00    -0.045 A 
ATOM     34  C4  7GS d   1       3.917   4.517   9.601  0.00  0.00    -0.041 A 
ATOM     35  C5  7GS d   1       2.806   4.702   8.837  0.00  0.00     0.104 A 
ATOM     36  H1  7GS d   1       4.642   5.318   9.688  0.00  0.00     0.088 H 
ATOM     37  C7  7GS d   1       1.912   3.658   8.714  0.00  0.00     0.150 A 
ATOM     38  F8  7GS d   1       0.846   3.870   7.935  0.00  0.00    -0.203 F 
ATOM     39  C9  7GS d   1       2.096   2.418   9.373  0.00  0.00    -0.032 A 
ATOM     40  H14 7GS d   1       1.376   1.615   9.262  0.00  0.00     0.089 H 
BRANCH  33  41
ATOM     41  C2  7GS d   1       5.395   3.186  11.161  0.00  0.00    -0.043 C 
ATOM     42  H11 7GS d   1       5.861   2.207  10.973  0.00  0.00     0.039 H 
ATOM     43  H12 7GS d   1       6.103   3.986  10.899  0.00  0.00     0.039 H 
BRANCH  41  44
ATOM     44  C1  7GS d   1       5.054   3.295  12.648  0.00  0.00    -0.073 C 
ATOM     45  H8  7GS d   1       5.973   3.195  13.243  0.00  0.00     0.028 H 
ATOM     46  H9  7GS d   1       4.350   2.495  12.922  0.00  0.00     0.028 H 
ATOM     47  H10 7GS d   1       4.593   4.274  12.848  0.00  0.00     0.028 H 
ENDBRANCH  41  44
ENDBRANCH  33  41
BRANCH  35  48
ATOM     48  O6  7GS d   1       2.562   5.854   8.107  0.00  0.00    -0.358 OA
ATOM     49  H13 7GS d   1       3.247   6.489   8.281  0.00  0.00     0.217 HD
ENDBRANCH  35  48
ENDBRANCH  25  32
ENDBRANCH   1  19
BRANCH  10  50
ATOM     50  C33 7GS d   1       9.662  -7.645  11.743  0.00  0.00     0.141 A 
ATOM     51  C34 7GS d   1       9.894  -7.253  10.417  0.00  0.00     0.038 A 
ATOM     52  N35 7GS d   1      11.070  -6.793  10.032  0.00  0.00    -0.239 NA
ATOM     53  H20 7GS d   1       9.091  -7.329   9.693  0.00  0.00     0.118 H 
ATOM     54  C36 7GS d   1      12.111  -6.728  10.898  0.00  0.00     0.143 A 
ATOM     55  C37 7GS d   1      11.855  -7.169  12.223  0.00  0.00     0.047 A 
ATOM     56  N38 7GS d   1      10.674  -7.627  12.597  0.00  0.00    -0.250 NA
ATOM     57  H21 7GS d   1      12.656  -7.128  12.952  0.00  0.00     0.120 H 
BRANCH  54  58
ATOM     58  N39 7GS d   1      13.344  -6.245  10.462  0.00  0.00    -0.365 N 
ATOM     59  C40 7GS d   1      13.644  -6.305   8.990  0.00  0.00    -0.004 C 
ATOM     60  C41 7GS d   1      14.717  -5.316   8.520  0.00  0.00    -0.050 C 
ATOM     61  H22 7GS d   1      12.715  -6.091   8.441  0.00  0.00     0.064 H 
ATOM     62  H23 7GS d   1      13.986  -7.323   8.750  0.00  0.00     0.064 H 
ATOM     63  C42 7GS d   1      15.664  -4.883   9.677  0.00  0.00    -0.062 C 
ATOM     64  H24 7GS d   1      14.221  -4.422   8.114  0.00  0.00     0.035 H 
ATOM     65  H25 7GS d   1      15.317  -5.793   7.731  0.00  0.00     0.035 H 
ATOM     66  C43 7GS d   1      15.826  -6.078  10.646  0.00  0.00    -0.050 C 
ATOM     67  H26 7GS d   1      15.229  -4.026  10.213  0.00  0.00     0.033 H 
ATOM     68  H27 7GS d   1      16.645  -4.600   9.268  0.00  0.00     0.033 H 
ATOM     69  C44 7GS d   1      14.482  -6.152  11.387  0.00  0.00    -0.004 C 
ATOM     70  H28 7GS d   1      16.650  -5.898  11.352  0.00  0.00     0.035 H 
ATOM     71  H29 7GS d   1      16.016  -7.008  10.090  0.00  0.00     0.035 H 
ATOM     72  H30 7GS d   1      14.484  -7.039  12.037  0.00  0.00     0.064 H 
ATOM     73  H31 7GS d   1      14.366  -5.247  12.002  0.00  0.00     0.064 H 
ENDBRANCH  54  58
ENDBRANCH  10  50
TORSDOF 7
