REMARK  5 active torsions:
REMARK  status: ('A' for Active; 'I' for Inactive)
REMARK    1  A    between atoms: N8_21  and  C17_3 
REMARK    2  A    between atoms: C24_9  and  S32_33 
REMARK    3  A    between atoms: S32_33  and  C33_13 
REMARK    4  A    between atoms: C7_20  and  N8_21 
REMARK    5  A    between atoms: N30_31  and  C31_32 
ROOT
ATOM      1  C22 7KQ d   1       4.572  39.125  22.660  0.00  0.00    -0.048 A 
ATOM      2  C23 7KQ d   1       5.734  39.731  22.169  0.00  0.00    -0.017 A 
ATOM      3  C24 7KQ d   1       5.784  40.002  20.789  0.00  0.00     0.067 A 
ATOM      4  C27 7KQ d   1       3.521  38.777  21.815  0.00  0.00     0.037 A 
ATOM      5  C1  7KQ d   1       3.820  36.671  27.491  0.00  0.00    -0.082 A 
ATOM      6  C2  7KQ d   1       5.113  37.047  27.187  0.00  0.00    -0.074 A 
ATOM      7  C3  7KQ d   1       5.645  36.788  25.932  0.00  0.00    -0.026 A 
ATOM      8  C4  7KQ d   1       4.843  36.178  24.970  0.00  0.00    -0.068 A 
ATOM      9  C5  7KQ d   1       3.528  35.812  25.259  0.00  0.00    -0.056 A 
ATOM     10  C6  7KQ d   1       3.042  36.041  26.541  0.00  0.00    -0.077 A 
ATOM     11  C7  7KQ d   1       7.088  37.158  25.621  0.00  0.00     0.113 C 
ATOM     12  C9  7KQ d   1       7.203  38.038  24.389  0.00  0.00     0.247 C 
ATOM     13  O21 7KQ d   1       7.662  37.535  23.379  0.00  0.00    -0.271 OA
ATOM     14  C25 7KQ d   1       4.731  39.670  19.951  0.00  0.00    -0.059 A 
ATOM     15  C26 7KQ d   1       3.611  39.053  20.460  0.00  0.00    -0.056 A 
ATOM     16  N28 7KQ d   1       2.309  38.154  22.185  0.00  0.00    -0.303 N 
ATOM     17  C29 7KQ d   1       6.865  40.057  23.119  0.00  0.00     0.022 C 
ATOM     18  N30 7KQ d   1       6.796  39.329  24.396  0.00  0.00    -0.350 N 
ATOM     19  C38 7KQ d   1       2.632  35.226  24.193  0.00  0.00    -0.021 C 
ATOM     20  C39 7KQ d   1       1.853  37.877  23.426  0.00  0.00     0.365 C 
ATOM     21  O40 7KQ d   1       1.004  36.834  23.332  0.00  0.00    -0.303 OA
ATOM     22  O41 7KQ d   1       2.137  38.457  24.454  0.00  0.00    -0.238 OA
ATOM     23  C42 7KQ d   1       1.195  35.754  24.281  0.00  0.00     0.034 C 
ATOM     24  H4  7KQ d   1       4.488  38.922  23.721  0.00  0.00     0.087 H 
ATOM     25  H8  7KQ d   1       3.415  36.871  28.477  0.00  0.00     0.083 H 
ATOM     26  H9  7KQ d   1       5.717  37.548  27.934  0.00  0.00     0.084 H 
ATOM     27  H10 7KQ d   1       5.247  35.985  23.983  0.00  0.00     0.085 H 
ATOM     28  H11 7KQ d   1       2.039  35.721  26.798  0.00  0.00     0.084 H 
ATOM     29  H12 7KQ d   1       7.458  37.743  26.476  0.00  0.00     0.095 H 
ATOM     30  H16 7KQ d   1       4.790  39.897  18.893  0.00  0.00     0.085 H 
ATOM     31  H17 7KQ d   1       2.796  38.782  19.799  0.00  0.00     0.087 H 
ATOM     32  H18 7KQ d   1       1.711  37.883  21.431  0.00  0.00     0.171 HD
ATOM     33  H19 7KQ d   1       6.838  41.136  23.333  0.00  0.00     0.071 H 
ATOM     34  H20 7KQ d   1       7.816  39.804  22.627  0.00  0.00     0.071 H 
ATOM     35  H28 7KQ d   1       2.614  34.132  24.309  0.00  0.00     0.043 H 
ATOM     36  H29 7KQ d   1       3.043  35.483  23.206  0.00  0.00     0.043 H 
ATOM     37  H30 7KQ d   1       1.005  36.126  25.299  0.00  0.00     0.075 H 
ATOM     38  H31 7KQ d   1       0.493  34.939  24.051  0.00  0.00     0.075 H 
ENDROOT
BRANCH  11  39
ATOM     39  N8  7KQ d   1       7.947  35.998  25.492  0.00  0.00    -0.373 N 
ATOM     40  H13 7KQ d   1       8.226  35.706  24.544  0.00  0.00     0.161 HD
BRANCH  39  41
ATOM     41  C17 7KQ d   1       8.421  35.251  26.576  0.00  0.00     0.029 A 
ATOM     42  C18 7KQ d   1       9.066  34.044  26.307  0.00  0.00    -0.057 A 
ATOM     43  C19 7KQ d   1       9.509  33.241  27.313  0.00  0.00    -0.066 A 
ATOM     44  H1  7KQ d   1       9.217  33.740  25.278  0.00  0.00     0.086 H 
ATOM     45  C14 7KQ d   1       9.348  33.612  28.673  0.00  0.00     0.020 A 
ATOM     46  H3  7KQ d   1       9.993  32.302  27.071  0.00  0.00     0.085 H 
ATOM     47  C13 7KQ d   1       8.702  34.852  28.956  0.00  0.00    -0.019 A 
ATOM     48  C15 7KQ d   1       9.830  32.844  29.803  0.00  0.00     0.132 A 
ATOM     49  C16 7KQ d   1       8.248  35.657  27.883  0.00  0.00    -0.047 A 
ATOM     50  C12 7KQ d   1       8.542  35.247  30.307  0.00  0.00    -0.055 A 
ATOM     51  H2  7KQ d   1       7.759  36.602  28.091  0.00  0.00     0.088 H 
ATOM     52  C11 7KQ d   1       9.067  34.479  31.301  0.00  0.00     0.005 A 
ATOM     53  H6  7KQ d   1       8.004  36.157  30.548  0.00  0.00     0.087 H 
ATOM     54  N10 7KQ d   1       9.699  33.312  31.095  0.00  0.00    -0.243 NA
ATOM     55  H5  7KQ d   1       8.969  34.831  32.322  0.00  0.00     0.114 H 
ATOM     56  N20 7KQ d   1      10.434  31.647  29.641  0.00  0.00    -0.383 N 
ATOM     57  H14 7KQ d   1      10.555  31.255  28.696  0.00  0.00     0.157 HD
ATOM     58  H15 7KQ d   1      10.773  31.126  30.462  0.00  0.00     0.157 HD
ENDBRANCH  39  41
ENDBRANCH  11  39
BRANCH  18  59
ATOM     59  C31 7KQ d   1       6.252  40.055  25.541  0.00  0.00    -0.016 C 
ATOM     60  H21 7KQ d   1       6.256  39.401  26.425  0.00  0.00     0.056 H 
ATOM     61  H22 7KQ d   1       5.220  40.367  25.321  0.00  0.00     0.056 H 
ATOM     62  H23 7KQ d   1       6.870  40.944  25.739  0.00  0.00     0.056 H 
ENDBRANCH  18  59
BRANCH   3  63
ATOM     63  S32 7KQ d   1       7.182  40.706  19.970  0.00  0.00     0.180 S 
ATOM     64  O34 7KQ d   1       6.710  41.342  18.770  0.00  0.00    -0.222 OA
ATOM     65  O35 7KQ d   1       7.964  41.482  20.896  0.00  0.00    -0.222 OA
BRANCH  63  66
ATOM     66  C33 7KQ d   1       8.143  39.272  19.484  0.00  0.00     0.049 A 
ATOM     67  C36 7KQ d   1       9.270  38.796  20.306  0.00  0.00    -0.048 A 
ATOM     68  C37 7KQ d   1       9.526  39.431  19.003  0.00  0.00    -0.048 A 
ATOM     69  H24 7KQ d   1       9.440  37.717  20.435  0.00  0.00     0.035 H 
ATOM     70  H25 7KQ d   1       9.534  39.322  21.235  0.00  0.00     0.035 H 
ATOM     71  H26 7KQ d   1       9.981  40.431  18.959  0.00  0.00     0.035 H 
ATOM     72  H27 7KQ d   1       9.887  38.826  18.158  0.00  0.00     0.035 H 
ATOM     73  H7  7KQ d   1       7.478  38.541  19.001  0.00  0.00     0.064 H 
ENDBRANCH  63  66
ENDBRANCH   3  63
TORSDOF 5
