REMARK  6 active torsions:
REMARK  status: ('A' for Active; 'I' for Inactive)
REMARK    1  A    between atoms: S17_25  and  C18_2 
REMARK    2  A    between atoms: C16_3  and  S17_25 
REMARK    3  A    between atoms: N9_21  and  C23_6 
REMARK    4  A    between atoms: N28_30  and  C1_13 
REMARK    5  A    between atoms: N28_30  and  C29_31 
REMARK    6  A    between atoms: C35_35  and  N39_39 
ROOT
ATOM      1  C13 7KR d   1       3.605  38.516  21.780  0.00  0.00     0.035 A 
ATOM      2  C16 7KR d   1       5.777  39.973  20.857  0.00  0.00     0.067 A 
ATOM      3  C24 7KR d   1       2.571  35.279  24.140  0.00  0.00    -0.033 C 
ATOM      4  C11 7KR d   1       4.753  39.620  19.986  0.00  0.00    -0.059 A 
ATOM      5  C12 7KR d   1       3.675  38.889  20.445  0.00  0.00    -0.056 A 
ATOM      6  C27 7KR d   1       1.449  36.294  23.851  0.00  0.00     0.013 C 
ATOM      7  C1  7KR d   1       7.042  37.054  25.722  0.00  0.00     0.113 C 
ATOM      8  C2  7KR d   1       5.607  36.639  26.017  0.00  0.00    -0.026 A 
ATOM      9  C3  7KR d   1       4.794  36.124  25.006  0.00  0.00    -0.068 A 
ATOM     10  C4  7KR d   1       3.465  35.777  25.253  0.00  0.00    -0.057 A 
ATOM     11  C5  7KR d   1       2.964  35.937  26.540  0.00  0.00    -0.077 A 
ATOM     12  C6  7KR d   1       3.761  36.450  27.551  0.00  0.00    -0.082 A 
ATOM     13  C7  7KR d   1       5.073  36.804  27.289  0.00  0.00    -0.074 A 
ATOM     14  C8  7KR d   1       6.795  40.006  23.223  0.00  0.00     0.022 C 
ATOM     15  N9  7KR d   1       6.732  39.250  24.487  0.00  0.00    -0.350 N 
ATOM     16  C10 7KR d   1       5.730  39.620  22.220  0.00  0.00    -0.017 A 
ATOM     17  C14 7KR d   1       4.620  38.893  22.653  0.00  0.00    -0.048 A 
ATOM     18  N15 7KR d   1       2.560  37.683  22.241  0.00  0.00    -0.327 N 
ATOM     19  C25 7KR d   1       2.049  37.625  23.490  0.00  0.00     0.222 C 
ATOM     20  O26 7KR d   1       2.167  38.525  24.320  0.00  0.00    -0.273 OA
ATOM     21  C40 7KR d   1       7.153  37.966  24.493  0.00  0.00     0.247 C 
ATOM     22  O41 7KR d   1       7.653  37.468  23.496  0.00  0.00    -0.271 OA
ATOM     23  H9  7KR d   1       3.172  35.136  23.230  0.00  0.00     0.040 H 
ATOM     24  H10 7KR d   1       2.123  34.320  24.438  0.00  0.00     0.040 H 
ATOM     25  H11 7KR d   1       4.801  39.919  18.945  0.00  0.00     0.085 H 
ATOM     26  H12 7KR d   1       2.882  38.606  19.762  0.00  0.00     0.087 H 
ATOM     27  H14 7KR d   1       0.820  36.408  24.746  0.00  0.00     0.047 H 
ATOM     28  H15 7KR d   1       0.835  35.931  23.014  0.00  0.00     0.047 H 
ATOM     29  H16 7KR d   1       7.392  37.627  26.593  0.00  0.00     0.095 H 
ATOM     30  H17 7KR d   1       5.202  35.991  24.011  0.00  0.00     0.085 H 
ATOM     31  H18 7KR d   1       1.939  35.657  26.755  0.00  0.00     0.084 H 
ATOM     32  H19 7KR d   1       3.356  36.574  28.549  0.00  0.00     0.083 H 
ATOM     33  H20 7KR d   1       5.689  37.213  28.082  0.00  0.00     0.084 H 
ATOM     34  H21 7KR d   1       7.780  39.833  22.765  0.00  0.00     0.071 H 
ATOM     35  H22 7KR d   1       6.681  41.075  23.454  0.00  0.00     0.071 H 
ATOM     36  H23 7KR d   1       4.547  38.615  23.698  0.00  0.00     0.087 H 
ATOM     37  H24 7KR d   1       2.153  37.067  21.566  0.00  0.00     0.169 HD
ENDROOT
BRANCH   7  38
ATOM     38  N28 7KR d   1       7.939  35.925  25.555  0.00  0.00    -0.373 N 
ATOM     39  H25 7KR d   1       8.227  35.671  24.599  0.00  0.00     0.161 HD
BRANCH  38  40
ATOM     40  C29 7KR d   1       8.433  35.164  26.614  0.00  0.00     0.029 A 
ATOM     41  C34 7KR d   1       8.280  35.564  27.926  0.00  0.00    -0.047 A 
ATOM     42  C33 7KR d   1       8.765  34.765  28.986  0.00  0.00    -0.019 A 
ATOM     43  H13 7KR d   1       7.782  36.502  28.146  0.00  0.00     0.088 H 
ATOM     44  C32 7KR d   1       9.397  33.522  28.691  0.00  0.00     0.020 A 
ATOM     45  C38 7KR d   1       8.653  35.175  30.340  0.00  0.00    -0.055 A 
ATOM     46  C31 7KR d   1       9.529  33.148  27.324  0.00  0.00    -0.066 A 
ATOM     47  C35 7KR d   1       9.894  32.751  29.812  0.00  0.00     0.132 A 
ATOM     48  C30 7KR d   1       9.076  33.960  26.327  0.00  0.00    -0.057 A 
ATOM     49  H27 7KR d   1       9.997  32.203  27.072  0.00  0.00     0.085 H 
ATOM     50  H26 7KR d   1       9.218  33.665  25.294  0.00  0.00     0.086 H 
ATOM     51  N36 7KR d   1       9.786  33.220  31.110  0.00  0.00    -0.243 NA
ATOM     52  C37 7KR d   1       9.179  34.400  31.324  0.00  0.00     0.005 A 
ATOM     53  H28 7KR d   1       9.104  34.755  32.345  0.00  0.00     0.114 H 
ATOM     54  H29 7KR d   1       8.150  36.103  30.588  0.00  0.00     0.087 H 
BRANCH  47  55
ATOM     55  N39 7KR d   1      10.437  31.528  29.649  0.00  0.00    -0.383 N 
ATOM     56  H30 7KR d   1      10.782  31.004  30.466  0.00  0.00     0.157 HD
ATOM     57  H31 7KR d   1      10.507  31.117  28.707  0.00  0.00     0.157 HD
ENDBRANCH  47  55
ENDBRANCH  38  40
ENDBRANCH   7  38
BRANCH  15  58
ATOM     58  C23 7KR d   1       6.133  39.923  25.637  0.00  0.00    -0.016 C 
ATOM     59  H6  7KR d   1       5.881  40.959  25.365  0.00  0.00     0.056 H 
ATOM     60  H7  7KR d   1       6.848  39.927  26.473  0.00  0.00     0.056 H 
ATOM     61  H8  7KR d   1       5.219  39.390  25.939  0.00  0.00     0.056 H 
ENDBRANCH  15  58
BRANCH   2  62
ATOM     62  S17 7KR d   1       7.186  40.735  20.102  0.00  0.00     0.180 S 
ATOM     63  O21 7KR d   1       7.877  41.558  21.058  0.00  0.00    -0.222 OA
ATOM     64  O22 7KR d   1       6.766  41.333  18.863  0.00  0.00    -0.222 OA
BRANCH  62  65
ATOM     65  C18 7KR d   1       8.226  39.327  19.709  0.00  0.00     0.049 A 
ATOM     66  C19 7KR d   1       9.623  39.228  20.152  0.00  0.00    -0.048 A 
ATOM     67  C20 7KR d   1       9.321  39.493  18.743  0.00  0.00    -0.048 A 
ATOM     68  H2  7KR d   1      10.037  38.254  20.452  0.00  0.00     0.035 H 
ATOM     69  H3  7KR d   1      10.058  40.020  20.779  0.00  0.00     0.035 H 
ATOM     70  H4  7KR d   1       9.529  40.484  18.313  0.00  0.00     0.035 H 
ATOM     71  H5  7KR d   1       9.508  38.718  17.985  0.00  0.00     0.035 H 
ATOM     72  H1  7KR d   1       7.606  38.419  19.690  0.00  0.00     0.064 H 
ENDBRANCH  62  65
ENDBRANCH   2  62
TORSDOF 6
