REMARK  10 active torsions:
REMARK  status: ('A' for Active; 'I' for Inactive)
REMARK    1  A    between atoms: S17_25  and  C18_2 
REMARK    2  A    between atoms: C16_3  and  S17_25 
REMARK    3  A    between atoms: N9_21  and  C23_6 
REMARK    4  A    between atoms: C24_7  and  C48_48 
REMARK    5  A    between atoms: N28_30  and  C1_13 
REMARK    6  A    between atoms: C5_17  and  O42_42 
REMARK    7  A    between atoms: N28_30  and  C29_31 
REMARK    8  A    between atoms: C35_35  and  N39_39 
REMARK    9  A    between atoms: O42_42  and  C44_44 
REMARK   10  A    between atoms: C44_44  and  C45_45 
ROOT
ATOM      1  C13 7KS d   1       3.607  38.606  21.955  0.00  0.00     0.035 A 
ATOM      2  C16 7KS d   1       5.713  40.082  20.898  0.00  0.00     0.067 A 
ATOM      3  C24 7KS d   1       2.731  35.309  24.615  0.00  0.00    -0.021 C 
ATOM      4  C11 7KS d   1       4.635  39.721  20.095  0.00  0.00    -0.059 A 
ATOM      5  C12 7KS d   1       3.590  38.983  20.620  0.00  0.00    -0.056 A 
ATOM      6  C27 7KS d   1       1.640  36.282  24.131  0.00  0.00     0.016 C 
ATOM      7  C1  7KS d   1       7.231  37.390  25.864  0.00  0.00     0.113 C 
ATOM      8  C2  7KS d   1       5.785  37.062  26.209  0.00  0.00    -0.026 A 
ATOM      9  C3  7KS d   1       4.977  36.363  25.309  0.00  0.00    -0.065 A 
ATOM     10  C4  7KS d   1       3.673  35.968  25.633  0.00  0.00    -0.020 A 
ATOM     11  C5  7KS d   1       3.212  36.268  26.926  0.00  0.00     0.075 A 
ATOM     12  C6  7KS d   1       4.008  36.979  27.829  0.00  0.00    -0.050 A 
ATOM     13  C7  7KS d   1       5.275  37.376  27.459  0.00  0.00    -0.072 A 
ATOM     14  C8  7KS d   1       6.860  40.151  23.204  0.00  0.00     0.022 C 
ATOM     15  N9  7KS d   1       6.837  39.471  24.517  0.00  0.00    -0.350 N 
ATOM     16  C10 7KS d   1       5.745  39.741  22.265  0.00  0.00    -0.017 A 
ATOM     17  C14 7KS d   1       4.667  39.005  22.765  0.00  0.00    -0.048 A 
ATOM     18  N15 7KS d   1       2.616  37.732  22.462  0.00  0.00    -0.327 N 
ATOM     19  C25 7KS d   1       2.186  37.639  23.740  0.00  0.00     0.222 C 
ATOM     20  O26 7KS d   1       2.295  38.550  24.564  0.00  0.00    -0.273 OA
ATOM     21  C40 7KS d   1       7.269  38.189  24.556  0.00  0.00     0.247 C 
ATOM     22  O41 7KS d   1       7.725  37.651  23.563  0.00  0.00    -0.271 OA
ATOM     23  H9  7KS d   1       2.220  34.502  25.160  0.00  0.00     0.047 H 
ATOM     24  H10 7KS d   1       4.614  40.020  19.053  0.00  0.00     0.085 H 
ATOM     25  H11 7KS d   1       2.757  38.699  19.988  0.00  0.00     0.087 H 
ATOM     26  H13 7KS d   1       0.909  36.419  24.941  0.00  0.00     0.048 H 
ATOM     27  H14 7KS d   1       1.140  35.840  23.256  0.00  0.00     0.048 H 
ATOM     28  H15 7KS d   1       7.658  38.004  26.671  0.00  0.00     0.095 H 
ATOM     29  H16 7KS d   1       5.372  36.119  24.329  0.00  0.00     0.085 H 
ATOM     30  H17 7KS d   1       3.630  37.217  28.817  0.00  0.00     0.087 H 
ATOM     31  H18 7KS d   1       5.882  37.942  28.156  0.00  0.00     0.084 H 
ATOM     32  H19 7KS d   1       7.820  39.925  22.717  0.00  0.00     0.071 H 
ATOM     33  H20 7KS d   1       6.783  41.235  23.377  0.00  0.00     0.071 H 
ATOM     34  H21 7KS d   1       4.656  38.737  23.815  0.00  0.00     0.087 H 
ATOM     35  H22 7KS d   1       2.187  37.115  21.802  0.00  0.00     0.169 HD
ENDROOT
BRANCH   7  36
ATOM     36  N28 7KS d   1       8.022  36.177  25.735  0.00  0.00    -0.373 N 
ATOM     37  H23 7KS d   1       8.238  35.859  24.779  0.00  0.00     0.161 HD
BRANCH  36  38
ATOM     38  C29 7KS d   1       8.513  35.407  26.783  0.00  0.00     0.029 A 
ATOM     39  C34 7KS d   1       8.378  35.805  28.098  0.00  0.00    -0.044 A 
ATOM     40  C33 7KS d   1       8.841  34.987  29.153  0.00  0.00     0.020 A 
ATOM     41  H12 7KS d   1       7.911  36.757  28.324  0.00  0.00     0.088 H 
ATOM     42  C32 7KS d   1       9.446  33.726  28.837  0.00  0.00     0.023 A 
ATOM     43  C38 7KS d   1       8.739  35.359  30.518  0.00  0.00     0.145 A 
ATOM     44  C31 7KS d   1       9.574  33.370  27.468  0.00  0.00    -0.066 A 
ATOM     45  C35 7KS d   1       9.919  32.913  29.938  0.00  0.00     0.132 A 
ATOM     46  C30 7KS d   1       9.143  34.203  26.479  0.00  0.00    -0.057 A 
ATOM     47  H25 7KS d   1      10.023  32.419  27.205  0.00  0.00     0.085 H 
ATOM     48  H24 7KS d   1       9.293  33.925  25.442  0.00  0.00     0.086 H 
ATOM     49  N36 7KS d   1       9.814  33.316  31.222  0.00  0.00    -0.240 NA
ATOM     50  C37 7KS d   1       9.237  34.489  31.502  0.00  0.00     0.042 A 
ATOM     51  H26 7KS d   1       9.149  34.784  32.541  0.00  0.00     0.119 H 
ATOM     52  F43 7KS d   1       8.138  36.536  30.857  0.00  0.00    -0.204 F 
BRANCH  45  53
ATOM     53  N39 7KS d   1      10.448  31.688  29.748  0.00  0.00    -0.383 N 
ATOM     54  H27 7KS d   1      10.774  31.137  30.555  0.00  0.00     0.157 HD
ATOM     55  H28 7KS d   1      10.526  31.303  28.796  0.00  0.00     0.157 HD
ENDBRANCH  45  53
ENDBRANCH  36  38
ENDBRANCH   7  36
BRANCH  15  56
ATOM     56  C23 7KS d   1       6.272  40.232  25.632  0.00  0.00    -0.016 C 
ATOM     57  H6  7KS d   1       6.014  41.246  25.291  0.00  0.00     0.056 H 
ATOM     58  H7  7KS d   1       7.011  40.295  26.445  0.00  0.00     0.056 H 
ATOM     59  H8  7KS d   1       5.366  39.727  25.999  0.00  0.00     0.056 H 
ENDBRANCH  15  56
BRANCH   3  60
ATOM     60  C48 7KS d   1       3.416  34.640  23.405  0.00  0.00    -0.068 C 
ATOM     61  H32 7KS d   1       4.193  33.947  23.760  0.00  0.00     0.028 H 
ATOM     62  H33 7KS d   1       3.876  35.412  22.770  0.00  0.00     0.028 H 
ATOM     63  H34 7KS d   1       2.668  34.084  22.822  0.00  0.00     0.028 H 
ENDBRANCH   3  60
BRANCH  11  64
ATOM     64  O42 7KS d   1       1.967  35.784  27.241  0.00  0.00    -0.345 OA
BRANCH  64  65
ATOM     65  C44 7KS d   1       1.563  35.844  28.616  0.00  0.00     0.080 C 
ATOM     66  H29 7KS d   1       1.466  36.891  28.939  0.00  0.00     0.083 H 
ATOM     67  H30 7KS d   1       2.299  35.330  29.252  0.00  0.00     0.083 H 
BRANCH  65  68
ATOM     68  C45 7KS d   1       0.205  35.136  28.698  0.00  0.00     0.229 C 
ATOM     69  F46 7KS d   1      -0.679  35.717  27.844  0.00  0.00    -0.212 F 
ATOM     70  F47 7KS d   1      -0.314  35.395  29.928  0.00  0.00    -0.212 F 
ATOM     71  H31 7KS d   1       0.309  34.058  28.506  0.00  0.00     0.148 H 
ENDBRANCH  65  68
ENDBRANCH  64  65
ENDBRANCH  11  64
BRANCH   2  72
ATOM     72  S17 7KS d   1       7.048  40.887  20.025  0.00  0.00     0.180 S 
ATOM     73  O21 7KS d   1       6.500  41.530  18.860  0.00  0.00    -0.222 OA
ATOM     74  O22 7KS d   1       7.842  41.675  20.929  0.00  0.00    -0.222 OA
BRANCH  72  75
ATOM     75  C18 7KS d   1       8.044  39.506  19.465  0.00  0.00     0.049 A 
ATOM     76  C19 7KS d   1       9.131  38.908  20.300  0.00  0.00    -0.048 A 
ATOM     77  C20 7KS d   1       9.478  39.712  19.095  0.00  0.00    -0.048 A 
ATOM     78  H2  7KS d   1       9.289  37.819  20.299  0.00  0.00     0.035 H 
ATOM     79  H3  7KS d   1       9.335  39.307  21.305  0.00  0.00     0.035 H 
ATOM     80  H4  7KS d   1       9.938  40.704  19.210  0.00  0.00     0.035 H 
ATOM     81  H5  7KS d   1       9.893  39.217  18.204  0.00  0.00     0.035 H 
ATOM     82  H1  7KS d   1       7.413  38.842  18.855  0.00  0.00     0.064 H 
ENDBRANCH  72  75
ENDBRANCH   2  72
TORSDOF 10
