REMARK  26 active torsions:
REMARK  status: ('A' for Active; 'I' for Inactive)
REMARK    1  A    between atoms: N_1  and  CA_2 
REMARK    2  A    between atoms: CA_2  and  C_3 
REMARK    3  A    between atoms: CA_2  and  CB_5 
REMARK       I    between atoms: C_3  and  N_9 
REMARK    4  A    between atoms: CB_5  and  CG_6 
REMARK    5  A    between atoms: CG_6  and  CD1_7 
REMARK    6  A    between atoms: CG_6  and  CD2_8 
REMARK    7  A    between atoms: N_9  and  CA_10 
REMARK    8  A    between atoms: CA_10  and  C_11 
REMARK    9  A    between atoms: CA_10  and  CB_13 
REMARK       I    between atoms: C_11  and  N_21 
REMARK   10  A    between atoms: CB_13  and  CG_14 
REMARK   11  A    between atoms: CZ_19  and  OH_20 
REMARK   12  A    between atoms: N_21  and  CA_22 
REMARK   13  A    between atoms: CA_22  and  C_23 
REMARK   14  A    between atoms: CA_22  and  CB_25 
REMARK       I    between atoms: C_23  and  N_37 
REMARK   15  A    between atoms: CB_25  and  CG_26 
REMARK   16  A    between atoms: CZ_31  and  OH_32 
REMARK   17  A    between atoms: OH_32  and  P_33 
REMARK   18  A    between atoms: N_37  and  CA_38 
REMARK   19  A    between atoms: CA_38  and  C_39 
REMARK   20  A    between atoms: CA_38  and  CB_41 
REMARK       I    between atoms: C_39  and  N_51 
REMARK   21  A    between atoms: CB_41  and  CG_42 
REMARK   22  A    between atoms: N_51  and  CA_52 
REMARK   23  A    between atoms: CA_52  and  C_53 
REMARK   24  A    between atoms: CA_52  and  CB_55 
REMARK       I    between atoms: C_53  and  N_59 
REMARK   25  A    between atoms: CB_55  and  CG_56 
REMARK   26  A    between atoms: N_59  and  CA_60 
ROOT
ATOM      1  CA  PTR d   1     -16.761  13.622 -46.669  0.00  0.00     0.093 C 
ATOM      2  H24 PTR d   1     -17.431  13.055 -46.006  0.00  0.00     0.088 H 
ENDROOT
BRANCH   1   3
ATOM      3  N   PTR d   1     -17.503  13.947 -47.880  0.00  0.00    -0.346 N 
ATOM      4  C   TYR d   1     -18.778  13.601 -48.017  0.00  0.00     0.241 C 
ATOM      5  O   TYR d   1     -19.368  12.886 -47.214  0.00  0.00    -0.271 OA
ATOM      6  H23 PTR d   1     -17.045  14.439 -48.620  0.00  0.00     0.163 HD
BRANCH   4   7
ATOM      7  CA  TYR d   1     -19.502  14.183 -49.218  0.00  0.00     0.093 C 
ATOM      8  H15 TYR d   1     -20.586  14.049 -49.090  0.00  0.00     0.088 H 
BRANCH   7   9
ATOM      9  N   TYR d   1     -19.191  15.605 -49.249  0.00  0.00    -0.346 N 
ATOM     10  C   LEU d   1     -19.575  16.430 -48.278  0.00  0.00     0.249 C 
ATOM     11  O   LEU d   1     -20.335  16.099 -47.363  0.00  0.00    -0.271 OA
ATOM     12  H14 TYR d   1     -18.674  15.972 -50.022  0.00  0.00     0.163 HD
BRANCH  10  13
ATOM     13  CA  LEU d   1     -19.035  17.851 -48.369  0.00  0.00     0.176 C 
ATOM     14  H4  LEU d   1     -18.468  17.944 -49.307  0.00  0.00     0.099 H 
BRANCH  13  15
ATOM     15  N   LEU d   1     -20.116  18.836 -48.391  0.00  0.00    -0.066 N 
ATOM     16  H1  LEU d   1     -19.725  19.763 -48.452  0.00  0.00     0.275 HD
ATOM     17  H2  LEU d   1     -20.661  18.756 -47.547  0.00  0.00     0.275 HD
ATOM     18  H3  LEU d   1     -20.707  18.668 -49.190  0.00  0.00     0.275 HD
ENDBRANCH  13  15
BRANCH  13  19
ATOM     19  CB  LEU d   1     -18.085  18.126 -47.201  0.00  0.00    -0.028 C 
ATOM     20  H5  LEU d   1     -17.401  18.930 -47.511  0.00  0.00     0.037 H 
ATOM     21  H6  LEU d   1     -17.510  17.207 -47.016  0.00  0.00     0.037 H 
BRANCH  19  22
ATOM     22  CG  LEU d   1     -18.726  18.548 -45.870  0.00  0.00    -0.059 C 
ATOM     23  H7  LEU d   1     -19.555  19.232 -46.104  0.00  0.00     0.038 H 
BRANCH  22  24
ATOM     24  CD1 LEU d   1     -19.313  17.359 -45.108  0.00  0.00    -0.073 C 
ATOM     25  H8  LEU d   1     -19.759  17.711 -44.166  0.00  0.00     0.028 H 
ATOM     26  H9  LEU d   1     -18.515  16.634 -44.888  0.00  0.00     0.028 H 
ATOM     27  H10 LEU d   1     -20.088  16.876 -45.722  0.00  0.00     0.028 H 
ENDBRANCH  22  24
BRANCH  22  28
ATOM     28  CD2 LEU d   1     -17.727  19.307 -45.009  0.00  0.00    -0.073 C 
ATOM     29  H11 LEU d   1     -17.321  20.155 -45.580  0.00  0.00     0.028 H 
ATOM     30  H12 LEU d   1     -16.907  18.634 -44.719  0.00  0.00     0.028 H 
ATOM     31  H13 LEU d   1     -18.231  19.681 -44.106  0.00  0.00     0.028 H 
ENDBRANCH  22  28
ENDBRANCH  19  22
ENDBRANCH  13  19
ENDBRANCH  10  13
ENDBRANCH   7   9
BRANCH   7  32
ATOM     32  CB  TYR d   1     -19.079  13.497 -50.514  0.00  0.00    -0.014 C 
ATOM     33  H16 TYR d   1     -17.980  13.503 -50.566  0.00  0.00     0.043 H 
ATOM     34  H17 TYR d   1     -19.489  14.070 -51.359  0.00  0.00     0.043 H 
BRANCH  32  35
ATOM     35  CG  TYR d   1     -19.551  12.072 -50.635  0.00  0.00    -0.056 A 
ATOM     36  CD1 TYR d   1     -18.643  11.022 -50.634  0.00  0.00    -0.074 A 
ATOM     37  CE1 TYR d   1     -19.065   9.703 -50.743  0.00  0.00    -0.051 A 
ATOM     38  H18 TYR d   1     -17.584  11.236 -50.546  0.00  0.00     0.084 H 
ATOM     39  CZ  TYR d   1     -20.411   9.424 -50.848  0.00  0.00     0.065 A 
ATOM     40  H20 TYR d   1     -18.340   8.897 -50.745  0.00  0.00     0.087 H 
ATOM     41  CE2 TYR d   1     -21.341  10.451 -50.854  0.00  0.00    -0.051 A 
ATOM     42  CD2 TYR d   1     -20.904  11.769 -50.746  0.00  0.00    -0.074 A 
ATOM     43  H21 TYR d   1     -22.399  10.231 -50.942  0.00  0.00     0.087 H 
ATOM     44  H19 TYR d   1     -21.631  12.573 -50.748  0.00  0.00     0.084 H 
BRANCH  39  45
ATOM     45  OH  TYR d   1     -20.818   8.112 -50.953  0.00  0.00    -0.361 OA
ATOM     46  H22 TYR d   1     -20.058   7.543 -50.932  0.00  0.00     0.217 HD
ENDBRANCH  39  45
ENDBRANCH  32  35
ENDBRANCH   7  32
ENDBRANCH   4   7
ENDBRANCH   1   3
BRANCH   1  47
ATOM     47  C   PTR d   1     -16.365  14.909 -45.973  0.00  0.00     0.241 C 
ATOM     48  O   PTR d   1     -15.792  15.804 -46.586  0.00  0.00    -0.271 OA
ATOM     49  N   TRP d   1     -16.705  15.012 -44.695  0.00  0.00    -0.346 N 
ATOM     50  H31 TRP d   1     -17.271  14.300 -44.281  0.00  0.00     0.163 HD
BRANCH  49  51
ATOM     51  CA  TRP d   1     -16.274  16.133 -43.887  0.00  0.00     0.093 C 
ATOM     52  H32 TRP d   1     -16.504  17.064 -44.426  0.00  0.00     0.088 H 
BRANCH  51  53
ATOM     53  C   TRP d   1     -14.768  16.069 -43.655  0.00  0.00     0.241 C 
ATOM     54  O   TRP d   1     -14.232  14.992 -43.398  0.00  0.00    -0.271 OA
ATOM     55  N   ASP d   1     -14.098  17.218 -43.775  0.00  0.00    -0.346 N 
ATOM     56  H41 ASP d   1     -14.608  18.041 -44.025  0.00  0.00     0.163 HD
BRANCH  55  57
ATOM     57  CA  ASP d   1     -12.647  17.336 -43.558  0.00  0.00     0.098 C 
ATOM     58  H42 ASP d   1     -12.241  16.323 -43.424  0.00  0.00     0.088 H 
BRANCH  57  59
ATOM     59  C   ASP d   1     -12.303  18.161 -42.330  0.00  0.00     0.240 C 
ATOM     60  O   ASP d   1     -12.826  19.251 -42.158  0.00  0.00    -0.271 OA
ATOM     61  N   GLN d   1     -11.390  17.658 -41.504  0.00  0.00    -0.364 N 
ATOM     62  H45 GLN d   1     -11.024  16.743 -41.675  0.00  0.00     0.161 HD
BRANCH  61  63
ATOM     63  CA  GLN d   1     -10.912  18.417 -40.351  0.00  0.00    -0.018 C 
ATOM     64  H46 GLN d   1     -10.165  17.822 -39.805  0.00  0.00     0.056 H 
ATOM     65  H47 GLN d   1     -11.758  18.645 -39.685  0.00  0.00     0.056 H 
ATOM     66  H48 GLN d   1     -10.453  19.356 -40.695  0.00  0.00     0.056 H 
ENDBRANCH  61  63
ENDBRANCH  57  59
BRANCH  57  67
ATOM     67  CB  ASP d   1     -11.964  17.989 -44.766  0.00  0.00     0.043 C 
ATOM     68  H43 ASP d   1     -10.976  18.358 -44.454  0.00  0.00     0.052 H 
ATOM     69  H44 ASP d   1     -12.581  18.834 -45.105  0.00  0.00     0.052 H 
BRANCH  67  70
ATOM     70  CG  ASP d   1     -11.781  17.040 -45.912  0.00  0.00     0.175 C 
ATOM     71  OD1 ASP d   1     -12.791  16.672 -46.545  0.00  0.00    -0.648 OA
ATOM     72  OD2 ASP d   1     -10.621  16.671 -46.188  0.00  0.00    -0.648 OA
ENDBRANCH  67  70
ENDBRANCH  57  67
ENDBRANCH  55  57
ENDBRANCH  51  53
BRANCH  51  73
ATOM     73  CB  TRP d   1     -17.026  16.144 -42.560  0.00  0.00    -0.012 C 
ATOM     74  H33 TRP d   1     -16.971  15.141 -42.112  0.00  0.00     0.044 H 
ATOM     75  H34 TRP d   1     -18.078  16.403 -42.750  0.00  0.00     0.044 H 
BRANCH  73  76
ATOM     76  CG  TRP d   1     -16.459  17.120 -41.613  0.00  0.00    -0.028 A 
ATOM     77  CD1 TRP d   1     -16.658  18.473 -41.610  0.00  0.00    -0.015 A 
ATOM     78  NE1 TRP d   1     -15.954  19.047 -40.586  0.00  0.00    -0.365 N 
ATOM     79  H35 TRP d   1     -17.284  19.014 -42.318  0.00  0.00     0.112 H 
ATOM     80  CE2 TRP d   1     -15.274  18.067 -39.911  0.00  0.00     0.042 A 
ATOM     81  H36 TRP d   1     -15.938  20.052 -40.360  0.00  0.00     0.165 HD
ATOM     82  CD2 TRP d   1     -15.568  16.842 -40.537  0.00  0.00    -0.002 A 
ATOM     83  CZ2 TRP d   1     -14.435  18.155 -38.807  0.00  0.00    -0.056 A 
ATOM     84  CE3 TRP d   1     -14.998  15.671 -40.032  0.00  0.00    -0.070 A 
ATOM     85  CZ3 TRP d   1     -14.165  15.761 -38.939  0.00  0.00    -0.082 A 
ATOM     86  H37 TRP d   1     -15.207  14.711 -40.491  0.00  0.00     0.084 H 
ATOM     87  CH2 TRP d   1     -13.891  16.993 -38.337  0.00  0.00    -0.081 A 
ATOM     88  H39 TRP d   1     -13.714  14.861 -38.538  0.00  0.00     0.083 H 
ATOM     89  H40 TRP d   1     -13.232  17.027 -37.477  0.00  0.00     0.083 H 
ATOM     90  H38 TRP d   1     -14.220  19.108 -38.337  0.00  0.00     0.086 H 
ENDBRANCH  73  76
ENDBRANCH  51  73
ENDBRANCH  49  51
ENDBRANCH   1  47
BRANCH   1  91
ATOM     91  CB  PTR d   1     -15.514  12.765 -46.916  0.00  0.00    -0.014 C 
ATOM     92  H25 PTR d   1     -14.908  12.764 -45.998  0.00  0.00     0.043 H 
ATOM     93  H26 PTR d   1     -14.938  13.221 -47.735  0.00  0.00     0.043 H 
BRANCH  91  94
ATOM     94  CG  PTR d   1     -15.815  11.328 -47.289  0.00  0.00    -0.056 A 
ATOM     95  CD1 PTR d   1     -15.943  10.956 -48.617  0.00  0.00    -0.074 A 
ATOM     96  CE1 PTR d   1     -16.221   9.650 -48.971  0.00  0.00    -0.050 A 
ATOM     97  H27 PTR d   1     -15.823  11.704 -49.393  0.00  0.00     0.084 H 
ATOM     98  CZ  PTR d   1     -16.382   8.702 -47.997  0.00  0.00     0.082 A 
ATOM     99  H29 PTR d   1     -16.311   9.377 -50.016  0.00  0.00     0.087 H 
ATOM    100  CE2 PTR d   1     -16.262   9.042 -46.671  0.00  0.00    -0.050 A 
ATOM    101  CD2 PTR d   1     -15.977  10.348 -46.319  0.00  0.00    -0.074 A 
ATOM    102  H30 PTR d   1     -16.390   8.288 -45.903  0.00  0.00     0.087 H 
ATOM    103  H28 PTR d   1     -15.879  10.610 -45.272  0.00  0.00     0.084 H 
BRANCH  98 104
ATOM    104  OH  PTR d   1     -16.593   7.479 -48.374  0.00  0.00    -0.240 OA
BRANCH 104 105
ATOM    105  P   PTR d   1     -17.915   6.614 -48.184  0.00  0.00     0.427 P 
ATOM    106  O1P PTR d   1     -18.633   6.490 -49.528  0.00  0.00    -0.617 OA
ATOM    107  O2P PTR d   1     -17.483   5.281 -47.709  0.00  0.00    -0.617 OA
ATOM    108  O3P PTR d   1     -18.832   7.268 -47.154  0.00  0.00    -0.617 OA
ENDBRANCH 104 105
ENDBRANCH  98 104
ENDBRANCH  91  94
ENDBRANCH   1  91
TORSDOF 26
