REMARK  10 active torsions:
REMARK  status: ('A' for Active; 'I' for Inactive)
REMARK    1  A    between atoms: N_21  and  C1_1 
REMARK    2  A    between atoms: C1_1  and  C_22 
REMARK    3  A    between atoms: C3_3  and  C2_2 
REMARK    4  A    between atoms: N1_24  and  C3_3 
REMARK    5  A    between atoms: C4_4  and  N1_24 
REMARK    6  A    between atoms: C5_25  and  C4_4 
REMARK    7  A    between atoms: C6_5  and  C5_25 
REMARK    8  A    between atoms: N2_26  and  C6_5 
REMARK    9  A    between atoms: C7_6  and  N2_26 
REMARK   10  A    between atoms: C_22  and  O_23 
ROOT
ATOM      1  N1  I53 d   1     -44.391  11.871   8.611  0.00  0.00    -0.070 N 
ATOM      2  H18 I53 d   1     -45.179  11.283   8.388  0.00  0.00     0.277 HD
ATOM      3  H19 I53 d   1     -44.646  12.838   8.482  0.00  0.00     0.277 HD
ENDROOT
BRANCH   1   4
ATOM      4  C3  I53 d   1     -43.346  11.571   7.641  0.00  0.00     0.119 C 
ATOM      5  H3  I53 d   1     -42.852  10.635   7.941  0.00  0.00     0.085 H 
ATOM      6  H4  I53 d   1     -43.816  11.438   6.655  0.00  0.00     0.085 H 
BRANCH   4   7
ATOM      7  C2  I53 d   1     -42.299  12.643   7.526  0.00  0.00     0.038 A 
ATOM      8  C14 I53 d   1     -42.448  13.981   7.317  0.00  0.00    -0.046 A 
ATOM      9  C15 I53 d   1     -41.142  14.576   7.286  0.00  0.00     0.015 A 
ATOM     10  H12 I53 d   1     -43.393  14.508   7.195  0.00  0.00     0.088 H 
ATOM     11  C16 I53 d   1     -40.607  15.858   7.116  0.00  0.00     0.048 A 
ATOM     12  C20 I53 d   1     -40.230  13.530   7.484  0.00  0.00     0.048 A 
ATOM     13  C17 I53 d   1     -39.247  16.096   7.141  0.00  0.00    -0.040 A 
ATOM     14 CL   I53 d   1     -41.669  17.206   6.865  0.00  0.00    -0.083 Cl
ATOM     15  C18 I53 d   1     -38.392  15.031   7.340  0.00  0.00     0.037 A 
ATOM     16  H13 I53 d   1     -38.859  17.099   7.007  0.00  0.00     0.088 H 
ATOM     17 CL1  I53 d   1     -36.675  15.321   7.372  0.00  0.00    -0.084 Cl
ATOM     18  C19 I53 d   1     -38.857  13.744   7.513  0.00  0.00    -0.035 A 
ATOM     19  H14 I53 d   1     -38.169  12.921   7.668  0.00  0.00     0.089 H 
ATOM     20  N   I53 d   1     -40.941  12.351   7.631  0.00  0.00    -0.346 N 
BRANCH  20  21
ATOM     21  C1  I53 d   1     -40.356  11.025   7.857  0.00  0.00     0.020 C 
ATOM     22  H1  I53 d   1     -39.260  11.112   7.830  0.00  0.00     0.068 H 
ATOM     23  H2  I53 d   1     -40.690  10.350   7.056  0.00  0.00     0.068 H 
BRANCH  21  24
ATOM     24  C   I53 d   1     -40.765  10.439   9.189  0.00  0.00     0.032 C 
ATOM     25  H15 I53 d   1     -40.211   9.504   9.356  0.00  0.00     0.076 H 
ATOM     26  H16 I53 d   1     -41.844  10.228   9.173  0.00  0.00     0.076 H 
BRANCH  24  27
ATOM     27  O   I53 d   1     -40.484  11.340  10.247  0.00  0.00    -0.399 OA
ATOM     28  H17 I53 d   1     -40.963  12.148  10.109  0.00  0.00     0.209 HD
ENDBRANCH  24  27
ENDBRANCH  21  24
ENDBRANCH  20  21
ENDBRANCH   4   7
ENDBRANCH   1   4
BRANCH   1  29
ATOM     29  C4  I53 d   1     -44.108  11.688  10.035  0.00  0.00     0.084 C 
ATOM     30  H5  I53 d   1     -43.240  12.307  10.306  0.00  0.00     0.075 H 
ATOM     31  H6  I53 d   1     -43.874  10.629  10.216  0.00  0.00     0.075 H 
BRANCH  29  32
ATOM     32  C5  I53 d   1     -45.281  12.084  10.908  0.00  0.00    -0.027 C 
ATOM     33  H20 I53 d   1     -46.103  11.375  10.727  0.00  0.00     0.037 H 
ATOM     34  H21 I53 d   1     -45.600  13.097  10.621  0.00  0.00     0.037 H 
BRANCH  32  35
ATOM     35  C6  I53 d   1     -44.969  12.084  12.390  0.00  0.00     0.011 C 
ATOM     36  H7  I53 d   1     -44.722  11.058  12.701  0.00  0.00     0.064 H 
ATOM     37  H8  I53 d   1     -45.856  12.431  12.940  0.00  0.00     0.064 H 
BRANCH  35  38
ATOM     38  N2  I53 d   1     -43.847  12.955  12.711  0.00  0.00    -0.224 N 
ATOM     39  H22 I53 d   1     -42.918  12.710  12.340  0.00  0.00     0.177 HD
BRANCH  38  40
ATOM     40  C7  I53 d   1     -43.958  14.055  13.461  0.00  0.00     0.701 A 
ATOM     41  N4  I53 d   1     -45.137  14.454  13.991  0.00  0.00    -0.063 NA
ATOM     42  C13 I53 d   1     -44.890  15.616  14.701  0.00  0.00     0.103 A 
ATOM     43  C8  I53 d   1     -43.527  15.862  14.555  0.00  0.00     0.078 A 
ATOM     44  C12 I53 d   1     -45.711  16.454  15.440  0.00  0.00    -0.052 A 
ATOM     45  C9  I53 d   1     -42.956  16.977  15.162  0.00  0.00    -0.054 A 
ATOM     46  N3  I53 d   1     -42.955  14.863  13.767  0.00  0.00    -0.188 N 
ATOM     47  C10 I53 d   1     -43.772  17.820  15.903  0.00  0.00    -0.081 A 
ATOM     48  H9  I53 d   1     -41.897  17.182  15.058  0.00  0.00     0.087 H 
ATOM     49  C11 I53 d   1     -45.132  17.562  16.041  0.00  0.00    -0.081 A 
ATOM     50  H24 I53 d   1     -43.343  18.693  16.382  0.00  0.00     0.083 H 
ATOM     51  H10 I53 d   1     -45.748  18.236  16.626  0.00  0.00     0.083 H 
ATOM     52  H23 I53 d   1     -41.968  14.774  13.485  0.00  0.00     0.184 HD
ATOM     53  H11 I53 d   1     -46.770  16.250  15.545  0.00  0.00     0.087 H 
ENDBRANCH  38  40
ENDBRANCH  35  38
ENDBRANCH  32  35
ENDBRANCH  29  32
ENDBRANCH   1  29
TORSDOF 10
