REMARK  5 active torsions:
REMARK  status: ('A' for Active; 'I' for Inactive)
REMARK    1  A    between atoms: C7_3  and  C4_1 
REMARK    2  A    between atoms: C17_6  and  N19_19 
REMARK    3  A    between atoms: N2_10  and  C1_9 
REMARK    4  A    between atoms: N10_15  and  C9_14 
REMARK    5  A    between atoms: N10_15  and  C11_16 
ROOT
ATOM      1  C7  7KG d   1      -2.369  -0.631  14.529  0.00  0.00     0.088 A 
ATOM      2  C20 7KG d   1      -4.372  -2.452  13.900  0.00  0.00     0.170 A 
ATOM      3  C22 7KG d   1      -4.691  -1.342  14.648  0.00  0.00     0.020 A 
ATOM      4  N8  7KG d   1      -2.132  -1.728  13.792  0.00  0.00    -0.227 NA
ATOM      5  C9  7KG d   1      -3.051  -2.639  13.461  0.00  0.00     0.164 A 
ATOM      6  F21 7KG d   1      -5.349  -3.331  13.605  0.00  0.00    -0.201 F 
ATOM      7  C23 7KG d   1      -5.988  -0.888  15.257  0.00  0.00     0.023 A 
ATOM      8  N24 7KG d   1      -5.668   0.340  15.980  0.00  0.00    -0.352 N 
ATOM      9  C25 7KG d   1      -4.377   0.632  15.820  0.00  0.00     0.255 A 
ATOM     10  O26 7KG d   1      -3.874   1.605  16.346  0.00  0.00    -0.268 OA
ATOM     11  C27 7KG d   1      -3.696  -0.389  14.993  0.00  0.00     0.072 A 
ATOM     12  H20 7KG d   1      -6.377  -1.651  15.947  0.00  0.00     0.071 H 
ATOM     13  H21 7KG d   1      -6.733  -0.690  14.472  0.00  0.00     0.071 H 
ATOM     14  H22 7KG d   1      -6.319   0.880  16.514  0.00  0.00     0.163 HD
ENDROOT
BRANCH   5  15
ATOM     15  N10 7KG d   1      -2.715  -3.758  12.692  0.00  0.00    -0.366 N 
ATOM     16  H11 7KG d   1      -3.456  -4.403  12.381  0.00  0.00     0.161 HD
BRANCH  15  17
ATOM     17  C11 7KG d   1      -1.307  -4.027  12.319  0.00  0.00     0.038 C 
ATOM     18  C13 7KG d   1      -1.217  -4.949  11.079  0.00  0.00    -0.044 C 
ATOM     19  C14 7KG d   1       0.265  -5.172  10.703  0.00  0.00    -0.063 C 
ATOM     20  H2  7KG d   1      -1.742  -4.479  10.235  0.00  0.00     0.036 H 
ATOM     21  H3  7KG d   1      -1.686  -5.917  11.308  0.00  0.00     0.036 H 
ATOM     22  C15 7KG d   1       1.063  -5.749  11.890  0.00  0.00    -0.063 C 
ATOM     23  H13 7KG d   1       0.708  -4.210  10.407  0.00  0.00     0.033 H 
ATOM     24  H14 7KG d   1       0.319  -5.876   9.859  0.00  0.00     0.033 H 
ATOM     25  C16 7KG d   1       0.934  -4.855  13.146  0.00  0.00    -0.037 C 
ATOM     26  H4  7KG d   1       2.124  -5.818  11.608  0.00  0.00     0.033 H 
ATOM     27  H5  7KG d   1       0.679  -6.753  12.125  0.00  0.00     0.033 H 
ATOM     28  C17 7KG d   1      -0.549  -4.628  13.526  0.00  0.00     0.119 C 
ATOM     29  H15 7KG d   1       1.405  -3.882  12.943  0.00  0.00     0.036 H 
ATOM     30  H16 7KG d   1       1.449  -5.343  13.987  0.00  0.00     0.036 H 
ATOM     31  H6  7KG d   1      -0.590  -3.907  14.356  0.00  0.00     0.087 H 
ATOM     32  H12 7KG d   1      -0.833  -3.069  12.060  0.00  0.00     0.075 H 
BRANCH  28  33
ATOM     33  N19 7KG d   1      -1.173  -5.890  13.981  0.00  0.00    -0.073 N 
ATOM     34  H17 7KG d   1      -2.137  -5.720  14.223  0.00  0.00     0.274 HD
ATOM     35  H18 7KG d   1      -0.680  -6.237  14.789  0.00  0.00     0.274 HD
ATOM     36  H19 7KG d   1      -1.128  -6.573  13.241  0.00  0.00     0.274 HD
ENDBRANCH  28  33
ENDBRANCH  15  17
ENDBRANCH   5  15
BRANCH   1  37
ATOM     37  C4  7KG d   1      -1.188   0.253  14.771  0.00  0.00     0.030 A 
ATOM     38  C5  7KG d   1       0.085   0.012  14.207  0.00  0.00     0.035 A 
ATOM     39  N6  7KG d   1       0.903   0.958  14.582  0.00  0.00    -0.185 NA
ATOM     40  H1  7KG d   1       0.342  -0.828  13.563  0.00  0.00     0.118 H 
ATOM     41  N2  7KG d   1       0.207   1.851  15.406  0.00  0.00    -0.285 N 
ATOM     42  C3  7KG d   1      -1.072   1.411  15.508  0.00  0.00     0.011 A 
ATOM     43  H10 7KG d   1      -1.869   1.890  16.074  0.00  0.00     0.115 H 
BRANCH  41  44
ATOM     44  C1  7KG d   1       0.795   3.049  16.022  0.00  0.00     0.002 C 
ATOM     45  H7  7KG d   1       0.030   3.568  16.617  0.00  0.00     0.059 H 
ATOM     46  H8  7KG d   1       1.166   3.722  15.235  0.00  0.00     0.059 H 
ATOM     47  H9  7KG d   1       1.629   2.754  16.675  0.00  0.00     0.059 H 
ENDBRANCH  41  44
ENDBRANCH   1  37
TORSDOF 5
