REMARK  9 active torsions:
REMARK  status: ('A' for Active; 'I' for Inactive)
REMARK    1  A    between atoms: N2_21  and  C9_2 
REMARK    2  A    between atoms: C7_13  and  C8_3 
REMARK       I    between atoms: C8_3  and  N2_21 
REMARK    3  A    between atoms: C12_5  and  O2_12 
REMARK    4  A    between atoms: C16_28  and  C15_11 
REMARK    5  A    between atoms: C5_14  and  C2_16 
REMARK    6  A    between atoms: C6_35  and  C5_14 
REMARK    7  A    between atoms: C2_16  and  C4_15 
REMARK    8  A    between atoms: C2_16  and  C1_17 
REMARK    9  A    between atoms: C2_16  and  C3_34 
ROOT
ATOM      1  O3  7HC d   1     -12.165  17.186  22.272  0.00  0.00    -0.272 OA
ATOM      2  N1  7HC d   1     -11.319  15.375  24.361  0.00  0.00    -0.056 N 
ATOM      3  C15 7HC d   1     -10.950  17.697  25.064  0.00  0.00     0.033 C 
ATOM      4  C7  7HC d   1     -11.820  16.368  25.316  0.00  0.00     0.187 C 
ATOM      5  C25 7HC d   1      -8.122  19.634  21.677  0.00  0.00    -0.036 A 
ATOM      6  C26 7HC d   1      -6.957  19.805  22.401  0.00  0.00     0.036 A 
ATOM      7  C24 7HC d   1      -9.116  18.805  22.193  0.00  0.00     0.044 A 
ATOM      8  C23 7HC d   1     -11.052  17.660  22.491  0.00  0.00     0.238 A 
ATOM      9  C22 7HC d   1     -10.170  17.353  23.738  0.00  0.00     0.109 A 
ATOM     10  C28 7HC d   1      -7.734  18.314  24.101  0.00  0.00    -0.072 A 
ATOM     11  C29 7HC d   1      -8.930  18.149  23.408  0.00  0.00    -0.011 A 
ATOM     12  N3  7HC d   1     -10.370  18.503  21.684  0.00  0.00    -0.326 N 
ATOM     13  C27 7HC d   1      -6.745  19.147  23.605  0.00  0.00    -0.061 A 
ATOM     14  C6  7HC d   1      -9.985  15.817  23.886  0.00  0.00     0.124 C 
ATOM     15 CL2  7HC d   1      -5.738  20.883  21.790  0.00  0.00    -0.084 Cl
ATOM     16  H9  7HC d   1     -11.952  15.303  23.580  0.00  0.00     0.278 HD
ATOM     17  H10 7HC d   1     -11.240  14.477  24.813  0.00  0.00     0.278 HD
ATOM     18  H13 7HC d   1     -10.212  17.750  25.878  0.00  0.00     0.054 H 
ATOM     19  H15 7HC d   1     -12.879  16.573  25.099  0.00  0.00     0.100 H 
ATOM     20  H24 7HC d   1      -8.260  20.135  20.726  0.00  0.00     0.089 H 
ATOM     21  H28 7HC d   1      -7.576  17.787  25.035  0.00  0.00     0.084 H 
ATOM     22  H29 7HC d   1     -10.727  18.865  20.823  0.00  0.00     0.169 HD
ATOM     23  H31 7HC d   1      -5.818  19.283  24.150  0.00  0.00     0.086 H 
ATOM     24  H35 7HC d   1      -9.227  15.613  24.657  0.00  0.00     0.086 H 
ENDROOT
BRANCH   4  25
ATOM     25  C8  7HC d   1     -11.712  15.922  26.768  0.00  0.00     0.249 C 
ATOM     26  O1  7HC d   1     -11.985  16.703  27.676  0.00  0.00    -0.271 OA
ATOM     27  N2  7HC d   1     -11.322  14.656  26.972  0.00  0.00    -0.355 N 
ATOM     28  H25 7HC d   1     -11.146  14.093  26.165  0.00  0.00     0.162 HD
BRANCH  27  29
ATOM     29  C9  7HC d   1     -11.133  14.033  28.280  0.00  0.00     0.012 C 
ATOM     30  C10 7HC d   1     -12.473  13.727  28.935  0.00  0.00    -0.044 C 
ATOM     31  C11 7HC d   1     -12.287  13.027  30.288  0.00  0.00    -0.039 C 
ATOM     32  H7  7HC d   1     -13.055  13.072  28.270  0.00  0.00     0.036 H 
ATOM     33  H8  7HC d   1     -13.019  14.669  29.091  0.00  0.00     0.036 H 
ATOM     34  C12 7HC d   1     -11.457  11.765  30.158  0.00  0.00     0.035 C 
ATOM     35  H5  7HC d   1     -11.781  13.717  30.979  0.00  0.00     0.036 H 
ATOM     36  H6  7HC d   1     -13.276  12.763  30.692  0.00  0.00     0.036 H 
ATOM     37  C13 7HC d   1     -10.124  12.059  29.495  0.00  0.00    -0.039 C 
ATOM     38  H2  7HC d   1     -12.007  11.030  29.552  0.00  0.00     0.082 H 
ATOM     39  C14 7HC d   1     -10.307  12.759  28.145  0.00  0.00    -0.044 C 
ATOM     40  H3  7HC d   1      -9.588  11.112  29.336  0.00  0.00     0.036 H 
ATOM     41  H4  7HC d   1      -9.532  12.709  30.156  0.00  0.00     0.036 H 
ATOM     42  H11 7HC d   1      -9.317  13.017  27.740  0.00  0.00     0.036 H 
ATOM     43  H12 7HC d   1     -10.819  12.073  27.454  0.00  0.00     0.036 H 
ATOM     44  H1  7HC d   1     -10.585  14.737  28.924  0.00  0.00     0.072 H 
BRANCH  34  45
ATOM     45  O2  7HC d   1     -11.227  11.232  31.466  0.00  0.00    -0.396 OA
ATOM     46  H14 7HC d   1     -10.707  10.440  31.397  0.00  0.00     0.210 HD
ENDBRANCH  34  45
ENDBRANCH  27  29
ENDBRANCH   4  25
BRANCH   3  47
ATOM     47  C16 7HC d   1     -11.631  19.057  25.087  0.00  0.00    -0.009 A 
ATOM     48  C21 7HC d   1     -10.870  20.179  25.484  0.00  0.00     0.144 A 
ATOM     49  C20 7HC d   1     -11.412  21.439  25.448  0.00  0.00     0.073 A 
ATOM     50  F   7HC d   1      -9.610  20.072  25.930  0.00  0.00    -0.204 F 
ATOM     51  C19 7HC d   1     -12.708  21.650  25.008  0.00  0.00    -0.059 A 
ATOM     52 CL1  7HC d   1     -10.443  22.785  25.945  0.00  0.00    -0.081 Cl
ATOM     53  C18 7HC d   1     -13.475  20.558  24.617  0.00  0.00    -0.081 A 
ATOM     54  H26 7HC d   1     -13.119  22.652  24.969  0.00  0.00     0.086 H 
ATOM     55  C17 7HC d   1     -12.944  19.270  24.667  0.00  0.00    -0.073 A 
ATOM     56  H27 7HC d   1     -14.491  20.709  24.271  0.00  0.00     0.083 H 
ATOM     57  H30 7HC d   1     -13.558  18.425  24.376  0.00  0.00     0.084 H 
ENDBRANCH   3  47
BRANCH  14  58
ATOM     58  C5  7HC d   1      -9.545  15.094  22.602  0.00  0.00    -0.031 C 
ATOM     59  H16 7HC d   1     -10.459  14.774  22.080  0.00  0.00     0.037 H 
ATOM     60  H17 7HC d   1      -9.008  15.829  21.984  0.00  0.00     0.037 H 
BRANCH  58  61
ATOM     61  C2  7HC d   1      -8.634  13.852  22.729  0.00  0.00    -0.049 C 
BRANCH  61  62
ATOM     62  C4  7HC d   1      -7.254  14.261  23.229  0.00  0.00    -0.070 C 
ATOM     63  H18 7HC d   1      -6.616  13.369  23.315  0.00  0.00     0.028 H 
ATOM     64  H19 7HC d   1      -7.348  14.741  24.214  0.00  0.00     0.028 H 
ATOM     65  H20 7HC d   1      -6.801  14.968  22.519  0.00  0.00     0.028 H 
ENDBRANCH  61  62
BRANCH  61  66
ATOM     66  C1  7HC d   1      -8.486  13.212  21.354  0.00  0.00    -0.070 C 
ATOM     67  H21 7HC d   1      -9.476  12.912  20.981  0.00  0.00     0.028 H 
ATOM     68  H22 7HC d   1      -7.838  12.326  21.430  0.00  0.00     0.028 H 
ATOM     69  H23 7HC d   1      -8.037  13.936  20.659  0.00  0.00     0.028 H 
ENDBRANCH  61  66
BRANCH  61  70
ATOM     70  C3  7HC d   1      -9.241  12.831  23.692  0.00  0.00    -0.070 C 
ATOM     71  H32 7HC d   1      -9.351  13.286  24.687  0.00  0.00     0.028 H 
ATOM     72  H33 7HC d   1      -8.581  11.954  23.761  0.00  0.00     0.028 H 
ATOM     73  H34 7HC d   1     -10.228  12.518  23.321  0.00  0.00     0.028 H 
ENDBRANCH  61  70
ENDBRANCH  58  61
ENDBRANCH  14  58
TORSDOF 9
