REMARK  17 active torsions:
REMARK  status: ('A' for Active; 'I' for Inactive)
REMARK    1  A    between atoms: C37_1  and  C38_3 
REMARK       I    between atoms: N36_22  and  C37_1 
REMARK    2  A    between atoms: C38_3  and  C39_4 
REMARK    3  A    between atoms: C39_4  and  C40_5 
REMARK    4  A    between atoms: C02_12  and  C27_13 
REMARK       I    between atoms: N03_23  and  C02_12 
REMARK    5  A    between atoms: C27_13  and  C28_14 
REMARK    6  A    between atoms: C27_13  and  N36_22 
REMARK    7  A    between atoms: C28_14  and  C29_15 
REMARK       I    between atoms: C29_15  and  N30_16 
REMARK    8  A    between atoms: N30_16  and  C31_17 
REMARK    9  A    between atoms: N30_16  and  C33_19 
REMARK   10  A    between atoms: C31_17  and  C32_18 
REMARK   11  A    between atoms: C33_19  and  C34_20 
REMARK   12  A    between atoms: C04_24  and  N03_23 
REMARK   13  A    between atoms: C05_25  and  C04_24 
REMARK   14  A    between atoms: C04_24  and  C19_27 
REMARK       I    between atoms: N06_41  and  C05_25 
REMARK   15  A    between atoms: C19_27  and  C20_28 
REMARK   16  A    between atoms: C07_42  and  N06_41 
REMARK   17  A    between atoms: C07_42  and  C08_43 
ROOT
ATOM      1  O01 7HJ d   1     -10.052 -28.081  28.726  0.00  0.00    -0.271 OA
ATOM      2  C02 7HJ d   1     -10.348 -28.688  29.726  0.00  0.00     0.241 C 
ATOM      3  N03 7HJ d   1     -10.388 -30.058  29.701  0.00  0.00    -0.346 N 
ATOM      4  H24 7HJ d   1     -10.618 -30.539  30.547  0.00  0.00     0.163 HD
ENDROOT
BRANCH   2   5
ATOM      5  C27 7HJ d   1     -10.672 -27.851  31.012  0.00  0.00     0.097 C 
ATOM      6  H10 7HJ d   1     -10.696 -28.482  31.913  0.00  0.00     0.088 H 
BRANCH   5   7
ATOM      7  C28 7HJ d   1     -12.081 -27.258  30.700  0.00  0.00     0.036 C 
ATOM      8  H11 7HJ d   1     -12.644 -28.037  30.165  0.00  0.00     0.051 H 
ATOM      9  H12 7HJ d   1     -11.924 -26.396  30.034  0.00  0.00     0.051 H 
BRANCH   7  10
ATOM     10  C29 7HJ d   1     -12.963 -26.781  31.835  0.00  0.00     0.222 C 
ATOM     11  N30 7HJ d   1     -13.816 -25.631  31.598  0.00  0.00    -0.353 N 
ATOM     12  O35 7HJ d   1     -12.962 -27.343  32.910  0.00  0.00    -0.273 OA
BRANCH  11  13
ATOM     13  C31 7HJ d   1     -14.671 -25.137  32.663  0.00  0.00    -0.006 C 
ATOM     14  H13 7HJ d   1     -15.251 -25.989  33.048  0.00  0.00     0.063 H 
ATOM     15  H14 7HJ d   1     -15.355 -24.395  32.225  0.00  0.00     0.063 H 
BRANCH  13  16
ATOM     16  C32 7HJ d   1     -13.971 -24.478  33.850  0.00  0.00    -0.061 C 
ATOM     17  H15 7HJ d   1     -14.723 -24.149  34.583  0.00  0.00     0.029 H 
ATOM     18  H16 7HJ d   1     -13.395 -23.609  33.500  0.00  0.00     0.029 H 
ATOM     19  H17 7HJ d   1     -13.291 -25.202  34.323  0.00  0.00     0.029 H 
ENDBRANCH  13  16
ENDBRANCH  11  13
BRANCH  11  20
ATOM     20  C33 7HJ d   1     -13.865 -24.881  30.331  0.00  0.00    -0.006 C 
ATOM     21  H18 7HJ d   1     -12.872 -24.919  29.859  0.00  0.00     0.063 H 
ATOM     22  H19 7HJ d   1     -14.128 -23.835  30.549  0.00  0.00     0.063 H 
BRANCH  20  23
ATOM     23  C34 7HJ d   1     -14.882 -25.447  29.369  0.00  0.00    -0.061 C 
ATOM     24  H20 7HJ d   1     -14.880 -24.854  28.442  0.00  0.00     0.029 H 
ATOM     25  H21 7HJ d   1     -15.881 -25.408  29.827  0.00  0.00     0.029 H 
ATOM     26  H22 7HJ d   1     -14.626 -26.491  29.137  0.00  0.00     0.029 H 
ENDBRANCH  20  23
ENDBRANCH  11  20
ENDBRANCH   7  10
ENDBRANCH   5   7
BRANCH   5  27
ATOM     27  N36 7HJ d   1      -9.661 -26.788  31.168  0.00  0.00    -0.347 N 
ATOM     28  C37 7HJ d   1      -8.423 -26.915  31.842  0.00  0.00     0.218 C 
ATOM     29  O46 7HJ d   1      -8.137 -27.976  32.381  0.00  0.00    -0.274 OA
ATOM     30  H23 7HJ d   1      -9.869 -25.898  30.761  0.00  0.00     0.163 HD
BRANCH  28  31
ATOM     31  C38 7HJ d   1      -7.474 -25.738  31.892  0.00  0.00     0.013 C 
ATOM     32  H1  7HJ d   1      -7.163 -25.599  32.938  0.00  0.00     0.047 H 
ATOM     33  H2  7HJ d   1      -8.022 -24.848  31.551  0.00  0.00     0.047 H 
BRANCH  31  34
ATOM     34  C39 7HJ d   1      -6.219 -25.865  31.046  0.00  0.00    -0.033 C 
ATOM     35  H3  7HJ d   1      -6.523 -25.908  29.990  0.00  0.00     0.040 H 
ATOM     36  H4  7HJ d   1      -5.715 -26.803  31.322  0.00  0.00     0.040 H 
BRANCH  34  37
ATOM     37  C40 7HJ d   1      -5.242 -24.756  31.199  0.00  0.00    -0.058 A 
ATOM     38  C41 7HJ d   1      -5.375 -23.609  30.438  0.00  0.00    -0.077 A 
ATOM     39  C42 7HJ d   1      -4.495 -22.556  30.583  0.00  0.00    -0.082 A 
ATOM     40  H5  7HJ d   1      -6.182 -23.536  29.718  0.00  0.00     0.084 H 
ATOM     41  C43 7HJ d   1      -3.454 -22.602  31.505  0.00  0.00    -0.083 A 
ATOM     42  H6  7HJ d   1      -4.617 -21.674  29.965  0.00  0.00     0.083 H 
ATOM     43  C44 7HJ d   1      -3.312 -23.728  32.292  0.00  0.00    -0.082 A 
ATOM     44  H7  7HJ d   1      -2.767 -21.769  31.604  0.00  0.00     0.083 H 
ATOM     45  C45 7HJ d   1      -4.199 -24.785  32.139  0.00  0.00    -0.077 A 
ATOM     46  H8  7HJ d   1      -2.514 -23.786  33.023  0.00  0.00     0.083 H 
ATOM     47  H9  7HJ d   1      -4.083 -25.662  32.766  0.00  0.00     0.084 H 
ENDBRANCH  34  37
ENDBRANCH  31  34
ENDBRANCH  28  31
ENDBRANCH   5  27
ENDBRANCH   2   5
BRANCH   3  48
ATOM     48  C04 7HJ d   1     -10.123 -30.827  28.550  0.00  0.00     0.093 C 
ATOM     49  H25 7HJ d   1      -9.727 -30.176  27.756  0.00  0.00     0.088 H 
BRANCH  48  50
ATOM     50  C05 7HJ d   1     -11.362 -31.448  28.088  0.00  0.00     0.241 C 
ATOM     51  O18 7HJ d   1     -12.150 -31.833  28.916  0.00  0.00    -0.271 OA
ATOM     52  N06 7HJ d   1     -11.628 -31.498  26.728  0.00  0.00    -0.355 N 
ATOM     53  H36 7HJ d   1     -10.924 -31.130  26.120  0.00  0.00     0.162 HD
BRANCH  52  54
ATOM     54  C07 7HJ d   1     -12.853 -32.043  26.077  0.00  0.00     0.020 C 
ATOM     55  H37 7HJ d   1     -13.525 -32.405  26.869  0.00  0.00     0.071 H 
ATOM     56  H38 7HJ d   1     -12.550 -32.887  25.439  0.00  0.00     0.071 H 
BRANCH  54  57
ATOM     57  C08 7HJ d   1     -13.641 -31.052  25.206  0.00  0.00    -0.029 A 
ATOM     58  C13 7HJ d   1     -14.381 -29.999  25.783  0.00  0.00    -0.018 A 
ATOM     59  C12 7HJ d   1     -15.078 -29.106  25.001  0.00  0.00    -0.025 A 
ATOM     60  C14 7HJ d   1     -14.457 -29.816  27.191  0.00  0.00    -0.072 A 
ATOM     61  C11 7HJ d   1     -15.062 -29.250  23.595  0.00  0.00    -0.072 A 
ATOM     62  C17 7HJ d   1     -15.832 -28.078  25.604  0.00  0.00    -0.072 A 
ATOM     63  C10 7HJ d   1     -14.355 -30.246  23.019  0.00  0.00    -0.082 A 
ATOM     64  H32 7HJ d   1     -15.620 -28.557  22.976  0.00  0.00     0.084 H 
ATOM     65  C09 7HJ d   1     -13.639 -31.139  23.828  0.00  0.00    -0.074 A 
ATOM     66  H33 7HJ d   1     -14.341 -30.354  21.941  0.00  0.00     0.083 H 
ATOM     67  H39 7HJ d   1     -13.063 -31.926  23.355  0.00  0.00     0.084 H 
ATOM     68  C16 7HJ d   1     -15.891 -27.927  26.969  0.00  0.00    -0.082 A 
ATOM     69  H41 7HJ d   1     -16.380 -27.388  24.973  0.00  0.00     0.084 H 
ATOM     70  C15 7HJ d   1     -15.180 -28.825  27.777  0.00  0.00    -0.082 A 
ATOM     71  H40 7HJ d   1     -16.476 -27.129  27.412  0.00  0.00     0.083 H 
ATOM     72  H35 7HJ d   1     -15.206 -28.730  28.857  0.00  0.00     0.083 H 
ATOM     73  H34 7HJ d   1     -13.911 -30.501  27.829  0.00  0.00     0.084 H 
ENDBRANCH  54  57
ENDBRANCH  52  54
ENDBRANCH  48  50
BRANCH  48  74
ATOM     74  C19 7HJ d   1      -9.075 -31.901  28.895  0.00  0.00    -0.014 C 
ATOM     75  H26 7HJ d   1      -9.022 -32.633  28.076  0.00  0.00     0.043 H 
ATOM     76  H27 7HJ d   1      -9.370 -32.411  29.824  0.00  0.00     0.043 H 
BRANCH  74  77
ATOM     77  C20 7HJ d   1      -7.722 -31.268  29.084  0.00  0.00    -0.056 A 
ATOM     78  C21 7HJ d   1      -7.285 -30.789  30.333  0.00  0.00    -0.074 A 
ATOM     79  C22 7HJ d   1      -6.055 -30.166  30.474  0.00  0.00    -0.045 A 
ATOM     80  H28 7HJ d   1      -7.923 -30.910  31.201  0.00  0.00     0.084 H 
ATOM     81  C23 7HJ d   1      -5.255 -29.999  29.335  0.00  0.00     0.116 A 
ATOM     82  H30 7HJ d   1      -5.719 -29.816  31.443  0.00  0.00     0.088 H 
ATOM     83  C25 7HJ d   1      -5.664 -30.427  28.092  0.00  0.00    -0.045 A 
ATOM     84  F24 7HJ d   1      -4.063 -29.409  29.431  0.00  0.00    -0.206 F 
ATOM     85  C26 7HJ d   1      -6.892 -31.042  27.989  0.00  0.00    -0.074 A 
ATOM     86  H31 7HJ d   1      -5.037 -30.284  27.219  0.00  0.00     0.088 H 
ATOM     87  H29 7HJ d   1      -7.228 -31.365  27.010  0.00  0.00     0.084 H 
ENDBRANCH  74  77
ENDBRANCH  48  74
ENDBRANCH   3  48
TORSDOF 17
