REMARK  6 active torsions:
REMARK  status: ('A' for Active; 'I' for Inactive)
REMARK    1  A    between atoms: C11_10  and  C17_2 
REMARK    2  A    between atoms: C10_22  and  C15_3 
REMARK    3  A    between atoms: O6_18  and  C11_10 
REMARK    4  A    between atoms: N5_17  and  C2_14 
REMARK    5  A    between atoms: C3_15  and  O6_18 
REMARK    6  A    between atoms: C4_16  and  C9_21 
REMARK       I    between atoms: N5_17  and  C10_22 
ROOT
ATOM      1  C12 7HL d   1      22.776   2.264  16.349  0.00  0.00    -0.079 A 
ATOM      2  C2  7HL d   1      22.110   3.211  13.821  0.00  0.00     0.086 A 
ATOM      3  C3  7HL d   1      22.913   3.980  14.679  0.00  0.00     0.097 A 
ATOM      4  C4  7HL d   1      21.586   1.984  14.268  0.00  0.00     0.070 A 
ATOM      5  C7  7HL d   1      23.278   3.485  15.924  0.00  0.00    -0.048 A 
ATOM      6  C8  7HL d   1      21.924   1.527  15.541  0.00  0.00    -0.064 A 
ATOM      7  H10 7HL d   1      23.053   1.881  17.325  0.00  0.00     0.083 H 
ATOM      8  H12 7HL d   1      23.951   4.049  16.559  0.00  0.00     0.087 H 
ATOM      9  H13 7HL d   1      21.518   0.589  15.902  0.00  0.00     0.085 H 
ENDROOT
BRANCH   2  10
ATOM     10  N5  7HL d   1      21.831   3.669  12.506  0.00  0.00    -0.320 N 
ATOM     11  C10 7HL d   1      20.807   4.509  12.232  0.00  0.00     0.256 C 
ATOM     12  O16 7HL d   1      19.962   4.836  13.056  0.00  0.00    -0.267 OA
ATOM     13  H11 7HL d   1      22.413   3.359  11.755  0.00  0.00     0.169 HD
BRANCH  11  14
ATOM     14  C15 7HL d   1      20.764   5.044  10.844  0.00  0.00     0.032 A 
ATOM     15  C18 7HL d   1      21.899   5.561  10.232  0.00  0.00    -0.068 A 
ATOM     16  C22 7HL d   1      21.845   5.999   8.922  0.00  0.00    -0.082 A 
ATOM     17  H1  7HL d   1      22.830   5.621  10.784  0.00  0.00     0.085 H 
ATOM     18  C26 7HL d   1      20.663   5.935   8.215  0.00  0.00    -0.083 A 
ATOM     19  H5  7HL d   1      22.736   6.395   8.448  0.00  0.00     0.083 H 
ATOM     20  C23 7HL d   1      19.534   5.427   8.814  0.00  0.00    -0.082 A 
ATOM     21  H15 7HL d   1      20.624   6.284   7.189  0.00  0.00     0.083 H 
ATOM     22  C19 7HL d   1      19.576   4.999  10.126  0.00  0.00    -0.068 A 
ATOM     23  H6  7HL d   1      18.608   5.362   8.254  0.00  0.00     0.083 H 
ATOM     24  H2  7HL d   1      18.675   4.625  10.599  0.00  0.00     0.085 H 
ENDBRANCH  11  14
ENDBRANCH   2  10
BRANCH   3  25
ATOM     25  O6  7HL d   1      23.095   5.280  14.272  0.00  0.00    -0.344 OA
BRANCH  25  26
ATOM     26  C11 7HL d   1      24.196   6.055  14.769  0.00  0.00     0.050 C 
ATOM     27  H8  7HL d   1      24.020   6.335  15.818  0.00  0.00     0.082 H 
ATOM     28  H9  7HL d   1      25.130   5.478  14.695  0.00  0.00     0.082 H 
BRANCH  26  29
ATOM     29  C17 7HL d   1      24.278   7.285  13.911  0.00  0.00    -0.034 A 
ATOM     30  C20 7HL d   1      24.662   7.177  12.583  0.00  0.00    -0.073 A 
ATOM     31  C24 7HL d   1      24.559   8.253  11.717  0.00  0.00    -0.061 A 
ATOM     32  H3  7HL d   1      25.050   6.234  12.216  0.00  0.00     0.084 H 
ATOM     33  C27 7HL d   1      24.068   9.452  12.189  0.00  0.00     0.034 A 
ATOM     34  H7  7HL d   1      24.861   8.154  10.681  0.00  0.00     0.086 H 
ATOM     35 CL1  7HL d   1      23.827  10.776  11.078  0.00  0.00    -0.084 Cl
ATOM     36  C25 7HL d   1      23.717   9.604  13.512  0.00  0.00    -0.061 A 
ATOM     37  C21 7HL d   1      23.835   8.520  14.370  0.00  0.00    -0.073 A 
ATOM     38  H14 7HL d   1      23.354  10.557  13.878  0.00  0.00     0.086 H 
ATOM     39  H4  7HL d   1      23.577   8.638  15.416  0.00  0.00     0.084 H 
ENDBRANCH  26  29
ENDBRANCH  25  26
ENDBRANCH   3  25
BRANCH   4  40
ATOM     40  C9  7HL d   1      20.655   1.190  13.410  0.00  0.00     0.211 C 
ATOM     41  O13 7HL d   1      21.267   0.393  12.580  0.00  0.00    -0.644 OA
ATOM     42  O14 7HL d   1      19.429   1.319  13.452  0.00  0.00    -0.644 OA
ENDBRANCH   4  40
TORSDOF 6
