REMARK  5 active torsions:
REMARK  status: ('A' for Active; 'I' for Inactive)
REMARK    1  A    between atoms: O12_23  and  C13_1 
REMARK    2  A    between atoms: C13_1  and  C14_24 
REMARK    3  A    between atoms: C3_14  and  C8_19 
REMARK    4  A    between atoms: C4_15  and  N11_22 
REMARK    5  A    between atoms: C5_16  and  O12_23 
ROOT
ATOM      1  C2  7HM d   1      23.562   2.778  15.315  0.00  0.00    -0.064 A 
ATOM      2  C3  7HM d   1      22.912   3.160  14.140  0.00  0.00     0.070 A 
ATOM      3  C4  7HM d   1      22.790   4.520  13.814  0.00  0.00     0.088 A 
ATOM      4  C5  7HM d   1      23.352   5.479  14.667  0.00  0.00     0.097 A 
ATOM      5  C6  7HM d   1      24.015   5.085  15.829  0.00  0.00    -0.048 A 
ATOM      6  C7  7HM d   1      24.116   3.739  16.145  0.00  0.00    -0.079 A 
ATOM      7  H10 7HM d   1      23.633   1.729  15.578  0.00  0.00     0.085 H 
ATOM      8  H11 7HM d   1      24.451   5.830  16.484  0.00  0.00     0.087 H 
ATOM      9  H12 7HM d   1      24.633   3.436  17.049  0.00  0.00     0.083 H 
ENDROOT
BRANCH   3  10
ATOM     10  N11 7HM d   1      22.059   4.910  12.637  0.00  0.00    -0.306 N 
ATOM     11  C20 7HM d   1      22.722   5.611  11.532  0.00  0.00     0.028 A 
ATOM     12  C21 7HM d   1      21.680   5.575  10.454  0.00  0.00    -0.024 A 
ATOM     13  H7  7HM d   1      22.971   6.646  11.810  0.00  0.00     0.072 H 
ATOM     14  H8  7HM d   1      23.636   5.085  11.219  0.00  0.00     0.072 H 
ATOM     15  C22 7HM d   1      20.520   4.991  10.937  0.00  0.00     0.040 A 
ATOM     16  C25 7HM d   1      21.736   6.008   9.137  0.00  0.00    -0.074 A 
ATOM     17  C23 7HM d   1      20.740   4.568  12.337  0.00  0.00     0.259 A 
ATOM     18  C28 7HM d   1      19.413   4.827  10.107  0.00  0.00    -0.067 A 
ATOM     19  O24 7HM d   1      19.975   4.027  13.103  0.00  0.00    -0.267 OA
ATOM     20  C27 7HM d   1      19.491   5.230   8.787  0.00  0.00    -0.082 A 
ATOM     21  H15 7HM d   1      18.500   4.388  10.492  0.00  0.00     0.085 H 
ATOM     22  C26 7HM d   1      20.640   5.830   8.307  0.00  0.00    -0.082 A 
ATOM     23  H9  7HM d   1      18.647   5.075   8.125  0.00  0.00     0.083 H 
ATOM     24  H14 7HM d   1      20.684   6.163   7.276  0.00  0.00     0.083 H 
ATOM     25  H13 7HM d   1      22.634   6.484   8.758  0.00  0.00     0.084 H 
ENDBRANCH   3  10
BRANCH   2  26
ATOM     26  C8  7HM d   1      22.411   2.099  13.212  0.00  0.00     0.211 C 
ATOM     27  O9  7HM d   1      21.503   1.308  13.713  0.00  0.00    -0.644 OA
ATOM     28  O10 7HM d   1      22.806   2.030  12.049  0.00  0.00    -0.644 OA
ENDBRANCH   2  26
BRANCH   4  29
ATOM     29  O12 7HM d   1      23.133   6.779  14.284  0.00  0.00    -0.344 OA
BRANCH  29  30
ATOM     30  C13 7HM d   1      23.951   7.832  14.811  0.00  0.00     0.050 C 
ATOM     31  H1  7HM d   1      24.985   7.480  14.944  0.00  0.00     0.082 H 
ATOM     32  H2  7HM d   1      23.553   8.174  15.778  0.00  0.00     0.082 H 
BRANCH  30  33
ATOM     33  C14 7HM d   1      23.909   8.947  13.810  0.00  0.00    -0.034 A 
ATOM     34  C15 7HM d   1      24.680   8.885  12.659  0.00  0.00    -0.073 A 
ATOM     35  C16 7HM d   1      24.451   9.748  11.601  0.00  0.00    -0.061 A 
ATOM     36  H5  7HM d   1      25.474   8.150  12.587  0.00  0.00     0.084 H 
ATOM     37  C17 7HM d   1      23.457  10.699  11.714  0.00  0.00     0.034 A 
ATOM     38  H4  7HM d   1      25.044   9.678  10.696  0.00  0.00     0.086 H 
ATOM     39  C18 7HM d   1      22.709  10.813  12.861  0.00  0.00    -0.061 A 
ATOM     40 CL1  7HM d   1      23.109  11.738  10.363  0.00  0.00    -0.084 Cl
ATOM     41  C19 7HM d   1      22.950   9.946  13.909  0.00  0.00    -0.073 A 
ATOM     42  H3  7HM d   1      21.940  11.573  12.942  0.00  0.00     0.086 H 
ATOM     43  H6  7HM d   1      22.380  10.047  14.825  0.00  0.00     0.084 H 
ENDBRANCH  30  33
ENDBRANCH  29  30
ENDBRANCH   4  29
TORSDOF 5
