REMARK  9 active torsions:
REMARK  status: ('A' for Active; 'I' for Inactive)
REMARK    1  A    between atoms: O12_23  and  C13_1 
REMARK    2  A    between atoms: C13_1  and  C14_24 
REMARK    3  A    between atoms: C20_7  and  C21_8 
REMARK       I    between atoms: N11_22  and  C20_7 
REMARK    4  A    between atoms: C27_11  and  O28_28 
REMARK    5  A    between atoms: C3_14  and  C8_19 
REMARK    6  A    between atoms: C4_15  and  N11_22 
REMARK    7  A    between atoms: C5_16  and  O12_23 
REMARK    8  A    between atoms: O28_28  and  C29_29 
REMARK    9  A    between atoms: C29_29  and  C30_30 
ROOT
ATOM      1  C2  7HO d   1      23.136   2.589  16.013  0.00  0.00    -0.064 A 
ATOM      2  C3  7HO d   1      22.579   2.827  14.754  0.00  0.00     0.070 A 
ATOM      3  C4  7HO d   1      22.815   4.068  14.125  0.00  0.00     0.086 A 
ATOM      4  C5  7HO d   1      23.572   5.052  14.789  0.00  0.00     0.097 A 
ATOM      5  C6  7HO d   1      24.113   4.790  16.042  0.00  0.00    -0.048 A 
ATOM      6  C7  7HO d   1      23.909   3.555  16.636  0.00  0.00    -0.079 A 
ATOM      7  H9  7HO d   1      22.962   1.640  16.507  0.00  0.00     0.085 H 
ATOM      8  H10 7HO d   1      24.693   5.550  16.553  0.00  0.00     0.087 H 
ATOM      9  H11 7HO d   1      24.359   3.342  17.599  0.00  0.00     0.083 H 
ENDROOT
BRANCH   3  10
ATOM     10  N11 7HO d   1      22.378   4.280  12.784  0.00  0.00    -0.320 N 
ATOM     11  C20 7HO d   1      21.083   4.488  12.440  0.00  0.00     0.259 C 
ATOM     12  O22 7HO d   1      20.166   4.412  13.250  0.00  0.00    -0.267 OA
ATOM     13  H12 7HO d   1      23.065   4.275  12.057  0.00  0.00     0.169 HD
BRANCH  11  14
ATOM     14  C21 7HO d   1      20.811   4.823  10.999  0.00  0.00     0.065 A 
ATOM     15  C23 7HO d   1      19.496   4.633  10.563  0.00  0.00    -0.065 A 
ATOM     16  C24 7HO d   1      19.117   4.974   9.274  0.00  0.00    -0.082 A 
ATOM     17  H7  7HO d   1      18.763   4.213  11.242  0.00  0.00     0.085 H 
ATOM     18  C25 7HO d   1      20.027   5.533   8.406  0.00  0.00    -0.080 A 
ATOM     19  H8  7HO d   1      18.098   4.799   8.948  0.00  0.00     0.083 H 
ATOM     20  C26 7HO d   1      21.331   5.749   8.809  0.00  0.00    -0.050 A 
ATOM     21  H13 7HO d   1      19.720   5.805   7.403  0.00  0.00     0.083 H 
ATOM     22  C27 7HO d   1      21.733   5.351  10.082  0.00  0.00     0.085 A 
ATOM     23  H14 7HO d   1      22.037   6.225   8.138  0.00  0.00     0.087 H 
BRANCH  22  24
ATOM     24  O28 7HO d   1      23.054   5.291  10.444  0.00  0.00    -0.340 OA
BRANCH  24  25
ATOM     25  C29 7HO d   1      23.946   4.562   9.588  0.00  0.00     0.105 C 
ATOM     26  H15 7HO d   1      23.419   4.240   8.678  0.00  0.00     0.091 H 
ATOM     27  H16 7HO d   1      24.340   3.680  10.114  0.00  0.00     0.091 H 
BRANCH  25  28
ATOM     28  C30 7HO d   1      25.066   5.496   9.234  0.00  0.00     0.198 C 
ATOM     29  O31 7HO d   1      25.003   6.637   9.871  0.00  0.00    -0.646 OA
ATOM     30  O32 7HO d   1      25.882   5.252   8.385  0.00  0.00    -0.646 OA
ENDBRANCH  25  28
ENDBRANCH  24  25
ENDBRANCH  22  24
ENDBRANCH  11  14
ENDBRANCH   3  10
BRANCH   2  31
ATOM     31  C8  7HO d   1      21.769   1.739  14.119  0.00  0.00     0.211 C 
ATOM     32  O9  7HO d   1      22.292   1.234  13.034  0.00  0.00    -0.644 OA
ATOM     33  O10 7HO d   1      20.694   1.372  14.582  0.00  0.00    -0.644 OA
ENDBRANCH   2  31
BRANCH   4  34
ATOM     34  O12 7HO d   1      23.734   6.228  14.088  0.00  0.00    -0.344 OA
BRANCH  34  35
ATOM     35  C13 7HO d   1      24.176   7.428  14.770  0.00  0.00     0.050 C 
ATOM     36  H1  7HO d   1      25.204   7.285  15.134  0.00  0.00     0.082 H 
ATOM     37  H2  7HO d   1      23.510   7.633  15.621  0.00  0.00     0.082 H 
BRANCH  35  38
ATOM     38  C14 7HO d   1      24.139   8.589  13.814  0.00  0.00    -0.034 A 
ATOM     39  C15 7HO d   1      24.937   8.606  12.677  0.00  0.00    -0.073 A 
ATOM     40  C16 7HO d   1      24.700   9.506  11.652  0.00  0.00    -0.061 A 
ATOM     41  H5  7HO d   1      25.758   7.904  12.591  0.00  0.00     0.084 H 
ATOM     42  C17 7HO d   1      23.663  10.404  11.774  0.00  0.00     0.034 A 
ATOM     43  H4  7HO d   1      25.323   9.504  10.765  0.00  0.00     0.086 H 
ATOM     44  C18 7HO d   1      22.909  10.464  12.924  0.00  0.00    -0.061 A 
ATOM     45 CL1  7HO d   1      23.236  11.409  10.418  0.00  0.00    -0.084 Cl
ATOM     46  C19 7HO d   1      23.163   9.566  13.944  0.00  0.00    -0.073 A 
ATOM     47  H3  7HO d   1      22.126  11.206  13.029  0.00  0.00     0.086 H 
ATOM     48  H6  7HO d   1      22.589   9.627  14.862  0.00  0.00     0.084 H 
ENDBRANCH  35  38
ENDBRANCH  34  35
ENDBRANCH   4  34
TORSDOF 9
