REMARK  8 active torsions:
REMARK  status: ('A' for Active; 'I' for Inactive)
REMARK    1  A    between atoms: N14_1  and  C15_3 
REMARK       I    between atoms: C12_9  and  N14_1 
REMARK    2  A    between atoms: C15_3  and  C16_2 
REMARK    3  A    between atoms: C20_4  and  C21_5 
REMARK    4  A    between atoms: O19_25  and  C20_4 
REMARK    5  A    between atoms: C2_12  and  C12_9 
REMARK    6  A    between atoms: N8_18  and  C4_14 
REMARK    7  A    between atoms: C5_15  and  O19_25 
REMARK       I    between atoms: C9_19  and  N8_18 
REMARK    8  A    between atoms: C9_19  and  C10_20 
ROOT
ATOM      1  C2  7HH d   1      23.321   2.754  15.968  0.00  0.00     0.034 A 
ATOM      2  C3  7HH d   1      22.713   3.008  14.737  0.00  0.00    -0.039 A 
ATOM      3  C4  7HH d   1      22.867   4.248  14.125  0.00  0.00     0.069 A 
ATOM      4  C5  7HH d   1      23.604   5.253  14.781  0.00  0.00     0.096 A 
ATOM      5  C6  7HH d   1      24.205   4.999  16.005  0.00  0.00    -0.048 A 
ATOM      6  C7  7HH d   1      24.097   3.744  16.569  0.00  0.00    -0.065 A 
ATOM      7  H9  7HH d   1      22.120   2.238  14.257  0.00  0.00     0.088 H 
ATOM      8  H10 7HH d   1      24.756   5.781  16.515  0.00  0.00     0.087 H 
ATOM      9  H11 7HH d   1      24.622   3.525  17.491  0.00  0.00     0.085 H 
ENDROOT
BRANCH   3  10
ATOM     10  N8  7HH d   1      22.380   4.528  12.823  0.00  0.00    -0.320 N 
ATOM     11  C9  7HH d   1      21.085   4.504  12.411  0.00  0.00     0.256 C 
ATOM     12  O11 7HH d   1      20.167   4.114  13.123  0.00  0.00    -0.267 OA
ATOM     13  H12 7HH d   1      23.063   4.769  12.134  0.00  0.00     0.169 HD
BRANCH  11  14
ATOM     14  C10 7HH d   1      20.807   4.978  11.018  0.00  0.00     0.032 A 
ATOM     15  C27 7HH d   1      21.564   5.963  10.393  0.00  0.00    -0.068 A 
ATOM     16  C28 7HH d   1      21.252   6.373   9.108  0.00  0.00    -0.082 A 
ATOM     17  H8  7HH d   1      22.402   6.412  10.914  0.00  0.00     0.085 H 
ATOM     18  C29 7HH d   1      20.183   5.823   8.438  0.00  0.00    -0.083 A 
ATOM     19  H15 7HH d   1      21.855   7.134   8.625  0.00  0.00     0.083 H 
ATOM     20  C30 7HH d   1      19.409   4.876   9.054  0.00  0.00    -0.082 A 
ATOM     21  H16 7HH d   1      19.954   6.138   7.426  0.00  0.00     0.083 H 
ATOM     22  C31 7HH d   1      19.718   4.443  10.332  0.00  0.00    -0.068 A 
ATOM     23  H17 7HH d   1      18.550   4.463   8.538  0.00  0.00     0.083 H 
ATOM     24  H18 7HH d   1      19.108   3.681  10.803  0.00  0.00     0.085 H 
ENDBRANCH  11  14
ENDBRANCH   3  10
BRANCH   4  25
ATOM     25  O19 7HH d   1      23.686   6.439  14.106  0.00  0.00    -0.344 OA
BRANCH  25  26
ATOM     26  C20 7HH d   1      24.130   7.620  14.800  0.00  0.00     0.050 C 
ATOM     27  H4  7HH d   1      23.452   7.852  15.635  0.00  0.00     0.082 H 
ATOM     28  H5  7HH d   1      25.151   7.478  15.185  0.00  0.00     0.082 H 
BRANCH  26  29
ATOM     29  C21 7HH d   1      24.103   8.717  13.787  0.00  0.00    -0.034 A 
ATOM     30  C22 7HH d   1      24.593   8.499  12.511  0.00  0.00    -0.073 A 
ATOM     31  C23 7HH d   1      24.304   9.378  11.483  0.00  0.00    -0.061 A 
ATOM     32  H6  7HH d   1      25.210   7.630  12.315  0.00  0.00     0.084 H 
ATOM     33  C24 7HH d   1      23.540  10.492  11.745  0.00  0.00     0.034 A 
ATOM     34  H7  7HH d   1      24.675   9.191  10.482  0.00  0.00     0.086 H 
ATOM     35 CL1  7HH d   1      23.108  11.569  10.444  0.00  0.00    -0.084 Cl
ATOM     36  C25 7HH d   1      23.090  10.757  13.009  0.00  0.00    -0.061 A 
ATOM     37  C26 7HH d   1      23.392   9.878  14.029  0.00  0.00    -0.073 A 
ATOM     38  H13 7HH d   1      22.503  11.647  13.207  0.00  0.00     0.086 H 
ATOM     39  H14 7HH d   1      23.066  10.102  15.038  0.00  0.00     0.084 H 
ENDBRANCH  26  29
ENDBRANCH  25  26
ENDBRANCH   4  25
BRANCH   1  40
ATOM     40  C12 7HH d   1      23.008   1.480  16.683  0.00  0.00     0.252 C 
ATOM     41  N14 7HH d   1      23.997   0.916  17.398  0.00  0.00    -0.347 N 
ATOM     42  H1  7HH d   1      24.835   1.439  17.556  0.00  0.00     0.163 HD
ATOM     43  O13 7HH d   1      21.879   1.001  16.599  0.00  0.00    -0.268 OA
BRANCH  41  44
ATOM     44  C15 7HH d   1      23.895  -0.422  17.949  0.00  0.00     0.075 C 
ATOM     45  H2  7HH d   1      24.833  -0.954  17.732  0.00  0.00     0.080 H 
ATOM     46  H3  7HH d   1      23.059  -0.935  17.451  0.00  0.00     0.080 H 
BRANCH  44  47
ATOM     47  C16 7HH d   1      23.658  -0.475  19.443  0.00  0.00     0.191 C 
ATOM     48  O17 7HH d   1      24.090  -1.626  19.989  0.00  0.00    -0.647 OA
ATOM     49  O18 7HH d   1      23.141   0.418  20.086  0.00  0.00    -0.647 OA
ENDBRANCH  44  47
ENDBRANCH  41  44
ENDBRANCH   1  40
TORSDOF 8
