REMARK  16 active torsions:
REMARK  status: ('A' for Active; 'I' for Inactive)
REMARK    1  A    between atoms: C30_1  and  C31_3 
REMARK       I    between atoms: N29_22  and  C30_1 
REMARK    2  A    between atoms: C31_3  and  C32_4 
REMARK    3  A    between atoms: C32_4  and  C33_5 
REMARK    4  A    between atoms: C02_12  and  C20_13 
REMARK       I    between atoms: N03_23  and  C02_12 
REMARK    5  A    between atoms: C20_13  and  C21_14 
REMARK    6  A    between atoms: C20_13  and  N29_22 
REMARK    7  A    between atoms: C21_14  and  C22_15 
REMARK       I    between atoms: C22_15  and  N23_16 
REMARK    8  A    between atoms: N23_16  and  C26_17 
REMARK    9  A    between atoms: N23_16  and  C24_19 
REMARK   10  A    between atoms: C26_17  and  C27_18 
REMARK   11  A    between atoms: C24_19  and  C25_20 
REMARK   12  A    between atoms: C04_24  and  N03_23 
REMARK   13  A    between atoms: C05_25  and  C04_24 
REMARK   14  A    between atoms: C04_24  and  C19_27 
REMARK       I    between atoms: N06_34  and  C05_25 
REMARK   15  A    between atoms: C07_35  and  N06_34 
REMARK   16  A    between atoms: C07_35  and  C08_36 
ROOT
ATOM      1  C20 7HY d   1      -8.831 -30.612  36.474  0.00  0.00     0.097 C 
ATOM      2  H10 7HY d   1      -8.821 -31.267  37.357  0.00  0.00     0.088 H 
ENDROOT
BRANCH   1   3
ATOM      3  C02 7HY d   1      -8.448 -31.382  35.192  0.00  0.00     0.241 C 
ATOM      4  O01 7HY d   1      -8.087 -30.764  34.204  0.00  0.00    -0.271 OA
ATOM      5  N03 7HY d   1      -8.522 -32.784  35.158  0.00  0.00    -0.346 N 
ATOM      6  H24 7HY d   1      -8.804 -33.274  35.983  0.00  0.00     0.163 HD
BRANCH   5   7
ATOM      7  C04 7HY d   1      -8.203 -33.544  33.966  0.00  0.00     0.086 C 
ATOM      8  H25 7HY d   1      -7.633 -32.921  33.260  0.00  0.00     0.086 H 
BRANCH   7   9
ATOM      9  C05 7HY d   1      -9.526 -33.998  33.320  0.00  0.00     0.240 C 
ATOM     10  O18 7HY d   1     -10.509 -34.098  34.066  0.00  0.00    -0.271 OA
ATOM     11  N06 7HY d   1      -9.654 -34.277  31.957  0.00  0.00    -0.355 N 
ATOM     12  H33 7HY d   1      -8.848 -34.175  31.375  0.00  0.00     0.162 HD
BRANCH  11  13
ATOM     13  C07 7HY d   1     -10.940 -34.722  31.321  0.00  0.00     0.020 C 
ATOM     14  H34 7HY d   1     -11.615 -35.036  32.131  0.00  0.00     0.071 H 
ATOM     15  H35 7HY d   1     -10.708 -35.586  30.682  0.00  0.00     0.071 H 
BRANCH  13  16
ATOM     16  C08 7HY d   1     -11.705 -33.703  30.455  0.00  0.00    -0.029 A 
ATOM     17  C13 7HY d   1     -12.496 -32.644  31.058  0.00  0.00    -0.018 A 
ATOM     18  C12 7HY d   1     -13.195 -31.734  30.256  0.00  0.00    -0.025 A 
ATOM     19  C14 7HY d   1     -12.605 -32.475  32.462  0.00  0.00    -0.072 A 
ATOM     20  C11 7HY d   1     -13.127 -31.862  28.825  0.00  0.00    -0.072 A 
ATOM     21  C17 7HY d   1     -13.961 -30.704  30.865  0.00  0.00    -0.072 A 
ATOM     22  C10 7HY d   1     -12.375 -32.874  28.242  0.00  0.00    -0.082 A 
ATOM     23  H29 7HY d   1     -13.667 -31.163  28.196  0.00  0.00     0.084 H 
ATOM     24  C09 7HY d   1     -11.660 -33.798  29.070  0.00  0.00    -0.074 A 
ATOM     25  H30 7HY d   1     -12.329 -32.964  27.163  0.00  0.00     0.083 H 
ATOM     26  H36 7HY d   1     -11.074 -34.584  28.608  0.00  0.00     0.084 H 
ATOM     27  C16 7HY d   1     -14.047 -30.557  32.249  0.00  0.00    -0.082 A 
ATOM     28  H38 7HY d   1     -14.498 -30.008  30.231  0.00  0.00     0.084 H 
ATOM     29  C15 7HY d   1     -13.360 -31.462  33.061  0.00  0.00    -0.082 A 
ATOM     30  H37 7HY d   1     -14.635 -29.757  32.685  0.00  0.00     0.083 H 
ATOM     31  H32 7HY d   1     -13.411 -31.380  34.141  0.00  0.00     0.083 H 
ATOM     32  H31 7HY d   1     -12.075 -33.168  33.105  0.00  0.00     0.084 H 
ENDBRANCH  13  16
ENDBRANCH  11  13
ENDBRANCH   7   9
BRANCH   7  33
ATOM     33  C19 7HY d   1      -7.390 -34.747  34.356  0.00  0.00    -0.049 C 
ATOM     34  H26 7HY d   1      -7.143 -35.330  33.456  0.00  0.00     0.030 H 
ATOM     35  H27 7HY d   1      -7.970 -35.372  35.050  0.00  0.00     0.030 H 
ATOM     36  H28 7HY d   1      -6.462 -34.419  34.846  0.00  0.00     0.030 H 
ENDBRANCH   7  33
ENDBRANCH   5   7
ENDBRANCH   1   3
BRANCH   1  37
ATOM     37  C21 7HY d   1     -10.267 -30.055  36.203  0.00  0.00     0.036 C 
ATOM     38  H11 7HY d   1     -10.846 -30.881  35.764  0.00  0.00     0.051 H 
ATOM     39  H12 7HY d   1     -10.156 -29.250  35.462  0.00  0.00     0.051 H 
BRANCH  37  40
ATOM     40  C22 7HY d   1     -11.101 -29.495  37.324  0.00  0.00     0.222 C 
ATOM     41  N23 7HY d   1     -11.938 -28.347  37.101  0.00  0.00    -0.353 N 
ATOM     42  O28 7HY d   1     -11.057 -30.023  38.444  0.00  0.00    -0.273 OA
BRANCH  41  43
ATOM     43  C26 7HY d   1     -12.751 -27.819  38.205  0.00  0.00    -0.006 C 
ATOM     44  H13 7HY d   1     -13.270 -28.661  38.686  0.00  0.00     0.063 H 
ATOM     45  H14 7HY d   1     -13.493 -27.123  37.786  0.00  0.00     0.063 H 
BRANCH  43  46
ATOM     46  C27 7HY d   1     -11.936 -27.070  39.283  0.00  0.00    -0.061 C 
ATOM     47  H15 7HY d   1     -12.614 -26.708  40.070  0.00  0.00     0.029 H 
ATOM     48  H16 7HY d   1     -11.418 -26.215  38.823  0.00  0.00     0.029 H 
ATOM     49  H17 7HY d   1     -11.195 -27.753  39.723  0.00  0.00     0.029 H 
ENDBRANCH  43  46
ENDBRANCH  41  43
BRANCH  41  50
ATOM     50  C24 7HY d   1     -12.027 -27.671  35.786  0.00  0.00    -0.006 C 
ATOM     51  H18 7HY d   1     -11.036 -27.703  35.311  0.00  0.00     0.063 H 
ATOM     52  H19 7HY d   1     -12.320 -26.624  35.952  0.00  0.00     0.063 H 
BRANCH  50  53
ATOM     53  C25 7HY d   1     -13.057 -28.323  34.820  0.00  0.00    -0.061 C 
ATOM     54  H20 7HY d   1     -13.068 -27.771  33.869  0.00  0.00     0.029 H 
ATOM     55  H21 7HY d   1     -14.058 -28.290  35.275  0.00  0.00     0.029 H 
ATOM     56  H22 7HY d   1     -12.773 -29.369  34.633  0.00  0.00     0.029 H 
ENDBRANCH  50  53
ENDBRANCH  41  50
ENDBRANCH  37  40
ENDBRANCH   1  37
BRANCH   1  57
ATOM     57  N29 7HY d   1      -7.906 -29.539  36.638  0.00  0.00    -0.347 N 
ATOM     58  C30 7HY d   1      -6.562 -29.757  36.937  0.00  0.00     0.218 C 
ATOM     59  O39 7HY d   1      -6.187 -30.924  37.058  0.00  0.00    -0.274 OA
ATOM     60  H23 7HY d   1      -8.232 -28.599  36.535  0.00  0.00     0.163 HD
BRANCH  58  61
ATOM     61  C31 7HY d   1      -5.593 -28.617  37.104  0.00  0.00     0.013 C 
ATOM     62  H1  7HY d   1      -5.435 -28.457  38.181  0.00  0.00     0.047 H 
ATOM     63  H2  7HY d   1      -6.044 -27.716  36.662  0.00  0.00     0.047 H 
BRANCH  61  64
ATOM     64  C32 7HY d   1      -4.216 -28.838  36.444  0.00  0.00    -0.033 C 
ATOM     65  H3  7HY d   1      -4.387 -29.054  35.379  0.00  0.00     0.040 H 
ATOM     66  H4  7HY d   1      -3.752 -29.711  36.925  0.00  0.00     0.040 H 
BRANCH  64  67
ATOM     67  C33 7HY d   1      -3.250 -27.711  36.526  0.00  0.00    -0.058 A 
ATOM     68  C34 7HY d   1      -3.168 -26.709  35.566  0.00  0.00    -0.077 A 
ATOM     69  C35 7HY d   1      -2.237 -25.665  35.691  0.00  0.00    -0.082 A 
ATOM     70  H5  7HY d   1      -3.832 -26.734  34.709  0.00  0.00     0.084 H 
ATOM     71  C36 7HY d   1      -1.369 -25.613  36.785  0.00  0.00    -0.083 A 
ATOM     72  H6  7HY d   1      -2.191 -24.892  34.932  0.00  0.00     0.083 H 
ATOM     73  C37 7HY d   1      -1.445 -26.616  37.754  0.00  0.00    -0.082 A 
ATOM     74  H7  7HY d   1      -0.649 -24.808  36.880  0.00  0.00     0.083 H 
ATOM     75  C38 7HY d   1      -2.382 -27.646  37.615  0.00  0.00    -0.077 A 
ATOM     76  H8  7HY d   1      -0.781 -26.597  38.610  0.00  0.00     0.083 H 
ATOM     77  H9  7HY d   1      -2.434 -28.416  38.376  0.00  0.00     0.084 H 
ENDBRANCH  64  67
ENDBRANCH  61  64
ENDBRANCH  58  61
ENDBRANCH   1  57
TORSDOF 16
