REMARK  18 active torsions:
REMARK  status: ('A' for Active; 'I' for Inactive)
REMARK    1  A    between atoms: C37_2  and  C38_3 
REMARK    2  A    between atoms: C33_7  and  C34_6 
REMARK       I    between atoms: N32_21  and  C33_7 
REMARK    3  A    between atoms: C02_10  and  C22_11 
REMARK       I    between atoms: N03_23  and  C02_10 
REMARK    4  A    between atoms: C22_11  and  C23_12 
REMARK    5  A    between atoms: C22_11  and  N32_21 
REMARK    6  A    between atoms: C23_12  and  C24_13 
REMARK       I    between atoms: C24_13  and  N25_14 
REMARK    7  A    between atoms: N25_14  and  O26_15 
REMARK    8  A    between atoms: O26_15  and  C27_16 
REMARK    9  A    between atoms: C27_16  and  C28_17 
REMARK   10  A    between atoms: C27_16  and  C29_18 
REMARK   11  A    between atoms: C27_16  and  C30_19 
REMARK   12  A    between atoms: C19_27  and  O20_22 
REMARK   13  A    between atoms: O20_22  and  C21_28 
REMARK   14  A    between atoms: C04_24  and  N03_23 
REMARK   15  A    between atoms: C05_25  and  C04_24 
REMARK   16  A    between atoms: C04_24  and  C19_27 
REMARK       I    between atoms: N06_35  and  C05_25 
REMARK   17  A    between atoms: C07_36  and  N06_35 
REMARK   18  A    between atoms: C07_36  and  C08_37 
ROOT
ATOM      1  O01 7HZ d   1      -7.910 -28.512  33.964  0.00  0.00    -0.271 OA
ATOM      2  C02 7HZ d   1      -8.122 -28.989  35.098  0.00  0.00     0.241 C 
ATOM      3  N03 7HZ d   1      -8.310 -30.340  35.149  0.00  0.00    -0.344 N 
ATOM      4  H19 7HZ d   1      -8.483 -30.784  36.028  0.00  0.00     0.163 HD
ENDROOT
BRANCH   2   5
ATOM      5  C22 7HZ d   1      -8.159 -28.014  36.211  0.00  0.00     0.098 C 
ATOM      6  H5  7HZ d   1      -8.088 -28.538  37.175  0.00  0.00     0.088 H 
BRANCH   5   7
ATOM      7  C23 7HZ d   1      -9.502 -27.267  36.146  0.00  0.00     0.038 C 
ATOM      8  H6  7HZ d   1     -10.138 -27.832  35.449  0.00  0.00     0.051 H 
ATOM      9  H7  7HZ d   1      -9.286 -26.275  35.723  0.00  0.00     0.051 H 
BRANCH   7  10
ATOM     10  C24 7HZ d   1     -10.320 -27.034  37.367  0.00  0.00     0.243 C 
ATOM     11  N25 7HZ d   1     -10.796 -25.739  37.688  0.00  0.00    -0.234 N 
ATOM     12  H8  7HZ d   1     -10.566 -24.983  37.075  0.00  0.00     0.197 HD
ATOM     13  O31 7HZ d   1     -10.608 -28.001  38.103  0.00  0.00    -0.271 OA
BRANCH  11  14
ATOM     14  O26 7HZ d   1     -11.556 -25.469  38.797  0.00  0.00    -0.268 OA
BRANCH  14  15
ATOM     15  C27 7HZ d   1     -12.913 -25.086  38.492  0.00  0.00     0.078 C 
BRANCH  15  16
ATOM     16  C28 7HZ d   1     -13.703 -26.199  37.848  0.00  0.00    -0.046 C 
ATOM     17  H9  7HZ d   1     -14.725 -25.850  37.639  0.00  0.00     0.031 H 
ATOM     18  H10 7HZ d   1     -13.742 -27.062  38.529  0.00  0.00     0.031 H 
ATOM     19  H11 7HZ d   1     -13.218 -26.496  36.907  0.00  0.00     0.031 H 
ENDBRANCH  15  16
BRANCH  15  20
ATOM     20  C29 7HZ d   1     -13.616 -24.662  39.771  0.00  0.00    -0.046 C 
ATOM     21  H12 7HZ d   1     -14.651 -24.369  39.541  0.00  0.00     0.031 H 
ATOM     22  H13 7HZ d   1     -13.084 -23.808  40.216  0.00  0.00     0.031 H 
ATOM     23  H14 7HZ d   1     -13.622 -25.501  40.482  0.00  0.00     0.031 H 
ENDBRANCH  15  20
BRANCH  15  24
ATOM     24  C30 7HZ d   1     -12.883 -23.872  37.561  0.00  0.00    -0.046 C 
ATOM     25  H15 7HZ d   1     -13.913 -23.569  37.320  0.00  0.00     0.031 H 
ATOM     26  H16 7HZ d   1     -12.351 -24.134  36.634  0.00  0.00     0.031 H 
ATOM     27  H17 7HZ d   1     -12.363 -23.040  38.059  0.00  0.00     0.031 H 
ENDBRANCH  15  24
ENDBRANCH  14  15
ENDBRANCH  11  14
ENDBRANCH   7  10
ENDBRANCH   5   7
BRANCH   5  28
ATOM     28  N32 7HZ d   1      -7.011 -27.138  36.062  0.00  0.00    -0.342 N 
ATOM     29  C33 7HZ d   1      -6.442 -26.424  37.094  0.00  0.00     0.273 C 
ATOM     30  O40 7HZ d   1      -6.975 -26.579  38.213  0.00  0.00    -0.266 OA
ATOM     31  H18 7HZ d   1      -6.607 -27.047  35.152  0.00  0.00     0.163 HD
BRANCH  29  32
ATOM     32  C34 7HZ d   1      -5.283 -25.497  37.011  0.00  0.00     0.154 A 
ATOM     33  C39 7HZ d   1      -4.381 -25.297  35.871  0.00  0.00    -0.017 A 
ATOM     34  C37 7HZ d   1      -3.451 -24.324  36.266  0.00  0.00     0.077 A 
ATOM     35  H1  7HZ d   1      -4.425 -25.804  34.908  0.00  0.00     0.091 H 
ATOM     36  O36 7HZ d   1      -3.791 -23.979  37.552  0.00  0.00    -0.218 OA
ATOM     37  N35 7HZ d   1      -4.859 -24.660  37.986  0.00  0.00    -0.123 NA
BRANCH  34  38
ATOM     38  C38 7HZ d   1      -2.307 -23.734  35.526  0.00  0.00    -0.029 C 
ATOM     39  H2  7HZ d   1      -1.800 -22.995  36.163  0.00  0.00     0.036 H 
ATOM     40  H3  7HZ d   1      -2.675 -23.241  34.614  0.00  0.00     0.036 H 
ATOM     41  H4  7HZ d   1      -1.598 -24.529  35.252  0.00  0.00     0.036 H 
ENDBRANCH  34  38
ENDBRANCH  29  32
ENDBRANCH   5  28
ENDBRANCH   2   5
BRANCH   3  42
ATOM     42  C04 7HZ d   1      -8.261 -31.127  33.954  0.00  0.00     0.109 C 
ATOM     43  H20 7HZ d   1      -7.683 -30.591  33.187  0.00  0.00     0.090 H 
BRANCH  42  44
ATOM     44  C05 7HZ d   1      -9.699 -31.366  33.436  0.00  0.00     0.242 C 
ATOM     45  O18 7HZ d   1     -10.573 -31.459  34.324  0.00  0.00    -0.271 OA
ATOM     46  N06 7HZ d   1     -10.037 -31.457  32.112  0.00  0.00    -0.355 N 
ATOM     47  H30 7HZ d   1      -9.296 -31.348  31.449  0.00  0.00     0.162 HD
BRANCH  46  48
ATOM     48  C07 7HZ d   1     -11.363 -31.696  31.576  0.00  0.00     0.020 C 
ATOM     49  H31 7HZ d   1     -12.009 -31.949  32.429  0.00  0.00     0.071 H 
ATOM     50  H32 7HZ d   1     -11.283 -32.565  30.906  0.00  0.00     0.071 H 
BRANCH  48  51
ATOM     51  C08 7HZ d   1     -12.076 -30.603  30.794  0.00  0.00    -0.029 A 
ATOM     52  C13 7HZ d   1     -12.763 -29.486  31.389  0.00  0.00    -0.018 A 
ATOM     53  C12 7HZ d   1     -13.399 -28.557  30.634  0.00  0.00    -0.025 A 
ATOM     54  C14 7HZ d   1     -12.794 -29.311  32.792  0.00  0.00    -0.072 A 
ATOM     55  C11 7HZ d   1     -13.400 -28.683  29.224  0.00  0.00    -0.072 A 
ATOM     56  C17 7HZ d   1     -14.064 -27.448  31.241  0.00  0.00    -0.072 A 
ATOM     57  C10 7HZ d   1     -12.762 -29.744  28.633  0.00  0.00    -0.082 A 
ATOM     58  H26 7HZ d   1     -13.904 -27.943  28.613  0.00  0.00     0.084 H 
ATOM     59  C09 7HZ d   1     -12.105 -30.698  29.424  0.00  0.00    -0.074 A 
ATOM     60  H27 7HZ d   1     -12.766 -29.845  27.554  0.00  0.00     0.083 H 
ATOM     61  H33 7HZ d   1     -11.607 -31.532  28.942  0.00  0.00     0.084 H 
ATOM     62  C16 7HZ d   1     -14.080 -27.304  32.599  0.00  0.00    -0.082 A 
ATOM     63  H35 7HZ d   1     -14.561 -26.713  30.618  0.00  0.00     0.084 H 
ATOM     64  C15 7HZ d   1     -13.432 -28.254  33.385  0.00  0.00    -0.082 A 
ATOM     65  H34 7HZ d   1     -14.589 -26.464  33.058  0.00  0.00     0.083 H 
ATOM     66  H29 7HZ d   1     -13.433 -28.157  34.465  0.00  0.00     0.083 H 
ATOM     67  H28 7HZ d   1     -12.295 -30.040  33.421  0.00  0.00     0.084 H 
ENDBRANCH  48  51
ENDBRANCH  46  48
ENDBRANCH  42  44
BRANCH  42  68
ATOM     68  C19 7HZ d   1      -7.584 -32.467  34.253  0.00  0.00     0.046 C 
ATOM     69  H21 7HZ d   1      -7.700 -32.708  35.320  0.00  0.00     0.078 H 
ATOM     70  H22 7HZ d   1      -8.048 -33.258  33.646  0.00  0.00     0.078 H 
BRANCH  68  71
ATOM     71  O20 7HZ d   1      -6.212 -32.371  33.936  0.00  0.00    -0.393 OA
BRANCH  71  72
ATOM     72  C21 7HZ d   1      -5.851 -33.363  32.990  0.00  0.00     0.004 C 
ATOM     73  H23 7HZ d   1      -4.780 -33.273  32.755  0.00  0.00     0.066 H 
ATOM     74  H24 7HZ d   1      -6.441 -33.226  32.072  0.00  0.00     0.066 H 
ATOM     75  H25 7HZ d   1      -6.052 -34.360  33.409  0.00  0.00     0.066 H 
ENDBRANCH  71  72
ENDBRANCH  68  71
ENDBRANCH  42  68
ENDBRANCH   3  42
TORSDOF 18
