REMARK  14 active torsions:
REMARK  status: ('A' for Active; 'I' for Inactive)
REMARK    1  A    between atoms: C33_1  and  C34_3 
REMARK       I    between atoms: N32_23  and  C33_1 
REMARK    2  A    between atoms: C34_3  and  C35_4 
REMARK    3  A    between atoms: C35_4  and  C36_5 
REMARK    4  A    between atoms: C22_11  and  C23_12 
REMARK    5  A    between atoms: C02_20  and  C22_11 
REMARK    6  A    between atoms: C22_11  and  N32_23 
REMARK    7  A    between atoms: C23_12  and  C24_13 
REMARK       I    between atoms: C24_13  and  N25_21 
REMARK       I    between atoms: N03_25  and  C02_20 
REMARK    8  A    between atoms: C19_29  and  O20_24 
REMARK    9  A    between atoms: O20_24  and  C21_30 
REMARK   10  A    between atoms: C04_26  and  N03_25 
REMARK   11  A    between atoms: C05_27  and  C04_26 
REMARK   12  A    between atoms: C04_26  and  C19_29 
REMARK       I    between atoms: N06_37  and  C05_27 
REMARK   13  A    between atoms: C07_38  and  N06_37 
REMARK   14  A    between atoms: C07_38  and  C08_39 
ROOT
ATOM      1  C22 7J0 d   1      74.951 -28.729 196.843  0.00  0.00     0.097 C 
ATOM      2  H10 7J0 d   1      75.204 -29.429 197.653  0.00  0.00     0.088 H 
ENDROOT
BRANCH   1   3
ATOM      3  C23 7J0 d   1      73.382 -28.437 196.912  0.00  0.00     0.036 C 
ATOM      4  H11 7J0 d   1      72.875 -29.412 196.856  0.00  0.00     0.051 H 
ATOM      5  H12 7J0 d   1      73.130 -27.841 196.022  0.00  0.00     0.051 H 
BRANCH   3   6
ATOM      6  C24 7J0 d   1      72.776 -27.679 198.153  0.00  0.00     0.222 C 
ATOM      7  N25 7J0 d   1      72.069 -26.440 197.986  0.00  0.00    -0.352 N 
ATOM      8  C26 7J0 d   1      71.514 -25.693 199.160  0.00  0.00    -0.002 C 
ATOM      9  C30 7J0 d   1      71.834 -25.716 196.722  0.00  0.00    -0.002 C 
ATOM     10  C27 7J0 d   1      70.054 -25.216 198.970  0.00  0.00    -0.050 C 
ATOM     11  H13 7J0 d   1      71.550 -26.354 200.039  0.00  0.00     0.064 H 
ATOM     12  H14 7J0 d   1      72.146 -24.810 199.338  0.00  0.00     0.064 H 
ATOM     13  C28 7J0 d   1      69.874 -24.400 197.703  0.00  0.00    -0.062 C 
ATOM     14  H15 7J0 d   1      69.769 -24.596 199.833  0.00  0.00     0.035 H 
ATOM     15  H16 7J0 d   1      69.398 -26.097 198.919  0.00  0.00     0.035 H 
ATOM     16  C29 7J0 d   1      70.388 -25.208 196.519  0.00  0.00    -0.050 C 
ATOM     17  H17 7J0 d   1      70.442 -23.462 197.784  0.00  0.00     0.033 H 
ATOM     18  H18 7J0 d   1      68.808 -24.172 197.559  0.00  0.00     0.033 H 
ATOM     19  H19 7J0 d   1      70.362 -24.572 195.622  0.00  0.00     0.035 H 
ATOM     20  H20 7J0 d   1      69.728 -26.076 196.373  0.00  0.00     0.035 H 
ATOM     21  H21 7J0 d   1      72.508 -24.847 196.696  0.00  0.00     0.064 H 
ATOM     22  H22 7J0 d   1      72.078 -26.393 195.890  0.00  0.00     0.064 H 
ATOM     23  O31 7J0 d   1      72.910 -28.143 199.266  0.00  0.00    -0.273 OA
ENDBRANCH   3   6
ENDBRANCH   1   3
BRANCH   1  24
ATOM     24  C02 7J0 d   1      75.159 -29.457 195.496  0.00  0.00     0.241 C 
ATOM     25  O01 7J0 d   1      75.512 -28.836 194.512  0.00  0.00    -0.271 OA
ATOM     26  N03 7J0 d   1      74.921 -30.830 195.526  0.00  0.00    -0.344 N 
ATOM     27  H24 7J0 d   1      74.666 -31.287 196.378  0.00  0.00     0.163 HD
BRANCH  26  28
ATOM     28  C04 7J0 d   1      75.052 -31.579 194.291  0.00  0.00     0.109 C 
ATOM     29  H25 7J0 d   1      75.665 -31.033 193.558  0.00  0.00     0.090 H 
BRANCH  28  30
ATOM     30  C05 7J0 d   1      73.620 -31.928 193.687  0.00  0.00     0.242 C 
ATOM     31  O18 7J0 d   1      72.665 -32.122 194.405  0.00  0.00    -0.271 OA
ATOM     32  N06 7J0 d   1      73.494 -31.979 192.277  0.00  0.00    -0.355 N 
ATOM     33  H35 7J0 d   1      74.291 -31.808 191.697  0.00  0.00     0.162 HD
BRANCH  32  34
ATOM     34  C07 7J0 d   1      72.167 -32.289 191.655  0.00  0.00     0.020 C 
ATOM     35  H36 7J0 d   1      71.512 -32.670 192.452  0.00  0.00     0.071 H 
ATOM     36  H37 7J0 d   1      72.332 -33.078 190.907  0.00  0.00     0.071 H 
BRANCH  34  37
ATOM     37  C08 7J0 d   1      71.425 -31.154 190.962  0.00  0.00    -0.029 A 
ATOM     38  C13 7J0 d   1      70.792 -30.124 191.739  0.00  0.00    -0.018 A 
ATOM     39  C12 7J0 d   1      70.110 -29.078 191.062  0.00  0.00    -0.025 A 
ATOM     40  C14 7J0 d   1      70.801 -30.081 193.160  0.00  0.00    -0.072 A 
ATOM     41  C11 7J0 d   1      70.077 -29.085 189.640  0.00  0.00    -0.072 A 
ATOM     42  C17 7J0 d   1      69.485 -28.057 191.833  0.00  0.00    -0.072 A 
ATOM     43  C10 7J0 d   1      70.683 -30.071 188.917  0.00  0.00    -0.082 A 
ATOM     44  H31 7J0 d   1      69.558 -28.289 189.119  0.00  0.00     0.084 H 
ATOM     45  C09 7J0 d   1      71.372 -31.123 189.589  0.00  0.00    -0.074 A 
ATOM     46  H32 7J0 d   1      70.641 -30.055 187.834  0.00  0.00     0.083 H 
ATOM     47  H38 7J0 d   1      71.857 -31.903 189.013  0.00  0.00     0.084 H 
ATOM     48  C16 7J0 d   1      69.512 -28.051 193.203  0.00  0.00    -0.082 A 
ATOM     49  H40 7J0 d   1      68.969 -27.255 191.317  0.00  0.00     0.084 H 
ATOM     50  C15 7J0 d   1      70.190 -29.090 193.887  0.00  0.00    -0.082 A 
ATOM     51  H39 7J0 d   1      69.020 -27.260 193.757  0.00  0.00     0.083 H 
ATOM     52  H34 7J0 d   1      70.226 -29.102 194.970  0.00  0.00     0.083 H 
ATOM     53  H33 7J0 d   1      71.316 -30.870 193.696  0.00  0.00     0.084 H 
ENDBRANCH  34  37
ENDBRANCH  32  34
ENDBRANCH  28  30
BRANCH  28  54
ATOM     54  C19 7J0 d   1      75.710 -32.951 194.708  0.00  0.00     0.046 C 
ATOM     55  H26 7J0 d   1      75.912 -32.948 195.789  0.00  0.00     0.078 H 
ATOM     56  H27 7J0 d   1      75.025 -33.776 194.465  0.00  0.00     0.078 H 
BRANCH  54  57
ATOM     57  O20 7J0 d   1      76.926 -33.121 194.000  0.00  0.00    -0.393 OA
BRANCH  57  58
ATOM     58  C21 7J0 d   1      77.023 -34.310 193.237  0.00  0.00     0.004 C 
ATOM     59  H28 7J0 d   1      77.999 -34.342 192.731  0.00  0.00     0.066 H 
ATOM     60  H29 7J0 d   1      76.220 -34.330 192.486  0.00  0.00     0.066 H 
ATOM     61  H30 7J0 d   1      76.925 -35.181 193.901  0.00  0.00     0.066 H 
ENDBRANCH  57  58
ENDBRANCH  54  57
ENDBRANCH  28  54
ENDBRANCH  26  28
ENDBRANCH   1  24
BRANCH   1  62
ATOM     62  N32 7J0 d   1      75.821 -27.523 197.045  0.00  0.00    -0.347 N 
ATOM     63  C33 7J0 d   1      77.255 -27.539 197.359  0.00  0.00     0.218 C 
ATOM     64  O42 7J0 d   1      77.832 -28.601 197.466  0.00  0.00    -0.274 OA
ATOM     65  H23 7J0 d   1      75.385 -26.628 196.958  0.00  0.00     0.163 HD
BRANCH  63  66
ATOM     66  C34 7J0 d   1      78.110 -26.241 197.559  0.00  0.00     0.013 C 
ATOM     67  H1  7J0 d   1      78.638 -26.341 198.519  0.00  0.00     0.047 H 
ATOM     68  H2  7J0 d   1      77.411 -25.393 197.612  0.00  0.00     0.047 H 
BRANCH  66  69
ATOM     69  C35 7J0 d   1      79.201 -25.888 196.453  0.00  0.00    -0.033 C 
ATOM     70  H3  7J0 d   1      78.695 -25.294 195.678  0.00  0.00     0.040 H 
ATOM     71  H4  7J0 d   1      79.543 -26.840 196.020  0.00  0.00     0.040 H 
BRANCH  69  72
ATOM     72  C36 7J0 d   1      80.464 -25.102 196.876  0.00  0.00    -0.058 A 
ATOM     73  C37 7J0 d   1      80.729 -24.830 198.221  0.00  0.00    -0.077 A 
ATOM     74  C38 7J0 d   1      81.858 -24.125 198.651  0.00  0.00    -0.082 A 
ATOM     75  H5  7J0 d   1      80.026 -25.182 198.967  0.00  0.00     0.084 H 
ATOM     76  C39 7J0 d   1      82.794 -23.650 197.742  0.00  0.00    -0.083 A 
ATOM     77  H6  7J0 d   1      82.004 -23.947 199.710  0.00  0.00     0.083 H 
ATOM     78  C40 7J0 d   1      82.565 -23.900 196.390  0.00  0.00    -0.082 A 
ATOM     79  H7  7J0 d   1      83.671 -23.105 198.072  0.00  0.00     0.083 H 
ATOM     80  C41 7J0 d   1      81.430 -24.609 195.970  0.00  0.00    -0.077 A 
ATOM     81  H8  7J0 d   1      83.274 -23.541 195.653  0.00  0.00     0.083 H 
ATOM     82  H9  7J0 d   1      81.288 -24.785 194.910  0.00  0.00     0.084 H 
ENDBRANCH  69  72
ENDBRANCH  66  69
ENDBRANCH  63  66
ENDBRANCH   1  62
TORSDOF 14
