REMARK  14 active torsions:
REMARK  status: ('A' for Active; 'I' for Inactive)
REMARK    1  A    between atoms: C32_1  and  C33_3 
REMARK       I    between atoms: N31_11  and  C32_1 
REMARK    2  A    between atoms: C33_3  and  C34_4 
REMARK    3  A    between atoms: C34_4  and  C35_5 
REMARK    4  A    between atoms: C22_12  and  N31_11 
REMARK    5  A    between atoms: C22_12  and  C23_13 
REMARK    6  A    between atoms: C02_21  and  C22_12 
REMARK    7  A    between atoms: C23_13  and  C24_14 
REMARK       I    between atoms: C24_14  and  N25_16 
REMARK       I    between atoms: N03_24  and  C02_21 
REMARK    8  A    between atoms: C19_28  and  O20_23 
REMARK    9  A    between atoms: O20_23  and  C21_29 
REMARK   10  A    between atoms: C04_25  and  N03_24 
REMARK   11  A    between atoms: C05_26  and  C04_25 
REMARK   12  A    between atoms: C04_25  and  C19_28 
REMARK       I    between atoms: N06_36  and  C05_26 
REMARK   13  A    between atoms: C07_37  and  N06_36 
REMARK   14  A    between atoms: C07_37  and  C08_38 
ROOT
ATOM      1  C22 7J1 d   1      73.664 -28.661 197.732  0.00  0.00     0.097 C 
ATOM      2  H11 7J1 d   1      73.783 -29.331 198.596  0.00  0.00     0.088 H 
ENDROOT
BRANCH   1   3
ATOM      3  N31 7J1 d   1      74.524 -27.508 197.905  0.00  0.00    -0.347 N 
ATOM      4  C32 7J1 d   1      75.857 -27.651 198.213  0.00  0.00     0.218 C 
ATOM      5  O41 7J1 d   1      76.293 -28.774 198.321  0.00  0.00    -0.274 OA
ATOM      6  H10 7J1 d   1      74.141 -26.590 197.798  0.00  0.00     0.163 HD
BRANCH   4   7
ATOM      7  C33 7J1 d   1      76.769 -26.455 198.398  0.00  0.00     0.013 C 
ATOM      8  H1  7J1 d   1      77.240 -26.526 199.389  0.00  0.00     0.047 H 
ATOM      9  H2  7J1 d   1      76.160 -25.541 198.346  0.00  0.00     0.047 H 
BRANCH   7  10
ATOM     10  C34 7J1 d   1      77.869 -26.364 197.345  0.00  0.00    -0.033 C 
ATOM     11  H3  7J1 d   1      77.422 -26.012 196.404  0.00  0.00     0.040 H 
ATOM     12  H4  7J1 d   1      78.293 -27.368 197.197  0.00  0.00     0.040 H 
BRANCH  10  13
ATOM     13  C35 7J1 d   1      78.980 -25.431 197.720  0.00  0.00    -0.058 A 
ATOM     14  C36 7J1 d   1      79.490 -24.497 196.800  0.00  0.00    -0.077 A 
ATOM     15  C37 7J1 d   1      80.519 -23.637 197.163  0.00  0.00    -0.082 A 
ATOM     16  H5  7J1 d   1      79.076 -24.448 195.799  0.00  0.00     0.084 H 
ATOM     17  C38 7J1 d   1      81.053 -23.690 198.454  0.00  0.00    -0.083 A 
ATOM     18  H6  7J1 d   1      80.908 -22.924 196.445  0.00  0.00     0.083 H 
ATOM     19  C39 7J1 d   1      80.550 -24.608 199.370  0.00  0.00    -0.082 A 
ATOM     20  H7  7J1 d   1      81.855 -23.019 198.740  0.00  0.00     0.083 H 
ATOM     21  C40 7J1 d   1      79.526 -25.462 199.009  0.00  0.00    -0.077 A 
ATOM     22  H8  7J1 d   1      80.963 -24.653 200.371  0.00  0.00     0.083 H 
ATOM     23  H9  7J1 d   1      79.139 -26.168 199.735  0.00  0.00     0.084 H 
ENDBRANCH  10  13
ENDBRANCH   7  10
ENDBRANCH   4   7
ENDBRANCH   1   3
BRANCH   1  24
ATOM     24  C23 7J1 d   1      72.173 -28.282 197.558  0.00  0.00     0.036 C 
ATOM     25  H12 7J1 d   1      71.597 -29.194 197.342  0.00  0.00     0.051 H 
ATOM     26  H13 7J1 d   1      72.081 -27.582 196.714  0.00  0.00     0.051 H 
BRANCH  24  27
ATOM     27  C24 7J1 d   1      71.620 -27.645 198.768  0.00  0.00     0.222 C 
ATOM     28  O30 7J1 d   1      71.920 -28.036 199.879  0.00  0.00    -0.273 OA
ATOM     29  N25 7J1 d   1      70.761 -26.575 198.658  0.00  0.00    -0.352 N 
ATOM     30  C29 7J1 d   1      70.259 -25.939 197.443  0.00  0.00    -0.002 C 
ATOM     31  C26 7J1 d   1      70.210 -25.910 199.889  0.00  0.00    -0.002 C 
ATOM     32  C28 7J1 d   1      69.418 -24.733 197.920  0.00  0.00    -0.049 C 
ATOM     33  H14 7J1 d   1      69.633 -26.641 196.873  0.00  0.00     0.064 H 
ATOM     34  H15 7J1 d   1      71.095 -25.599 196.814  0.00  0.00     0.064 H 
ATOM     35  C27 7J1 d   1      69.078 -24.999 199.390  0.00  0.00    -0.049 C 
ATOM     36  H16 7J1 d   1      68.496 -24.652 197.325  0.00  0.00     0.035 H 
ATOM     37  H17 7J1 d   1      69.998 -23.803 197.826  0.00  0.00     0.035 H 
ATOM     38  H20 7J1 d   1      68.105 -25.504 199.479  0.00  0.00     0.035 H 
ATOM     39  H21 7J1 d   1      69.056 -24.059 199.960  0.00  0.00     0.035 H 
ATOM     40  H18 7J1 d   1      70.990 -25.316 200.387  0.00  0.00     0.064 H 
ATOM     41  H19 7J1 d   1      69.818 -26.662 200.590  0.00  0.00     0.064 H 
ENDBRANCH  24  27
ENDBRANCH   1  24
BRANCH   1  42
ATOM     42  C02 7J1 d   1      74.036 -29.386 196.426  0.00  0.00     0.241 C 
ATOM     43  O01 7J1 d   1      74.515 -28.806 195.463  0.00  0.00    -0.271 OA
ATOM     44  N03 7J1 d   1      73.807 -30.728 196.375  0.00  0.00    -0.344 N 
ATOM     45  H22 7J1 d   1      73.421 -31.168 197.186  0.00  0.00     0.163 HD
BRANCH  44  46
ATOM     46  C04 7J1 d   1      74.073 -31.516 195.280  0.00  0.00     0.109 C 
ATOM     47  H23 7J1 d   1      74.661 -30.984 194.518  0.00  0.00     0.090 H 
BRANCH  46  48
ATOM     48  C05 7J1 d   1      72.680 -31.998 194.699  0.00  0.00     0.242 C 
ATOM     49  O18 7J1 d   1      71.725 -32.190 195.462  0.00  0.00    -0.271 OA
ATOM     50  N06 7J1 d   1      72.523 -32.143 193.329  0.00  0.00    -0.355 N 
ATOM     51  H33 7J1 d   1      73.309 -31.954 192.740  0.00  0.00     0.162 HD
BRANCH  50  52
ATOM     52  C07 7J1 d   1      71.287 -32.551 192.706  0.00  0.00     0.020 C 
ATOM     53  H34 7J1 d   1      70.613 -32.900 193.502  0.00  0.00     0.071 H 
ATOM     54  H35 7J1 d   1      71.517 -33.386 192.028  0.00  0.00     0.071 H 
BRANCH  52  55
ATOM     55  C08 7J1 d   1      70.529 -31.483 191.889  0.00  0.00    -0.029 A 
ATOM     56  C13 7J1 d   1      69.773 -30.472 192.505  0.00  0.00    -0.018 A 
ATOM     57  C12 7J1 d   1      69.079 -29.538 191.736  0.00  0.00    -0.025 A 
ATOM     58  C14 7J1 d   1      69.694 -30.353 193.909  0.00  0.00    -0.072 A 
ATOM     59  C11 7J1 d   1      69.127 -29.601 190.351  0.00  0.00    -0.072 A 
ATOM     60  C17 7J1 d   1      68.326 -28.514 192.327  0.00  0.00    -0.072 A 
ATOM     61  C10 7J1 d   1      69.840 -30.573 189.753  0.00  0.00    -0.082 A 
ATOM     62  H29 7J1 d   1      68.593 -28.871 189.754  0.00  0.00     0.084 H 
ATOM     63  C09 7J1 d   1      70.543 -31.520 190.525  0.00  0.00    -0.074 A 
ATOM     64  H30 7J1 d   1      69.874 -30.628 188.671  0.00  0.00     0.083 H 
ATOM     65  H36 7J1 d   1      71.109 -32.297 190.023  0.00  0.00     0.084 H 
ATOM     66  C16 7J1 d   1      68.263 -28.424 193.667  0.00  0.00    -0.082 A 
ATOM     67  H38 7J1 d   1      67.797 -27.799 191.707  0.00  0.00     0.084 H 
ATOM     68  C15 7J1 d   1      68.956 -29.351 194.470  0.00  0.00    -0.082 A 
ATOM     69  H37 7J1 d   1      67.678 -27.637 194.130  0.00  0.00     0.083 H 
ATOM     70  H32 7J1 d   1      68.902 -29.267 195.549  0.00  0.00     0.083 H 
ATOM     71  H31 7J1 d   1      70.220 -31.058 194.543  0.00  0.00     0.084 H 
ENDBRANCH  52  55
ENDBRANCH  50  52
ENDBRANCH  46  48
BRANCH  46  72
ATOM     72  C19 7J1 d   1      74.840 -32.736 195.849  0.00  0.00     0.046 C 
ATOM     73  H24 7J1 d   1      75.225 -32.499 196.852  0.00  0.00     0.078 H 
ATOM     74  H25 7J1 d   1      74.167 -33.604 195.910  0.00  0.00     0.078 H 
BRANCH  72  75
ATOM     75  O20 7J1 d   1      75.899 -33.021 194.994  0.00  0.00    -0.393 OA
BRANCH  75  76
ATOM     76  C21 7J1 d   1      75.606 -34.037 194.033  0.00  0.00     0.004 C 
ATOM     77  H26 7J1 d   1      76.487 -34.205 193.397  0.00  0.00     0.066 H 
ATOM     78  H27 7J1 d   1      74.759 -33.718 193.408  0.00  0.00     0.066 H 
ATOM     79  H28 7J1 d   1      75.346 -34.970 194.554  0.00  0.00     0.066 H 
ENDBRANCH  75  76
ENDBRANCH  72  75
ENDBRANCH  46  72
ENDBRANCH  44  46
ENDBRANCH   1  42
TORSDOF 14
