REMARK  6 active torsions:
REMARK  status: ('A' for Active; 'I' for Inactive)
REMARK    1  A    between atoms: N7_13  and  C6_3 
REMARK    2  A    between atoms: C8_4  and  N7_13 
REMARK    3  A    between atoms: N11_15  and  C10_5 
REMARK    4  A    between atoms: C2_11  and  C1_10 
REMARK    5  A    between atoms: C12_16  and  N11_15 
REMARK    6  A    between atoms: C18_19  and  N20_20 
ROOT
ATOM      1  C8  7KF d   1      -2.705  -0.587  14.185  0.00  0.00     0.165 A 
ATOM      2  C10 7KF d   1      -3.227  -2.625  13.149  0.00  0.00     0.725 A 
ATOM      3  C22 7KF d   1      -4.927  -1.564  14.300  0.00  0.00     0.090 A 
ATOM      4  N9  7KF d   1      -2.362  -1.644  13.446  0.00  0.00    -0.044 NA
ATOM      5  N21 7KF d   1      -4.496  -2.587  13.572  0.00  0.00    -0.065 NA
ATOM      6  C23 7KF d   1      -6.238  -1.202  14.944  0.00  0.00     0.037 A 
ATOM      7  N24 7KF d   1      -5.998   0.059  15.673  0.00  0.00    -0.351 N 
ATOM      8  C25 7KF d   1      -4.734   0.461  15.458  0.00  0.00     0.257 A 
ATOM      9  O26 7KF d   1      -4.201   1.458  15.924  0.00  0.00    -0.267 OA
ATOM     10  C27 7KF d   1      -4.043  -0.513  14.626  0.00  0.00     0.105 A 
ATOM     11  H23 7KF d   1      -6.553  -1.993  15.641  0.00  0.00     0.073 H 
ATOM     12  H24 7KF d   1      -7.014  -1.059  14.178  0.00  0.00     0.073 H 
ATOM     13  H25 7KF d   1      -6.670   0.538  16.238  0.00  0.00     0.163 HD
ENDROOT
BRANCH   2  14
ATOM     14  N11 7KF d   1      -2.812  -3.706  12.392  0.00  0.00    -0.216 N 
ATOM     15  H13 7KF d   1      -3.498  -4.416  12.099  0.00  0.00     0.178 HD
BRANCH  14  16
ATOM     16  C12 7KF d   1      -1.398  -3.853  12.000  0.00  0.00     0.053 C 
ATOM     17  C14 7KF d   1      -1.273  -4.683  10.709  0.00  0.00    -0.044 C 
ATOM     18  C15 7KF d   1       0.218  -4.732  10.311  0.00  0.00    -0.063 C 
ATOM     19  H15 7KF d   1      -1.646  -5.703  10.884  0.00  0.00     0.036 H 
ATOM     20  H16 7KF d   1      -1.858  -4.212   9.905  0.00  0.00     0.036 H 
ATOM     21  C16 7KF d   1       1.029  -5.405  11.432  0.00  0.00    -0.063 C 
ATOM     22  H3  7KF d   1       0.589  -3.708  10.155  0.00  0.00     0.033 H 
ATOM     23  H4  7KF d   1       0.330  -5.309   9.381  0.00  0.00     0.033 H 
ATOM     24  C17 7KF d   1       0.894  -4.631  12.758  0.00  0.00    -0.037 C 
ATOM     25  H17 7KF d   1       2.089  -5.435  11.140  0.00  0.00     0.033 H 
ATOM     26  H18 7KF d   1       0.659  -6.431  11.576  0.00  0.00     0.033 H 
ATOM     27  C18 7KF d   1      -0.585  -4.458  13.170  0.00  0.00     0.120 C 
ATOM     28  H5  7KF d   1       1.349  -3.637  12.639  0.00  0.00     0.036 H 
ATOM     29  H6  7KF d   1       1.422  -5.184  13.549  0.00  0.00     0.036 H 
ATOM     30  H19 7KF d   1      -0.635  -3.760  14.019  0.00  0.00     0.087 H 
ATOM     31  H14 7KF d   1      -0.994  -2.851  11.793  0.00  0.00     0.076 H 
BRANCH  27  32
ATOM     32  N20 7KF d   1      -1.131  -5.763  13.608  0.00  0.00    -0.073 N 
ATOM     33  H20 7KF d   1      -0.575  -6.122  14.369  0.00  0.00     0.274 HD
ATOM     34  H21 7KF d   1      -1.106  -6.413  12.838  0.00  0.00     0.274 HD
ATOM     35  H22 7KF d   1      -2.083  -5.643  13.915  0.00  0.00     0.274 HD
ENDBRANCH  27  32
ENDBRANCH  14  16
ENDBRANCH   2  14
BRANCH   1  36
ATOM     36  N7  7KF d   1      -1.857   0.455  14.530  0.00  0.00    -0.340 N 
ATOM     37  H12 7KF d   1      -2.305   1.220  15.055  0.00  0.00     0.167 HD
BRANCH  36  38
ATOM     38  C6  7KF d   1      -0.484   0.637  14.279  0.00  0.00     0.034 A 
ATOM     39  C5  7KF d   1       0.293  -0.174  13.432  0.00  0.00    -0.057 A 
ATOM     40  C4  7KF d   1       1.650   0.092  13.242  0.00  0.00    -0.080 A 
ATOM     41  H2  7KF d   1      -0.166  -1.013  12.922  0.00  0.00     0.086 H 
ATOM     42  C3  7KF d   1       2.240   1.174  13.894  0.00  0.00    -0.077 A 
ATOM     43  H1  7KF d   1       2.243  -0.540  12.590  0.00  0.00     0.083 H 
ATOM     44  C2  7KF d   1       1.474   1.985  14.733  0.00  0.00    -0.060 A 
ATOM     45  H11 7KF d   1       3.293   1.385  13.749  0.00  0.00     0.084 H 
ATOM     46  C28 7KF d   1       0.124   1.721  14.917  0.00  0.00    -0.051 A 
ATOM     47  H7  7KF d   1      -0.465   2.363  15.562  0.00  0.00     0.087 H 
BRANCH  44  48
ATOM     48  C1  7KF d   1       2.098   3.169  15.438  0.00  0.00    -0.051 C 
ATOM     49  H8  7KF d   1       3.166   3.228  15.181  0.00  0.00     0.033 H 
ATOM     50  H9  7KF d   1       1.989   3.047  16.526  0.00  0.00     0.033 H 
ATOM     51  H10 7KF d   1       1.593   4.093  15.120  0.00  0.00     0.033 H 
ENDBRANCH  44  48
ENDBRANCH  36  38
ENDBRANCH   1  36
TORSDOF 6
