REMARK  5 active torsions:
REMARK  status: ('A' for Active; 'I' for Inactive)
REMARK    1  A    between atoms: C6_6  and  S1_7 
REMARK    2  A    between atoms: S1_7  and  N1_10 
REMARK    3  A    between atoms: N1_10  and  C7_11 
REMARK    4  A    between atoms: C8_15  and  S3_16 
REMARK    5  A    between atoms: S3_16  and  N4_19 
ROOT
ATOM      1  S1  D8W d   1       8.610 -43.299 -78.911  0.00  0.00     0.264 S 
ATOM      2  O1  D8W d   1       9.321 -43.488 -77.599  0.00  0.00    -0.200 OA
ATOM      3  O2  D8W d   1       9.256 -44.189 -79.973  0.00  0.00    -0.200 OA
ENDROOT
BRANCH   1   4
ATOM      4  C6  D8W d   1       6.891 -43.745 -78.725  0.00  0.00     0.079 A 
ATOM      5  C1  D8W d   1       5.905 -42.759 -78.775  0.00  0.00    -0.060 A 
ATOM      6  C2  D8W d   1       4.566 -43.106 -78.630  0.00  0.00    -0.082 A 
ATOM      7  H1  D8W d   1       6.183 -41.722 -78.927  0.00  0.00     0.085 H 
ATOM      8  C3  D8W d   1       4.211 -44.432 -78.437  0.00  0.00    -0.083 A 
ATOM      9  H2  D8W d   1       3.800 -42.340 -78.668  0.00  0.00     0.083 H 
ATOM     10  C4  D8W d   1       5.192 -45.415 -78.388  0.00  0.00    -0.082 A 
ATOM     11  H3  D8W d   1       3.167 -44.702 -78.324  0.00  0.00     0.083 H 
ATOM     12  C5  D8W d   1       6.536 -45.067 -78.533  0.00  0.00    -0.060 A 
ATOM     13  H4  D8W d   1       4.914 -46.452 -78.237  0.00  0.00     0.083 H 
ATOM     14  H5  D8W d   1       7.301 -45.834 -78.495  0.00  0.00     0.085 H 
ENDBRANCH   1   4
BRANCH   1  15
ATOM     15  N1  D8W d   1       8.723 -41.729 -79.372  0.00  0.00    -0.257 N 
ATOM     16  H6  D8W d   1       8.484 -41.463 -80.306  0.00  0.00     0.181 HD
BRANCH  15  17
ATOM     17  C7  D8W d   1       9.168 -40.734 -78.429  0.00  0.00     0.204 A 
ATOM     18  S2  D8W d   1       9.272 -40.866 -76.719  0.00  0.00    -0.015 SA
ATOM     19  C8  D8W d   1       9.876 -39.278 -76.410  0.00  0.00     0.237 A 
ATOM     20  N3  D8W d   1       9.977 -38.704 -77.625  0.00  0.00    -0.126 NA
ATOM     21  N2  D8W d   1       9.602 -39.478 -78.686  0.00  0.00    -0.122 NA
BRANCH  19  22
ATOM     22  S3  D8W d   1      10.281 -38.551 -74.818  0.00  0.00     0.282 S 
ATOM     23  O3  D8W d   1       9.579 -37.217 -74.678  0.00  0.00    -0.199 OA
ATOM     24  O4  D8W d   1       9.833 -39.470 -73.721  0.00  0.00    -0.199 OA
BRANCH  22  25
ATOM     25  N4  D8W d   1      11.906 -38.327 -74.715  0.00  0.00    -0.323 N 
ATOM     26  H7  D8W d   1      12.305 -37.929 -73.889  0.00  0.00     0.169 HD
ATOM     27  H8  D8W d   1      12.496 -38.589 -75.479  0.00  0.00     0.169 HD
ENDBRANCH  22  25
ENDBRANCH  19  22
ENDBRANCH  15  17
ENDBRANCH   1  15
TORSDOF 5
