REMARK  9 active torsions:
REMARK  status: ('A' for Active; 'I' for Inactive)
REMARK    1  A    between atoms: C5_2  and  C4_1 
REMARK    2  A    between atoms: N_24  and  C5_2 
REMARK    3  A    between atoms: C6_3  and  N_24 
REMARK    4  A    between atoms: C7_5  and  N2_7 
REMARK    5  A    between atoms: N2_7  and  C8_6 
REMARK    6  A    between atoms: O1_17  and  C19_16 
REMARK    7  A    between atoms: C18_18  and  O1_17 
REMARK    8  A    between atoms: C16_19  and  O_20 
REMARK    9  A    between atoms: O_20  and  C17_21 
ROOT
ATOM      1  C6  7KZ d   1      -7.419  -4.225  17.041  0.00  0.00     0.725 A 
ATOM      2  N1  7KZ d   1      -8.719  -4.158  17.360  0.00  0.00    -0.045 NA
ATOM      3  C7  7KZ d   1      -9.625  -4.569  16.477  0.00  0.00     0.155 A 
ATOM      4  C14 7KZ d   1      -9.223  -5.063  15.185  0.00  0.00     0.042 A 
ATOM      5  C15 7KZ d   1     -10.100  -5.545  14.191  0.00  0.00    -0.032 A 
ATOM      6  N4  7KZ d   1      -6.909  -4.679  15.875  0.00  0.00    -0.062 NA
ATOM      7  C18 7KZ d   1      -8.224  -6.101  12.784  0.00  0.00     0.103 A 
ATOM      8  C16 7KZ d   1      -9.622  -6.057  13.023  0.00  0.00     0.102 A 
ATOM      9  C20 7KZ d   1      -7.351  -5.627  13.722  0.00  0.00    -0.019 A 
ATOM     10  C21 7KZ d   1      -7.826  -5.100  14.944  0.00  0.00     0.092 A 
ATOM     11  H18 7KZ d   1     -11.170  -5.507  14.359  0.00  0.00     0.089 H 
ATOM     12  H25 7KZ d   1      -6.285  -5.655  13.527  0.00  0.00     0.091 H 
ENDROOT
BRANCH   3  13
ATOM     13  N2  7KZ d   1     -10.913  -4.491  16.854  0.00  0.00    -0.369 N 
ATOM     14  H7  7KZ d   1     -11.608  -4.777  16.150  0.00  0.00     0.161 HD
BRANCH  13  15
ATOM     15  C8  7KZ d   1     -11.445  -4.052  18.136  0.00  0.00     0.014 C 
ATOM     16  C9  7KZ d   1     -11.669  -5.282  19.003  0.00  0.00    -0.024 C 
ATOM     17  C10 7KZ d   1     -12.373  -4.903  20.297  0.00  0.00     0.083 C 
ATOM     18  H8  7KZ d   1     -10.697  -5.739  19.241  0.00  0.00     0.038 H 
ATOM     19  H9  7KZ d   1     -12.289  -6.005  18.452  0.00  0.00     0.038 H 
ATOM     20  N3  7KZ d   1     -13.639  -4.230  20.028  0.00  0.00    -0.075 N 
ATOM     21  H10 7KZ d   1     -11.724  -4.229  20.875  0.00  0.00     0.075 H 
ATOM     22  H11 7KZ d   1     -12.568  -5.815  20.881  0.00  0.00     0.075 H 
ATOM     23  C12 7KZ d   1     -13.384  -2.990  19.300  0.00  0.00     0.083 C 
ATOM     24  H14 7KZ d   1     -14.100  -4.020  20.899  0.00  0.00     0.277 HD
ATOM     25  H15 7KZ d   1     -14.228  -4.831  19.473  0.00  0.00     0.277 HD
ATOM     26  C13 7KZ d   1     -12.735  -3.272  17.950  0.00  0.00    -0.024 C 
ATOM     27  H12 7KZ d   1     -12.712  -2.355  19.896  0.00  0.00     0.075 H 
ATOM     28  H13 7KZ d   1     -14.337  -2.466  19.138  0.00  0.00     0.075 H 
ATOM     29  H16 7KZ d   1     -13.428  -3.860  17.330  0.00  0.00     0.038 H 
ATOM     30  H17 7KZ d   1     -12.513  -2.319  17.448  0.00  0.00     0.038 H 
ATOM     31  H6  7KZ d   1     -10.709  -3.397  18.625  0.00  0.00     0.072 H 
ENDBRANCH  13  15
ENDBRANCH   3  13
BRANCH   1  32
ATOM     32  N   7KZ d   1      -6.552  -3.767  17.969  0.00  0.00    -0.223 N 
ATOM     33  H26 7KZ d   1      -6.974  -3.396  18.832  0.00  0.00     0.177 HD
BRANCH  32  34
ATOM     34  C5  7KZ d   1      -5.099  -3.729  17.909  0.00  0.00     0.006 C 
ATOM     35  H4  7KZ d   1      -4.786  -3.818  16.858  0.00  0.00     0.064 H 
ATOM     36  H5  7KZ d   1      -4.754  -2.766  18.314  0.00  0.00     0.064 H 
BRANCH  34  37
ATOM     37  C4  7KZ d   1      -4.460  -4.847  18.703  0.00  0.00    -0.061 C 
ATOM     38  H1  7KZ d   1      -3.365  -4.773  18.625  0.00  0.00     0.029 H 
ATOM     39  H2  7KZ d   1      -4.791  -5.817  18.303  0.00  0.00     0.029 H 
ATOM     40  H3  7KZ d   1      -4.759  -4.764  19.758  0.00  0.00     0.029 H 
ENDBRANCH  34  37
ENDBRANCH  32  34
ENDBRANCH   1  32
BRANCH   8  41
ATOM     41  O   7KZ d   1     -10.397  -6.586  12.026  0.00  0.00    -0.353 OA
BRANCH  41  42
ATOM     42  C17 7KZ d   1     -11.778  -6.842  12.297  0.00  0.00     0.010 C 
ATOM     43  H22 7KZ d   1     -12.256  -7.263  11.400  0.00  0.00     0.066 H 
ATOM     44  H23 7KZ d   1     -12.278  -5.902  12.572  0.00  0.00     0.066 H 
ATOM     45  H24 7KZ d   1     -11.862  -7.558  13.127  0.00  0.00     0.066 H 
ENDBRANCH  41  42
ENDBRANCH   8  41
BRANCH   7  46
ATOM     46  O1  7KZ d   1      -7.866  -6.697  11.605  0.00  0.00    -0.353 OA
BRANCH  46  47
ATOM     47  C19 7KZ d   1      -6.591  -6.384  11.040  0.00  0.00     0.010 C 
ATOM     48  H19 7KZ d   1      -6.459  -6.942  10.101  0.00  0.00     0.066 H 
ATOM     49  H20 7KZ d   1      -5.797  -6.665  11.748  0.00  0.00     0.066 H 
ATOM     50  H21 7KZ d   1      -6.535  -5.304  10.836  0.00  0.00     0.066 H 
ENDBRANCH  46  47
ENDBRANCH   7  46
TORSDOF 9
