REMARK  10 active torsions:
REMARK  status: ('A' for Active; 'I' for Inactive)
REMARK    1  A    between atoms: C5_2  and  C4_1 
REMARK    2  A    between atoms: N_25  and  C5_2 
REMARK    3  A    between atoms: C6_3  and  N_25 
REMARK    4  A    between atoms: C7_5  and  N2_7 
REMARK    5  A    between atoms: N2_7  and  C8_6 
REMARK    6  A    between atoms: N3_12  and  C11_10 
REMARK    7  A    between atoms: O1_18  and  C19_17 
REMARK    8  A    between atoms: C18_19  and  O1_18 
REMARK    9  A    between atoms: C16_20  and  O_21 
REMARK   10  A    between atoms: O_21  and  C17_22 
ROOT
ATOM      1  C6  7KZ d   1      -1.818 -18.043  -4.375  0.00  0.00     0.725 A 
ATOM      2  N1  7KZ d   1      -2.242 -18.899  -3.437  0.00  0.00    -0.045 NA
ATOM      3  C7  7KZ d   1      -1.380 -19.753  -2.899  0.00  0.00     0.155 A 
ATOM      4  C14 7KZ d   1      -0.001 -19.776  -3.327  0.00  0.00     0.042 A 
ATOM      5  C15 7KZ d   1       0.999 -20.638  -2.812  0.00  0.00    -0.032 A 
ATOM      6  N4  7KZ d   1      -0.566 -17.974  -4.882  0.00  0.00    -0.062 NA
ATOM      7  C18 7KZ d   1       2.608 -19.700  -4.348  0.00  0.00     0.103 A 
ATOM      8  C16 7KZ d   1       2.271 -20.606  -3.307  0.00  0.00     0.102 A 
ATOM      9  C20 7KZ d   1       1.665 -18.851  -4.855  0.00  0.00    -0.019 A 
ATOM     10  C21 7KZ d   1       0.343 -18.858  -4.351  0.00  0.00     0.092 A 
ATOM     11  H20 7KZ d   1       0.751 -21.331  -2.016  0.00  0.00     0.089 H 
ATOM     12  H27 7KZ d   1       1.932 -18.166  -5.651  0.00  0.00     0.091 H 
ENDROOT
BRANCH   3  13
ATOM     13  N2  7KZ d   1      -1.857 -20.580  -1.953  0.00  0.00    -0.369 N 
ATOM     14  H7  7KZ d   1      -1.166 -21.218  -1.533  0.00  0.00     0.161 HD
BRANCH  13  15
ATOM     15  C8  7KZ d   1      -3.219 -20.702  -1.436  0.00  0.00     0.014 C 
ATOM     16  C9  7KZ d   1      -3.222 -20.716   0.083  0.00  0.00    -0.024 C 
ATOM     17  C10 7KZ d   1      -4.629 -20.995   0.608  0.00  0.00     0.085 C 
ATOM     18  H8  7KZ d   1      -2.883 -19.738   0.456  0.00  0.00     0.038 H 
ATOM     19  H9  7KZ d   1      -2.539 -21.501   0.440  0.00  0.00     0.038 H 
ATOM     20  N3  7KZ d   1      -5.142 -22.260   0.088  0.00  0.00    -0.075 N 
ATOM     21  H10 7KZ d   1      -5.298 -20.180   0.294  0.00  0.00     0.076 H 
ATOM     22  H11 7KZ d   1      -4.600 -21.043   1.706  0.00  0.00     0.076 H 
ATOM     23  C12 7KZ d   1      -5.230 -22.186  -1.367  0.00  0.00     0.085 C 
ATOM     24  H17 7KZ d   1      -4.500 -22.996   0.337  0.00  0.00     0.279 HD
ATOM     25  C13 7KZ d   1      -3.854 -21.965  -1.989  0.00  0.00    -0.024 C 
ATOM     26  H15 7KZ d   1      -5.889 -21.350  -1.645  0.00  0.00     0.076 H 
ATOM     27  H16 7KZ d   1      -5.651 -23.128  -1.750  0.00  0.00     0.076 H 
ATOM     28  H18 7KZ d   1      -3.209 -22.826  -1.758  0.00  0.00     0.038 H 
ATOM     29  H19 7KZ d   1      -3.961 -21.869  -3.080  0.00  0.00     0.038 H 
ATOM     30  H6  7KZ d   1      -3.804 -19.835  -1.776  0.00  0.00     0.072 H 
BRANCH  20  31
ATOM     31  C11 7KZ d   1      -6.469 -22.575   0.675  0.00  0.00     0.066 C 
ATOM     32  H12 7KZ d   1      -6.832 -23.530   0.268  0.00  0.00     0.068 H 
ATOM     33  H13 7KZ d   1      -7.181 -21.775   0.423  0.00  0.00     0.068 H 
ATOM     34  H14 7KZ d   1      -6.377 -22.654   1.768  0.00  0.00     0.068 H 
ENDBRANCH  20  31
ENDBRANCH  13  15
ENDBRANCH   3  13
BRANCH   1  35
ATOM     35  N   7KZ d   1      -2.730 -17.150  -4.818  0.00  0.00    -0.223 N 
ATOM     36  H28 7KZ d   1      -3.674 -17.251  -4.419  0.00  0.00     0.177 HD
BRANCH  35  37
ATOM     37  C5  7KZ d   1      -2.573 -16.069  -5.775  0.00  0.00     0.006 C 
ATOM     38  H4  7KZ d   1      -1.828 -16.363  -6.529  0.00  0.00     0.064 H 
ATOM     39  H5  7KZ d   1      -3.539 -15.883  -6.267  0.00  0.00     0.064 H 
BRANCH  37  40
ATOM     40  C4  7KZ d   1      -2.112 -14.797  -5.094  0.00  0.00    -0.061 C 
ATOM     41  H1  7KZ d   1      -2.003 -13.999  -5.843  0.00  0.00     0.029 H 
ATOM     42  H2  7KZ d   1      -1.144 -14.974  -4.603  0.00  0.00     0.029 H 
ATOM     43  H3  7KZ d   1      -2.855 -14.494  -4.341  0.00  0.00     0.029 H 
ENDBRANCH  37  40
ENDBRANCH  35  37
ENDBRANCH   1  35
BRANCH   8  44
ATOM     44  O   7KZ d   1       3.302 -21.398  -2.874  0.00  0.00    -0.353 OA
BRANCH  44  45
ATOM     45  C17 7KZ d   1       3.022 -22.403  -1.897  0.00  0.00     0.010 C 
ATOM     46  H24 7KZ d   1       3.947 -22.948  -1.657  0.00  0.00     0.066 H 
ATOM     47  H25 7KZ d   1       2.276 -23.105  -2.297  0.00  0.00     0.066 H 
ATOM     48  H26 7KZ d   1       2.628 -21.929  -0.986  0.00  0.00     0.066 H 
ENDBRANCH  44  45
ENDBRANCH   8  44
BRANCH   7  49
ATOM     49  O1  7KZ d   1       3.906 -19.779  -4.782  0.00  0.00    -0.353 OA
BRANCH  49  50
ATOM     50  C19 7KZ d   1       4.363 -18.810  -5.732  0.00  0.00     0.010 C 
ATOM     51  H21 7KZ d   1       5.417 -19.007  -5.978  0.00  0.00     0.066 H 
ATOM     52  H22 7KZ d   1       4.269 -17.802  -5.302  0.00  0.00     0.066 H 
ATOM     53  H23 7KZ d   1       3.754 -18.877  -6.646  0.00  0.00     0.066 H 
ENDBRANCH  49  50
ENDBRANCH   7  49
TORSDOF 10
