REMARK  4 active torsions:
REMARK  status: ('A' for Active; 'I' for Inactive)
REMARK    1  A    between atoms: C7_4  and  N2_3 
REMARK    2  A    between atoms: N2_3  and  C9_6 
REMARK    3  A    between atoms: C2_11  and  C1_10 
REMARK    4  A    between atoms: C3_12  and  C2_11 
REMARK       I    between atoms: C3_12  and  N1_14 
ROOT
ATOM      1  C4  7KU d   1      -2.354  19.508  -6.398  0.00  0.00    -0.002 C 
ATOM      2  C7  7KU d   1      -1.285  17.380  -4.733  0.00  0.00     0.026 C 
ATOM      3  C6  7KU d   1      -2.793  17.577  -4.847  0.00  0.00    -0.043 C 
ATOM      4  C8  7KU d   1      -0.578  17.934  -5.962  0.00  0.00     0.016 C 
ATOM      5  C3  7KU d   1      -0.004  20.352  -6.115  0.00  0.00     0.219 C 
ATOM      6  O1  7KU d   1       1.154  20.166  -5.766  0.00  0.00    -0.273 OA
ATOM      7  N1  7KU d   1      -0.914  19.347  -6.151  0.00  0.00    -0.350 N 
ATOM      8  C5  7KU d   1      -3.141  19.031  -5.184  0.00  0.00    -0.048 C 
ATOM      9  H2  7KU d   1      -2.643  18.913  -7.277  0.00  0.00     0.064 H 
ATOM     10  H3  7KU d   1      -2.576  20.569  -6.584  0.00  0.00     0.064 H 
ATOM     11  H5  7KU d   1      -0.926  17.921  -3.845  0.00  0.00     0.074 H 
ATOM     12  H6  7KU d   1      -3.263  17.309  -3.889  0.00  0.00     0.036 H 
ATOM     13  H7  7KU d   1      -3.181  16.922  -5.641  0.00  0.00     0.036 H 
ATOM     14  H8  7KU d   1      -0.893  17.365  -6.849  0.00  0.00     0.067 H 
ATOM     15  H9  7KU d   1       0.509  17.835  -5.830  0.00  0.00     0.067 H 
ATOM     16  H15 7KU d   1      -4.217  19.103  -5.401  0.00  0.00     0.035 H 
ATOM     17  H16 7KU d   1      -2.897  19.669  -4.322  0.00  0.00     0.035 H 
ENDROOT
BRANCH   2  18
ATOM     18  N2  7KU d   1      -0.973  15.965  -4.580  0.00  0.00    -0.368 N 
ATOM     19  H4  7KU d   1      -1.683  15.319  -4.954  0.00  0.00     0.161 HD
BRANCH  18  20
ATOM     20  C9  7KU d   1       0.104  15.372  -4.023  0.00  0.00     0.139 A 
ATOM     21  N5  7KU d   1       1.108  16.175  -3.602  0.00  0.00    -0.224 NA
ATOM     22  C14 7KU d   1       2.210  15.555  -3.162  0.00  0.00     0.091 A 
ATOM     23  N4  7KU d   1       2.454  14.242  -3.084  0.00  0.00    -0.223 NA
ATOM     24  H19 7KU d   1       3.011  16.203  -2.824  0.00  0.00     0.146 H 
ATOM     25  C13 7KU d   1       1.432  13.470  -3.506  0.00  0.00     0.142 A 
ATOM     26  N3  7KU d   1       1.381  12.106  -3.539  0.00  0.00    -0.350 N 
ATOM     27  C10 7KU d   1       0.174  13.941  -3.995  0.00  0.00     0.057 A 
ATOM     28  C12 7KU d   1       0.150  11.700  -4.005  0.00  0.00    -0.020 A 
ATOM     29  H1  7KU d   1       2.146  11.476  -3.258  0.00  0.00     0.166 HD
ATOM     30  C11 7KU d   1      -0.617  12.781  -4.304  0.00  0.00    -0.051 A 
ATOM     31  H18 7KU d   1      -0.163  10.663  -4.117  0.00  0.00     0.111 H 
ATOM     32  H17 7KU d   1      -1.631  12.771  -4.700  0.00  0.00     0.087 H 
ENDBRANCH  18  20
ENDBRANCH   2  18
BRANCH   5  33
ATOM     33  C2  7KU d   1      -0.455  21.746  -6.494  0.00  0.00     0.006 C 
ATOM     34  H13 7KU d   1      -1.505  21.880  -6.194  0.00  0.00     0.046 H 
ATOM     35  H14 7KU d   1       0.173  22.483  -5.972  0.00  0.00     0.046 H 
BRANCH  33  36
ATOM     36  C1  7KU d   1      -0.334  21.960  -7.991  0.00  0.00    -0.068 C 
ATOM     37  H10 7KU d   1      -0.666  22.978  -8.244  0.00  0.00     0.028 H 
ATOM     38  H11 7KU d   1      -0.963  21.227  -8.518  0.00  0.00     0.028 H 
ATOM     39  H12 7KU d   1       0.715  21.830  -8.296  0.00  0.00     0.028 H 
ENDBRANCH  33  36
ENDBRANCH   5  33
TORSDOF 4
