REMARK  3 active torsions:
REMARK  status: ('A' for Active; 'I' for Inactive)
REMARK       I    between atoms: C14_20  and  N5_9 
REMARK    1  A    between atoms: C15_22  and  C16_10 
REMARK    2  A    between atoms: N4_16  and  C2_13 
REMARK    3  A    between atoms: C14_20  and  C15_22 
ROOT
ATOM      1  C7  7KV d   1      -3.056  16.316  -5.576  0.00  0.00    -0.045 C 
ATOM      2  C9  7KV d   1      -2.535  17.534  -4.806  0.00  0.00    -0.030 C 
ATOM      3  C13 7KV d   1      -2.947  18.923  -5.319  0.00  0.00    -0.045 C 
ATOM      4  C8  7KV d   1      -2.097  15.191  -5.192  0.00  0.00    -0.003 C 
ATOM      5  N5  7KV d   1      -0.682  19.223  -6.310  0.00  0.00    -0.350 N 
ATOM      6  N4  7KV d   1      -0.940  15.869  -4.595  0.00  0.00    -0.358 N 
ATOM      7  C10 7KV d   1      -1.013  17.329  -4.793  0.00  0.00     0.032 C 
ATOM      8  C11 7KV d   1      -0.261  17.852  -6.013  0.00  0.00     0.017 C 
ATOM      9  C12 7KV d   1      -2.126  19.288  -6.565  0.00  0.00    -0.002 C 
ATOM     10  C14 7KV d   1       0.181  20.262  -6.274  0.00  0.00     0.219 C 
ATOM     11  O1  7KV d   1       1.339  20.119  -5.911  0.00  0.00    -0.273 OA
ATOM     12  H2  7KV d   1      -3.028  16.499  -6.660  0.00  0.00     0.036 H 
ATOM     13  H3  7KV d   1      -4.085  16.073  -5.271  0.00  0.00     0.036 H 
ATOM     14  H5  7KV d   1      -2.910  17.466  -3.774  0.00  0.00     0.043 H 
ATOM     15  H6  7KV d   1      -2.767  19.670  -4.532  0.00  0.00     0.036 H 
ATOM     16  H7  7KV d   1      -4.016  18.913  -5.577  0.00  0.00     0.036 H 
ATOM     17  H8  7KV d   1      -1.794  14.620  -6.082  0.00  0.00     0.064 H 
ATOM     18  H9  7KV d   1      -2.567  14.514  -4.464  0.00  0.00     0.064 H 
ATOM     19  H15 7KV d   1      -0.585  17.840  -3.918  0.00  0.00     0.075 H 
ATOM     20  H16 7KV d   1       0.820  17.839  -5.808  0.00  0.00     0.067 H 
ATOM     21  H17 7KV d   1      -0.478  17.209  -6.878  0.00  0.00     0.067 H 
ATOM     22  H18 7KV d   1      -2.386  20.311  -6.875  0.00  0.00     0.064 H 
ATOM     23  H19 7KV d   1      -2.376  18.585  -7.373  0.00  0.00     0.064 H 
ENDROOT
BRANCH   6  24
ATOM     24  C2  7KV d   1       0.249  15.206  -4.084  0.00  0.00     0.141 A 
ATOM     25  N1  7KV d   1       1.287  15.983  -3.723  0.00  0.00    -0.224 NA
ATOM     26  C1  7KV d   1       2.369  15.317  -3.303  0.00  0.00     0.091 A 
ATOM     27  N2  7KV d   1       2.547  13.995  -3.163  0.00  0.00    -0.223 NA
ATOM     28  H13 7KV d   1       3.221  15.932  -3.039  0.00  0.00     0.146 H 
ATOM     29  C4  7KV d   1       1.479  13.277  -3.543  0.00  0.00     0.142 A 
ATOM     30  N3  7KV d   1       1.387  11.920  -3.590  0.00  0.00    -0.350 N 
ATOM     31  C3  7KV d   1       0.217  13.789  -4.031  0.00  0.00     0.057 A 
ATOM     32  C5  7KV d   1       0.156  11.540  -4.061  0.00  0.00    -0.020 A 
ATOM     33  H1  7KV d   1       2.136  11.270  -3.311  0.00  0.00     0.166 HD
ATOM     34  C6  7KV d   1      -0.600  12.632  -4.328  0.00  0.00    -0.051 A 
ATOM     35  H14 7KV d   1      -0.167  10.509  -4.200  0.00  0.00     0.111 H 
ATOM     36  H4  7KV d   1      -1.625  12.638  -4.695  0.00  0.00     0.087 H 
ENDBRANCH   6  24
BRANCH  10  37
ATOM     37  C15 7KV d   1      -0.329  21.624  -6.685  0.00  0.00     0.006 C 
ATOM     38  H20 7KV d   1      -1.379  21.731  -6.375  0.00  0.00     0.046 H 
ATOM     39  H21 7KV d   1       0.278  22.404  -6.201  0.00  0.00     0.046 H 
BRANCH  37  40
ATOM     40  C16 7KV d   1      -0.230  21.769  -8.190  0.00  0.00    -0.068 C 
ATOM     41  H10 7KV d   1      -0.601  22.761  -8.488  0.00  0.00     0.028 H 
ATOM     42  H11 7KV d   1      -0.837  20.989  -8.674  0.00  0.00     0.028 H 
ATOM     43  H12 7KV d   1       0.820  21.662  -8.500  0.00  0.00     0.028 H 
ENDBRANCH  37  40
ENDBRANCH  10  37
TORSDOF 3
