REMARK  4 active torsions:
REMARK  status: ('A' for Active; 'I' for Inactive)
REMARK    1  A    between atoms: C4_2  and  N1_13 
REMARK    2  A    between atoms: C10_15  and  C8_8 
REMARK    3  A    between atoms: C2_10  and  C1_9 
REMARK    4  A    between atoms: C3_11  and  C2_10 
REMARK       I    between atoms: N1_13  and  C3_11 
ROOT
ATOM      1  C4  7KX d   1      -0.975  18.428  -5.293  0.00  0.00     0.035 A 
ATOM      2  C7  7KX d   1      -1.530  16.051  -3.970  0.00  0.00    -0.071 A 
ATOM      3  C6  7KX d   1      -2.567  16.865  -4.392  0.00  0.00    -0.080 A 
ATOM      4  C9  7KX d   1       0.064  17.588  -4.901  0.00  0.00    -0.045 A 
ATOM      5  C8  7KX d   1      -0.203  16.395  -4.224  0.00  0.00    -0.004 A 
ATOM      6  C5  7KX d   1      -2.295  18.053  -5.053  0.00  0.00    -0.057 A 
ATOM      7  H2  7KX d   1      -1.752  15.135  -3.435  0.00  0.00     0.084 H 
ATOM      8  H3  7KX d   1      -3.594  16.573  -4.205  0.00  0.00     0.083 H 
ATOM      9  H4  7KX d   1       1.089  17.862  -5.123  0.00  0.00     0.088 H 
ATOM     10  H12 7KX d   1      -3.108  18.689  -5.383  0.00  0.00     0.086 H 
ENDROOT
BRANCH   5  11
ATOM     11  C10 7KX d   1       0.907  15.498  -3.806  0.00  0.00     0.082 A 
ATOM     12  C11 7KX d   1       0.818  14.082  -3.852  0.00  0.00     0.041 A 
ATOM     13  C12 7KX d   1      -0.143  13.053  -4.153  0.00  0.00    -0.052 A 
ATOM     14  C14 7KX d   1       2.020  13.431  -3.473  0.00  0.00     0.141 A 
ATOM     15  C13 7KX d   1       0.480  11.872  -3.930  0.00  0.00    -0.020 A 
ATOM     16  H13 7KX d   1      -1.168  13.196  -4.493  0.00  0.00     0.087 H 
ATOM     17  N2  7KX d   1       1.769  12.088  -3.516  0.00  0.00    -0.350 N 
ATOM     18  H5  7KX d   1       0.023  10.892  -4.061  0.00  0.00     0.111 H 
ATOM     19  H1  7KX d   1       2.446  11.350  -3.274  0.00  0.00     0.166 HD
ATOM     20  N3  7KX d   1       3.170  14.033  -3.123  0.00  0.00    -0.224 NA
ATOM     21  C15 7KX d   1       3.078  15.364  -3.108  0.00  0.00     0.089 A 
ATOM     22  N4  7KX d   1       2.031  16.127  -3.423  0.00  0.00    -0.240 NA
ATOM     23  H14 7KX d   1       3.971  15.895  -2.799  0.00  0.00     0.146 H 
ENDBRANCH   5  11
BRANCH   1  24
ATOM     24  N1  7KX d   1      -0.694  19.702  -5.833  0.00  0.00    -0.327 N 
ATOM     25  C3  7KX d   1      -1.282  20.290  -6.900  0.00  0.00     0.221 C 
ATOM     26  O1  7KX d   1      -2.149  19.752  -7.594  0.00  0.00    -0.273 OA
ATOM     27  H11 7KX d   1       0.021  20.230  -5.375  0.00  0.00     0.169 HD
BRANCH  25  28
ATOM     28  C2  7KX d   1      -0.782  21.684  -7.192  0.00  0.00     0.006 C 
ATOM     29  H9  7KX d   1      -1.215  22.024  -8.144  0.00  0.00     0.046 H 
ATOM     30  H10 7KX d   1      -1.106  22.354  -6.382  0.00  0.00     0.046 H 
BRANCH  28  31
ATOM     31  C1  7KX d   1       0.729  21.737  -7.296  0.00  0.00    -0.068 C 
ATOM     32  H6  7KX d   1       1.046  22.769  -7.509  0.00  0.00     0.028 H 
ATOM     33  H7  7KX d   1       1.064  21.076  -8.108  0.00  0.00     0.028 H 
ATOM     34  H8  7KX d   1       1.174  21.405  -6.346  0.00  0.00     0.028 H 
ENDBRANCH  28  31
ENDBRANCH  25  28
ENDBRANCH   1  24
TORSDOF 4
