REMARK  10 active torsions:
REMARK  status: ('A' for Active; 'I' for Inactive)
REMARK    1  A    between atoms: C03_3  and  C04_4 
REMARK    2  A    between atoms: C04_4  and  C05_5 
REMARK    3  A    between atoms: C04_4  and  C06_6 
REMARK    4  A    between atoms: C07_7  and  C08_8 
REMARK    5  A    between atoms: C08_8  and  C09_9 
REMARK    6  A    between atoms: N15_15  and  C16_16 
REMARK    7  A    between atoms: C16_16  and  O17_17 
REMARK    8  A    between atoms: O17_17  and  C18_18 
REMARK    9  A    between atoms: C18_18  and  C19_19 
REMARK   10  A    between atoms: N26_26  and  O27_27 
ROOT
ATOM      1  O01 J63 d   1      53.901 -27.108  33.233  0.00  0.00    -0.265 OA
ATOM      2  C02 J63 d   1      52.871 -27.662  33.655  0.00  0.00     0.284 A 
ATOM      3  C03 J63 d   1      52.391 -27.528  35.077  0.00  0.00     0.039 A 
ATOM      4  C07 J63 d   1      51.236 -28.155  35.541  0.00  0.00     0.031 A 
ATOM      5  N15 J63 d   1      50.457 -28.980  34.601  0.00  0.00    -0.279 N 
ATOM      6  C25 J63 d   1      50.904 -29.128  33.190  0.00  0.00     0.358 A 
ATOM      7  N26 J63 d   1      52.141 -28.439  32.751  0.00  0.00    -0.133 N 
ATOM      8  O28 J63 d   1      50.296 -29.780  32.419  0.00  0.00    -0.244 OA
ENDROOT
BRANCH   4   9
ATOM      9  C08 J63 d   1      50.872 -27.942  37.006  0.00  0.00    -0.022 C 
ATOM     10  H8  J63 d   1      51.652 -27.330  37.481  0.00  0.00     0.042 H 
ATOM     11  H9  J63 d   1      50.819 -28.921  37.505  0.00  0.00     0.042 H 
BRANCH   9  12
ATOM     12  C09 J63 d   1      49.485 -27.213  37.165  0.00  0.00    -0.049 C 
ATOM     13  C10 J63 d   1      48.593 -27.749  38.321  0.00  0.00    -0.061 C 
ATOM     14  C11 J63 d   1      47.347 -26.875  38.580  0.00  0.00    -0.065 C 
ATOM     15  H11 J63 d   1      49.195 -27.782  39.241  0.00  0.00     0.033 H 
ATOM     16  H12 J63 d   1      48.260 -28.765  38.064  0.00  0.00     0.033 H 
ATOM     17  C12 J63 d   1      47.682 -25.385  38.683  0.00  0.00    -0.065 C 
ATOM     18  H13 J63 d   1      46.881 -27.197  39.523  0.00  0.00     0.033 H 
ATOM     19  H14 J63 d   1      46.637 -27.020  37.752  0.00  0.00     0.033 H 
ATOM     20  C13 J63 d   1      48.479 -24.895  37.467  0.00  0.00    -0.065 C 
ATOM     21  H15 J63 d   1      48.279 -25.216  39.591  0.00  0.00     0.033 H 
ATOM     22  H16 J63 d   1      46.745 -24.813  38.748  0.00  0.00     0.033 H 
ATOM     23  C14 J63 d   1      49.758 -25.712  37.279  0.00  0.00    -0.061 C 
ATOM     24  H17 J63 d   1      48.747 -23.838  37.615  0.00  0.00     0.033 H 
ATOM     25  H18 J63 d   1      47.855 -24.992  36.566  0.00  0.00     0.033 H 
ATOM     26  H19 J63 d   1      50.260 -25.374  36.360  0.00  0.00     0.033 H 
ATOM     27  H20 J63 d   1      50.417 -25.538  38.142  0.00  0.00     0.033 H 
ATOM     28  H10 J63 d   1      48.920 -27.381  36.236  0.00  0.00     0.040 H 
ENDBRANCH   9  12
ENDBRANCH   4   9
BRANCH   3  29
ATOM     29  C04 J63 d   1      53.099 -26.737  36.199  0.00  0.00    -0.028 C 
ATOM     30  H1  J63 d   1      52.383 -26.735  37.034  0.00  0.00     0.046 H 
BRANCH  29  31
ATOM     31  C05 J63 d   1      54.323 -27.480  36.728  0.00  0.00    -0.069 C 
ATOM     32  H2  J63 d   1      54.797 -26.886  37.523  0.00  0.00     0.028 H 
ATOM     33  H3  J63 d   1      55.040 -27.635  35.909  0.00  0.00     0.028 H 
ATOM     34  H4  J63 d   1      54.013 -28.454  37.134  0.00  0.00     0.028 H 
ENDBRANCH  29  31
BRANCH  29  35
ATOM     35  C06 J63 d   1      53.350 -25.255  35.913  0.00  0.00    -0.069 C 
ATOM     36  H5  J63 d   1      52.425 -24.792  35.537  0.00  0.00     0.028 H 
ATOM     37  H6  J63 d   1      54.143 -25.157  35.157  0.00  0.00     0.028 H 
ATOM     38  H7  J63 d   1      53.662 -24.750  36.839  0.00  0.00     0.028 H 
ENDBRANCH  29  35
ENDBRANCH   3  29
BRANCH   5  39
ATOM     39  C16 J63 d   1      49.210 -29.697  34.979  0.00  0.00     0.088 C 
ATOM     40  H21 J63 d   1      48.517 -29.735  34.126  0.00  0.00     0.108 H 
ATOM     41  H22 J63 d   1      48.721 -29.194  35.827  0.00  0.00     0.108 H 
BRANCH  39  42
ATOM     42  O17 J63 d   1      49.616 -31.022  35.351  0.00  0.00    -0.367 OA
BRANCH  42  43
ATOM     43  C18 J63 d   1      49.467 -32.002  34.328  0.00  0.00     0.045 C 
ATOM     44  H23 J63 d   1      49.548 -31.509  33.348  0.00  0.00     0.081 H 
ATOM     45  H24 J63 d   1      48.475 -32.468  34.423  0.00  0.00     0.081 H 
BRANCH  43  46
ATOM     46  C19 J63 d   1      50.519 -33.071  34.424  0.00  0.00    -0.035 A 
ATOM     47  C20 J63 d   1      51.586 -33.091  33.549  0.00  0.00    -0.075 A 
ATOM     48  C21 J63 d   1      52.543 -34.105  33.638  0.00  0.00    -0.082 A 
ATOM     49  H25 J63 d   1      51.682 -32.320  32.793  0.00  0.00     0.084 H 
ATOM     50  C22 J63 d   1      52.423 -35.091  34.595  0.00  0.00    -0.083 A 
ATOM     51  H26 J63 d   1      53.383 -34.117  32.953  0.00  0.00     0.083 H 
ATOM     52  C23 J63 d   1      51.354 -35.075  35.464  0.00  0.00    -0.082 A 
ATOM     53  H27 J63 d   1      53.167 -35.876  34.663  0.00  0.00     0.083 H 
ATOM     54  C24 J63 d   1      50.399 -34.067  35.370  0.00  0.00    -0.075 A 
ATOM     55  H28 J63 d   1      51.257 -35.846  36.220  0.00  0.00     0.083 H 
ATOM     56  H29 J63 d   1      49.553 -34.065  36.047  0.00  0.00     0.084 H 
ENDBRANCH  43  46
ENDBRANCH  42  43
ENDBRANCH  39  42
ENDBRANCH   5  39
BRANCH   7  57
ATOM     57  O27 J63 d   1      52.581 -28.565  31.422  0.00  0.00    -0.276 OA
ATOM     58  H30 J63 d   1      53.381 -28.066  31.306  0.00  0.00     0.245 HD
ENDBRANCH   7  57
TORSDOF 10
