REMARK  3 active torsions:
REMARK  status: ('A' for Active; 'I' for Inactive)
REMARK    1  A    between atoms: CAL_9  and  CAF_4 
REMARK    2  A    between atoms: NAR_23  and  CAO_12 
REMARK    3  A    between atoms: NAE_21  and  CAX_19 
ROOT
ATOM      1  CAA 7LK d   1      25.882  47.678   3.278  0.00  0.00    -0.045 A 
ATOM      2  CAB 7LK d   1      26.376  48.927   3.615  0.00  0.00     0.006 A 
ATOM      3  CAD 7LK d   1      25.659  47.371   1.946  0.00  0.00     0.060 A 
ATOM      4  CAF 7LK d   1      26.190  49.385  -0.810  0.00  0.00     0.046 A 
ATOM      5  CAG 7LK d   1      25.789  48.215  -0.324  0.00  0.00    -0.041 A 
ATOM      6  CAH 7LK d   1      25.917  48.270   1.000  0.00  0.00     0.033 A 
ATOM      7  CAI 7LK d   1      26.391  49.477   1.319  0.00  0.00     0.141 A 
ATOM      8  CAJ 7LK d   1      25.156  46.094   1.605  0.00  0.00     0.100 C 
ATOM      9  NAC 7LK d   1      26.626  49.829   2.590  0.00  0.00    -0.242 NA
ATOM     10  NAE 7LK d   1      26.560  50.175   0.207  0.00  0.00    -0.335 N 
ATOM     11  NAK 7LK d   1      24.757  45.079   1.343  0.00  0.00    -0.191 NA
ATOM     12  H1  7LK d   1      25.672  46.947   4.050  0.00  0.00     0.088 H 
ATOM     13  H2  7LK d   1      26.562  49.193   4.649  0.00  0.00     0.114 H 
ATOM     14  H3  7LK d   1      25.423  47.368  -0.902  0.00  0.00     0.088 H 
ENDROOT
BRANCH   4  15
ATOM     15  CAL 7LK d   1      26.175  49.657  -2.122  0.00  0.00    -0.009 A 
ATOM     16  CAM 7LK d   1      26.554  50.896  -2.631  0.00  0.00    -0.069 A 
ATOM     17  CAN 7LK d   1      26.519  51.153  -3.991  0.00  0.00    -0.057 A 
ATOM     18  H4  7LK d   1      26.882  51.673  -1.950  0.00  0.00     0.085 H 
ATOM     19  CAO 7LK d   1      26.103  50.163  -4.869  0.00  0.00     0.030 A 
ATOM     20  H5  7LK d   1      26.816  52.125  -4.369  0.00  0.00     0.086 H 
ATOM     21  CAP 7LK d   1      25.711  48.922  -4.379  0.00  0.00    -0.057 A 
ATOM     22  CAQ 7LK d   1      25.749  48.673  -3.010  0.00  0.00    -0.069 A 
ATOM     23  H6  7LK d   1      25.376  48.150  -5.062  0.00  0.00     0.086 H 
ATOM     24  H7  7LK d   1      25.444  47.704  -2.632  0.00  0.00     0.085 H 
BRANCH  19  25
ATOM     25  NAR 7LK d   1      26.064  50.438  -6.179  0.00  0.00    -0.378 N 
ATOM     26  CAS 7LK d   1      26.456  51.752  -6.708  0.00  0.00     0.018 C 
ATOM     27  CAT 7LK d   1      25.565  52.115  -7.885  0.00  0.00     0.096 C 
ATOM     28  H8  7LK d   1      26.348  52.511  -5.919  0.00  0.00     0.066 H 
ATOM     29  H9  7LK d   1      27.504  51.715  -7.040  0.00  0.00     0.066 H 
ATOM     30  NAU 7LK d   1      25.639  51.143  -8.995  0.00  0.00    -0.072 N 
ATOM     31  H10 7LK d   1      25.871  53.101  -8.264  0.00  0.00     0.078 H 
ATOM     32  H11 7LK d   1      24.524  52.164  -7.533  0.00  0.00     0.078 H 
ATOM     33  CAV 7LK d   1      25.186  49.874  -8.388  0.00  0.00     0.096 C 
ATOM     34  H19 7LK d   1      26.584  51.060  -9.336  0.00  0.00     0.277 HD
ATOM     35  H20 7LK d   1      25.031  51.416  -9.751  0.00  0.00     0.277 HD
ATOM     36  CAW 7LK d   1      26.063  49.411  -7.229  0.00  0.00     0.018 C 
ATOM     37  H12 7LK d   1      24.160  50.012  -8.016  0.00  0.00     0.078 H 
ATOM     38  H13 7LK d   1      25.193  49.094  -9.164  0.00  0.00     0.078 H 
ATOM     39  H14 7LK d   1      27.091  49.251  -7.587  0.00  0.00     0.066 H 
ATOM     40  H15 7LK d   1      25.666  48.470  -6.821  0.00  0.00     0.066 H 
ENDBRANCH  19  25
ENDBRANCH   4  15
BRANCH  10  41
ATOM     41  CAX 7LK d   1      27.090  51.556   0.412  0.00  0.00    -0.012 C 
ATOM     42  H16 7LK d   1      27.197  52.056  -0.562  0.00  0.00     0.057 H 
ATOM     43  H17 7LK d   1      28.071  51.503   0.906  0.00  0.00     0.057 H 
ATOM     44  H18 7LK d   1      26.392  52.127   1.043  0.00  0.00     0.057 H 
ENDBRANCH  10  41
TORSDOF 3
