REMARK  5 active torsions:
REMARK  status: ('A' for Active; 'I' for Inactive)
REMARK    1  A    between atoms: C6_8  and  C1_1 
REMARK    2  A    between atoms: C9_15  and  O2_4 
REMARK       I    between atoms: N_11  and  C6_8 
REMARK    3  A    between atoms: C_9  and  O_10 
REMARK    4  A    between atoms: N1_12  and  N_11 
REMARK    5  A    between atoms: C8_14  and  C7_13 
ROOT
ATOM      1  N1  MOL d   1      13.339 -19.898 -23.091  0.00  0.00    -0.183 NA
ATOM      2  C7  MOL d   1      12.971 -20.946 -23.747  0.00  0.00     0.035 C 
ATOM      3  H8  MOL d   1      12.876 -21.852 -23.150  0.00  0.00     0.118 H 
ENDROOT
BRANCH   2   4
ATOM      4  C8  MOL d   1      12.654 -21.111 -25.204  0.00  0.00     0.027 A 
ATOM      5  C9  MOL d   1      12.121 -20.107 -26.002  0.00  0.00     0.078 A 
ATOM      6  C10 MOL d   1      11.974 -20.291 -27.404  0.00  0.00    -0.049 A 
ATOM      7  C11 MOL d   1      12.356 -21.466 -28.020  0.00  0.00    -0.070 A 
ATOM      8  H9  MOL d   1      11.553 -19.491 -28.002  0.00  0.00     0.087 H 
ATOM      9  C12 MOL d   1      12.898 -22.447 -27.221  0.00  0.00    -0.025 A 
ATOM     10  H10 MOL d   1      12.234 -21.610 -29.087  0.00  0.00     0.085 H 
ATOM     11  C13 MOL d   1      13.063 -22.305 -25.853  0.00  0.00    -0.011 A 
ATOM     12  C17 MOL d   1      13.284 -23.638 -27.778  0.00  0.00    -0.072 A 
ATOM     13  C14 MOL d   1      13.632 -23.395 -25.140  0.00  0.00    -0.071 A 
ATOM     14  C15 MOL d   1      14.018 -24.605 -25.715  0.00  0.00    -0.082 A 
ATOM     15  H14 MOL d   1      13.776 -23.277 -24.072  0.00  0.00     0.084 H 
ATOM     16  C16 MOL d   1      13.819 -24.735 -27.073  0.00  0.00    -0.082 A 
ATOM     17  H13 MOL d   1      14.453 -25.403 -25.124  0.00  0.00     0.083 H 
ATOM     18  H12 MOL d   1      14.068 -25.657 -27.585  0.00  0.00     0.083 H 
ATOM     19  H11 MOL d   1      13.168 -23.745 -28.850  0.00  0.00     0.084 H 
BRANCH   5  20
ATOM     20  O2  MOL d   1      11.705 -18.958 -25.411  0.00  0.00    -0.360 OA
ATOM     21  H2  MOL d   1      12.438 -18.549 -24.965  0.00  0.00     0.217 HD
ENDBRANCH   5  20
ENDBRANCH   2   4
BRANCH   1  22
ATOM     22  N   MOL d   1      13.331 -18.539 -23.525  0.00  0.00    -0.243 N 
ATOM     23  C6  MOL d   1      14.443 -18.075 -24.107  0.00  0.00     0.274 C 
ATOM     24  O1  MOL d   1      15.394 -18.839 -24.262  0.00  0.00    -0.266 OA
ATOM     25  H7  MOL d   1      12.527 -17.957 -23.399  0.00  0.00     0.192 HD
BRANCH  23  26
ATOM     26  C1  MOL d   1      14.426 -16.666 -24.671  0.00  0.00     0.066 A 
ATOM     27  C2  MOL d   1      13.171 -16.045 -24.834  0.00  0.00    -0.065 A 
ATOM     28  C3  MOL d   1      13.036 -14.772 -25.381  0.00  0.00    -0.082 A 
ATOM     29  H1  MOL d   1      12.280 -16.578 -24.522  0.00  0.00     0.085 H 
ATOM     30  C4  MOL d   1      14.174 -14.085 -25.800  0.00  0.00    -0.080 A 
ATOM     31  H3  MOL d   1      12.056 -14.320 -25.480  0.00  0.00     0.083 H 
ATOM     32  C5  MOL d   1      15.431 -14.692 -25.671  0.00  0.00    -0.050 A 
ATOM     33  H4  MOL d   1      14.088 -13.090 -26.222  0.00  0.00     0.083 H 
ATOM     34  C   MOL d   1      15.564 -15.986 -25.121  0.00  0.00     0.081 A 
ATOM     35  H5  MOL d   1      16.316 -14.159 -25.999  0.00  0.00     0.087 H 
BRANCH  34  36
ATOM     36  O   MOL d   1      16.810 -16.546 -25.006  0.00  0.00    -0.360 OA
ATOM     37  H6  MOL d   1      16.733 -17.411 -24.621  0.00  0.00     0.217 HD
ENDBRANCH  34  36
ENDBRANCH  23  26
ENDBRANCH   1  22
TORSDOF 5
