REMARK  8 active torsions:
REMARK  status: ('A' for Active; 'I' for Inactive)
REMARK    1  A    between atoms: C6_3  and  NAS_19 
REMARK    2  A    between atoms: NAR_9  and  C2_10 
REMARK    3  A    between atoms: CAW_12  and  OAT_13 
REMARK    4  A    between atoms: OAT_13  and  CAB_14 
REMARK    5  A    between atoms: CAX_15  and  OAU_16 
REMARK    6  A    between atoms: OAU_16  and  CAC_17 
REMARK    7  A    between atoms: NAS_19  and  CBB_20 
REMARK    8  A    between atoms: NBC_24  and  CAD_25 
ROOT
ATOM      1  C4  7L6 d   1      34.141 -15.790  35.786  0.00  0.00     0.092 A 
ATOM      2  C5  7L6 d   1      35.506 -16.053  35.703  0.00  0.00     0.042 A 
ATOM      3  C6  7L6 d   1      35.944 -17.282  35.198  0.00  0.00     0.155 A 
ATOM      4  N1  7L6 d   1      35.051 -18.203  34.782  0.00  0.00    -0.044 NA
ATOM      5  N3  7L6 d   1      33.281 -16.747  35.364  0.00  0.00    -0.062 NA
ATOM      6  C2  7L6 d   1      33.714 -17.933  34.866  0.00  0.00     0.727 A 
ATOM      7  CAE 7L6 d   1      33.685 -14.559  36.299  0.00  0.00    -0.019 A 
ATOM      8  CAW 7L6 d   1      34.604 -13.596  36.731  0.00  0.00     0.103 A 
ATOM      9  CAX 7L6 d   1      35.960 -13.855  36.645  0.00  0.00     0.102 A 
ATOM     10  CAF 7L6 d   1      36.418 -15.074  36.128  0.00  0.00    -0.032 A 
ATOM     11  H7  7L6 d   1      32.621 -14.358  36.359  0.00  0.00     0.091 H 
ATOM     12  H14 7L6 d   1      37.483 -15.262  36.056  0.00  0.00     0.089 H 
ENDROOT
BRANCH   3  13
ATOM     13  NAS 7L6 d   1      37.280 -17.455  35.130  0.00  0.00    -0.369 N 
ATOM     14  H15 7L6 d   1      37.815 -16.589  35.289  0.00  0.00     0.161 HD
BRANCH  13  15
ATOM     15  CBB 7L6 d   1      38.120 -18.620  34.877  0.00  0.00     0.014 C 
ATOM     16  CAL 7L6 d   1      38.521 -18.692  33.419  0.00  0.00    -0.024 C 
ATOM     17  CAN 7L6 d   1      39.710 -19.637  33.337  0.00  0.00     0.085 C 
ATOM     18  H17 7L6 d   1      38.805 -17.694  33.054  0.00  0.00     0.038 H 
ATOM     19  H18 7L6 d   1      37.687 -19.079  32.815  0.00  0.00     0.038 H 
ATOM     20  NBC 7L6 d   1      39.367 -20.983  33.835  0.00  0.00    -0.075 N 
ATOM     21  H27 7L6 d   1      40.532 -19.230  33.944  0.00  0.00     0.076 H 
ATOM     22  H28 7L6 d   1      40.032 -19.715  32.288  0.00  0.00     0.076 H 
ATOM     23  CAO 7L6 d   1      38.750 -20.968  35.175  0.00  0.00     0.085 C 
ATOM     24  H23 7L6 d   1      38.720 -21.410  33.190  0.00  0.00     0.279 HD
ATOM     25  CAM 7L6 d   1      37.588 -19.983  35.274  0.00  0.00    -0.024 C 
ATOM     26  H21 7L6 d   1      38.377 -21.977  35.403  0.00  0.00     0.076 H 
ATOM     27  H22 7L6 d   1      39.516 -20.685  35.912  0.00  0.00     0.076 H 
ATOM     28  H19 7L6 d   1      36.779 -20.285  34.593  0.00  0.00     0.038 H 
ATOM     29  H20 7L6 d   1      37.206 -19.953  36.305  0.00  0.00     0.038 H 
ATOM     30  H16 7L6 d   1      39.034 -18.461  35.468  0.00  0.00     0.072 H 
BRANCH  20  31
ATOM     31  CAD 7L6 d   1      40.604 -21.776  33.888  0.00  0.00     0.066 C 
ATOM     32  H24 7L6 d   1      41.072 -21.793  32.892  0.00  0.00     0.068 H 
ATOM     33  H25 7L6 d   1      40.367 -22.804  34.200  0.00  0.00     0.068 H 
ATOM     34  H26 7L6 d   1      41.298 -21.324  34.612  0.00  0.00     0.068 H 
ENDBRANCH  20  31
ENDBRANCH  13  15
ENDBRANCH   3  13
BRANCH   6  35
ATOM     35  NAR 7L6 d   1      32.758 -18.889  34.454  0.00  0.00    -0.210 N 
ATOM     36  CAJ 7L6 d   1      33.151 -20.108  33.769  0.00  0.00     0.031 C 
ATOM     37  C3  7L6 d   1      32.766 -21.200  34.756  0.00  0.00     0.035 C 
ATOM     38  H5  7L6 d   1      32.604 -20.222  32.821  0.00  0.00     0.068 H 
ATOM     39  H6  7L6 d   1      34.233 -20.118  33.572  0.00  0.00     0.068 H 
ATOM     40  O3  7L6 d   1      31.368 -21.129  34.992  0.00  0.00    -0.388 OA
ATOM     41  H3  7L6 d   1      33.309 -21.052  35.701  0.00  0.00     0.076 H 
ATOM     42  H4  7L6 d   1      33.021 -22.184  34.337  0.00  0.00     0.076 H 
ATOM     43  C8  7L6 d   1      31.015 -19.901  35.634  0.00  0.00     0.035 C 
ATOM     44  C1  7L6 d   1      31.341 -18.715  34.735  0.00  0.00     0.031 C 
ATOM     45  H1  7L6 d   1      29.937 -19.904  35.852  0.00  0.00     0.076 H 
ATOM     46  H2  7L6 d   1      31.579 -19.809  36.574  0.00  0.00     0.076 H 
ATOM     47  H29 7L6 d   1      31.156 -17.764  35.255  0.00  0.00     0.068 H 
ATOM     48  H30 7L6 d   1      30.748 -18.748  33.809  0.00  0.00     0.068 H 
ENDBRANCH   6  35
BRANCH   9  49
ATOM     49  OAU 7L6 d   1      36.818 -12.872  37.061  0.00  0.00    -0.353 OA
BRANCH  49  50
ATOM     50  CAC 7L6 d   1      38.180 -13.157  37.330  0.00  0.00     0.010 C 
ATOM     51  H11 7L6 d   1      38.691 -12.237  37.649  0.00  0.00     0.066 H 
ATOM     52  H12 7L6 d   1      38.660 -13.546  36.420  0.00  0.00     0.066 H 
ATOM     53  H13 7L6 d   1      38.246 -13.909  38.130  0.00  0.00     0.066 H 
ENDBRANCH  49  50
ENDBRANCH   9  49
BRANCH   8  54
ATOM     54  OAT 7L6 d   1      34.232 -12.372  37.238  0.00  0.00    -0.353 OA
BRANCH  54  55
ATOM     55  CAB 7L6 d   1      32.864 -11.993  37.339  0.00  0.00     0.010 C 
ATOM     56  H8  7L6 d   1      32.794 -10.983  37.768  0.00  0.00     0.066 H 
ATOM     57  H9  7L6 d   1      32.333 -12.705  37.989  0.00  0.00     0.066 H 
ATOM     58  H10 7L6 d   1      32.407 -11.999  36.338  0.00  0.00     0.066 H 
ENDBRANCH  54  55
ENDBRANCH   8  54
TORSDOF 8
