REMARK  10 active torsions:
REMARK  status: ('A' for Active; 'I' for Inactive)
REMARK    1  A    between atoms: CAV_1  and  CAU_2 
REMARK    2  A    between atoms: CAU_2  and  CAW_3 
REMARK    3  A    between atoms: CAU_2  and  CAX_4 
REMARK    4  A    between atoms: CAU_2  and  CAR_5 
REMARK    5  A    between atoms: CAN_10  and  SAL_11 
REMARK    6  A    between atoms: SAL_11  and  NAK_14 
REMARK    7  A    between atoms: NAK_14  and  CAB_15 
REMARK    8  A    between atoms: CAE_17  and  SAF_18 
REMARK    9  A    between atoms: SAF_18  and  NAI_21 
REMARK   10  A    between atoms: NAC_23  and  CAJ_24 
ROOT
ATOM      1  CAR 7L3 d   1       4.001 -43.623  86.106  0.00  0.00    -0.051 A 
ATOM      2  CAS 7L3 d   1       4.636 -44.662  86.836  0.00  0.00    -0.075 A 
ATOM      3  CAT 7L3 d   1       6.013 -44.621  87.053  0.00  0.00    -0.060 A 
ATOM      4  CAQ 7L3 d   1       4.765 -42.549  85.600  0.00  0.00    -0.075 A 
ATOM      5  CAP 7L3 d   1       6.147 -42.511  85.819  0.00  0.00    -0.060 A 
ATOM      6  CAN 7L3 d   1       6.776 -43.554  86.551  0.00  0.00     0.080 A 
ATOM      7  H10 7L3 d   1       4.050 -45.487  87.225  0.00  0.00     0.084 H 
ATOM      8  H11 7L3 d   1       6.496 -45.415  87.611  0.00  0.00     0.085 H 
ATOM      9  H12 7L3 d   1       4.282 -41.755  85.043  0.00  0.00     0.084 H 
ATOM     10  H13 7L3 d   1       6.736 -41.688  85.431  0.00  0.00     0.085 H 
ENDROOT
BRANCH   6  11
ATOM     11  SAL 7L3 d   1       8.586 -43.516  86.844  0.00  0.00     0.264 S 
ATOM     12  OAM 7L3 d   1       9.230 -44.674  86.140  0.00  0.00    -0.200 OA
ATOM     13  OAO 7L3 d   1       8.856 -43.613  88.331  0.00  0.00    -0.200 OA
BRANCH  11  14
ATOM     14  NAK 7L3 d   1       9.211 -42.115  86.261  0.00  0.00    -0.258 N 
ATOM     15  H14 7L3 d   1       9.323 -41.988  85.275  0.00  0.00     0.181 HD
BRANCH  14  16
ATOM     16  CAB 7L3 d   1       9.599 -41.067  87.173  0.00  0.00     0.179 A 
ATOM     17  SAA 7L3 d   1       9.650 -41.143  88.922  0.00  0.00    -0.017 SA
ATOM     18  CAE 7L3 d   1      10.191 -39.545  89.192  0.00  0.00     0.235 A 
ATOM     19  NAD 7L3 d   1      10.309 -39.025  87.927  0.00  0.00    -0.149 NA
ATOM     20  NAC 7L3 d   1       9.998 -39.822  86.861  0.00  0.00    -0.250 N 
BRANCH  18  21
ATOM     21  SAF 7L3 d   1      10.523 -38.747  90.729  0.00  0.00     0.282 S 
ATOM     22  OAG 7L3 d   1      10.051 -39.635  91.879  0.00  0.00    -0.199 OA
ATOM     23  OAH 7L3 d   1       9.801 -37.447  90.781  0.00  0.00    -0.199 OA
BRANCH  21  24
ATOM     24  NAI 7L3 d   1      12.177 -38.473  90.873  0.00  0.00    -0.323 N 
ATOM     25  H15 7L3 d   1      12.540 -38.026  91.690  0.00  0.00     0.169 HD
ATOM     26  H16 7L3 d   1      12.796 -38.757  90.141  0.00  0.00     0.169 HD
ENDBRANCH  21  24
ENDBRANCH  18  21
BRANCH  20  27
ATOM     27  CAJ 7L3 d   1      10.092 -39.361  85.510  0.00  0.00     0.005 C 
ATOM     28  H17 7L3 d   1      10.438 -38.317  85.502  0.00  0.00     0.059 H 
ATOM     29  H18 7L3 d   1       9.104 -39.423  85.032  0.00  0.00     0.059 H 
ATOM     30  H19 7L3 d   1      10.807 -39.988  84.957  0.00  0.00     0.059 H 
ENDBRANCH  20  27
ENDBRANCH  14  16
ENDBRANCH  11  14
ENDBRANCH   6  11
BRANCH   1  31
ATOM     31  CAU 7L3 d   1       2.463 -43.666  85.863  0.00  0.00    -0.024 C 
BRANCH  31  32
ATOM     32  CAV 7L3 d   1       1.751 -42.815  86.935  0.00  0.00    -0.066 C 
ATOM     33  H1  7L3 d   1       0.665 -42.844  86.765  0.00  0.00     0.028 H 
ATOM     34  H2  7L3 d   1       2.104 -41.775  86.872  0.00  0.00     0.028 H 
ATOM     35  H3  7L3 d   1       1.977 -43.219  87.933  0.00  0.00     0.028 H 
ENDBRANCH  31  32
BRANCH  31  36
ATOM     36  CAW 7L3 d   1       1.954 -45.139  85.951  0.00  0.00    -0.066 C 
ATOM     37  H4  7L3 d   1       2.460 -45.748  85.188  0.00  0.00     0.028 H 
ATOM     38  H5  7L3 d   1       0.868 -45.163  85.778  0.00  0.00     0.028 H 
ATOM     39  H6  7L3 d   1       2.175 -45.544  86.949  0.00  0.00     0.028 H 
ENDBRANCH  31  36
BRANCH  31  40
ATOM     40  CAX 7L3 d   1       2.164 -43.113  84.489  0.00  0.00    -0.066 C 
ATOM     41  H7  7L3 d   1       2.522 -42.075  84.426  0.00  0.00     0.028 H 
ATOM     42  H8  7L3 d   1       1.079 -43.138  84.312  0.00  0.00     0.028 H 
ATOM     43  H9  7L3 d   1       2.674 -43.724  83.729  0.00  0.00     0.028 H 
ENDBRANCH  31  40
ENDBRANCH   1  31
TORSDOF 10
