REMARK  6 active torsions:
REMARK  status: ('A' for Active; 'I' for Inactive)
REMARK    1  A    between atoms: N3_2  and  C17_11 
REMARK       I    between atoms: C16_21  and  N3_2 
REMARK    2  A    between atoms: N3_2  and  C19_23 
REMARK    3  A    between atoms: C17_11  and  C18_24 
REMARK    4  A    between atoms: C19_23  and  C20_12 
REMARK    5  A    between atoms: N2_13  and  C12_14 
REMARK    6  A    between atoms: C14_20  and  C16_21 
ROOT
ATOM      1  N1  7LD d   1     -25.976 -12.817   6.961  0.00  0.00    -0.365 N 
ATOM      2  C4  7LD d   1     -26.221 -12.989   9.395  0.00  0.00    -0.056 A 
ATOM      3  C5  7LD d   1     -25.866 -13.776  10.490  0.00  0.00    -0.080 A 
ATOM      4  C6  7LD d   1     -24.689 -15.220   9.007  0.00  0.00    -0.015 A 
ATOM      5  C7  7LD d   1     -24.779 -14.611   6.745  0.00  0.00    -0.027 A 
ATOM      6  C8  7LD d   1     -25.338 -13.597   6.082  0.00  0.00    -0.015 A 
ATOM      7  C10 7LD d   1     -23.329 -17.078   9.739  0.00  0.00    -0.080 C 
ATOM      8  C13 7LD d   1     -23.007 -18.837   8.162  0.00  0.00     0.098 C 
ATOM      9  C15 7LD d   1     -23.988 -15.691   6.352  0.00  0.00    -0.008 C 
ATOM     10  N2  7LD d   1     -22.935 -17.809   7.116  0.00  0.00    -0.065 N 
ATOM     11  C11 7LD d   1     -23.992 -16.826   7.392  0.00  0.00     0.133 C 
ATOM     12  C3  7LD d   1     -25.080 -14.430   8.019  0.00  0.00     0.009 A 
ATOM     13  C1  7LD d   1     -25.812 -13.339   8.177  0.00  0.00     0.043 A 
ATOM     14  C2  7LD d   1     -25.086 -14.914  10.302  0.00  0.00    -0.071 A 
ATOM     15  C9  7LD d   1     -23.939 -16.350   8.714  0.00  0.00    -0.019 C 
ATOM     16  C14 7LD d   1     -22.597 -18.247   9.509  0.00  0.00     0.064 C 
ATOM     17  H1  7LD d   1     -26.503 -11.961   6.737  0.00  0.00     0.165 HD
ATOM     18  H2  7LD d   1     -26.825 -12.100   9.534  0.00  0.00     0.086 H 
ATOM     19  H3  7LD d   1     -26.197 -13.502  11.486  0.00  0.00     0.083 H 
ATOM     20  H4  7LD d   1     -25.284 -13.432   5.007  0.00  0.00     0.112 H 
ATOM     21  H5  7LD d   1     -23.428 -16.719  10.762  0.00  0.00     0.079 H 
ATOM     22  H6  7LD d   1     -22.329 -19.664   7.906  0.00  0.00     0.077 H 
ATOM     23  H7  7LD d   1     -24.038 -19.215   8.229  0.00  0.00     0.077 H 
ATOM     24  H8  7LD d   1     -22.954 -15.341   6.214  0.00  0.00     0.043 H 
ATOM     25  H9  7LD d   1     -24.373 -16.083   5.399  0.00  0.00     0.043 H 
ATOM     26  H15 7LD d   1     -22.027 -17.371   7.107  0.00  0.00     0.280 HD
ATOM     27  H19 7LD d   1     -24.953 -17.351   7.285  0.00  0.00     0.092 H 
ATOM     28  H20 7LD d   1     -24.798 -15.540  11.139  0.00  0.00     0.084 H 
ATOM     29  H21 7LD d   1     -21.523 -18.011   9.494  0.00  0.00     0.063 H 
ENDROOT
BRANCH  16  30
ATOM     30  C16 7LD d   1     -22.857 -19.171  10.533  0.00  0.00     0.229 C 
ATOM     31  N3  7LD d   1     -21.864 -20.023  10.866  0.00  0.00    -0.352 N 
ATOM     32  O1  7LD d   1     -23.959 -19.190  11.081  0.00  0.00    -0.273 OA
BRANCH  31  33
ATOM     33  C17 7LD d   1     -20.534 -20.017  10.238  0.00  0.00    -0.006 C 
ATOM     34  H10 7LD d   1     -20.507 -19.267   9.434  0.00  0.00     0.063 H 
ATOM     35  H11 7LD d   1     -20.317 -21.011   9.819  0.00  0.00     0.063 H 
BRANCH  33  36
ATOM     36  C18 7LD d   1     -19.495 -19.669  11.303  0.00  0.00    -0.061 C 
ATOM     37  H24 7LD d   1     -18.493 -19.660  10.849  0.00  0.00     0.029 H 
ATOM     38  H25 7LD d   1     -19.527 -20.420  12.106  0.00  0.00     0.029 H 
ATOM     39  H26 7LD d   1     -19.717 -18.676  11.721  0.00  0.00     0.029 H 
ENDBRANCH  33  36
ENDBRANCH  31  33
BRANCH  31  40
ATOM     40  C19 7LD d   1     -22.040 -21.027  11.928  0.00  0.00    -0.006 C 
ATOM     41  H22 7LD d   1     -22.629 -20.589  12.748  0.00  0.00     0.063 H 
ATOM     42  H23 7LD d   1     -21.053 -21.331  12.307  0.00  0.00     0.063 H 
BRANCH  40  43
ATOM     43  C20 7LD d   1     -22.772 -22.256  11.381  0.00  0.00    -0.061 C 
ATOM     44  H12 7LD d   1     -22.896 -22.997  12.185  0.00  0.00     0.029 H 
ATOM     45  H13 7LD d   1     -22.185 -22.698  10.562  0.00  0.00     0.029 H 
ATOM     46  H14 7LD d   1     -23.761 -21.956  11.003  0.00  0.00     0.029 H 
ENDBRANCH  40  43
ENDBRANCH  31  40
ENDBRANCH  16  30
BRANCH  10  47
ATOM     47  C12 7LD d   1     -23.226 -18.427   5.814  0.00  0.00     0.067 C 
ATOM     48  H16 7LD d   1     -23.174 -17.662   5.025  0.00  0.00     0.068 H 
ATOM     49  H17 7LD d   1     -24.235 -18.865   5.833  0.00  0.00     0.068 H 
ATOM     50  H18 7LD d   1     -22.487 -19.216   5.609  0.00  0.00     0.068 H 
ENDBRANCH  10  47
TORSDOF 6
