REMARK  31 active torsions:
REMARK  status: ('A' for Active; 'I' for Inactive)
REMARK    1  A    between atoms: C1_2  and  C2_1 
REMARK    2  A    between atoms: C2_1  and  C3_8 
REMARK    3  A    between atoms: C20_9  and  C1_2 
REMARK    4  A    between atoms: C6_5  and  C7_4 
REMARK    5  A    between atoms: C5_6  and  C6_5 
REMARK    6  A    between atoms: C4_7  and  C5_6 
REMARK    7  A    between atoms: C3_8  and  C4_7 
REMARK       I    between atoms: N2_46  and  C20_9 
REMARK    8  A    between atoms: C27_11  and  C28_12 
REMARK    9  A    between atoms: C26_25  and  C27_11 
REMARK   10  A    between atoms: C27_11  and  N2_46 
REMARK   11  A    between atoms: C28_12  and  O4_13 
REMARK   12  A    between atoms: O4_13  and  C31_14 
REMARK   13  A    between atoms: C30_16  and  C29_17 
REMARK   14  A    between atoms: C29_17  and  O8_18 
REMARK   15  A    between atoms: C34_19  and  O7_20 
REMARK   16  A    between atoms: C33_21  and  O6_22 
REMARK   17  A    between atoms: C32_23  and  O5_24 
REMARK   18  A    between atoms: C26_25  and  O3_26 
REMARK   19  A    between atoms: C25_27  and  C26_25 
REMARK   20  A    between atoms: C25_27  and  O2_28 
REMARK   21  A    between atoms: C24_29  and  C25_27 
REMARK   22  A    between atoms: C23_30  and  C24_29 
REMARK   23  A    between atoms: C22_31  and  C23_30 
REMARK   24  A    between atoms: C22_31  and  C21_32 
REMARK       I    between atoms: C21_32  and  N1_33 
REMARK   25  A    between atoms: N1_33  and  C19_34 
REMARK   26  A    between atoms: C19_34  and  C18_35 
REMARK   27  A    between atoms: C18_35  and  C17_36 
REMARK   28  A    between atoms: C17_36  and  C16_37 
REMARK   29  A    between atoms: C16_37  and  C15_38 
REMARK   30  A    between atoms: C15_38  and  C14_39 
REMARK   31  A    between atoms: C14_39  and  C13_40 
ROOT
ATOM      1  C27 7LP d   1     -32.953  -4.126 -41.035  0.00  0.00     0.060 C 
ATOM      2  H16 7LP d   1     -32.197  -3.341 -41.182  0.00  0.00     0.080 H 
ENDROOT
BRANCH   1   3
ATOM      3  C28 7LP d   1     -32.849  -5.079 -42.195  0.00  0.00     0.044 C 
ATOM      4  H17 7LP d   1     -31.797  -5.234 -42.477  0.00  0.00     0.077 H 
ATOM      5  H18 7LP d   1     -33.409  -4.699 -43.062  0.00  0.00     0.077 H 
BRANCH   3   6
ATOM      6  O4  7LP d   1     -33.426  -6.293 -41.715  0.00  0.00    -0.356 OA
BRANCH   6   7
ATOM      7  C31 7LP d   1     -33.648  -7.313 -42.703  0.00  0.00     0.158 C 
ATOM      8  O9  7LP d   1     -32.530  -8.218 -42.641  0.00  0.00    -0.348 OA
ATOM      9  C30 7LP d   1     -32.338  -8.853 -41.339  0.00  0.00     0.089 C 
ATOM     10  C34 7LP d   1     -33.613  -9.622 -40.916  0.00  0.00     0.090 C 
ATOM     11  H20 7LP d   1     -32.111  -8.084 -40.586  0.00  0.00     0.090 H 
ATOM     12  C33 7LP d   1     -34.862  -8.717 -41.006  0.00  0.00     0.092 C 
ATOM     13  H24 7LP d   1     -33.495  -9.957 -39.875  0.00  0.00     0.091 H 
ATOM     14  C32 7LP d   1     -34.950  -8.061 -42.392  0.00  0.00     0.110 C 
ATOM     15  H26 7LP d   1     -34.785  -7.930 -40.242  0.00  0.00     0.091 H 
ATOM     16  H28 7LP d   1     -35.099  -8.846 -43.148  0.00  0.00     0.094 H 
ATOM     17  H19 7LP d   1     -33.713  -6.862 -43.704  0.00  0.00     0.133 H 
BRANCH   9  18
ATOM     18  C29 7LP d   1     -31.175  -9.822 -41.447  0.00  0.00     0.043 C 
ATOM     19  H21 7LP d   1     -31.403 -10.612 -42.178  0.00  0.00     0.078 H 
ATOM     20  H22 7LP d   1     -30.965 -10.277 -40.468  0.00  0.00     0.078 H 
BRANCH  18  21
ATOM     21  O8  7LP d   1     -30.049  -9.043 -41.888  0.00  0.00    -0.398 OA
ATOM     22  H23 7LP d   1     -30.248  -8.650 -42.730  0.00  0.00     0.209 HD
ENDBRANCH  18  21
ENDBRANCH   9  18
BRANCH  10  23
ATOM     23  O7  7LP d   1     -33.783 -10.777 -41.765  0.00  0.00    -0.390 OA
ATOM     24  H25 7LP d   1     -34.566 -11.248 -41.504  0.00  0.00     0.210 HD
ENDBRANCH  10  23
BRANCH  12  25
ATOM     25  O6  7LP d   1     -36.057  -9.489 -40.768  0.00  0.00    -0.390 OA
ATOM     26  H27 7LP d   1     -36.816  -8.921 -40.826  0.00  0.00     0.210 HD
ENDBRANCH  12  25
BRANCH  14  27
ATOM     27  O5  7LP d   1     -36.063  -7.151 -42.439  0.00  0.00    -0.388 OA
ATOM     28  H29 7LP d   1     -35.947  -6.476 -41.781  0.00  0.00     0.210 HD
ENDBRANCH  14  27
ENDBRANCH   6   7
ENDBRANCH   3   6
ENDBRANCH   1   3
BRANCH   1  29
ATOM     29  C26 7LP d   1     -34.356  -3.464 -41.027  0.00  0.00     0.081 C 
ATOM     30  H30 7LP d   1     -35.111  -4.252 -40.885  0.00  0.00     0.090 H 
BRANCH  29  31
ATOM     31  O3  7LP d   1     -34.632  -2.782 -42.266  0.00  0.00    -0.391 OA
ATOM     32  H31 7LP d   1     -35.496  -2.390 -42.225  0.00  0.00     0.210 HD
ENDBRANCH  29  31
BRANCH  29  33
ATOM     33  C25 7LP d   1     -34.457  -2.463 -39.867  0.00  0.00     0.062 C 
ATOM     34  H32 7LP d   1     -34.387  -3.013 -38.917  0.00  0.00     0.086 H 
BRANCH  33  35
ATOM     35  O2  7LP d   1     -35.724  -1.800 -39.920  0.00  0.00    -0.393 OA
ATOM     36  H33 7LP d   1     -35.804  -1.338 -40.746  0.00  0.00     0.210 HD
ENDBRANCH  33  35
BRANCH  33  37
ATOM     37  C24 7LP d   1     -33.295  -1.444 -39.930  0.00  0.00    -0.038 C 
ATOM     38  H34 7LP d   1     -33.108  -1.191 -40.984  0.00  0.00     0.036 H 
ATOM     39  H35 7LP d   1     -32.397  -1.910 -39.499  0.00  0.00     0.036 H 
BRANCH  37  40
ATOM     40  C23 7LP d   1     -33.586  -0.167 -39.172  0.00  0.00    -0.055 C 
ATOM     41  H36 7LP d   1     -34.493   0.305 -39.578  0.00  0.00     0.033 H 
ATOM     42  H37 7LP d   1     -32.736   0.524 -39.273  0.00  0.00     0.033 H 
BRANCH  40  43
ATOM     43  C22 7LP d   1     -33.800  -0.504 -37.699  0.00  0.00     0.009 C 
ATOM     44  H38 7LP d   1     -32.823  -0.564 -37.198  0.00  0.00     0.047 H 
ATOM     45  H39 7LP d   1     -34.312  -1.475 -37.622  0.00  0.00     0.047 H 
BRANCH  43  46
ATOM     46  C21 7LP d   1     -34.638   0.550 -37.022  0.00  0.00     0.217 C 
ATOM     47  O1  7LP d   1     -35.329   1.358 -37.651  0.00  0.00    -0.274 OA
ATOM     48  N1  7LP d   1     -34.588   0.468 -35.700  0.00  0.00    -0.361 N 
ATOM     49  H40 7LP d   1     -33.974  -0.194 -35.270  0.00  0.00     0.162 HD
BRANCH  48  50
ATOM     50  C19 7LP d   1     -35.399   1.312 -34.879  0.00  0.00    -0.005 C 
ATOM     51  H41 7LP d   1     -35.784   0.741 -34.021  0.00  0.00     0.064 H 
ATOM     52  H42 7LP d   1     -36.242   1.706 -35.466  0.00  0.00     0.064 H 
BRANCH  50  53
ATOM     53  C18 7LP d   1     -34.539   2.449 -34.392  0.00  0.00    -0.050 C 
ATOM     54  H43 7LP d   1     -33.480   2.240 -34.601  0.00  0.00     0.035 H 
ATOM     55  H44 7LP d   1     -34.678   2.593 -33.310  0.00  0.00     0.035 H 
BRANCH  53  56
ATOM     56  C17 7LP d   1     -34.985   3.682 -35.144  0.00  0.00    -0.064 C 
ATOM     57  H45 7LP d   1     -34.808   3.553 -36.222  0.00  0.00     0.033 H 
ATOM     58  H46 7LP d   1     -34.435   4.564 -34.785  0.00  0.00     0.033 H 
BRANCH  56  59
ATOM     59  C16 7LP d   1     -36.479   3.848 -34.873  0.00  0.00    -0.065 C 
ATOM     60  H47 7LP d   1     -36.735   3.546 -33.847  0.00  0.00     0.033 H 
ATOM     61  H48 7LP d   1     -37.082   3.268 -35.587  0.00  0.00     0.033 H 
BRANCH  59  62
ATOM     62  C15 7LP d   1     -36.665   5.304 -35.069  0.00  0.00    -0.061 C 
ATOM     63  H49 7LP d   1     -36.215   5.613 -36.024  0.00  0.00     0.033 H 
ATOM     64  H50 7LP d   1     -36.191   5.856 -34.244  0.00  0.00     0.033 H 
BRANCH  62  65
ATOM     65  C14 7LP d   1     -38.162   5.585 -35.087  0.00  0.00    -0.041 C 
ATOM     66  H51 7LP d   1     -38.579   5.623 -34.070  0.00  0.00     0.040 H 
ATOM     67  H52 7LP d   1     -38.707   4.835 -35.679  0.00  0.00     0.040 H 
BRANCH  65  68
ATOM     68  C13 7LP d   1     -38.187   6.843 -35.701  0.00  0.00    -0.058 A 
ATOM     69  C8  7LP d   1     -37.745   7.950 -34.974  0.00  0.00    -0.077 A 
ATOM     70  C9  7LP d   1     -37.727   9.204 -35.557  0.00  0.00    -0.082 A 
ATOM     71  H53 7LP d   1     -37.415   7.826 -33.949  0.00  0.00     0.084 H 
ATOM     72  C10 7LP d   1     -38.138   9.387 -36.873  0.00  0.00    -0.083 A 
ATOM     73  H54 7LP d   1     -37.388  10.057 -34.980  0.00  0.00     0.083 H 
ATOM     74  C11 7LP d   1     -38.567   8.288 -37.608  0.00  0.00    -0.082 A 
ATOM     75  H55 7LP d   1     -38.124  10.374 -37.320  0.00  0.00     0.083 H 
ATOM     76  C12 7LP d   1     -38.590   7.013 -37.033  0.00  0.00    -0.077 A 
ATOM     77  H56 7LP d   1     -38.886   8.420 -38.635  0.00  0.00     0.083 H 
ATOM     78  H57 7LP d   1     -38.918   6.160 -37.615  0.00  0.00     0.084 H 
ENDBRANCH  65  68
ENDBRANCH  62  65
ENDBRANCH  59  62
ENDBRANCH  56  59
ENDBRANCH  53  56
ENDBRANCH  50  53
ENDBRANCH  48  50
ENDBRANCH  43  46
ENDBRANCH  40  43
ENDBRANCH  37  40
ENDBRANCH  33  37
ENDBRANCH  29  33
ENDBRANCH   1  29
BRANCH   1  79
ATOM     79  N2  7LP d   1     -32.699  -4.755 -39.700  0.00  0.00    -0.352 N 
ATOM     80  C20 7LP d   1     -31.462  -4.898 -39.173  0.00  0.00     0.218 C 
ATOM     81  O   7LP d   1     -30.426  -4.523 -39.715  0.00  0.00    -0.274 OA
ATOM     82  H58 7LP d   1     -33.482  -5.085 -39.173  0.00  0.00     0.163 HD
BRANCH  80  83
ATOM     83  C1  7LP d   1     -31.392  -5.485 -37.752  0.00  0.00     0.009 C 
ATOM     84  H3  7LP d   1     -32.260  -6.133 -37.560  0.00  0.00     0.047 H 
ATOM     85  H4  7LP d   1     -30.466  -6.064 -37.620  0.00  0.00     0.047 H 
BRANCH  83  86
ATOM     86  C2  7LP d   1     -31.407  -4.267 -36.804  0.00  0.00    -0.057 C 
ATOM     87  H1  7LP d   1     -32.447  -4.075 -36.503  0.00  0.00     0.033 H 
ATOM     88  H2  7LP d   1     -31.017  -3.397 -37.352  0.00  0.00     0.033 H 
BRANCH  86  89
ATOM     89  C3  7LP d   1     -30.564  -4.457 -35.536  0.00  0.00    -0.065 C 
ATOM     90  H14 7LP d   1     -29.706  -5.109 -35.755  0.00  0.00     0.033 H 
ATOM     91  H15 7LP d   1     -31.179  -4.913 -34.746  0.00  0.00     0.033 H 
BRANCH  89  92
ATOM     92  C4  7LP d   1     -30.060  -3.070 -35.069  0.00  0.00    -0.065 C 
ATOM     93  H12 7LP d   1     -29.030  -2.933 -35.430  0.00  0.00     0.033 H 
ATOM     94  H13 7LP d   1     -30.708  -2.297 -35.507  0.00  0.00     0.033 H 
BRANCH  92  95
ATOM     95  C5  7LP d   1     -30.068  -2.906 -33.540  0.00  0.00    -0.065 C 
ATOM     96  H10 7LP d   1     -30.626  -3.742 -33.094  0.00  0.00     0.033 H 
ATOM     97  H11 7LP d   1     -29.031  -2.920 -33.174  0.00  0.00     0.033 H 
BRANCH  95  98
ATOM     98  C6  7LP d   1     -30.732  -1.577 -33.117  0.00  0.00    -0.069 C 
ATOM     99  H8  7LP d   1     -31.306  -1.174 -33.965  0.00  0.00     0.032 H 
ATOM    100  H9  7LP d   1     -31.410  -1.765 -32.272  0.00  0.00     0.032 H 
BRANCH  98 101
ATOM    101  C7  7LP d   1     -29.674  -0.553 -32.694  0.00  0.00    -0.077 C 
ATOM    102  H5  7LP d   1     -30.168   0.384 -32.398  0.00  0.00     0.027 H 
ATOM    103  H6  7LP d   1     -28.995  -0.358 -33.537  0.00  0.00     0.027 H 
ATOM    104  H7  7LP d   1     -29.099  -0.949 -31.844  0.00  0.00     0.027 H 
ENDBRANCH  98 101
ENDBRANCH  95  98
ENDBRANCH  92  95
ENDBRANCH  89  92
ENDBRANCH  86  89
ENDBRANCH  83  86
ENDBRANCH  80  83
ENDBRANCH   1  79
TORSDOF 31
