REMARK  6 active torsions:
REMARK  status: ('A' for Active; 'I' for Inactive)
REMARK    1  A    between atoms: O0A_22  and  CAH_1 
REMARK    2  A    between atoms: C0D_15  and  C0E_16 
REMARK    3  A    between atoms: O0B_23  and  C0D_15 
REMARK    4  A    between atoms: C0E_16  and  N0H_20 
REMARK    5  A    between atoms: C04_29  and  O0A_22 
REMARK    6  A    between atoms: C05_30  and  O0B_23 
ROOT
ATOM      1  CAH 7N1 d   1     466.981 -15.828 124.552  0.00  0.00     0.090 A 
ATOM      2  CAI 7N1 d   1     467.611 -15.947 125.819  0.00  0.00     0.008 A 
ATOM      3  CAJ 7N1 d   1     467.531 -14.898 126.725  0.00  0.00    -0.019 A 
ATOM      4  CAK 7N1 d   1     466.824 -13.716 126.376  0.00  0.00    -0.035 A 
ATOM      5  CAL 7N1 d   1     466.208 -13.611 125.123  0.00  0.00     0.119 A 
ATOM      6  CAM 7N1 d   1     466.283 -14.662 124.210  0.00  0.00    -0.012 A 
ATOM      7  CAY 7N1 d   1     468.330 -17.159 126.165  0.00  0.00    -0.068 A 
ATOM      8  CAZ 7N1 d   1     468.928 -17.264 127.385  0.00  0.00    -0.062 A 
ATOM      9  CBA 7N1 d   1     468.858 -16.184 128.331  0.00  0.00     0.045 A 
ATOM     10  CBB 7N1 d   1     468.172 -15.017 128.011  0.00  0.00    -0.052 A 
ATOM     11  CBC 7N1 d   1     469.538 -16.331 129.679  0.00  0.00     0.099 C 
ATOM     12  NBD 7N1 d   1     470.068 -16.478 130.699  0.00  0.00    -0.191 NA
ATOM     13  F01 7N1 d   1     465.535 -12.494 124.785  0.00  0.00    -0.206 F 
ATOM     14  H1  7N1 d   1     466.761 -12.895 127.081  0.00  0.00     0.089 H 
ATOM     15  H2  7N1 d   1     465.804 -14.578 123.241  0.00  0.00     0.092 H 
ATOM     16  H3  7N1 d   1     468.391 -17.977 125.456  0.00  0.00     0.085 H 
ATOM     17  H4  7N1 d   1     469.462 -18.171 127.645  0.00  0.00     0.085 H 
ATOM     18  H5  7N1 d   1     468.120 -14.202 128.724  0.00  0.00     0.087 H 
ENDROOT
BRANCH   1  19
ATOM     19  O0A 7N1 d   1     467.072 -16.930 123.621  0.00  0.00    -0.307 OA
BRANCH  19  20
ATOM     20  C04 7N1 d   1     467.062 -16.682 122.274  0.00  0.00     0.109 A 
ATOM     21  C03 7N1 d   1     468.174 -16.056 121.651  0.00  0.00    -0.045 A 
ATOM     22  C02 7N1 d   1     468.146 -15.809 120.262  0.00  0.00    -0.043 A 
ATOM     23  H15 7N1 d   1     469.039 -15.770 122.239  0.00  0.00     0.088 H 
ATOM     24  C01 7N1 d   1     467.016 -16.185 119.502  0.00  0.00     0.119 A 
ATOM     25  H14 7N1 d   1     468.990 -15.331 119.779  0.00  0.00     0.088 H 
ATOM     26  C00 7N1 d   1     465.910 -16.806 120.119  0.00  0.00    -0.011 A 
ATOM     27  F02 7N1 d   1     467.006 -16.015 118.175  0.00  0.00    -0.206 F 
ATOM     28  C05 7N1 d   1     465.926 -17.059 121.520  0.00  0.00     0.105 A 
ATOM     29  H7  7N1 d   1     465.048 -17.091 119.527  0.00  0.00     0.092 H 
BRANCH  28  30
ATOM     30  O0B 7N1 d   1     464.919 -17.657 122.248  0.00  0.00    -0.347 OA
BRANCH  30  31
ATOM     31  C0D 7N1 d   1     463.808 -18.326 121.655  0.00  0.00     0.041 C 
ATOM     32  H8  7N1 d   1     463.089 -17.593 121.261  0.00  0.00     0.077 H 
ATOM     33  H9  7N1 d   1     464.149 -18.980 120.839  0.00  0.00     0.077 H 
BRANCH  31  34
ATOM     34  C0E 7N1 d   1     463.153 -19.169 122.780  0.00  0.00     0.024 C 
ATOM     35  H10 7N1 d   1     462.291 -19.705 122.356  0.00  0.00     0.068 H 
ATOM     36  H11 7N1 d   1     462.807 -18.486 123.570  0.00  0.00     0.068 H 
BRANCH  34  37
ATOM     37  N0H 7N1 d   1     464.072 -20.164 123.389  0.00  0.00    -0.308 N 
ATOM     38  C0P 7N1 d   1     464.652 -19.758 124.623  0.00  0.00    -0.011 A 
ATOM     39  C0O 7N1 d   1     465.512 -20.573 125.288  0.00  0.00    -0.002 A 
ATOM     40  H6  7N1 d   1     464.404 -18.783 125.039  0.00  0.00     0.112 H 
ATOM     41  C0N 7N1 d   1     465.844 -21.886 124.723  0.00  0.00     0.250 A 
ATOM     42  H12 7N1 d   1     465.951 -20.255 126.232  0.00  0.00     0.094 H 
ATOM     43  N0M 7N1 d   1     465.235 -22.171 123.542  0.00  0.00    -0.275 N 
ATOM     44  O0S 7N1 d   1     466.612 -22.683 125.257  0.00  0.00    -0.268 OA
ATOM     45  C0K 7N1 d   1     464.371 -21.393 122.838  0.00  0.00     0.329 A 
ATOM     46  H13 7N1 d   1     465.449 -23.062 123.142  0.00  0.00     0.173 HD
ATOM     47  O0Q 7N1 d   1     463.904 -21.799 121.777  0.00  0.00    -0.246 OA
ENDBRANCH  34  37
ENDBRANCH  31  34
ENDBRANCH  30  31
ENDBRANCH  28  30
ENDBRANCH  19  20
ENDBRANCH   1  19
TORSDOF 6
