REMARK WARNING: 32 MAX_TORS EXCEEDED!!!
REMARK  33 active torsions:
REMARK  status: ('A' for Active; 'I' for Inactive)
REMARK    1  A    between atoms: C5_1  and  C6_2 
REMARK    2  A    between atoms: C6_2  and  O6_20 
REMARK    3  A    between atoms: C2_3  and  O2_24 
REMARK    4  A    between atoms: C4_4  and  O4_21 
REMARK    5  A    between atoms: CAB_6  and  CAA_5 
REMARK    6  A    between atoms: CAC_7  and  CAB_6 
REMARK    7  A    between atoms: CAD_8  and  CAC_7 
REMARK    8  A    between atoms: CAE_9  and  CAD_8 
REMARK    9  A    between atoms: CAF_10  and  CAE_9 
REMARK   10  A    between atoms: CAG_11  and  CAF_10 
REMARK   11  A    between atoms: CAH_12  and  CAG_11 
REMARK       I    between atoms: NAJ_14  and  CAH_12 
REMARK   12  A    between atoms: CAK_15  and  NAJ_14 
REMARK   13  A    between atoms: CAL_16  and  CAK_15 
REMARK   14  A    between atoms: CAK_15  and  CAY_25 
REMARK   15  A    between atoms: O1_17  and  CAL_16 
REMARK   16  A    between atoms: O1_17  and  C1_18 
REMARK   17  A    between atoms: C3_22  and  O3_23 
REMARK   18  A    between atoms: CAY_25  and  OAZ_26 
REMARK   19  A    between atoms: CAY_25  and  CBA_27 
REMARK   20  A    between atoms: CBA_27  and  OBB_28 
REMARK   21  A    between atoms: CBA_27  and  CBC_29 
REMARK   22  A    between atoms: CBC_29  and  CBD_30 
REMARK   23  A    between atoms: CBD_30  and  CBE_31 
REMARK   24  A    between atoms: CBE_31  and  CBF_32 
REMARK   25  A    between atoms: CBF_32  and  CBG_33 
REMARK   26  A    between atoms: CBG_33  and  CBH_34 
REMARK   27  A    between atoms: CBH_34  and  CBI_35 
REMARK   28  A    between atoms: CBI_35  and  CBJ_36 
REMARK   29  A    between atoms: CBJ_36  and  CBK_37 
REMARK   30  A    between atoms: CBK_37  and  CBL_38 
REMARK   31  A    between atoms: CBL_38  and  CBM_39 
REMARK   32  A    between atoms: CBM_39  and  CBN_40 
REMARK   33  A    between atoms: CBN_40  and  CBO_41 
ROOT
ATOM      1  CAY 7LM d   1       2.509 -12.937 -31.585  0.00  0.00     0.081 C 
ATOM      2  H31 7LM d   1       3.281 -12.846 -32.363  0.00  0.00     0.090 H 
ENDROOT
BRANCH   1   3
ATOM      3  CAK 7LM d   1       1.151 -12.953 -32.279  0.00  0.00     0.060 C 
ATOM      4  H22 7LM d   1       0.330 -13.091 -31.561  0.00  0.00     0.080 H 
BRANCH   3   5
ATOM      5  NAJ 7LM d   1       1.005 -11.674 -32.973  0.00  0.00    -0.352 N 
ATOM      6  CAH 7LM d   1      -0.142 -11.021 -33.084  0.00  0.00     0.218 C 
ATOM      7  OAI 7LM d   1      -1.221 -11.398 -32.610  0.00  0.00    -0.274 OA
ATOM      8  H21 7LM d   1       1.819 -11.268 -33.388  0.00  0.00     0.163 HD
BRANCH   6   9
ATOM      9  CAG 7LM d   1       0.032  -9.743 -33.906  0.00  0.00     0.009 C 
ATOM     10  H19 7LM d   1       0.812  -9.135 -33.424  0.00  0.00     0.047 H 
ATOM     11  H20 7LM d   1       0.364 -10.033 -34.914  0.00  0.00     0.047 H 
BRANCH   9  12
ATOM     12  CAF 7LM d   1      -1.213  -8.874 -34.055  0.00  0.00    -0.057 C 
ATOM     13  H17 7LM d   1      -0.955  -7.992 -34.660  0.00  0.00     0.033 H 
ATOM     14  H18 7LM d   1      -1.989  -9.458 -34.571  0.00  0.00     0.033 H 
BRANCH  12  15
ATOM     15  CAE 7LM d   1      -1.767  -8.403 -32.725  0.00  0.00    -0.065 C 
ATOM     16  H15 7LM d   1      -2.740  -7.917 -32.892  0.00  0.00     0.033 H 
ATOM     17  H16 7LM d   1      -1.899  -9.271 -32.062  0.00  0.00     0.033 H 
BRANCH  15  18
ATOM     18  CAD 7LM d   1      -0.826  -7.416 -32.067  0.00  0.00    -0.065 C 
ATOM     19  H13 7LM d   1      -0.229  -7.924 -31.295  0.00  0.00     0.033 H 
ATOM     20  H14 7LM d   1      -0.155  -6.977 -32.820  0.00  0.00     0.033 H 
BRANCH  18  21
ATOM     21  CAC 7LM d   1      -1.676  -6.329 -31.433  0.00  0.00    -0.065 C 
ATOM     22  H11 7LM d   1      -1.753  -5.476 -32.123  0.00  0.00     0.033 H 
ATOM     23  H12 7LM d   1      -2.681  -6.725 -31.225  0.00  0.00     0.033 H 
BRANCH  21  24
ATOM     24  CAB 7LM d   1      -1.033  -5.872 -30.132  0.00  0.00    -0.069 C 
ATOM     25  H9  7LM d   1      -0.807  -6.742 -29.498  0.00  0.00     0.032 H 
ATOM     26  H10 7LM d   1      -0.105  -5.322 -30.344  0.00  0.00     0.032 H 
BRANCH  24  27
ATOM     27  CAA 7LM d   1      -2.032  -4.959 -29.428  0.00  0.00    -0.077 C 
ATOM     28  H6  7LM d   1      -1.601  -4.607 -28.479  0.00  0.00     0.027 H 
ATOM     29  H7  7LM d   1      -2.959  -5.516 -29.226  0.00  0.00     0.027 H 
ATOM     30  H8  7LM d   1      -2.256  -4.096 -30.072  0.00  0.00     0.027 H 
ENDBRANCH  24  27
ENDBRANCH  21  24
ENDBRANCH  18  21
ENDBRANCH  15  18
ENDBRANCH  12  15
ENDBRANCH   9  12
ENDBRANCH   6   9
ENDBRANCH   3   5
BRANCH   3  31
ATOM     31  CAL 7LM d   1       1.220 -14.119 -33.239  0.00  0.00     0.044 C 
ATOM     32  H23 7LM d   1       0.209 -14.449 -33.520  0.00  0.00     0.077 H 
ATOM     33  H24 7LM d   1       1.768 -14.959 -32.788  0.00  0.00     0.077 H 
BRANCH  31  34
ATOM     34  O1  7LM d   1       1.916 -13.619 -34.373  0.00  0.00    -0.356 OA
BRANCH  34  35
ATOM     35  C1  7LM d   1       2.092 -14.622 -35.414  0.00  0.00     0.158 C 
ATOM     36  C2  7LM d   1       3.314 -14.298 -36.239  0.00  0.00     0.110 C 
ATOM     37  C3  7LM d   1       3.160 -12.937 -36.948  0.00  0.00     0.092 C 
ATOM     38  H4  7LM d   1       3.446 -15.079 -37.002  0.00  0.00     0.094 H 
ATOM     39  C4  7LM d   1       1.855 -12.888 -37.745  0.00  0.00     0.090 C 
ATOM     40  H28 7LM d   1       3.154 -12.134 -36.196  0.00  0.00     0.091 H 
ATOM     41  C5  7LM d   1       0.712 -13.273 -36.814  0.00  0.00     0.089 C 
ATOM     42  H5  7LM d   1       1.692 -11.870 -38.130  0.00  0.00     0.091 H 
ATOM     43  O5  7LM d   1       0.951 -14.615 -36.260  0.00  0.00    -0.348 OA
ATOM     44  H1  7LM d   1       0.718 -12.571 -35.967  0.00  0.00     0.090 H 
ATOM     45  H25 7LM d   1       2.209 -15.614 -34.954  0.00  0.00     0.133 H 
BRANCH  36  46
ATOM     46  O2  7LM d   1       4.459 -14.284 -35.382  0.00  0.00    -0.388 OA
ATOM     47  H30 7LM d   1       4.355 -13.603 -34.728  0.00  0.00     0.210 HD
ENDBRANCH  36  46
BRANCH  37  48
ATOM     48  O3  7LM d   1       4.266 -12.752 -37.836  0.00  0.00    -0.390 OA
ATOM     49  H29 7LM d   1       4.266 -13.443 -38.488  0.00  0.00     0.210 HD
ENDBRANCH  37  48
BRANCH  39  50
ATOM     50  O4  7LM d   1       1.931 -13.813 -38.852  0.00  0.00    -0.390 OA
ATOM     51  H27 7LM d   1       2.647 -13.562 -39.424  0.00  0.00     0.210 HD
ENDBRANCH  39  50
BRANCH  41  52
ATOM     52  C6  7LM d   1      -0.605 -13.106 -37.505  0.00  0.00     0.043 C 
ATOM     53  H2  7LM d   1      -0.452 -13.099 -38.594  0.00  0.00     0.078 H 
ATOM     54  H3  7LM d   1      -1.067 -12.158 -37.194  0.00  0.00     0.078 H 
BRANCH  52  55
ATOM     55  O6  7LM d   1      -1.463 -14.200 -37.147  0.00  0.00    -0.398 OA
ATOM     56  H26 7LM d   1      -1.061 -15.018 -37.416  0.00  0.00     0.209 HD
ENDBRANCH  52  55
ENDBRANCH  41  52
ENDBRANCH  34  35
ENDBRANCH  31  34
ENDBRANCH   3  31
ENDBRANCH   1   3
BRANCH   1  57
ATOM     57  OAZ 7LM d   1       2.699 -14.176 -30.901  0.00  0.00    -0.391 OA
ATOM     58  H32 7LM d   1       3.544 -14.171 -30.467  0.00  0.00     0.210 HD
ENDBRANCH   1  57
BRANCH   1  59
ATOM     59  CBA 7LM d   1       2.695 -11.768 -30.612  0.00  0.00     0.062 C 
ATOM     60  H33 7LM d   1       2.756 -10.813 -31.154  0.00  0.00     0.086 H 
BRANCH  59  61
ATOM     61  OBB 7LM d   1       3.929 -12.058 -29.970  0.00  0.00    -0.393 OA
ATOM     62  H34 7LM d   1       3.863 -12.893 -29.522  0.00  0.00     0.210 HD
ENDBRANCH  59  61
BRANCH  59  63
ATOM     63  CBC 7LM d   1       1.548 -11.709 -29.623  0.00  0.00    -0.039 C 
ATOM     64  H35 7LM d   1       1.296 -12.730 -29.300  0.00  0.00     0.036 H 
ATOM     65  H36 7LM d   1       0.674 -11.252 -30.110  0.00  0.00     0.036 H 
BRANCH  63  66
ATOM     66  CBD 7LM d   1       1.933 -10.883 -28.411  0.00  0.00    -0.063 C 
ATOM     67  H37 7LM d   1       2.760 -11.375 -27.878  0.00  0.00     0.033 H 
ATOM     68  H38 7LM d   1       1.067 -10.790 -27.739  0.00  0.00     0.033 H 
BRANCH  66  69
ATOM     69  CBE 7LM d   1       2.381  -9.475 -28.876  0.00  0.00    -0.065 C 
ATOM     70  H39 7LM d   1       1.841  -9.194 -29.792  0.00  0.00     0.033 H 
ATOM     71  H40 7LM d   1       3.463  -9.473 -29.073  0.00  0.00     0.033 H 
BRANCH  69  72
ATOM     72  CBF 7LM d   1       2.053  -8.480 -27.749  0.00  0.00    -0.065 C 
ATOM     73  H41 7LM d   1       1.555  -9.008 -26.922  0.00  0.00     0.033 H 
ATOM     74  H42 7LM d   1       1.389  -7.691 -28.133  0.00  0.00     0.033 H 
BRANCH  72  75
ATOM     75  CBG 7LM d   1       3.357  -7.858 -27.251  0.00  0.00    -0.065 C 
ATOM     76  H43 7LM d   1       3.651  -7.001 -27.875  0.00  0.00     0.033 H 
ATOM     77  H44 7LM d   1       4.170  -8.599 -27.238  0.00  0.00     0.033 H 
BRANCH  75  78
ATOM     78  CBH 7LM d   1       2.998  -7.412 -25.841  0.00  0.00    -0.065 C 
ATOM     79  H45 7LM d   1       2.679  -8.275 -25.239  0.00  0.00     0.033 H 
ATOM     80  H46 7LM d   1       2.188  -6.668 -25.872  0.00  0.00     0.033 H 
BRANCH  78  81
ATOM     81  CBI 7LM d   1       4.263  -6.792 -25.248  0.00  0.00    -0.065 C 
ATOM     82  H47 7LM d   1       4.186  -5.697 -25.180  0.00  0.00     0.033 H 
ATOM     83  H48 7LM d   1       5.159  -7.061 -25.827  0.00  0.00     0.033 H 
BRANCH  81  84
ATOM     84  CBJ 7LM d   1       4.265  -7.431 -23.899  0.00  0.00    -0.065 C 
ATOM     85  H49 7LM d   1       4.351  -8.523 -24.001  0.00  0.00     0.033 H 
ATOM     86  H50 7LM d   1       3.336  -7.184 -23.365  0.00  0.00     0.033 H 
BRANCH  84  87
ATOM     87  CBK 7LM d   1       5.454  -6.889 -23.142  0.00  0.00    -0.065 C 
ATOM     88  H51 7LM d   1       5.489  -5.790 -23.180  0.00  0.00     0.033 H 
ATOM     89  H52 7LM d   1       6.399  -7.300 -23.528  0.00  0.00     0.033 H 
BRANCH  87  90
ATOM     90  CBL 7LM d   1       5.162  -7.390 -21.732  0.00  0.00    -0.065 C 
ATOM     91  H53 7LM d   1       5.069  -8.486 -21.724  0.00  0.00     0.033 H 
ATOM     92  H54 7LM d   1       4.235  -6.940 -21.347  0.00  0.00     0.033 H 
BRANCH  90  93
ATOM     93  CBM 7LM d   1       6.354  -6.950 -20.897  0.00  0.00    -0.061 C 
ATOM     94  H55 7LM d   1       6.302  -5.865 -20.720  0.00  0.00     0.033 H 
ATOM     95  H56 7LM d   1       7.287  -7.191 -21.428  0.00  0.00     0.033 H 
BRANCH  93  96
ATOM     96  CBN 7LM d   1       6.316  -7.689 -19.565  0.00  0.00    -0.041 C 
ATOM     97  H57 7LM d   1       5.302  -7.596 -19.148  0.00  0.00     0.040 H 
ATOM     98  H58 7LM d   1       7.037  -7.211 -18.885  0.00  0.00     0.040 H 
BRANCH  96  99
ATOM     99  CBO 7LM d   1       6.640  -9.087 -19.655  0.00  0.00    -0.058 A 
ATOM    100  CBP 7LM d   1       6.258  -9.900 -18.586  0.00  0.00    -0.077 A 
ATOM    101  CBQ 7LM d   1       6.527 -11.268 -18.577  0.00  0.00    -0.082 A 
ATOM    102  H59 7LM d   1       5.740  -9.457 -17.743  0.00  0.00     0.084 H 
ATOM    103  CBR 7LM d   1       7.209 -11.858 -19.644  0.00  0.00    -0.083 A 
ATOM    104  H60 7LM d   1       6.206 -11.876 -17.739  0.00  0.00     0.083 H 
ATOM    105  CBS 7LM d   1       7.609 -11.068 -20.717  0.00  0.00    -0.082 A 
ATOM    106  H61 7LM d   1       7.424 -12.920 -19.636  0.00  0.00     0.083 H 
ATOM    107  CBT 7LM d   1       7.334  -9.699 -20.725  0.00  0.00    -0.077 A 
ATOM    108  H62 7LM d   1       8.136 -11.517 -21.551  0.00  0.00     0.083 H 
ATOM    109  H63 7LM d   1       7.658  -9.095 -21.565  0.00  0.00     0.084 H 
ENDBRANCH  96  99
ENDBRANCH  93  96
ENDBRANCH  90  93
ENDBRANCH  87  90
ENDBRANCH  84  87
ENDBRANCH  81  84
ENDBRANCH  78  81
ENDBRANCH  75  78
ENDBRANCH  72  75
ENDBRANCH  69  72
ENDBRANCH  66  69
ENDBRANCH  63  66
ENDBRANCH  59  63
ENDBRANCH   1  59
TORSDOF 33
