REMARK  27 active torsions:
REMARK  status: ('A' for Active; 'I' for Inactive)
REMARK    1  A    between atoms: N_1  and  CA_2 
REMARK    2  A    between atoms: CA_2  and  CB_3 
REMARK    3  A    between atoms: CA_2  and  C_10 
REMARK    4  A    between atoms: CB_3  and  CG2_4 
REMARK    5  A    between atoms: CB_3  and  OG1_5 
REMARK    6  A    between atoms: OG1_5  and  P_6 
REMARK       I    between atoms: C_10  and  N_12 
REMARK    7  A    between atoms: N_12  and  CA_13 
REMARK    8  A    between atoms: CA_13  and  C_14 
REMARK    9  A    between atoms: CA_13  and  CB_16 
REMARK       I    between atoms: C_14  and  N_20 
REMARK   10  A    between atoms: CB_16  and  CG_17 
REMARK   11  A    between atoms: CG_17  and  SD_18 
REMARK   12  A    between atoms: SD_18  and  CE_19 
REMARK   13  A    between atoms: N_20  and  CA_21 
REMARK   14  A    between atoms: CA_21  and  C_22 
REMARK   15  A    between atoms: CA_21  and  CB_24 
REMARK       I    between atoms: C_22  and  N_27 
REMARK   16  A    between atoms: CB_24  and  CG1_25 
REMARK   17  A    between atoms: CB_24  and  CG2_26 
REMARK   18  A    between atoms: N_27  and  CA_28 
REMARK   19  A    between atoms: CA_28  and  C_29 
REMARK   20  A    between atoms: CA_28  and  CB_31 
REMARK       I    between atoms: C_29  and  N_35 
REMARK   21  A    between atoms: CB_31  and  CG1_32 
REMARK   22  A    between atoms: CB_31  and  CG2_33 
REMARK   23  A    between atoms: CG1_32  and  CD1_34 
REMARK   24  A    between atoms: N_35  and  CA_36 
REMARK   25  A    between atoms: CA_36  and  C_37 
REMARK   26  A    between atoms: CA_36  and  CB_38 
REMARK   27  A    between atoms: CB_38  and  CG_39 
REMARK       I    between atoms: CG_39  and  ND2_41 
ROOT
ATOM      1  CA  VAL d   1      -1.607  15.223  42.704  0.00  0.00     0.092 C 
ATOM      2  H19 VAL d   1      -1.714  14.841  43.730  0.00  0.00     0.088 H 
ENDROOT
BRANCH   1   3
ATOM      3  N   VAL d   1      -1.081  16.582  42.763  0.00  0.00    -0.346 N 
ATOM      4  C   MET d   1      -0.729  17.189  43.896  0.00  0.00     0.241 C 
ATOM      5  O   MET d   1      -0.707  16.620  44.987  0.00  0.00    -0.271 OA
ATOM      6  H18 VAL d   1      -0.979  17.086  41.906  0.00  0.00     0.163 HD
BRANCH   4   7
ATOM      7  CA  MET d   1      -0.336  18.659  43.779  0.00  0.00     0.090 C 
ATOM      8  H10 MET d   1      -0.345  18.934  42.714  0.00  0.00     0.087 H 
BRANCH   7   9
ATOM      9  N   MET d   1      -1.290  19.509  44.480  0.00  0.00    -0.346 N 
ATOM     10  C   TPO d   1      -1.759  20.622  43.926  0.00  0.00     0.251 C 
ATOM     11  O   TPO d   1      -1.428  20.997  42.802  0.00  0.00    -0.271 OA
ATOM     12  H9  MET d   1      -1.597  19.250  45.395  0.00  0.00     0.163 HD
BRANCH  10  13
ATOM     13  CA  TPO d   1      -2.757  21.429  44.754  0.00  0.00     0.200 C 
ATOM     14  H4  TPO d   1      -3.493  21.860  44.059  0.00  0.00     0.103 H 
BRANCH  13  15
ATOM     15  N   TPO d   1      -3.483  20.595  45.706  0.00  0.00    -0.064 N 
ATOM     16  H1  TPO d   1      -4.128  21.166  46.229  0.00  0.00     0.275 HD
ATOM     17  H2  TPO d   1      -2.830  20.161  46.339  0.00  0.00     0.275 HD
ATOM     18  H3  TPO d   1      -3.993  19.882  45.208  0.00  0.00     0.275 HD
ENDBRANCH  13  15
BRANCH  13  19
ATOM     19  CB  TPO d   1      -2.060  22.583  45.473  0.00  0.00     0.084 C 
ATOM     20  H5  TPO d   1      -1.550  23.221  44.736  0.00  0.00     0.087 H 
BRANCH  19  21
ATOM     21  CG2 TPO d   1      -3.116  23.402  46.215  0.00  0.00    -0.049 C 
ATOM     22  H6  TPO d   1      -2.630  24.238  46.739  0.00  0.00     0.031 H 
ATOM     23  H7  TPO d   1      -3.631  22.761  46.946  0.00  0.00     0.031 H 
ATOM     24  H8  TPO d   1      -3.847  23.796  45.494  0.00  0.00     0.031 H 
ENDBRANCH  19  21
BRANCH  19  25
ATOM     25  OG1 TPO d   1      -1.098  22.075  46.401  0.00  0.00    -0.275 OA
BRANCH  25  26
ATOM     26  P   TPO d   1      -0.094  23.278  46.783  0.00  0.00     0.422 P 
ATOM     27  O1P TPO d   1       1.260  22.726  47.020  0.00  0.00    -0.617 OA
ATOM     28  O2P TPO d   1      -0.045  24.355  45.585  0.00  0.00    -0.617 OA
ATOM     29  O3P TPO d   1      -0.602  24.002  48.129  0.00  0.00    -0.617 OA
ENDBRANCH  25  26
ENDBRANCH  19  25
ENDBRANCH  13  19
ENDBRANCH  10  13
ENDBRANCH   7   9
BRANCH   7  30
ATOM     30  CB  MET d   1       1.075  18.886  44.324  0.00  0.00    -0.030 C 
ATOM     31  H11 MET d   1       1.079  18.620  45.391  0.00  0.00     0.037 H 
ATOM     32  H12 MET d   1       1.320  19.952  44.211  0.00  0.00     0.037 H 
BRANCH  30  33
ATOM     33  CG  MET d   1       2.151  18.075  43.628  0.00  0.00    -0.021 C 
ATOM     34  H13 MET d   1       1.989  18.129  42.541  0.00  0.00     0.049 H 
ATOM     35  H14 MET d   1       2.077  17.029  43.959  0.00  0.00     0.049 H 
BRANCH  33  36
ATOM     36  SD  MET d   1       3.805  18.687  44.001  0.00  0.00    -0.173 SA
BRANCH  36  37
ATOM     37  CE  MET d   1       4.813  17.342  43.383  0.00  0.00    -0.035 C 
ATOM     38  H15 MET d   1       5.876  17.576  43.544  0.00  0.00     0.041 H 
ATOM     39  H16 MET d   1       4.626  17.208  42.307  0.00  0.00     0.041 H 
ATOM     40  H17 MET d   1       4.556  16.416  43.918  0.00  0.00     0.041 H 
ENDBRANCH  36  37
ENDBRANCH  33  36
ENDBRANCH  30  33
ENDBRANCH   7  30
ENDBRANCH   4   7
ENDBRANCH   1   3
BRANCH   1  41
ATOM     41  C   VAL d   1      -0.617  14.340  41.956  0.00  0.00     0.241 C 
ATOM     42  O   VAL d   1      -0.003  14.772  40.974  0.00  0.00    -0.271 OA
ATOM     43  N   ILE d   1      -0.456  13.103  42.425  0.00  0.00    -0.346 N 
ATOM     44  H27 ILE d   1      -1.052  12.791  43.164  0.00  0.00     0.163 HD
BRANCH  43  45
ATOM     45  CA  ILE d   1       0.552  12.185  41.907  0.00  0.00     0.092 C 
ATOM     46  H28 ILE d   1       1.016  12.641  41.020  0.00  0.00     0.088 H 
BRANCH  45  47
ATOM     47  C   ILE d   1      -0.114  10.880  41.491  0.00  0.00     0.241 C 
ATOM     48  O   ILE d   1      -1.021  10.388  42.173  0.00  0.00    -0.271 OA
ATOM     49  N   ASN d   1       0.336  10.324  40.368  0.00  0.00    -0.355 N 
ATOM     50  H38 ASN d   1       1.016  10.818  39.827  0.00  0.00     0.162 HD
BRANCH  49  51
ATOM     51  CA  ASN d   1      -0.125   9.022  39.896  0.00  0.00     0.017 C 
ATOM     52  H39 ASN d   1      -1.112   8.824  40.339  0.00  0.00     0.072 H 
BRANCH  51  53
ATOM     53  C   ASN d   1       0.830   7.915  40.331  0.00  0.00    -0.057 C 
ATOM     54  H40 ASN d   1       0.460   6.946  39.963  0.00  0.00     0.030 H 
ATOM     55  H41 ASN d   1       0.889   7.892  41.429  0.00  0.00     0.030 H 
ATOM     56  H42 ASN d   1       1.829   8.108  39.914  0.00  0.00     0.030 H 
ENDBRANCH  51  53
BRANCH  51  57
ATOM     57  CB  ASN d   1      -0.268   9.020  38.374  0.00  0.00     0.027 C 
ATOM     58  H43 ASN d   1      -0.445   7.988  38.038  0.00  0.00     0.050 H 
ATOM     59  H44 ASN d   1       0.667   9.395  37.932  0.00  0.00     0.050 H 
BRANCH  57  60
ATOM     60  CG  ASN d   1      -1.414   9.889  37.896  0.00  0.00     0.217 C 
ATOM     61  OD1 ASN d   1      -2.508   9.396  37.622  0.00  0.00    -0.274 OA
ATOM     62  ND2 ASN d   1      -1.169  11.190  37.795  0.00  0.00    -0.370 N 
ATOM     63  H45 ASN d   1      -1.888  11.812  37.485  0.00  0.00     0.159 HD
ATOM     64  H46 ASN d   1      -0.265  11.548  38.029  0.00  0.00     0.159 HD
ENDBRANCH  57  60
ENDBRANCH  51  57
ENDBRANCH  49  51
ENDBRANCH  45  47
BRANCH  45  65
ATOM     65  CB  ILE d   1       1.660  11.920  42.950  0.00  0.00    -0.030 C 
ATOM     66  H29 ILE d   1       1.204  11.437  43.826  0.00  0.00     0.043 H 
BRANCH  65  67
ATOM     67  CG1 ILE d   1       2.294  13.238  43.397  0.00  0.00    -0.063 C 
ATOM     68  H30 ILE d   1       1.494  13.909  43.744  0.00  0.00     0.033 H 
ATOM     69  H31 ILE d   1       2.803  13.690  42.533  0.00  0.00     0.033 H 
BRANCH  67  70
ATOM     70  CD1 ILE d   1       3.299  13.078  44.512  0.00  0.00    -0.076 C 
ATOM     71  H35 ILE d   1       3.711  14.063  44.779  0.00  0.00     0.027 H 
ATOM     72  H36 ILE d   1       4.114  12.418  44.179  0.00  0.00     0.027 H 
ATOM     73  H37 ILE d   1       2.805  12.637  45.390  0.00  0.00     0.027 H 
ENDBRANCH  67  70
ENDBRANCH  65  67
BRANCH  65  74
ATOM     74  CG2 ILE d   1       2.721  10.990  42.388  0.00  0.00    -0.071 C 
ATOM     75  H32 ILE d   1       2.251  10.047  42.071  0.00  0.00     0.028 H 
ATOM     76  H33 ILE d   1       3.474  10.782  43.163  0.00  0.00     0.028 H 
ATOM     77  H34 ILE d   1       3.206  11.467  41.524  0.00  0.00     0.028 H 
ENDBRANCH  65  74
ENDBRANCH  45  65
ENDBRANCH  43  45
ENDBRANCH   1  41
BRANCH   1  78
ATOM     78  CB  VAL d   1      -2.997  15.199  42.032  0.00  0.00    -0.033 C 
ATOM     79  H20 VAL d   1      -2.909  15.657  41.036  0.00  0.00     0.042 H 
BRANCH  78  80
ATOM     80  CG1 VAL d   1      -3.497  13.780  41.863  0.00  0.00    -0.071 C 
ATOM     81  H21 VAL d   1      -4.487  13.795  41.383  0.00  0.00     0.028 H 
ATOM     82  H22 VAL d   1      -3.575  13.299  42.849  0.00  0.00     0.028 H 
ATOM     83  H23 VAL d   1      -2.793  13.216  41.234  0.00  0.00     0.028 H 
ENDBRANCH  78  80
BRANCH  78  84
ATOM     84  CG2 VAL d   1      -3.986  16.004  42.847  0.00  0.00    -0.071 C 
ATOM     85  H24 VAL d   1      -3.614  17.032  42.964  0.00  0.00     0.028 H 
ATOM     86  H25 VAL d   1      -4.106  15.543  43.838  0.00  0.00     0.028 H 
ATOM     87  H26 VAL d   1      -4.957  16.022  42.331  0.00  0.00     0.028 H 
ENDBRANCH  78  84
ENDBRANCH   1  78
TORSDOF 27
