REMARK  7 active torsions:
REMARK  status: ('A' for Active; 'I' for Inactive)
REMARK    1  A    between atoms: N_1  and  C_2 
REMARK    2  A    between atoms: N_1  and  C1_4 
REMARK    3  A    between atoms: C2_15  and  N_1 
REMARK    4  A    between atoms: C16_11  and  C20_16 
REMARK    5  A    between atoms: C3_22  and  C2_15 
REMARK    6  A    between atoms: C23_19  and  O1_32 
REMARK    7  A    between atoms: N1_29  and  C6_25 
ROOT
ATOM      1  O   H91 d   1      -3.346  14.075  -2.153  0.00  0.00    -0.247 OA
ATOM      2  C10 H91 d   1      -1.556  11.474  -0.448  0.00  0.00     0.024 C 
ATOM      3  C11 H91 d   1      -2.473  10.397  -0.939  0.00  0.00     0.005 A 
ATOM      4  C12 H91 d   1      -2.537   9.190  -0.195  0.00  0.00     0.013 A 
ATOM      5  C13 H91 d   1      -4.067   8.299  -1.666  0.00  0.00     0.069 A 
ATOM      6  C14 H91 d   1      -4.864   7.157  -1.989  0.00  0.00    -0.053 A 
ATOM      7  C15 H91 d   1      -5.667   7.154  -3.093  0.00  0.00    -0.070 A 
ATOM      8  C16 H91 d   1      -5.696   8.303  -3.910  0.00  0.00    -0.025 A 
ATOM      9  C17 H91 d   1      -4.942   9.396  -3.607  0.00  0.00    -0.058 A 
ATOM     10  C18 H91 d   1      -4.089   9.456  -2.483  0.00  0.00     0.021 A 
ATOM     11  C19 H91 d   1      -3.237  10.567  -2.092  0.00  0.00     0.061 A 
ATOM     12  C9  H91 d   1      -2.881  12.965  -1.906  0.00  0.00     0.323 C 
ATOM     13  N1  H91 d   1      -3.070  11.818  -2.753  0.00  0.00    -0.294 N 
ATOM     14  N2  H91 d   1      -2.125  12.781  -0.757  0.00  0.00    -0.338 N 
ATOM     15  N3  H91 d   1      -3.295   8.161  -0.522  0.00  0.00    -0.260 NA
ATOM     16  H8  H91 d   1      -0.578  11.375  -0.941  0.00  0.00     0.071 H 
ATOM     17  H9  H91 d   1      -1.429  11.378   0.640  0.00  0.00     0.071 H 
ATOM     18  H10 H91 d   1      -1.926   9.109   0.697  0.00  0.00     0.115 H 
ATOM     19  H11 H91 d   1      -4.830   6.282  -1.349  0.00  0.00     0.087 H 
ATOM     20  H12 H91 d   1      -6.270   6.287  -3.337  0.00  0.00     0.084 H 
ATOM     21  H13 H91 d   1      -4.999  10.260  -4.259  0.00  0.00     0.086 H 
ATOM     22  H28 H91 d   1      -1.969  13.550  -0.137  0.00  0.00     0.164 HD
ENDROOT
BRANCH  13  23
ATOM     23  C6  H91 d   1      -3.037  12.032  -4.237  0.00  0.00     0.021 C 
ATOM     24  C5  H91 d   1      -4.237  12.826  -4.815  0.00  0.00    -0.045 C 
ATOM     25  C4  H91 d   1      -4.145  12.805  -6.353  0.00  0.00    -0.058 C 
ATOM     26  H21 H91 d   1      -5.180  12.359  -4.494  0.00  0.00     0.036 H 
ATOM     27  H22 H91 d   1      -4.201  13.865  -4.456  0.00  0.00     0.036 H 
ATOM     28  C3  H91 d   1      -2.809  13.387  -6.824  0.00  0.00    -0.031 C 
ATOM     29  H19 H91 d   1      -4.231  11.767  -6.706  0.00  0.00     0.033 H 
ATOM     30  H20 H91 d   1      -4.967  13.404  -6.772  0.00  0.00     0.033 H 
ATOM     31  C8  H91 d   1      -1.640  12.615  -6.199  0.00  0.00    -0.058 C 
ATOM     32  H18 H91 d   1      -2.757  14.443  -6.520  0.00  0.00     0.042 H 
ATOM     33  C7  H91 d   1      -1.725  12.706  -4.677  0.00  0.00    -0.045 C 
ATOM     34  H26 H91 d   1      -0.689  13.051  -6.540  0.00  0.00     0.033 H 
ATOM     35  H27 H91 d   1      -1.691  11.560  -6.506  0.00  0.00     0.033 H 
ATOM     36  H24 H91 d   1      -0.868  12.188  -4.223  0.00  0.00     0.036 H 
ATOM     37  H25 H91 d   1      -1.723  13.761  -4.365  0.00  0.00     0.036 H 
ATOM     38  H23 H91 d   1      -3.067  11.033  -4.695  0.00  0.00     0.073 H 
BRANCH  28  39
ATOM     39  C2  H91 d   1      -2.658  13.288  -8.363  0.00  0.00     0.086 C 
ATOM     40  H14 H91 d   1      -1.678  13.690  -8.661  0.00  0.00     0.076 H 
ATOM     41  H15 H91 d   1      -2.732  12.235  -8.671  0.00  0.00     0.076 H 
BRANCH  39  42
ATOM     42  N   H91 d   1      -3.742  14.077  -9.026  0.00  0.00    -0.078 N 
ATOM     43  H1  H91 d   1      -4.624  13.834  -8.603  0.00  0.00     0.278 HD
BRANCH  42  44
ATOM     44  C   H91 d   1      -3.514  15.539  -8.858  0.00  0.00     0.066 C 
ATOM     45  H2  H91 d   1      -4.323  16.096  -9.354  0.00  0.00     0.068 H 
ATOM     46  H3  H91 d   1      -2.550  15.814  -9.310  0.00  0.00     0.068 H 
ATOM     47  H4  H91 d   1      -3.501  15.787  -7.787  0.00  0.00     0.068 H 
ENDBRANCH  42  44
BRANCH  42  48
ATOM     48  C1  H91 d   1      -3.793  13.748 -10.478  0.00  0.00     0.066 C 
ATOM     49  H5  H91 d   1      -3.961  12.668 -10.604  0.00  0.00     0.068 H 
ATOM     50  H6  H91 d   1      -2.840  14.028 -10.951  0.00  0.00     0.068 H 
ATOM     51  H7  H91 d   1      -4.615  14.305 -10.951  0.00  0.00     0.068 H 
ENDBRANCH  42  48
ENDBRANCH  39  42
ENDBRANCH  28  39
ENDBRANCH  13  23
BRANCH   8  52
ATOM     52  C20 H91 d   1      -6.518   8.364  -5.113  0.00  0.00    -0.022 A 
ATOM     53  C21 H91 d   1      -6.891   9.634  -5.563  0.00  0.00    -0.048 A 
ATOM     54  C22 H91 d   1      -7.654   9.756  -6.705  0.00  0.00     0.069 A 
ATOM     55  H16 H91 d   1      -6.582  10.518  -5.017  0.00  0.00     0.087 H 
ATOM     56  C23 H91 d   1      -8.066   8.626  -7.418  0.00  0.00     0.109 A 
ATOM     57 CL   H91 d   1      -8.085  11.307  -7.247  0.00  0.00    -0.081 Cl
ATOM     58  C24 H91 d   1      -7.676   7.371  -6.947  0.00  0.00     0.069 A 
ATOM     59  C25 H91 d   1      -6.907   7.224  -5.802  0.00  0.00    -0.048 A 
ATOM     60 CL1  H91 d   1      -8.159   5.972  -7.819  0.00  0.00    -0.081 Cl
ATOM     61  H17 H91 d   1      -6.616   6.240  -5.453  0.00  0.00     0.087 H 
BRANCH  56  62
ATOM     62  O1  H91 d   1      -8.821   8.843  -8.510  0.00  0.00    -0.357 OA
ATOM     63  H29 H91 d   1      -9.663   8.417  -8.401  0.00  0.00     0.217 HD
ENDBRANCH  56  62
ENDBRANCH   8  52
TORSDOF 7
