REMARK  5 active torsions:
REMARK  status: ('A' for Active; 'I' for Inactive)
REMARK    1  A    between atoms: C4_1  and  C1_4 
REMARK    2  A    between atoms: N1_27  and  C4_1 
REMARK    3  A    between atoms: C19_7  and  C20_9 
REMARK    4  A    between atoms: N2_28  and  C19_7 
REMARK    5  A    between atoms: C10_19  and  C9_18 
REMARK       I    between atoms: C9_18  and  N1_27 
ROOT
ATOM      1  C18 7MV d   1     -25.687 -16.682   8.683  0.00  0.00    -0.019 A 
ATOM      2  C17 7MV d   1     -24.541 -16.633   9.493  0.00  0.00    -0.056 A 
ATOM      3  C16 7MV d   1     -26.403 -19.351  11.025  0.00  0.00    -0.055 A 
ATOM      4  C10 7MV d   1     -24.406 -19.201  12.372  0.00  0.00     0.033 A 
ATOM      5  C11 7MV d   1     -25.635 -19.802  12.094  0.00  0.00    -0.066 A 
ATOM      6  C12 7MV d   1     -23.930 -18.126  11.575  0.00  0.00    -0.056 A 
ATOM      7  C13 7MV d   1     -24.711 -17.672  10.487  0.00  0.00    -0.007 A 
ATOM      8  C14 7MV d   1     -25.924 -18.262  10.208  0.00  0.00     0.044 A 
ATOM      9  N2  7MV d   1     -26.476 -17.637   9.115  0.00  0.00    -0.352 N 
ATOM     10  H9  7MV d   1     -25.888 -16.032   7.833  0.00  0.00     0.111 H 
ATOM     11  H12 7MV d   1     -23.697 -15.952   9.394  0.00  0.00     0.086 H 
ATOM     12  H13 7MV d   1     -27.358 -19.816  10.807  0.00  0.00     0.087 H 
ATOM     13  H16 7MV d   1     -25.991 -20.619  12.711  0.00  0.00     0.085 H 
ATOM     14  H17 7MV d   1     -22.978 -17.658  11.798  0.00  0.00     0.086 H 
ENDROOT
BRANCH   4  15
ATOM     15  C9  7MV d   1     -23.535 -19.707  13.582  0.00  0.00     0.251 C 
ATOM     16  O   7MV d   1     -24.097 -20.158  14.556  0.00  0.00    -0.268 OA
ATOM     17  N1  7MV d   1     -22.102 -19.643  13.517  0.00  0.00    -0.353 N 
ATOM     18  H18 7MV d   1     -21.660 -19.023  12.869  0.00  0.00     0.163 HD
BRANCH  17  19
ATOM     19  C4  7MV d   1     -21.315 -20.453  14.366  0.00  0.00     0.019 C 
ATOM     20  H1  7MV d   1     -20.394 -19.905  14.614  0.00  0.00     0.071 H 
ATOM     21  H2  7MV d   1     -21.885 -20.648  15.286  0.00  0.00     0.071 H 
BRANCH  19  22
ATOM     22  C1  7MV d   1     -20.929 -21.784  13.749  0.00  0.00    -0.041 A 
ATOM     23  C3  7MV d   1     -21.859 -22.549  13.011  0.00  0.00    -0.075 A 
ATOM     24  C5  7MV d   1     -21.482 -23.764  12.466  0.00  0.00    -0.082 A 
ATOM     25  H5  7MV d   1     -22.870 -22.184  12.871  0.00  0.00     0.084 H 
ATOM     26  C6  7MV d   1     -20.182 -24.234  12.641  0.00  0.00    -0.083 A 
ATOM     27  H3  7MV d   1     -22.199 -24.351  11.902  0.00  0.00     0.083 H 
ATOM     28  C7  7MV d   1     -19.252 -23.476  13.381  0.00  0.00    -0.082 A 
ATOM     29  H4  7MV d   1     -19.886 -25.183  12.208  0.00  0.00     0.083 H 
ATOM     30  C2  7MV d   1     -19.631 -22.267  13.926  0.00  0.00    -0.075 A 
ATOM     31  H14 7MV d   1     -18.241 -23.842  13.521  0.00  0.00     0.083 H 
ATOM     32  H6  7MV d   1     -18.915 -21.687  14.497  0.00  0.00     0.084 H 
ENDBRANCH  19  22
ENDBRANCH  17  19
ENDBRANCH   4  15
BRANCH   9  33
ATOM     33  C19 7MV d   1     -27.717 -17.958   8.529  0.00  0.00     0.023 C 
ATOM     34  H7  7MV d   1     -28.446 -18.173   9.324  0.00  0.00     0.072 H 
ATOM     35  H8  7MV d   1     -28.066 -17.102   7.933  0.00  0.00     0.072 H 
BRANCH  33  36
ATOM     36  C20 7MV d   1     -27.595 -19.152   7.643  0.00  0.00    -0.037 A 
ATOM     37  C21 7MV d   1     -26.468 -19.304   6.810  0.00  0.00    -0.036 A 
ATOM     38  C23 7MV d   1     -26.369 -20.412   5.992  0.00  0.00     0.138 A 
ATOM     39  H10 7MV d   1     -25.684 -18.556   6.812  0.00  0.00     0.089 H 
ATOM     40  C15 7MV d   1     -27.396 -21.385   5.981  0.00  0.00     0.072 A 
ATOM     41  F   7MV d   1     -25.332 -20.576   5.214  0.00  0.00    -0.204 F 
ATOM     42  C8  7MV d   1     -28.528 -21.233   6.806  0.00  0.00    -0.058 A 
ATOM     43 CL   7MV d   1     -27.223 -22.804   4.899  0.00  0.00    -0.081 Cl
ATOM     44  C22 7MV d   1     -28.626 -20.131   7.623  0.00  0.00    -0.073 A 
ATOM     45  H15 7MV d   1     -29.315 -21.978   6.797  0.00  0.00     0.086 H 
ATOM     46  H11 7MV d   1     -29.497 -20.008   8.257  0.00  0.00     0.084 H 
ENDBRANCH  33  36
ENDBRANCH   9  33
TORSDOF 5
