REMARK  20 active torsions:
REMARK  status: ('A' for Active; 'I' for Inactive)
REMARK    1  A    between atoms: C3_3  and  C4_4 
REMARK    2  A    between atoms: C4_4  and  N1_10 
REMARK    3  A    between atoms: C4_4  and  N_14 
REMARK    4  A    between atoms: N_14  and  C5_5 
REMARK       I    between atoms: N2_13  and  C18_25 
REMARK    5  A    between atoms: C19_26  and  N2_13 
REMARK    6  A    between atoms: C12_19  and  C11_18 
REMARK    7  A    between atoms: C14_21  and  O3_54 
REMARK    8  A    between atoms: O3_54  and  C15_22 
REMARK    9  A    between atoms: O4_55  and  C16_23 
REMARK   10  A    between atoms: C18_25  and  C17_24 
REMARK   11  A    between atoms: C17_24  and  O4_55 
REMARK   12  A    between atoms: C20_27  and  C19_26 
REMARK   13  A    between atoms: C21_28  and  C20_27 
REMARK   14  A    between atoms: C22_29  and  C21_28 
REMARK   15  A    between atoms: C23_30  and  C22_29 
REMARK   16  A    between atoms: C24_31  and  C23_30 
REMARK   17  A    between atoms: O5_56  and  C24_31 
REMARK   18  A    between atoms: C25_32  and  O5_56 
REMARK   19  A    between atoms: C31_38  and  N3_50 
REMARK   20  A    between atoms: N5_52  and  C41_48 
ROOT
ATOM      1  C17 7P7 d   1     -54.776  -6.561   0.312  0.00  0.00     0.099 C 
ATOM      2  H17 7P7 d   1     -55.504  -5.758   0.124  0.00  0.00     0.089 H 
ATOM      3  H18 7P7 d   1     -55.281  -7.536   0.245  0.00  0.00     0.089 H 
ENDROOT
BRANCH   1   4
ATOM      4  C18 7P7 d   1     -54.196  -6.394   1.696  0.00  0.00     0.241 C 
ATOM      5  N2  7P7 d   1     -53.421  -7.377   2.143  0.00  0.00    -0.359 N 
ATOM      6  H10 7P7 d   1     -53.212  -8.152   1.547  0.00  0.00     0.162 HD
ATOM      7  O10 7P7 d   1     -54.445  -5.398   2.355  0.00  0.00    -0.271 OA
BRANCH   5   8
ATOM      8  C19 7P7 d   1     -52.876  -7.336   3.487  0.00  0.00    -0.005 C 
ATOM      9  H19 7P7 d   1     -53.429  -8.051   4.113  0.00  0.00     0.064 H 
ATOM     10  H20 7P7 d   1     -53.005  -6.320   3.889  0.00  0.00     0.064 H 
BRANCH   8  11
ATOM     11  C20 7P7 d   1     -51.395  -7.693   3.530  0.00  0.00    -0.050 C 
ATOM     12  H21 7P7 d   1     -50.978  -7.618   2.515  0.00  0.00     0.035 H 
ATOM     13  H22 7P7 d   1     -51.285  -8.724   3.897  0.00  0.00     0.035 H 
BRANCH  11  14
ATOM     14  C21 7P7 d   1     -50.630  -6.753   4.452  0.00  0.00    -0.064 C 
ATOM     15  H23 7P7 d   1     -49.573  -7.055   4.484  0.00  0.00     0.033 H 
ATOM     16  H24 7P7 d   1     -51.058  -6.809   5.464  0.00  0.00     0.033 H 
BRANCH  14  17
ATOM     17  C22 7P7 d   1     -50.729  -5.322   3.942  0.00  0.00    -0.063 C 
ATOM     18  H25 7P7 d   1     -51.719  -4.917   4.198  0.00  0.00     0.033 H 
ATOM     19  H26 7P7 d   1     -50.604  -5.321   2.849  0.00  0.00     0.033 H 
BRANCH  17  20
ATOM     20  C23 7P7 d   1     -49.655  -4.442   4.567  0.00  0.00    -0.045 C 
ATOM     21  H27 7P7 d   1     -49.849  -4.341   5.645  0.00  0.00     0.036 H 
ATOM     22  H28 7P7 d   1     -49.678  -3.449   4.095  0.00  0.00     0.036 H 
BRANCH  20  23
ATOM     23  C24 7P7 d   1     -48.283  -5.068   4.358  0.00  0.00     0.026 C 
ATOM     24  H29 7P7 d   1     -47.757  -4.547   3.545  0.00  0.00     0.075 H 
ATOM     25  H30 7P7 d   1     -48.395  -6.131   4.100  0.00  0.00     0.075 H 
BRANCH  23  26
ATOM     26  O5  7P7 d   1     -47.543  -4.942   5.567  0.00  0.00    -0.350 OA
BRANCH  26  27
ATOM     27  C25 7P7 d   1     -46.471  -5.759   5.804  0.00  0.00     0.085 A 
ATOM     28  C26 7P7 d   1     -46.315  -6.976   5.143  0.00  0.00    -0.050 A 
ATOM     29  C27 7P7 d   1     -45.218  -7.812   5.393  0.00  0.00    -0.079 A 
ATOM     30  H31 7P7 d   1     -47.060  -7.284   4.418  0.00  0.00     0.087 H 
ATOM     31  C28 7P7 d   1     -44.214  -7.497   6.315  0.00  0.00    -0.067 A 
ATOM     32  H32 7P7 d   1     -45.144  -8.745   4.847  0.00  0.00     0.083 H 
ATOM     33  C29 7P7 d   1     -44.313  -6.301   7.011  0.00  0.00     0.051 A 
ATOM     34  H33 7P7 d   1     -43.380  -8.170   6.481  0.00  0.00     0.085 H 
ATOM     35  C30 7P7 d   1     -43.500  -5.603   8.044  0.00  0.00     0.262 A 
ATOM     36  C36 7P7 d   1     -45.436  -5.384   6.790  0.00  0.00     0.081 A 
ATOM     37  N3  7P7 d   1     -44.005  -4.416   8.440  0.00  0.00    -0.266 N 
ATOM     38  O8  7P7 d   1     -42.408  -6.097   8.509  0.00  0.00    -0.267 OA
ATOM     39  C37 7P7 d   1     -45.131  -4.269   7.724  0.00  0.00     0.265 A 
ATOM     40  O9  7P7 d   1     -45.891  -3.240   7.839  0.00  0.00    -0.267 OA
BRANCH  37  41
ATOM     41  C31 7P7 d   1     -43.466  -3.453   9.437  0.00  0.00     0.101 C 
ATOM     42  C32 7P7 d   1     -41.997  -3.247   9.187  0.00  0.00     0.247 C 
ATOM     43  N4  7P7 d   1     -41.169  -3.053  10.218  0.00  0.00    -0.296 N 
ATOM     44  O7  7P7 d   1     -41.591  -3.256   8.036  0.00  0.00    -0.271 OA
ATOM     45  C33 7P7 d   1     -41.533  -3.071  11.502  0.00  0.00     0.224 C 
ATOM     46  H47 7P7 d   1     -40.206  -2.882  10.012  0.00  0.00     0.171 HD
ATOM     47  C34 7P7 d   1     -43.007  -3.016  11.816  0.00  0.00     0.012 C 
ATOM     48  O6  7P7 d   1     -40.720  -3.132  12.410  0.00  0.00    -0.273 OA
ATOM     49  C35 7P7 d   1     -43.711  -3.955  10.852  0.00  0.00    -0.029 C 
ATOM     50  H35 7P7 d   1     -43.382  -1.990  11.683  0.00  0.00     0.047 H 
ATOM     51  H36 7P7 d   1     -43.183  -3.340  12.852  0.00  0.00     0.047 H 
ATOM     52  H37 7P7 d   1     -43.307  -4.972  10.961  0.00  0.00     0.037 H 
ATOM     53  H38 7P7 d   1     -44.791  -3.964  11.062  0.00  0.00     0.037 H 
ATOM     54  H34 7P7 d   1     -43.983  -2.490   9.315  0.00  0.00     0.088 H 
ENDBRANCH  37  41
ENDBRANCH  26  27
ENDBRANCH  23  26
ENDBRANCH  20  23
ENDBRANCH  17  20
ENDBRANCH  14  17
ENDBRANCH  11  14
ENDBRANCH   8  11
ENDBRANCH   5   8
ENDBRANCH   1   4
BRANCH   1  55
ATOM     55  O4  7P7 d   1     -53.742  -6.498  -0.669  0.00  0.00    -0.339 OA
BRANCH  55  56
ATOM     56  C16 7P7 d   1     -54.073  -6.278  -1.981  0.00  0.00     0.102 A 
ATOM     57  C14 7P7 d   1     -54.672  -4.986  -2.392  0.00  0.00     0.102 A 
ATOM     58  C13 7P7 d   1     -54.996  -4.772  -3.720  0.00  0.00    -0.037 A 
ATOM     59  C12 7P7 d   1     -54.780  -5.773  -4.654  0.00  0.00    -0.020 A 
ATOM     60  H13 7P7 d   1     -55.418  -3.823  -4.029  0.00  0.00     0.089 H 
ATOM     61  C39 7P7 d   1     -54.216  -6.990  -4.274  0.00  0.00    -0.069 A 
ATOM     62  C38 7P7 d   1     -53.868  -7.252  -2.950  0.00  0.00    -0.047 A 
ATOM     63  H40 7P7 d   1     -54.044  -7.751  -5.027  0.00  0.00     0.085 H 
ATOM     64  H39 7P7 d   1     -53.440  -8.210  -2.678  0.00  0.00     0.087 H 
BRANCH  57  65
ATOM     65  O3  7P7 d   1     -54.890  -3.986  -1.491  0.00  0.00    -0.353 OA
BRANCH  65  66
ATOM     66  C15 7P7 d   1     -54.168  -2.777  -1.692  0.00  0.00     0.010 C 
ATOM     67  H14 7P7 d   1     -54.432  -2.057  -0.903  0.00  0.00     0.066 H 
ATOM     68  H15 7P7 d   1     -54.425  -2.355  -2.675  0.00  0.00     0.066 H 
ATOM     69  H16 7P7 d   1     -53.088  -2.984  -1.653  0.00  0.00     0.066 H 
ENDBRANCH  65  66
ENDBRANCH  57  65
BRANCH  59  70
ATOM     70  C11 7P7 d   1     -55.133  -5.546  -6.080  0.00  0.00     0.008 A 
ATOM     71  C2  7P7 d   1     -56.443  -4.974  -6.496  0.00  0.00     0.034 A 
ATOM     72  C1  7P7 d   1     -56.744  -4.780  -7.921  0.00  0.00     0.051 A 
ATOM     73  S   7P7 d   1     -57.745  -4.464  -5.560  0.00  0.00    -0.085 SA
ATOM     74  C   7P7 d   1     -55.678  -5.189  -8.868  0.00  0.00     0.258 A 
ATOM     75  C10 7P7 d   1     -58.054  -4.214  -8.156  0.00  0.00    -0.046 A 
ATOM     76  O   7P7 d   1     -55.859  -5.056 -10.097  0.00  0.00    -0.267 OA
ATOM     77  N5  7P7 d   1     -54.465  -5.727  -8.385  0.00  0.00    -0.327 N 
ATOM     78  C40 7P7 d   1     -54.217  -5.888  -7.072  0.00  0.00    -0.006 A 
ATOM     79  H41 7P7 d   1     -53.257  -6.304  -6.772  0.00  0.00     0.113 H 
ATOM     80  C3  7P7 d   1     -58.716  -3.994  -6.941  0.00  0.00     0.050 A 
ATOM     81  H12 7P7 d   1     -58.467  -3.990  -9.138  0.00  0.00     0.087 H 
BRANCH  77  82
ATOM     82  C41 7P7 d   1     -53.442  -6.117  -9.358  0.00  0.00    -0.011 C 
ATOM     83  H42 7P7 d   1     -53.809  -5.918 -10.376  0.00  0.00     0.057 H 
ATOM     84  H43 7P7 d   1     -53.223  -7.190  -9.250  0.00  0.00     0.057 H 
ATOM     85  H44 7P7 d   1     -52.525  -5.536  -9.179  0.00  0.00     0.057 H 
ENDBRANCH  77  82
BRANCH  80  86
ATOM     86  C4  7P7 d   1     -60.064  -3.412  -6.693  0.00  0.00     0.112 C 
BRANCH  86  87
ATOM     87  N1  7P7 d   1     -60.854  -3.863  -5.823  0.00  0.00    -0.385 N 
ATOM     88  H4  7P7 d   1     -61.777  -3.425  -5.689  0.00  0.00     0.157 HD
ATOM     89  H5  7P7 d   1     -60.578  -4.670  -5.245  0.00  0.00     0.157 HD
ENDBRANCH  86  87
BRANCH  86  90
ATOM     90  N   7P7 d   1     -60.379  -2.370  -7.456  0.00  0.00    -0.371 N 
ATOM     91  H11 7P7 d   1     -59.608  -1.957  -8.001  0.00  0.00     0.161 HD
BRANCH  90  92
ATOM     92  C5  7P7 d   1     -61.675  -1.746  -7.613  0.00  0.00     0.012 C 
ATOM     93  C6  7P7 d   1     -61.401  -0.248  -7.732  0.00  0.00    -0.034 C 
ATOM     94  C7  7P7 d   1     -62.616   0.591  -8.111  0.00  0.00     0.030 C 
ATOM     95  H2  7P7 d   1     -60.629  -0.101  -8.501  0.00  0.00     0.037 H 
ATOM     96  H3  7P7 d   1     -61.026   0.110  -6.762  0.00  0.00     0.037 H 
ATOM     97  S1  7P7 d   1     -63.212   0.018  -9.545  0.00  0.00     0.144 S 
ATOM     98  H6  7P7 d   1     -62.321   1.644  -8.225  0.00  0.00     0.056 H 
ATOM     99  H7  7P7 d   1     -63.385   0.508  -7.329  0.00  0.00     0.056 H 
ATOM    100  O1  7P7 d   1     -62.217   0.144 -10.572  0.00  0.00    -0.228 OA
ATOM    101  O2  7P7 d   1     -64.389   0.750  -9.915  0.00  0.00    -0.228 OA
ATOM    102  C8  7P7 d   1     -63.583  -1.578  -9.300  0.00  0.00     0.030 C 
ATOM    103  C9  7P7 d   1     -62.313  -2.307  -8.881  0.00  0.00    -0.034 C 
ATOM    104  H8  7P7 d   1     -64.341  -1.666  -8.508  0.00  0.00     0.056 H 
ATOM    105  H9  7P7 d   1     -63.973  -2.016 -10.231  0.00  0.00     0.056 H 
ATOM    106  H45 7P7 d   1     -62.561  -3.365  -8.707  0.00  0.00     0.037 H 
ATOM    107  H46 7P7 d   1     -61.583  -2.232  -9.700  0.00  0.00     0.037 H 
ATOM    108  H1  7P7 d   1     -62.321  -1.949  -6.746  0.00  0.00     0.072 H 
ENDBRANCH  90  92
ENDBRANCH  86  90
ENDBRANCH  80  86
ENDBRANCH  59  70
ENDBRANCH  55  56
ENDBRANCH   1  55
TORSDOF 20
