REMARK  5 active torsions:
REMARK  status: ('A' for Active; 'I' for Inactive)
REMARK    1  A    between atoms: C1_1  and  O2_2 
REMARK    2  A    between atoms: O2_2  and  C3_3 
REMARK    3  A    between atoms: C5_5  and  C23_23 
REMARK    4  A    between atoms: C8_8  and  C9_9 
REMARK       I    between atoms: C9_9  and  N11_11 
REMARK    5  A    between atoms: N11_11  and  C12_12 
ROOT
ATOM      1  C9  MOL d   1     -29.240 -12.754 -18.622  0.00  0.00     0.259 C 
ATOM      2  O10 MOL d   1     -30.214 -12.116 -18.987  0.00  0.00    -0.267 OA
ATOM      3  N11 MOL d   1     -28.001 -12.430 -18.973  0.00  0.00    -0.323 N 
ATOM      4  H7  MOL d   1     -27.356 -13.180 -19.120  0.00  0.00     0.169 HD
ENDROOT
BRANCH   3   5
ATOM      5  C12 MOL d   1     -27.539 -11.171 -19.148  0.00  0.00     0.035 A 
ATOM      6  C13 MOL d   1     -26.721 -10.622 -18.160  0.00  0.00    -0.057 A 
ATOM      7  C14 MOL d   1     -26.186  -9.343 -18.277  0.00  0.00    -0.074 A 
ATOM      8  H8  MOL d   1     -26.496 -11.208 -17.276  0.00  0.00     0.086 H 
ATOM      9  C15 MOL d   1     -26.458  -8.588 -19.410  0.00  0.00    -0.050 A 
ATOM     10  H9  MOL d   1     -25.561  -8.939 -17.489  0.00  0.00     0.084 H 
ATOM     11  C16 MOL d   1     -25.878  -7.193 -19.527  0.00  0.00    -0.018 C 
ATOM     12  C21 MOL d   1     -27.329  -9.173 -20.467  0.00  0.00    -0.048 A 
ATOM     13  C17 MOL d   1     -24.944  -7.119 -20.728  0.00  0.00     0.085 C 
ATOM     14  H10 MOL d   1     -25.316  -6.954 -18.612  0.00  0.00     0.042 H 
ATOM     15  H11 MOL d   1     -26.695  -6.468 -19.655  0.00  0.00     0.042 H 
ATOM     16  N18 MOL d   1     -25.720  -6.887 -21.957  0.00  0.00    -0.075 N 
ATOM     17  H12 MOL d   1     -24.392  -8.066 -20.819  0.00  0.00     0.076 H 
ATOM     18  H13 MOL d   1     -24.232  -6.293 -20.585  0.00  0.00     0.076 H 
ATOM     19  C19 MOL d   1     -26.343  -8.131 -22.444  0.00  0.00     0.085 C 
ATOM     20  H14 MOL d   1     -25.105  -6.528 -22.670  0.00  0.00     0.277 HD
ATOM     21  H15 MOL d   1     -26.443  -6.212 -21.765  0.00  0.00     0.277 HD
ATOM     22  C20 MOL d   1     -27.651  -8.389 -21.710  0.00  0.00    -0.018 C 
ATOM     23  H16 MOL d   1     -25.657  -8.973 -22.270  0.00  0.00     0.076 H 
ATOM     24  H17 MOL d   1     -26.544  -8.039 -23.522  0.00  0.00     0.076 H 
ATOM     25  H18 MOL d   1     -28.333  -8.966 -22.351  0.00  0.00     0.042 H 
ATOM     26  H19 MOL d   1     -28.123  -7.433 -21.439  0.00  0.00     0.042 H 
ATOM     27  C22 MOL d   1     -27.842 -10.454 -20.303  0.00  0.00    -0.051 A 
ATOM     28  H20 MOL d   1     -28.473 -10.892 -21.068  0.00  0.00     0.087 H 
ENDBRANCH   3   5
BRANCH   1  29
ATOM     29  C8  MOL d   1     -29.405 -13.976 -17.764  0.00  0.00     0.065 A 
ATOM     30  C3  MOL d   1     -28.207 -14.662 -17.221  0.00  0.00     0.084 A 
ATOM     31  C4  MOL d   1     -28.367 -15.797 -16.431  0.00  0.00    -0.039 A 
ATOM     32  C5  MOL d   1     -29.644 -16.277 -16.160  0.00  0.00    -0.020 A 
ATOM     33  H4  MOL d   1     -27.498 -16.305 -16.028  0.00  0.00     0.089 H 
ATOM     34  C6  MOL d   1     -30.767 -15.633 -16.676  0.00  0.00    -0.071 A 
ATOM     35  C7  MOL d   1     -30.660 -14.491 -17.467  0.00  0.00    -0.064 A 
ATOM     36  H5  MOL d   1     -31.751 -16.032 -16.456  0.00  0.00     0.084 H 
ATOM     37  H6  MOL d   1     -31.552 -14.007 -17.849  0.00  0.00     0.085 H 
BRANCH  30  38
ATOM     38  O2  MOL d   1     -26.959 -14.174 -17.504  0.00  0.00    -0.355 OA
BRANCH  38  39
ATOM     39  C1  MOL d   1     -25.826 -14.633 -16.772  0.00  0.00     0.010 C 
ATOM     40  H1  MOL d   1     -24.921 -14.129 -17.142  0.00  0.00     0.066 H 
ATOM     41  H2  MOL d   1     -25.720 -15.720 -16.904  0.00  0.00     0.066 H 
ATOM     42  H3  MOL d   1     -25.962 -14.405 -15.705  0.00  0.00     0.066 H 
ENDBRANCH  38  39
ENDBRANCH  30  38
BRANCH  32  43
ATOM     43  C23 MOL d   1     -29.820 -17.496 -15.318  0.00  0.00     0.010 A 
ATOM     44  C24 MOL d   1     -31.030 -18.026 -14.888  0.00  0.00     0.008 A 
ATOM     45  N25 MOL d   1     -30.770 -19.129 -14.152  0.00  0.00    -0.289 N 
ATOM     46  H21 MOL d   1     -32.017 -17.622 -15.106  0.00  0.00     0.115 H 
ATOM     47  N26 MOL d   1     -29.380 -19.307 -14.119  0.00  0.00    -0.187 NA
ATOM     48  H22 MOL d   1     -31.469 -19.732 -13.696  0.00  0.00     0.188 HD
ATOM     49  C27 MOL d   1     -28.809 -18.311 -14.831  0.00  0.00     0.034 A 
ATOM     50  H23 MOL d   1     -27.741 -18.172 -14.994  0.00  0.00     0.118 H 
ENDBRANCH  32  43
ENDBRANCH   1  29
TORSDOF 5
