REMARK  9 active torsions:
REMARK  status: ('A' for Active; 'I' for Inactive)
REMARK    1  A    between atoms: CAS_11  and  NBG_10 
REMARK    2  A    between atoms: CAX_12  and  CAS_11 
REMARK    3  A    between atoms: NAV_18  and  CAZ_17 
REMARK    4  A    between atoms: NAV_18  and  C2_19 
REMARK    5  A    between atoms: CBI_20  and  CAA_21 
REMARK    6  A    between atoms: CBI_20  and  CAB_22 
REMARK    7  A    between atoms: CAW_23  and  OAC_24 
REMARK    8  A    between atoms: NBH_25  and  CBF_26 
REMARK    9  A    between atoms: CAY_34  and  OAD_35 
ROOT
ATOM      1  C4  7MY d   1      17.171  -8.560  35.355  0.00  0.00     0.156 A 
ATOM      2  C5  7MY d   1      18.272  -8.672  34.654  0.00  0.00     0.019 A 
ATOM      3  C6  7MY d   1      18.882  -7.589  33.895  0.00  0.00     0.032 A 
ATOM      4  N1  7MY d   1      18.263  -6.380  33.957  0.00  0.00    -0.074 NA
ATOM      5  N3  7MY d   1      16.522  -7.294  35.388  0.00  0.00    -0.044 NA
ATOM      6  C2  7MY d   1      17.062  -6.191  34.686  0.00  0.00     0.728 A 
ATOM      7  CBI 7MY d   1      18.875 -10.085  34.657  0.00  0.00     0.029 A 
ATOM      8  CAW 7MY d   1      17.825 -10.721  35.564  0.00  0.00     0.115 A 
ATOM      9  NBH 7MY d   1      16.858  -9.801  35.940  0.00  0.00    -0.328 N 
ATOM     10  H1  7MY d   1      19.783  -7.739  33.311  0.00  0.00     0.116 H 
ATOM     11  H24 7MY d   1      18.426 -10.489  36.456  0.00  0.00     0.119 H 
ENDROOT
BRANCH   6  12
ATOM     12  NAV 7MY d   1      16.426  -4.886  34.692  0.00  0.00    -0.188 N 
ATOM     13  H17 7MY d   1      16.929  -4.110  34.238  0.00  0.00     0.184 HD
BRANCH  12  14
ATOM     14  CAZ 7MY d   1      15.134  -4.590  35.290  0.00  0.00     0.050 A 
ATOM     15  CAL 7MY d   1      14.874  -3.266  35.670  0.00  0.00    -0.049 A 
ATOM     16  CAX 7MY d   1      13.679  -2.890  36.262  0.00  0.00    -0.030 A 
ATOM     17  H13 7MY d   1      15.633  -2.512  35.495  0.00  0.00     0.087 H 
ATOM     18  CAG 7MY d   1      12.705  -3.856  36.464  0.00  0.00    -0.075 A 
ATOM     19  CAE 7MY d   1      12.943  -5.189  36.090  0.00  0.00    -0.080 A 
ATOM     20  H14 7MY d   1      11.757  -3.582  36.912  0.00  0.00     0.084 H 
ATOM     21  CAI 7MY d   1      14.157  -5.549  35.516  0.00  0.00    -0.057 A 
ATOM     22  H15 7MY d   1      12.177  -5.940  36.249  0.00  0.00     0.083 H 
ATOM     23  H16 7MY d   1      14.341  -6.582  35.244  0.00  0.00     0.086 H 
BRANCH  16  24
ATOM     24  CAS 7MY d   1      13.471  -1.398  36.654  0.00  0.00     0.107 C 
ATOM     25  H11 7MY d   1      14.393  -0.850  36.412  0.00  0.00     0.083 H 
ATOM     26  H12 7MY d   1      12.640  -1.000  36.054  0.00  0.00     0.083 H 
BRANCH  24  27
ATOM     27  NBG 7MY d   1      13.164  -1.168  38.060  0.00  0.00    -0.067 N 
ATOM     28  CAQ 7MY d   1      13.891  -2.004  38.972  0.00  0.00     0.084 C 
ATOM     29  CAM 7MY d   1      15.229  -1.273  39.211  0.00  0.00    -0.041 C 
ATOM     30  H2  7MY d   1      13.338  -2.116  39.916  0.00  0.00     0.076 H 
ATOM     31  H3  7MY d   1      14.067  -2.996  38.530  0.00  0.00     0.076 H 
ATOM     32  CAN 7MY d   1      14.803   0.179  39.135  0.00  0.00    -0.041 C 
ATOM     33  H4  7MY d   1      15.964  -1.517  38.430  0.00  0.00     0.035 H 
ATOM     34  H5  7MY d   1      15.648  -1.517  40.198  0.00  0.00     0.035 H 
ATOM     35  CAR 7MY d   1      13.483   0.175  38.357  0.00  0.00     0.084 C 
ATOM     36  H6  7MY d   1      15.560   0.775  38.605  0.00  0.00     0.035 H 
ATOM     37  H7  7MY d   1      14.654   0.590  40.144  0.00  0.00     0.035 H 
ATOM     38  H8  7MY d   1      13.596   0.748  37.425  0.00  0.00     0.076 H 
ATOM     39  H9  7MY d   1      12.686   0.623  38.969  0.00  0.00     0.076 H 
ATOM     40  H10 7MY d   1      12.178  -1.324  38.201  0.00  0.00     0.280 HD
ENDBRANCH  24  27
ENDBRANCH  16  24
ENDBRANCH  12  14
ENDBRANCH   6  12
BRANCH   9  41
ATOM     41  CBF 7MY d   1      15.757 -10.107  36.771  0.00  0.00     0.042 C 
ATOM     42  CAP 7MY d   1      15.677  -9.002  37.683  0.00  0.00    -0.038 C 
ATOM     43  CAO 7MY d   1      14.190  -8.629  37.811  0.00  0.00    -0.036 C 
ATOM     44  H27 7MY d   1      16.248  -8.147  37.291  0.00  0.00     0.036 H 
ATOM     45  H28 7MY d   1      16.079  -9.293  38.665  0.00  0.00     0.036 H 
ATOM     46  CBC 7MY d   1      13.755  -9.163  36.431  0.00  0.00    -0.017 A 
ATOM     47  H29 7MY d   1      14.033  -7.545  37.913  0.00  0.00     0.040 H 
ATOM     48  H30 7MY d   1      13.693  -9.151  38.642  0.00  0.00     0.040 H 
ATOM     49  CBB 7MY d   1      14.640  -9.980  35.903  0.00  0.00    -0.026 A 
ATOM     50  CAY 7MY d   1      12.517  -8.874  35.706  0.00  0.00     0.072 A 
ATOM     51  CAJ 7MY d   1      14.394 -10.600  34.576  0.00  0.00    -0.074 A 
ATOM     52  CAF 7MY d   1      13.225 -10.334  33.880  0.00  0.00    -0.080 A 
ATOM     53  H31 7MY d   1      15.135 -11.266  34.148  0.00  0.00     0.084 H 
ATOM     54  CAH 7MY d   1      12.264  -9.449  34.466  0.00  0.00    -0.050 A 
ATOM     55  H32 7MY d   1      13.042 -10.787  32.912  0.00  0.00     0.083 H 
ATOM     56  H33 7MY d   1      11.340  -9.228  33.943  0.00  0.00     0.087 H 
ATOM     57  H26 7MY d   1      15.826 -11.086  37.268  0.00  0.00     0.080 H 
BRANCH  50  58
ATOM     58  OAD 7MY d   1      11.576  -8.005  36.267  0.00  0.00    -0.360 OA
ATOM     59  H34 7MY d   1      10.753  -8.465  36.385  0.00  0.00     0.217 HD
ENDBRANCH  50  58
ENDBRANCH   9  41
BRANCH   7  60
ATOM     60  CAA 7MY d   1      20.334 -10.320  35.152  0.00  0.00    -0.061 C 
ATOM     61  H18 7MY d   1      21.039  -9.839  34.458  0.00  0.00     0.029 H 
ATOM     62  H19 7MY d   1      20.538 -11.400  35.191  0.00  0.00     0.029 H 
ATOM     63  H20 7MY d   1      20.455  -9.887  36.156  0.00  0.00     0.029 H 
ENDBRANCH   7  60
BRANCH   7  64
ATOM     64  CAB 7MY d   1      18.973 -10.792  33.309  0.00  0.00    -0.061 C 
ATOM     65  H21 7MY d   1      18.004 -10.730  32.791  0.00  0.00     0.029 H 
ATOM     66  H22 7MY d   1      19.238 -11.848  33.467  0.00  0.00     0.029 H 
ATOM     67  H23 7MY d   1      19.747 -10.307  32.696  0.00  0.00     0.029 H 
ENDBRANCH   7  64
BRANCH   8  68
ATOM     68  OAC 7MY d   1      17.821 -12.038  35.953  0.00  0.00    -0.376 OA
ATOM     69  H25 7MY d   1      18.575 -12.480  35.579  0.00  0.00     0.212 HD
ENDBRANCH   8  68
TORSDOF 9
