REMARK  5 active torsions:
REMARK  status: ('A' for Active; 'I' for Inactive)
REMARK    1  A    between atoms: C19_20  and  C20_10 
REMARK    2  A    between atoms: C13_16  and  C15_13 
REMARK    3  A    between atoms: C18_14  and  C19_20 
REMARK       I    between atoms: N12_25  and  C13_16 
REMARK    4  A    between atoms: C11_18  and  N12_25 
REMARK    5  A    between atoms: N2_24  and  C1_19 
ROOT
ATOM      1  C13 7MJ d   1      20.079  -6.304  56.222  0.00  0.00     0.290 C 
ATOM      2  N12 7MJ d   1      19.979  -7.670  56.390  0.00  0.00    -0.339 N 
ATOM      3  O14 7MJ d   1      20.976  -5.613  56.683  0.00  0.00    -0.264 OA
ATOM      4  H19 7MJ d   1      19.252  -8.179  55.929  0.00  0.00     0.163 HD
ENDROOT
BRANCH   2   5
ATOM      5  C11 7MJ d   1      20.924  -8.365  57.232  0.00  0.00     0.111 C 
ATOM      6  C27 7MJ d   1      20.992  -9.816  56.832  0.00  0.00     0.249 C 
ATOM      7  N2  7MJ d   1      22.193 -10.431  57.169  0.00  0.00    -0.318 N 
ATOM      8  O28 7MJ d   1      20.069 -10.379  56.259  0.00  0.00    -0.271 OA
ATOM      9  C3  7MJ d   1      23.090  -9.870  58.125  0.00  0.00     0.070 A 
ATOM     10  C4  7MJ d   1      24.463  -9.896  57.932  0.00  0.00    -0.054 A 
ATOM     11  C8  7MJ d   1      22.593  -9.246  59.264  0.00  0.00     0.095 A 
ATOM     12  C5  7MJ d   1      25.324  -9.320  58.853  0.00  0.00    -0.081 A 
ATOM     13  H8  7MJ d   1      24.869 -10.374  57.048  0.00  0.00     0.087 H 
ATOM     14  C6  7MJ d   1      24.813  -8.707  59.982  0.00  0.00    -0.080 A 
ATOM     15  H4  7MJ d   1      26.395  -9.350  58.688  0.00  0.00     0.083 H 
ATOM     16  C7  7MJ d   1      23.446  -8.674  60.191  0.00  0.00    -0.049 A 
ATOM     17  H5  7MJ d   1      25.483  -8.253  60.703  0.00  0.00     0.083 H 
ATOM     18  H9  7MJ d   1      23.044  -8.201  61.080  0.00  0.00     0.087 H 
ATOM     19  O9  7MJ d   1      21.214  -9.224  59.499  0.00  0.00    -0.346 OA
ATOM     20  C10 7MJ d   1      20.580  -8.223  58.699  0.00  0.00     0.053 C 
ATOM     21  H10 7MJ d   1      19.490  -8.312  58.818  0.00  0.00     0.079 H 
ATOM     22  H11 7MJ d   1      20.907  -7.232  59.046  0.00  0.00     0.079 H 
ATOM     23  H12 7MJ d   1      21.916  -7.917  57.074  0.00  0.00     0.091 H 
BRANCH   7  24
ATOM     24  C1  7MJ d   1      22.380 -11.816  56.797  0.00  0.00    -0.011 C 
ATOM     25  H13 7MJ d   1      23.372 -12.155  57.131  0.00  0.00     0.057 H 
ATOM     26  H14 7MJ d   1      22.308 -11.915  55.704  0.00  0.00     0.057 H 
ATOM     27  H15 7MJ d   1      21.603 -12.432  57.273  0.00  0.00     0.057 H 
ENDBRANCH   7  24
ENDBRANCH   2   5
BRANCH   1  28
ATOM     28  C15 7MJ d   1      19.030  -5.727  55.454  0.00  0.00     0.219 A 
ATOM     29  N16 7MJ d   1      17.959  -6.351  55.008  0.00  0.00    -0.124 NA
ATOM     30  N17 7MJ d   1      17.195  -5.447  54.317  0.00  0.00    -0.134 NA
ATOM     31  C18 7MJ d   1      17.818  -4.289  54.361  0.00  0.00     0.132 A 
ATOM     32  N26 7MJ d   1      18.973  -4.423  55.072  0.00  0.00    -0.321 N 
ATOM     33  H18 7MJ d   1      19.663  -3.686  55.278  0.00  0.00     0.169 HD
BRANCH  31  34
ATOM     34  C19 7MJ d   1      17.408  -3.005  53.773  0.00  0.00     0.016 C 
ATOM     35  H16 7MJ d   1      18.181  -2.683  53.060  0.00  0.00     0.051 H 
ATOM     36  H17 7MJ d   1      16.456  -3.151  53.241  0.00  0.00     0.051 H 
BRANCH  34  37
ATOM     37  C20 7MJ d   1      17.225  -1.936  54.788  0.00  0.00    -0.051 A 
ATOM     38  C21 7MJ d   1      16.141  -1.975  55.650  0.00  0.00    -0.076 A 
ATOM     39  C22 7MJ d   1      15.973  -0.997  56.609  0.00  0.00    -0.082 A 
ATOM     40  H6  7MJ d   1      15.419  -2.780  55.571  0.00  0.00     0.084 H 
ATOM     41  C23 7MJ d   1      16.902   0.021  56.690  0.00  0.00    -0.083 A 
ATOM     42  H2  7MJ d   1      15.127  -1.028  57.286  0.00  0.00     0.083 H 
ATOM     43  C24 7MJ d   1      17.978   0.061  55.819  0.00  0.00    -0.082 A 
ATOM     44  H1  7MJ d   1      16.788   0.795  57.441  0.00  0.00     0.083 H 
ATOM     45  C25 7MJ d   1      18.149  -0.915  54.859  0.00  0.00    -0.076 A 
ATOM     46  H3  7MJ d   1      18.696   0.870  55.892  0.00  0.00     0.083 H 
ATOM     47  H7  7MJ d   1      18.990  -0.880  54.176  0.00  0.00     0.084 H 
ENDBRANCH  34  37
ENDBRANCH  31  34
ENDBRANCH   1  28
TORSDOF 5
