REMARK  5 active torsions:
REMARK  status: ('A' for Active; 'I' for Inactive)
REMARK    1  A    between atoms: C8_4  and  C7_9 
REMARK    2  A    between atoms: C13_5  and  O14_16 
REMARK    3  A    between atoms: C9_6  and  O10_17 
REMARK    4  A    between atoms: O14_16  and  C15_10 
REMARK    5  A    between atoms: O10_17  and  C11_11 
ROOT
ATOM      1  C17 7QV d   1      -3.001   3.880  14.730  0.00  0.00    -0.069 A 
ATOM      2  C16 7QV d   1      -3.052   5.111  14.154  0.00  0.00    -0.050 A 
ATOM      3  C12 7QV d   1      -5.403   5.042  14.499  0.00  0.00    -0.018 A 
ATOM      4  C8  7QV d   1      -4.100   3.196  15.192  0.00  0.00     0.014 A 
ATOM      5  C13 7QV d   1      -4.301   5.720  14.064  0.00  0.00     0.070 A 
ATOM      6  C9  7QV d   1      -5.354   3.799  15.045  0.00  0.00     0.080 A 
ATOM      7  H1  7QV d   1      -2.031   3.408  14.831  0.00  0.00     0.084 H 
ATOM      8  H2  7QV d   1      -2.158   5.598  13.781  0.00  0.00     0.087 H 
ATOM      9  H3  7QV d   1      -6.370   5.522  14.403  0.00  0.00     0.092 H 
ENDROOT
BRANCH   4  10
ATOM     10  C7  7QV d   1      -3.926   1.818  15.769  0.00  0.00     0.154 A 
ATOM     11  C2  7QV d   1      -4.653   0.753  14.996  0.00  0.00     0.260 A 
ATOM     12  N3  7QV d   1      -5.536   0.119  15.802  0.00  0.00    -0.270 N 
ATOM     13  O1  7QV d   1      -4.461   0.532  13.789  0.00  0.00    -0.270 OA
ATOM     14  C4  7QV d   1      -5.484   0.738  17.010  0.00  0.00     0.368 A 
ATOM     15  H11 7QV d   1      -6.116  -0.657  15.555  0.00  0.00     0.174 HD
ATOM     16  O6  7QV d   1      -6.168   0.498  17.997  0.00  0.00    -0.238 OA
ATOM     17  O5  7QV d   1      -4.494   1.677  17.080  0.00  0.00    -0.284 OA
ATOM     18  H4  7QV d   1      -2.849   1.596  15.797  0.00  0.00     0.107 H 
ENDBRANCH   4  10
BRANCH   6  19
ATOM     19  O10 7QV d   1      -6.464   3.097  15.471  0.00  0.00    -0.355 OA
BRANCH  19  20
ATOM     20  C11 7QV d   1      -7.018   3.675  16.696  0.00  0.00     0.010 C 
ATOM     21  H8  7QV d   1      -7.899   3.095  17.009  0.00  0.00     0.066 H 
ATOM     22  H9  7QV d   1      -7.313   4.718  16.509  0.00  0.00     0.066 H 
ATOM     23  H10 7QV d   1      -6.258   3.646  17.491  0.00  0.00     0.066 H 
ENDBRANCH  19  20
ENDBRANCH   6  19
BRANCH   5  24
ATOM     24  O14 7QV d   1      -4.557   6.968  13.475  0.00  0.00    -0.356 OA
BRANCH  24  25
ATOM     25  C15 7QV d   1      -3.407   7.600  12.931  0.00  0.00     0.010 C 
ATOM     26  H5  7QV d   1      -3.693   8.567  12.492  0.00  0.00     0.066 H 
ATOM     27  H6  7QV d   1      -2.970   6.958  12.152  0.00  0.00     0.066 H 
ATOM     28  H7  7QV d   1      -2.667   7.764  13.728  0.00  0.00     0.066 H 
ENDBRANCH  24  25
ENDBRANCH   5  24
TORSDOF 5
