REMARK  1 active torsions:
REMARK  status: ('A' for Active; 'I' for Inactive)
REMARK    1  A    between atoms: C04_4  and  C07_7 
ROOT
ATOM      1  C01 7Q1 d   1      -4.751   5.720  13.956  0.00  0.00    -0.083 A 
ATOM      2  C02 7Q1 d   1      -5.755   5.052  14.568  0.00  0.00    -0.082 A 
ATOM      3  C03 7Q1 d   1      -5.555   3.850  15.183  0.00  0.00    -0.074 A 
ATOM      4  C04 7Q1 d   1      -4.248   3.282  15.161  0.00  0.00    -0.020 A 
ATOM      5  C05 7Q1 d   1      -3.226   3.966  14.543  0.00  0.00    -0.074 A 
ATOM      6  C06 7Q1 d   1      -3.462   5.190  13.912  0.00  0.00    -0.082 A 
ATOM      7  H1  7Q1 d   1      -4.951   6.680  13.494  0.00  0.00     0.083 H 
ATOM      8  H2  7Q1 d   1      -6.749   5.484  14.570  0.00  0.00     0.083 H 
ATOM      9  H3  7Q1 d   1      -6.373   3.338  15.678  0.00  0.00     0.084 H 
ATOM     10  H4  7Q1 d   1      -2.225   3.550  14.546  0.00  0.00     0.084 H 
ATOM     11  H5  7Q1 d   1      -2.663   5.715  13.401  0.00  0.00     0.083 H 
ENDROOT
BRANCH   4  12
ATOM     12  C07 7Q1 d   1      -3.999   1.957  15.811  0.00  0.00     0.152 A 
ATOM     13  C08 7Q1 d   1      -4.712   0.860  15.026  0.00  0.00     0.260 A 
ATOM     14  O09 7Q1 d   1      -4.444   0.546  13.857  0.00  0.00    -0.270 OA
ATOM     15  N10 7Q1 d   1      -5.675   0.241  15.758  0.00  0.00    -0.270 N 
ATOM     16  C11 7Q1 d   1      -5.646   0.790  16.967  0.00  0.00     0.368 A 
ATOM     17  H7  7Q1 d   1      -6.287  -0.486  15.447  0.00  0.00     0.174 HD
ATOM     18  O12 7Q1 d   1      -6.237   0.616  17.984  0.00  0.00    -0.238 OA
ATOM     19  O13 7Q1 d   1      -4.641   1.785  17.100  0.00  0.00    -0.284 OA
ATOM     20  H6  7Q1 d   1      -2.915   1.784  15.880  0.00  0.00     0.107 H 
ENDBRANCH   4  12
TORSDOF 1
