REMARK  2 active torsions:
REMARK  status: ('A' for Active; 'I' for Inactive)
REMARK    1  A    between atoms: CAE_5  and  CAG_6 
REMARK    2  A    between atoms: CAJ_8  and  CAL_9 
ROOT
ATOM      1  CAG 7O4 d   1       9.787 -41.557 -10.287  0.00  0.00     0.113 A 
ATOM      2  CAF 7O4 d   1      10.056 -42.337  -9.212  0.00  0.00    -0.017 A 
ATOM      3  CAJ 7O4 d   1       9.964 -41.541  -8.128  0.00  0.00     0.129 A 
ATOM      4  NAK 7O4 d   1       9.648 -40.310  -8.539  0.00  0.00    -0.271 N 
ATOM      5  NAH 7O4 d   1       9.556 -40.327  -9.790  0.00  0.00    -0.172 NA
ATOM      6  H4  7O4 d   1      10.299 -43.398  -9.222  0.00  0.00     0.091 H 
ATOM      7  H5  7O4 d   1       9.505 -39.489  -7.934  0.00  0.00     0.189 HD
ENDROOT
BRANCH   1   8
ATOM      8  CAE 7O4 d   1       9.751 -41.945 -11.658  0.00  0.00     0.105 A 
ATOM      9  CAD 7O4 d   1      10.195 -41.296 -12.757  0.00  0.00    -0.046 A 
ATOM     10  CAA 7O4 d   1       9.940 -42.068 -13.841  0.00  0.00    -0.059 A 
ATOM     11  H1  7O4 d   1      10.676 -40.319 -12.769  0.00  0.00     0.087 H 
ATOM     12  CAB 7O4 d   1       9.333 -43.189 -13.436  0.00  0.00     0.019 A 
ATOM     13  H2  7O4 d   1      10.188 -41.817 -14.871  0.00  0.00     0.086 H 
ATOM     14  OAC 7O4 d   1       9.170 -43.133 -12.066  0.00  0.00    -0.320 OA
ATOM     15  H3  7O4 d   1       9.020 -44.010 -14.080  0.00  0.00     0.123 H 
ENDBRANCH   1   8
BRANCH   3  16
ATOM     16  CAL 7O4 d   1      10.158 -41.955  -6.639  0.00  0.00     0.228 C 
ATOM     17  OAI 7O4 d   1      11.278 -41.810  -6.104  0.00  0.00    -0.643 OA
ATOM     18  OAM 7O4 d   1       9.182 -42.445  -6.036  0.00  0.00    -0.643 OA
ENDBRANCH   3  16
TORSDOF 2
