REMARK  11 active torsions:
REMARK  status: ('A' for Active; 'I' for Inactive)
REMARK    1  A    between atoms: CA_11  and  CB_14 
REMARK    2  A    between atoms: CB_14  and  CG_15 
REMARK    3  A    between atoms: CA_22  and  CB_25 
REMARK    4  A    between atoms: C02_30  and  C03_31 
REMARK    5  A    between atoms: C03_31  and  C04_32 
REMARK    6  A    between atoms: C07_35  and  C08_36 
REMARK    7  A    between atoms: CA_45  and  CB_48 
REMARK    8  A    between atoms: CB_48  and  CG_49 
REMARK    9  A    between atoms: CA_53  and  CB_56 
REMARK   10  A    between atoms: CB_56  and  CG_57 
REMARK       I    between atoms: CG_57  and  ND2_59 
REMARK   11  A    between atoms: C02_70  and  C03_71 
REMARK       I    between atoms: C03_71  and  N05_73 
ROOT
ATOM      1  N   LYS d   1      22.331   7.575 -25.993  0.00  0.00    -0.347 N 
ATOM      2  CA  LYS d   1      22.428   7.761 -24.548  0.00  0.00     0.089 C 
ATOM      3  C   LYS d   1      23.188   9.019 -24.174  0.00  0.00     0.241 C 
ATOM      4  O   LYS d   1      23.993   9.526 -24.957  0.00  0.00    -0.271 OA
ATOM      5  CB  LYS d   1      23.108   6.560 -23.892  0.00  0.00    -0.038 C 
ATOM      6  CG  LYS d   1      22.538   5.224 -24.304  0.00  0.00    -0.061 C 
ATOM      7  CD  LYS d   1      23.037   4.112 -23.370  0.00  0.00    -0.050 C 
ATOM      8  CE  LYS d   1      22.105   2.897 -23.430  0.00  0.00    -0.005 C 
ATOM      9  NZ  LYS d   1      20.788   3.187 -22.772  0.00  0.00    -0.361 N 
ATOM     10  N   LYS d   1      22.927   9.506 -22.962  0.00  0.00    -0.346 N 
ATOM     11  CA  LYS d   1      23.622  10.656 -22.396  0.00  0.00     0.093 C 
ATOM     12  C   LYS d   1      24.018  10.356 -20.931  0.00  0.00     0.241 C 
ATOM     13  O   LYS d   1      23.231   9.784 -20.173  0.00  0.00    -0.271 OA
ATOM     14  N   LYS d   1      25.233  10.743 -20.540  0.00  0.00    -0.346 N 
ATOM     15  CA  LYS d   1      25.764  10.373 -19.234  0.00  0.00     0.086 C 
ATOM     16  C   LYS d   1      24.927  10.930 -18.088  0.00  0.00     0.240 C 
ATOM     17  O   LYS d   1      24.771  12.139 -17.939  0.00  0.00    -0.271 OA
ATOM     18  N   LYS d   1      24.372  10.036 -17.287  0.00  0.00    -0.351 N 
ATOM     19  CA  LYS d   1      23.677  10.449 -16.079  0.00  0.00     0.069 C 
ATOM     20  C   LYS d   1      22.166  10.603 -16.203  0.00  0.00     0.236 C 
ATOM     21  O   LYS d   1      21.505  11.105 -15.294  0.00  0.00    -0.272 OA
ATOM     22  C02 LYS d   1      20.758  10.065 -18.508  0.00  0.00     0.093 C 
ATOM     23  C13 LYS d   1      20.059   8.721 -18.539  0.00  0.00     0.241 C 
ATOM     24  N01 LYS d   1      21.585  10.180 -17.301  0.00  0.00    -0.346 N 
ATOM     25  O14 LYS d   1      20.610   7.670 -18.756  0.00  0.00    -0.271 OA
ATOM     26  N   LYS d   1      18.727   8.723 -18.608  0.00  0.00    -0.345 N 
ATOM     27  CA  LYS d   1      18.063   7.451 -18.911  0.00  0.00     0.098 C 
ATOM     28  C   LYS d   1      17.570   7.315 -20.357  0.00  0.00     0.241 C 
ATOM     29  O   LYS d   1      16.943   6.302 -20.698  0.00  0.00    -0.271 OA
ATOM     30  N   LYS d   1      17.844   8.312 -21.197  0.00  0.00    -0.346 N 
ATOM     31  CA  LYS d   1      17.494   8.218 -22.620  0.00  0.00     0.097 C 
ATOM     32  C   LYS d   1      18.063   6.947 -23.239  0.00  0.00     0.241 C 
ATOM     33  O   LYS d   1      19.235   6.645 -23.054  0.00  0.00    -0.271 OA
ATOM     34  N   LYS d   1      17.234   6.203 -23.956  0.00  0.00    -0.346 N 
ATOM     35  CA  LYS d   1      17.722   5.105 -24.778  0.00  0.00     0.090 C 
ATOM     36  C   LYS d   1      17.097   5.191 -26.149  0.00  0.00     0.241 C 
ATOM     37  O   LYS d   1      15.919   5.522 -26.271  0.00  0.00    -0.271 OA
ATOM     38  CB  LYS d   1      17.419   3.751 -24.127  0.00  0.00    -0.030 C 
ATOM     39  CG  LYS d   1      18.465   3.346 -23.091  0.00  0.00     0.011 C 
ATOM     40  CD  LYS d   1      19.855   3.330 -23.683  0.00  0.00     0.217 C 
ATOM     41  OE2 LYS d   1      20.017   2.761 -24.779  0.00  0.00    -0.274 OA
ATOM     42  O10 LYS d   1      20.233   8.202 -26.018  0.00  0.00    -0.273 OA
ATOM     43  N01 LYS d   1      18.100   5.723 -26.828  0.00  0.00    -0.345 N 
ATOM     44  C02 LYS d   1      17.400   6.455 -27.926  0.00  0.00     0.097 C 
ATOM     45  C06 LYS d   1      18.149   7.847 -28.252  0.00  0.00     0.004 C 
ATOM     46  S07 LYS d   1      19.816   7.914 -29.014  0.00  0.00    -0.157 SA
ATOM     47  C08 LYS d   1      21.096   7.075 -27.979  0.00  0.00     0.051 C 
ATOM     48  C09 LYS d   1      21.191   7.819 -26.635  0.00  0.00     0.227 C 
ATOM     49  H1  LYS d   1      23.130   7.261 -26.506  0.00  0.00     0.163 HD
ATOM     50  H2  LYS d   1      21.406   7.846 -24.150  0.00  0.00     0.087 H 
ATOM     51  H3  LYS d   1      23.004   6.658 -22.801  0.00  0.00     0.036 H 
ATOM     52  H4  LYS d   1      24.174   6.578 -24.161  0.00  0.00     0.036 H 
ATOM     53  H5  LYS d   1      22.852   4.999 -25.334  0.00  0.00     0.033 H 
ATOM     54  H6  LYS d   1      21.440   5.270 -24.257  0.00  0.00     0.033 H 
ATOM     55  H7  LYS d   1      23.068   4.493 -22.339  0.00  0.00     0.035 H 
ATOM     56  H8  LYS d   1      24.048   3.807 -23.679  0.00  0.00     0.035 H 
ATOM     57  H9  LYS d   1      22.584   2.052 -22.915  0.00  0.00     0.064 H 
ATOM     58  H10 LYS d   1      21.929   2.632 -24.483  0.00  0.00     0.064 H 
ATOM     59  H11 LYS d   1      20.643   3.260 -21.785  0.00  0.00     0.162 HD
ATOM     60  H12 LYS d   1      22.219   9.061 -22.413  0.00  0.00     0.163 HD
ATOM     61  H13 LYS d   1      24.537  10.837 -22.979  0.00  0.00     0.088 H 
ATOM     62  H21 LYS d   1      25.791  11.299 -21.156  0.00  0.00     0.163 HD
ATOM     63  H22 LYS d   1      25.747   9.275 -19.163  0.00  0.00     0.086 H 
ATOM     64  H26 LYS d   1      24.431   9.064 -17.515  0.00  0.00     0.163 HD
ATOM     65  H27 LYS d   1      24.091  11.419 -15.767  0.00  0.00     0.078 H 
ATOM     66  H28 LYS d   1      23.877   9.698 -15.301  0.00  0.00     0.078 H 
ATOM     67  H29 LYS d   1      21.442  10.091 -19.369  0.00  0.00     0.088 H 
ATOM     68  H36 LYS d   1      22.028   9.285 -17.354  0.00  0.00     0.163 HD
ATOM     69  H37 LYS d   1      18.201   9.560 -18.459  0.00  0.00     0.163 HD
ATOM     70  H38 LYS d   1      18.797   6.650 -18.738  0.00  0.00     0.088 H 
ATOM     71  H41 LYS d   1      18.294   9.136 -20.854  0.00  0.00     0.163 HD
ATOM     72  H42 LYS d   1      16.397   8.194 -22.703  0.00  0.00     0.088 H 
ATOM     73  H47 LYS d   1      16.254   6.399 -23.932  0.00  0.00     0.163 HD
ATOM     74  H48 LYS d   1      18.813   5.202 -24.882  0.00  0.00     0.087 H 
ATOM     75  H49 LYS d   1      17.387   2.982 -24.913  0.00  0.00     0.037 H 
ATOM     76  H50 LYS d   1      16.439   3.811 -23.632  0.00  0.00     0.037 H 
ATOM     77  H51 LYS d   1      18.225   2.340 -22.715  0.00  0.00     0.047 H 
ATOM     78  H52 LYS d   1      18.440   4.064 -22.258  0.00  0.00     0.047 H 
ATOM     79  H53 LYS d   1      19.082   5.653 -26.651  0.00  0.00     0.163 HD
ATOM     80  H54 LYS d   1      16.428   6.760 -27.510  0.00  0.00     0.088 H 
ATOM     81  H57 LYS d   1      18.229   8.382 -27.294  0.00  0.00     0.052 H 
ATOM     82  H58 LYS d   1      17.482   8.402 -28.928  0.00  0.00     0.052 H 
ATOM     83  H59 LYS d   1      22.069   7.107 -28.492  0.00  0.00     0.063 H 
ATOM     84  H60 LYS d   1      20.807   6.028 -27.805  0.00  0.00     0.063 H 
ENDROOT
BRANCH  22  85
ATOM     85  C03 LYS d   1      19.812  11.222 -18.680  0.00  0.00    -0.014 C 
ATOM     86  H30 LYS d   1      18.896  10.964 -18.128  0.00  0.00     0.043 H 
ATOM     87  H31 LYS d   1      19.587  11.287 -19.755  0.00  0.00     0.043 H 
BRANCH  85  88
ATOM     88  C04 LYS d   1      20.208  12.615 -18.235  0.00  0.00    -0.056 A 
ATOM     89  C05 LYS d   1      21.379  13.245 -18.654  0.00  0.00    -0.076 A 
ATOM     90  C06 LYS d   1      21.640  14.532 -18.204  0.00  0.00    -0.066 A 
ATOM     91  H32 LYS d   1      22.072  12.740 -19.318  0.00  0.00     0.084 H 
ATOM     92  C07 LYS d   1      20.752  15.187 -17.355  0.00  0.00     0.040 A 
ATOM     93  H33 LYS d   1      22.548  15.034 -18.518  0.00  0.00     0.085 H 
ATOM     94  C11 LYS d   1      19.585  14.554 -16.947  0.00  0.00    -0.066 A 
ATOM     95  C12 LYS d   1      19.327  13.276 -17.395  0.00  0.00    -0.076 A 
ATOM     96  H34 LYS d   1      18.888  15.057 -16.287  0.00  0.00     0.085 H 
ATOM     97  H35 LYS d   1      18.416  12.778 -17.084  0.00  0.00     0.084 H 
BRANCH  92  98
ATOM     98  C08 LYS d   1      20.986  16.593 -16.877  0.00  0.00     0.209 C 
ATOM     99  O09 LYS d   1      20.553  16.883 -15.727  0.00  0.00    -0.644 OA
ATOM    100  O10 LYS d   1      21.509  17.446 -17.634  0.00  0.00    -0.644 OA
ENDBRANCH  92  98
ENDBRANCH  85  88
ENDBRANCH  22  85
BRANCH  27 101
ATOM    101  CB  LYS d   1      16.893   7.241 -17.958  0.00  0.00     0.043 C 
ATOM    102  H39 LYS d   1      16.346   6.337 -18.262  0.00  0.00     0.052 H 
ATOM    103  H40 LYS d   1      16.225   8.113 -18.020  0.00  0.00     0.052 H 
BRANCH 101 104
ATOM    104  CG  LYS d   1      17.351   7.075 -16.517  0.00  0.00     0.175 C 
ATOM    105  OD1 LYS d   1      18.342   6.349 -16.314  0.00  0.00    -0.648 OA
ATOM    106  OD2 LYS d   1      16.747   7.674 -15.604  0.00  0.00    -0.648 OA
ENDBRANCH 101 104
ENDBRANCH  27 101
BRANCH  31 107
ATOM    107  CB  LYS d   1      18.020   9.418 -23.413  0.00  0.00     0.036 C 
ATOM    108  H43 LYS d   1      17.578   9.393 -24.420  0.00  0.00     0.051 H 
ATOM    109  H44 LYS d   1      19.114   9.334 -23.491  0.00  0.00     0.051 H 
BRANCH 107 110
ATOM    110  CG  LYS d   1      17.682  10.748 -22.770  0.00  0.00     0.217 C 
ATOM    111  OD1 LYS d   1      17.911  10.949 -21.592  0.00  0.00    -0.274 OA
ATOM    112  ND2 LYS d   1      17.132  11.670 -23.562  0.00  0.00    -0.370 N 
ATOM    113  H45 LYS d   1      16.888  12.566 -23.192  0.00  0.00     0.159 HD
ATOM    114  H46 LYS d   1      16.963  11.465 -24.526  0.00  0.00     0.159 HD
ENDBRANCH 107 110
ENDBRANCH  31 107
BRANCH  15 115
ATOM    115  CB  LYS d   1      27.220  10.844 -19.091  0.00  0.00    -0.049 C 
ATOM    116  H23 LYS d   1      27.603  10.556 -18.101  0.00  0.00     0.030 H 
ATOM    117  H24 LYS d   1      27.264  11.938 -19.197  0.00  0.00     0.030 H 
ATOM    118  H25 LYS d   1      27.836  10.375 -19.873  0.00  0.00     0.030 H 
ENDBRANCH  15 115
BRANCH  11 119
ATOM    119  CB  LYS d   1      22.741  11.905 -22.473  0.00  0.00    -0.014 C 
ATOM    120  H14 LYS d   1      23.368  12.786 -22.273  0.00  0.00     0.043 H 
ATOM    121  H15 LYS d   1      21.960  11.828 -21.702  0.00  0.00     0.043 H 
BRANCH 119 122
ATOM    122  CG  LYS d   1      22.073  12.089 -23.810  0.00  0.00    -0.056 A 
ATOM    123  CD1 LYS d   1      22.643  12.904 -24.785  0.00  0.00    -0.077 A 
ATOM    124  CE1 LYS d   1      22.037  13.067 -26.019  0.00  0.00    -0.082 A 
ATOM    125  H16 LYS d   1      23.574  13.418 -24.575  0.00  0.00     0.084 H 
ATOM    126  CZ  LYS d   1      20.850  12.403 -26.293  0.00  0.00    -0.083 A 
ATOM    127  H18 LYS d   1      22.487  13.710 -26.767  0.00  0.00     0.083 H 
ATOM    128  CE2 LYS d   1      20.266  11.588 -25.332  0.00  0.00    -0.082 A 
ATOM    129  H20 LYS d   1      20.377  12.521 -27.261  0.00  0.00     0.083 H 
ATOM    130  CD2 LYS d   1      20.882  11.442 -24.091  0.00  0.00    -0.077 A 
ATOM    131  H19 LYS d   1      19.338  11.070 -25.546  0.00  0.00     0.083 H 
ATOM    132  H17 LYS d   1      20.423  10.814 -23.336  0.00  0.00     0.084 H 
ENDBRANCH 119 122
ENDBRANCH  11 119
BRANCH  44 133
ATOM    133  C03 LYS d   1      17.005   5.447 -29.181  0.00  0.00     0.239 C 
ATOM    134  O04 LYS d   1      16.006   5.683 -29.874  0.00  0.00    -0.271 OA
ATOM    135  N05 LYS d   1      17.748   4.367 -29.366  0.00  0.00    -0.368 N 
ATOM    136  H55 LYS d   1      17.538   3.737 -30.114  0.00  0.00     0.159 HD
ATOM    137  H56 LYS d   1      18.520   4.181 -28.758  0.00  0.00     0.159 HD
ENDBRANCH  44 133
TORSDOF 11
