REMARK  5 active torsions:
REMARK  status: ('A' for Active; 'I' for Inactive)
REMARK    1  A    between atoms: C04_4  and  B05_5 
REMARK    2  A    between atoms: B05_5  and  O06_6 
REMARK    3  A    between atoms: B05_5  and  O07_7 
REMARK    4  A    between atoms: C10_9  and  O11_10 
REMARK    5  A    between atoms: O11_10  and  C12_11 
ROOT
ATOM      1 BR   7ND d   1     -16.850 -10.904 -18.062  0.00  0.00    -0.051 Br
ATOM      2  C02 7ND d   1     -16.771  -9.546 -19.389  0.00  0.00     0.013 A 
ATOM      3  C03 7ND d   1     -17.632  -9.662 -20.464  0.00  0.00    -0.065 A 
ATOM      4  C04 7ND d   1     -17.601  -8.702 -21.456  0.00  0.00    -0.028 A 
ATOM      5  C09 7ND d   1     -16.718  -7.645 -21.382  0.00  0.00    -0.049 A 
ATOM      6  C10 7ND d   1     -15.860  -7.520 -20.307  0.00  0.00     0.077 A 
ATOM      7  C18 7ND d   1     -15.871  -8.492 -19.315  0.00  0.00    -0.034 A 
ATOM      8  H1  7ND d   1     -18.322 -10.495 -20.527  0.00  0.00     0.085 H 
ATOM      9  H7  7ND d   1     -16.697  -6.906 -22.175  0.00  0.00     0.087 H 
ATOM     10  H13 7ND d   1     -15.178  -8.428 -18.484  0.00  0.00     0.089 H 
ENDROOT
BRANCH   6  11
ATOM     11  O11 7ND d   1     -14.988  -6.413 -20.309  0.00  0.00    -0.311 OA
BRANCH  11  12
ATOM     12  C12 7ND d   1     -14.304  -6.158 -19.122  0.00  0.00     0.076 A 
ATOM     13  C13 7ND d   1     -12.935  -6.349 -19.111  0.00  0.00    -0.050 A 
ATOM     14  C14 7ND d   1     -12.203  -6.059 -17.966  0.00  0.00    -0.080 A 
ATOM     15  H8  7ND d   1     -12.433  -6.725 -19.995  0.00  0.00     0.087 H 
ATOM     16  C15 7ND d   1     -12.862  -5.565 -16.843  0.00  0.00    -0.083 A 
ATOM     17  H9  7ND d   1     -11.130  -6.216 -17.947  0.00  0.00     0.083 H 
ATOM     18  C16 7ND d   1     -14.240  -5.362 -16.855  0.00  0.00    -0.080 A 
ATOM     19  H10 7ND d   1     -12.295  -5.335 -15.948  0.00  0.00     0.083 H 
ATOM     20  C17 7ND d   1     -14.957  -5.653 -18.011  0.00  0.00    -0.050 A 
ATOM     21  H11 7ND d   1     -14.747  -4.982 -15.975  0.00  0.00     0.083 H 
ATOM     22  H12 7ND d   1     -16.027  -5.484 -18.042  0.00  0.00     0.087 H 
ENDBRANCH  11  12
ENDBRANCH   6  11
BRANCH   4  23
ATOM     23  B05 7ND d   1     -18.657  -8.833 -22.724  0.00  0.00     0.529 B 
BRANCH  23  24
ATOM     24  O06 7ND d   1     -18.139  -7.942 -23.998  0.00  0.00    -0.433 OA
ATOM     25  H3  7ND d   1     -17.998  -7.045 -23.719  0.00  0.00     0.185 HD
ENDBRANCH  23  24
BRANCH  23  26
ATOM     26  O07 7ND d   1     -20.065  -8.121 -22.238  0.00  0.00    -0.433 OA
ATOM     27  H6  7ND d   1     -20.419  -8.596 -21.495  0.00  0.00     0.185 HD
ENDBRANCH  23  26
ENDBRANCH   4  23
TORSDOF 5
