REMARK  5 active torsions:
REMARK  status: ('A' for Active; 'I' for Inactive)
REMARK    1  A    between atoms: B02_1  and  O03_2 
REMARK    2  A    between atoms: B02_1  and  C04_3 
REMARK    3  A    between atoms: C07_6  and  O08_7 
REMARK    4  A    between atoms: O08_7  and  C09_8 
REMARK    5  A    between atoms: C09_8  and  C10_9 
ROOT
ATOM      1  O08 7N4 d   1      14.177   7.778 -18.624  0.00  0.00    -0.345 OA
ENDROOT
BRANCH   1   2
ATOM      2  C07 7N4 d   1      15.235   8.087 -19.600  0.00  0.00     0.090 A 
ATOM      3  C06 7N4 d   1      15.547   7.132 -20.567  0.00  0.00    -0.053 A 
ATOM      4  C05 7N4 d   1      16.518   7.382 -21.494  0.00  0.00    -0.100 A 
ATOM      5  H5  7N4 d   1      15.016   6.187 -20.583  0.00  0.00     0.087 H 
ATOM      6  C04 7N4 d   1      17.193   8.602 -21.465  0.00  0.00    -0.022 A 
ATOM      7  H4  7N4 d   1      16.762   6.639 -22.245  0.00  0.00     0.076 H 
ATOM      8  C19 7N4 d   1      16.905   9.566 -20.502  0.00  0.00    -0.079 A 
ATOM      9  H3  7N4 d   1      17.957   8.804 -22.207  0.00  0.00     0.039 H 
ATOM     10  C17 7N4 d   1      15.942   9.317 -19.587  0.00  0.00     0.063 A 
ATOM     11  H12 7N4 d   1      17.447  10.505 -20.486  0.00  0.00     0.079 H 
ATOM     12 CL   7N4 d   1      15.639  10.614 -18.410  0.00  0.00    -0.082 Cl
BRANCH   6  13
ATOM     13  B02 7N4 d   1      18.387   8.915 -22.587  0.00  0.00     0.330 B 
BRANCH  13  14
ATOM     14  O03 7N4 d   1      19.321   7.895 -22.908  0.00  0.00    -0.466 OA
ATOM     15  H1  7N4 d   1      19.934   8.221 -23.557  0.00  0.00     0.181 HD
ENDBRANCH  13  14
ENDBRANCH   6  13
ENDBRANCH   1   2
BRANCH   1  16
ATOM     16  C09 7N4 d   1      14.022   6.363 -18.316  0.00  0.00     0.053 C 
ATOM     17  H6  7N4 d   1      13.680   6.255 -17.276  0.00  0.00     0.082 H 
ATOM     18  H7  7N4 d   1      14.992   5.858 -18.437  0.00  0.00     0.082 H 
BRANCH  16  19
ATOM     19  C10 7N4 d   1      12.987   5.709 -19.263  0.00  0.00     0.004 A 
ATOM     20  C11 7N4 d   1      13.179   4.452 -19.679  0.00  0.00    -0.072 A 
ATOM     21  C12 7N4 d   1      12.246   3.856 -20.545  0.00  0.00    -0.082 A 
ATOM     22  H8  7N4 d   1      14.050   3.896 -19.350  0.00  0.00     0.084 H 
ATOM     23  C13 7N4 d   1      11.112   4.575 -20.972  0.00  0.00    -0.080 A 
ATOM     24  H9  7N4 d   1      12.400   2.838 -20.886  0.00  0.00     0.083 H 
ATOM     25  C14 7N4 d   1      10.916   5.839 -20.555  0.00  0.00    -0.045 A 
ATOM     26  H10 7N4 d   1      10.396   4.108 -21.638  0.00  0.00     0.083 H 
ATOM     27  C15 7N4 d   1      11.829   6.430 -19.705  0.00  0.00     0.124 A 
ATOM     28  H11 7N4 d   1      10.044   6.391 -20.886  0.00  0.00     0.088 H 
ATOM     29  F16 7N4 d   1      11.620   7.691 -19.293  0.00  0.00    -0.205 F 
ENDBRANCH  16  19
ENDBRANCH   1  16
TORSDOF 5
