REMARK  3 active torsions:
REMARK  status: ('A' for Active; 'I' for Inactive)
REMARK    1  A    between atoms: B02_3  and  O01_2 
REMARK    2  A    between atoms: B02_3  and  O03_4 
REMARK    3  A    between atoms: C05_5  and  B02_3 
ROOT
ATOM      1  C13 7N7 d   1     -16.017  -7.536 -20.287  0.00  0.00    -0.072 A 
ATOM      2  C05 7N7 d   1     -17.430  -8.960 -21.618  0.00  0.00    -0.032 A 
ATOM      3  C06 7N7 d   1     -17.330 -10.006 -20.683  0.00  0.00    -0.071 A 
ATOM      4  C07 7N7 d   1     -16.532  -9.776 -19.502  0.00  0.00    -0.026 A 
ATOM      5  C08 7N7 d   1     -16.380 -10.782 -18.533  0.00  0.00    -0.072 A 
ATOM      6  C09 7N7 d   1     -15.606 -10.550 -17.402  0.00  0.00    -0.082 A 
ATOM      7  C10 7N7 d   1     -14.964  -9.330 -17.210  0.00  0.00    -0.082 A 
ATOM      8  C11 7N7 d   1     -15.102  -8.352 -18.167  0.00  0.00    -0.072 A 
ATOM      9  C12 7N7 d   1     -15.889  -8.584 -19.318  0.00  0.00    -0.026 A 
ATOM     10  C14 7N7 d   1     -16.783  -7.726 -21.431  0.00  0.00    -0.081 A 
ATOM     11  H1  7N7 d   1     -15.513  -6.590 -20.127  0.00  0.00     0.084 H 
ATOM     12  H7  7N7 d   1     -17.834 -10.952 -20.843  0.00  0.00     0.084 H 
ATOM     13  H8  7N7 d   1     -16.867 -11.741 -18.668  0.00  0.00     0.084 H 
ATOM     14  H9  7N7 d   1     -15.501 -11.331 -16.658  0.00  0.00     0.083 H 
ATOM     15  H10 7N7 d   1     -14.367  -9.154 -16.323  0.00  0.00     0.083 H 
ATOM     16  H11 7N7 d   1     -14.604  -7.398 -18.038  0.00  0.00     0.084 H 
ATOM     17  H12 7N7 d   1     -16.880  -6.936 -22.167  0.00  0.00     0.083 H 
ENDROOT
BRANCH   2  18
ATOM     18  B02 7N7 d   1     -18.324  -9.104 -23.027  0.00  0.00     0.529 B 
BRANCH  18  19
ATOM     19  O01 7N7 d   1     -17.626  -8.173 -24.234  0.00  0.00    -0.433 OA
ATOM     20  H3  7N7 d   1     -16.770  -8.524 -24.448  0.00  0.00     0.185 HD
ENDBRANCH  18  19
BRANCH  18  21
ATOM     21  O03 7N7 d   1     -19.814  -8.388 -22.744  0.00  0.00    -0.433 OA
ATOM     22  H5  7N7 d   1     -20.271  -8.868 -22.064  0.00  0.00     0.185 HD
ENDBRANCH  18  21
ENDBRANCH   2  18
TORSDOF 3
