REMARK  3 active torsions:
REMARK  status: ('A' for Active; 'I' for Inactive)
REMARK    1  A    between atoms: C04_4  and  B05_5 
REMARK    2  A    between atoms: B05_5  and  O06_6 
REMARK    3  A    between atoms: C09_8  and  N10_9 
ROOT
ATOM      1 BR   7NS d   1      15.438  10.552 -18.471  0.00  0.00    -0.051 Br
ATOM      2  C02 7NS d   1      15.866   9.263 -19.809  0.00  0.00     0.012 A 
ATOM      3  C03 7NS d   1      16.826   9.624 -20.727  0.00  0.00    -0.068 A 
ATOM      4  C04 7NS d   1      17.166   8.718 -21.696  0.00  0.00    -0.068 A 
ATOM      5  C08 7NS d   1      16.578   7.471 -21.756  0.00  0.00    -0.059 A 
ATOM      6  C09 7NS d   1      15.607   7.119 -20.831  0.00  0.00     0.038 A 
ATOM      7  C15 7NS d   1      15.250   8.020 -19.838  0.00  0.00    -0.040 A 
ATOM      8  H1  7NS d   1      17.300  10.598 -20.684  0.00  0.00     0.085 H 
ATOM      9  H5  7NS d   1      16.875   6.768 -22.525  0.00  0.00     0.086 H 
ATOM     10  H11 7NS d   1      14.503   7.757 -19.098  0.00  0.00     0.089 H 
ENDROOT
BRANCH   6  11
ATOM     11  N10 7NS d   1      15.016   5.831 -20.885  0.00  0.00    -0.337 N 
ATOM     12  C11 7NS d   1      15.310   4.895 -21.743  0.00  0.00    -0.032 C 
ATOM     13  C12 7NS d   1      14.349   3.691 -21.451  0.00  0.00    -0.019 C 
ATOM     14  H6  7NS d   1      16.077   4.941 -22.515  0.00  0.00     0.105 H 
ATOM     15  C13 7NS d   1      13.352   4.185 -20.414  0.00  0.00    -0.083 C 
ATOM     16  H7  7NS d   1      14.918   2.836 -21.056  0.00  0.00     0.046 H 
ATOM     17  H8  7NS d   1      13.825   3.390 -22.370  0.00  0.00     0.046 H 
ATOM     18  C14 7NS d   1      13.868   5.299 -19.895  0.00  0.00    -0.019 C 
ATOM     19  H9  7NS d   1      12.404   3.720 -20.148  0.00  0.00     0.079 H 
ATOM     20  H10 7NS d   1      13.564   5.768 -18.960  0.00  0.00     0.111 H 
ENDBRANCH   6  11
BRANCH   4  21
ATOM     21  B05 7NS d   1      18.306   9.130 -22.780  0.00  0.00     0.359 B 
BRANCH  21  22
ATOM     22  O06 7NS d   1      19.310   8.203 -23.136  0.00  0.00    -0.463 OA
ATOM     23  H3  7NS d   1      19.892   8.598 -23.775  0.00  0.00     0.182 HD
ENDBRANCH  21  22
ENDBRANCH   4  21
TORSDOF 3
