REMARK  6 active torsions:
REMARK  status: ('A' for Active; 'I' for Inactive)
REMARK    1  A    between atoms: C01_1  and  C02_2 
REMARK    2  A    between atoms: C03_3  and  O04_4 
REMARK    3  A    between atoms: O04_4  and  C05_5 
REMARK    4  A    between atoms: C05_5  and  C06_6 
REMARK    5  A    between atoms: C13_13  and  B14_14 
REMARK    6  A    between atoms: B14_14  and  O15_15 
ROOT
ATOM      1  C02 7NM d   1     -15.206  -8.305 -19.711  0.00  0.00    -0.029 A 
ATOM      2  C03 7NM d   1     -15.707  -7.289 -20.594  0.00  0.00     0.074 A 
ATOM      3  C12 7NM d   1     -16.713  -7.565 -21.478  0.00  0.00    -0.053 A 
ATOM      4  C13 7NM d   1     -17.282  -8.922 -21.512  0.00  0.00    -0.069 A 
ATOM      5  C17 7NM d   1     -16.805  -9.901 -20.668  0.00  0.00    -0.085 A 
ATOM      6  C18 7NM d   1     -15.747  -9.599 -19.738  0.00  0.00    -0.075 A 
ATOM      7  H11 7NM d   1     -17.086  -6.795 -22.144  0.00  0.00     0.087 H 
ATOM      8  H15 7NM d   1     -17.226 -10.899 -20.704  0.00  0.00     0.082 H 
ATOM      9  H16 7NM d   1     -15.373 -10.363 -19.066  0.00  0.00     0.084 H 
ENDROOT
BRANCH   2  10
ATOM     10  O04 7NM d   1     -15.128  -5.980 -20.532  0.00  0.00    -0.346 OA
BRANCH  10  11
ATOM     11  C05 7NM d   1     -15.260  -5.243 -21.698  0.00  0.00     0.050 C 
ATOM     12  H4  7NM d   1     -16.322  -5.113 -21.954  0.00  0.00     0.082 H 
ATOM     13  H5  7NM d   1     -14.740  -5.740 -22.530  0.00  0.00     0.082 H 
BRANCH  11  14
ATOM     14  C06 7NM d   1     -14.598  -3.861 -21.385  0.00  0.00    -0.034 A 
ATOM     15  C07 7NM d   1     -15.191  -2.646 -21.914  0.00  0.00    -0.075 A 
ATOM     16  C08 7NM d   1     -14.598  -1.423 -21.639  0.00  0.00    -0.082 A 
ATOM     17  H6  7NM d   1     -16.089  -2.694 -22.519  0.00  0.00     0.084 H 
ATOM     18  C09 7NM d   1     -13.469  -1.363 -20.864  0.00  0.00    -0.083 A 
ATOM     19  H7  7NM d   1     -15.029  -0.512 -22.038  0.00  0.00     0.083 H 
ATOM     20  C10 7NM d   1     -12.894  -2.564 -20.334  0.00  0.00    -0.082 A 
ATOM     21  H8  7NM d   1     -13.010  -0.404 -20.651  0.00  0.00     0.083 H 
ATOM     22  C11 7NM d   1     -13.497  -3.814 -20.620  0.00  0.00    -0.075 A 
ATOM     23  H9  7NM d   1     -12.003  -2.517 -19.718  0.00  0.00     0.083 H 
ATOM     24  H10 7NM d   1     -13.071  -4.728 -20.223  0.00  0.00     0.084 H 
ENDBRANCH  11  14
ENDBRANCH  10  11
ENDBRANCH   2  10
BRANCH   1  25
ATOM     25  C01 7NM d   1     -14.060  -7.936 -18.753  0.00  0.00    -0.049 C 
ATOM     26  H1  7NM d   1     -13.791  -8.814 -18.148  0.00  0.00     0.033 H 
ATOM     27  H2  7NM d   1     -14.384  -7.120 -18.091  0.00  0.00     0.033 H 
ATOM     28  H3  7NM d   1     -13.186  -7.610 -19.335  0.00  0.00     0.033 H 
ENDBRANCH   1  25
BRANCH   4  29
ATOM     29  B14 7NM d   1     -18.523  -9.252 -22.602  0.00  0.00     0.359 B 
BRANCH  29  30
ATOM     30  O15 7NM d   1     -19.468  -8.265 -22.946  0.00  0.00    -0.463 OA
ATOM     31  H14 7NM d   1     -20.089  -8.626 -23.568  0.00  0.00     0.182 HD
ENDBRANCH  29  30
ENDBRANCH   4  29
TORSDOF 6
