REMARK  19 active torsions:
REMARK  status: ('A' for Active; 'I' for Inactive)
REMARK    1  A    between atoms: C1_1  and  N2_9 
REMARK    2  A    between atoms: S8_46  and  C5_5 
REMARK    3  A    between atoms: C7_7  and  O1_38 
REMARK    4  A    between atoms: N2_9  and  C79_34 
REMARK    5  A    between atoms: C9_35  and  C8_10 
REMARK    6  A    between atoms: C32_25  and  C07_12 
REMARK    7  A    between atoms: C12_16  and  C13_17 
REMARK    8  A    between atoms: N11_36  and  C12_16 
REMARK    9  A    between atoms: C13_17  and  C14_18 
REMARK   10  A    between atoms: C13_17  and  C15_19 
REMARK   11  A    between atoms: C16_20  and  C17_21 
REMARK   12  A    between atoms: N11_36  and  C16_20 
REMARK   13  A    between atoms: C17_21  and  C19_22 
REMARK   14  A    between atoms: C17_21  and  O18_40 
REMARK   15  A    between atoms: C19_22  and  C32_25 
REMARK   16  A    between atoms: C19_22  and  N20_37 
REMARK       I    between atoms: N20_37  and  C21_23 
REMARK   17  A    between atoms: C21_23  and  O23_43 
REMARK   18  A    between atoms: O23_43  and  C49_31 
REMARK   19  A    between atoms: N11_36  and  S8_46 
ROOT
ATOM      1  C17 7O7 d   1     -10.320  17.645   0.027  0.00  0.00     0.067 C 
ATOM      2  H26 7O7 d   1      -9.478  18.029   0.622  0.00  0.00     0.088 H 
ENDROOT
BRANCH   1   3
ATOM      3  C16 7O7 d   1      -9.933  17.621  -1.467  0.00  0.00     0.019 C 
ATOM      4  H24 7O7 d   1      -9.793  18.651  -1.826  0.00  0.00     0.061 H 
ATOM      5  H25 7O7 d   1     -10.734  17.137  -2.045  0.00  0.00     0.061 H 
BRANCH   3   6
ATOM      6  N11 7O7 d   1      -8.657  16.854  -1.644  0.00  0.00    -0.204 NA
BRANCH   6   7
ATOM      7  C12 7O7 d   1      -7.458  17.677  -1.970  0.00  0.00    -0.004 C 
ATOM      8  H15 7O7 d   1      -6.912  17.169  -2.779  0.00  0.00     0.058 H 
ATOM      9  H16 7O7 d   1      -7.810  18.657  -2.324  0.00  0.00     0.058 H 
BRANCH   7  10
ATOM     10  C13 7O7 d   1      -6.452  17.926  -0.797  0.00  0.00    -0.049 C 
ATOM     11  H17 7O7 d   1      -5.454  17.677  -1.187  0.00  0.00     0.040 H 
BRANCH  10  12
ATOM     12  C14 7O7 d   1      -6.420  19.424  -0.414  0.00  0.00    -0.072 C 
ATOM     13  H18 7O7 d   1      -5.708  19.576   0.411  0.00  0.00     0.028 H 
ATOM     14  H19 7O7 d   1      -7.423  19.743  -0.096  0.00  0.00     0.028 H 
ATOM     15  H20 7O7 d   1      -6.106  20.018  -1.284  0.00  0.00     0.028 H 
ENDBRANCH  10  12
BRANCH  10  16
ATOM     16  C15 7O7 d   1      -6.671  17.013   0.433  0.00  0.00    -0.072 C 
ATOM     17  H21 7O7 d   1      -6.686  15.961   0.111  0.00  0.00     0.028 H 
ATOM     18  H22 7O7 d   1      -7.630  17.264   0.910  0.00  0.00     0.028 H 
ATOM     19  H23 7O7 d   1      -5.853  17.164   1.152  0.00  0.00     0.028 H 
ENDBRANCH  10  16
ENDBRANCH   7  10
ENDBRANCH   6   7
BRANCH   6  20
ATOM     20  S8  7O7 d   1      -8.826  15.420  -2.612  0.00  0.00     0.243 S 
ATOM     21  O10 7O7 d   1      -7.749  14.489  -2.284  0.00  0.00    -0.206 OA
ATOM     22  O9  7O7 d   1     -10.173  14.838  -2.457  0.00  0.00    -0.206 OA
BRANCH  20  23
ATOM     23  C5  7O7 d   1      -8.650  15.996  -4.333  0.00  0.00     0.076 A 
ATOM     24  C4  7O7 d   1      -9.734  16.483  -5.058  0.00  0.00    -0.059 A 
ATOM     25  C3  7O7 d   1      -9.583  16.937  -6.364  0.00  0.00    -0.052 A 
ATOM     26  H2  7O7 d   1     -10.714  16.509  -4.596  0.00  0.00     0.086 H 
ATOM     27  C2  7O7 d   1      -8.337  16.915  -6.960  0.00  0.00     0.077 A 
ATOM     28  H1  7O7 d   1     -10.441  17.307  -6.913  0.00  0.00     0.087 H 
ATOM     29  N1  7O7 d   1      -8.033  17.306  -8.193  0.00  0.00    -0.224 NA
ATOM     30  C39 7O7 d   1      -7.257  16.439  -6.259  0.00  0.00     0.038 A 
ATOM     31  C1  7O7 d   1      -6.729  17.169  -8.531  0.00  0.00     0.168 A 
ATOM     32  S1  7O7 d   1      -5.834  16.487  -7.193  0.00  0.00    -0.050 SA
ATOM     33  C6  7O7 d   1      -7.401  15.979  -4.950  0.00  0.00    -0.042 A 
ATOM     34  H3  7O7 d   1      -6.537  15.607  -4.411  0.00  0.00     0.088 H 
BRANCH  31  35
ATOM     35  N2  7O7 d   1      -6.183  17.542  -9.838  0.00  0.00    -0.364 N 
ATOM     36  H5  7O7 d   1      -6.820  17.840 -10.591  0.00  0.00     0.162 HD
BRANCH  35  37
ATOM     37  C79 7O7 d   1      -4.741  17.496 -10.085  0.00  0.00     0.011 A 
ATOM     38  C29 7O7 d   1      -3.992  18.629  -9.380  0.00  0.00    -0.044 A 
ATOM     39  C36 7O7 d   1      -4.250  18.699 -10.901  0.00  0.00    -0.044 A 
ATOM     40  H28 7O7 d   1      -4.530  19.304  -8.699  0.00  0.00     0.036 H 
ATOM     41  H29 7O7 d   1      -2.973  18.463  -9.002  0.00  0.00     0.036 H 
ATOM     42  H35 7O7 d   1      -3.415  18.582 -11.607  0.00  0.00     0.036 H 
ATOM     43  H36 7O7 d   1      -4.973  19.423 -11.305  0.00  0.00     0.036 H 
ATOM     44  H40 7O7 d   1      -4.338  16.479 -10.198  0.00  0.00     0.072 H 
ENDBRANCH  35  37
ENDBRANCH  31  35
ENDBRANCH  20  23
ENDBRANCH   6  20
ENDBRANCH   3   6
ENDBRANCH   1   3
BRANCH   1  45
ATOM     45  C19 7O7 d   1     -10.672  16.234   0.485  0.00  0.00     0.044 C 
ATOM     46  H27 7O7 d   1      -9.895  15.522   0.170  0.00  0.00     0.077 H 
BRANCH  45  47
ATOM     47  C32 7O7 d   1     -12.038  15.802  -0.058  0.00  0.00    -0.020 C 
ATOM     48  H30 7O7 d   1     -12.808  16.530   0.236  0.00  0.00     0.043 H 
ATOM     49  H31 7O7 d   1     -12.002  15.729  -1.155  0.00  0.00     0.043 H 
BRANCH  47  50
ATOM     50  C07 7O7 d   1     -12.356  14.409   0.560  0.00  0.00    -0.056 A 
ATOM     51  C06 7O7 d   1     -13.283  14.282   1.597  0.00  0.00    -0.077 A 
ATOM     52  C33 7O7 d   1     -13.557  13.027   2.145  0.00  0.00    -0.082 A 
ATOM     53  H9  7O7 d   1     -13.791  15.160   1.978  0.00  0.00     0.084 H 
ATOM     54  C35 7O7 d   1     -12.893  11.903   1.659  0.00  0.00    -0.083 A 
ATOM     55  H32 7O7 d   1     -14.283  12.928   2.944  0.00  0.00     0.083 H 
ATOM     56  C34 7O7 d   1     -11.963  12.030   0.625  0.00  0.00    -0.082 A 
ATOM     57  H34 7O7 d   1     -13.099  10.927   2.084  0.00  0.00     0.083 H 
ATOM     58  C08 7O7 d   1     -11.690  13.282   0.075  0.00  0.00    -0.077 A 
ATOM     59  H33 7O7 d   1     -11.451  11.152   0.248  0.00  0.00     0.083 H 
ATOM     60  H10 7O7 d   1     -10.965  13.380  -0.725  0.00  0.00     0.084 H 
ENDBRANCH  47  50
ENDBRANCH  45  47
BRANCH  45  61
ATOM     61  N20 7O7 d   1     -10.778  16.290   1.929  0.00  0.00    -0.329 N 
ATOM     62  C21 7O7 d   1     -10.137  15.295   2.810  0.00  0.00     0.361 C 
ATOM     63  O22 7O7 d   1      -9.324  14.524   2.403  0.00  0.00    -0.238 OA
ATOM     64  H42 7O7 d   1     -11.306  17.031   2.344  0.00  0.00     0.165 HD
BRANCH  62  65
ATOM     65  O23 7O7 d   1     -10.552  15.341   4.173  0.00  0.00    -0.298 OA
BRANCH  65  66
ATOM     66  C49 7O7 d   1     -10.304  14.160   4.871  0.00  0.00     0.059 C 
ATOM     67  C59 7O7 d   1     -11.531  13.666   5.463  0.00  0.00     0.001 C 
ATOM     68  C11 7O7 d   1     -12.662  14.548   5.179  0.00  0.00     0.029 C 
ATOM     69  C69 7O7 d   1     -11.311  13.681   6.938  0.00  0.00     0.002 C 
ATOM     70  H38 7O7 d   1     -11.746  12.649   5.103  0.00  0.00     0.048 H 
ATOM     71  O2  7O7 d   1     -12.739  15.463   6.460  0.00  0.00    -0.361 OA
ATOM     72  H13 7O7 d   1     -13.589  13.971   5.051  0.00  0.00     0.075 H 
ATOM     73  H14 7O7 d   1     -12.476  15.149   4.276  0.00  0.00     0.075 H 
ATOM     74  C7  7O7 d   1     -11.923  14.888   7.450  0.00  0.00     0.132 C 
ATOM     75  H4  7O7 d   1     -12.513  14.662   8.350  0.00  0.00     0.129 H 
ATOM     76  C10 7O7 d   1      -9.833  13.749   7.135  0.00  0.00    -0.051 C 
ATOM     77  H39 7O7 d   1     -11.736  12.789   7.421  0.00  0.00     0.048 H 
ATOM     78  C9  7O7 d   1      -9.353  14.493   6.094  0.00  0.00    -0.031 C 
ATOM     79  H11 7O7 d   1      -9.397  12.739   7.117  0.00  0.00     0.034 H 
ATOM     80  H12 7O7 d   1      -9.596  14.234   8.094  0.00  0.00     0.034 H 
ATOM     81  H41 7O7 d   1      -8.304  14.250   5.869  0.00  0.00     0.043 H 
ATOM     82  H37 7O7 d   1      -9.855  13.408   4.206  0.00  0.00     0.085 H 
BRANCH  74  83
ATOM     83  O1  7O7 d   1     -10.708  15.997   7.800  0.00  0.00    -0.371 OA
ATOM     84  H43 7O7 d   1     -10.136  15.638   8.469  0.00  0.00     0.212 HD
ENDBRANCH  74  83
BRANCH  78  85
ATOM     85  C8  7O7 d   1      -9.499  15.883   6.429  0.00  0.00    -0.070 C 
ATOM     86  H6  7O7 d   1      -8.843  16.127   7.278  0.00  0.00     0.028 H 
ATOM     87  H7  7O7 d   1     -10.545  16.086   6.704  0.00  0.00     0.028 H 
ATOM     88  H8  7O7 d   1      -9.221  16.500   5.562  0.00  0.00     0.028 H 
ENDBRANCH  78  85
ENDBRANCH  65  66
ENDBRANCH  62  65
ENDBRANCH  45  61
ENDBRANCH   1  45
BRANCH   1  89
ATOM     89  O18 7O7 d   1     -11.426  18.464   0.197  0.00  0.00    -0.392 OA
ATOM     90  H44 7O7 d   1     -12.149  18.130  -0.321  0.00  0.00     0.210 HD
ENDBRANCH   1  89
TORSDOF 19
