REMARK  19 active torsions:
REMARK  status: ('A' for Active; 'I' for Inactive)
REMARK    1  A    between atoms: C32_18  and  C07_2 
REMARK    2  A    between atoms: C1_4  and  N2_38 
REMARK    3  A    between atoms: C12_7  and  C13_8 
REMARK    4  A    between atoms: N11_37  and  C12_7 
REMARK    5  A    between atoms: C13_8  and  C14_9 
REMARK    6  A    between atoms: C13_8  and  C15_10 
REMARK    7  A    between atoms: C16_11  and  C17_12 
REMARK    8  A    between atoms: N11_37  and  C16_11 
REMARK    9  A    between atoms: C17_12  and  C19_13 
REMARK   10  A    between atoms: C17_12  and  O18_42 
REMARK   11  A    between atoms: C19_13  and  C32_18 
REMARK   12  A    between atoms: C19_13  and  N20_39 
REMARK       I    between atoms: N20_39  and  C21_15 
REMARK   13  A    between atoms: C21_15  and  O23_45 
REMARK   14  A    between atoms: O23_45  and  C49_25 
REMARK   15  A    between atoms: S8_48  and  C5_26 
REMARK   16  A    between atoms: C7_30  and  O1_40 
REMARK   17  A    between atoms: N2_38  and  C79_31 
REMARK   18  A    between atoms: C9_33  and  C8_32 
REMARK   19  A    between atoms: N11_37  and  S8_48 
ROOT
ATOM      1  C17 7OA d   1     -10.441  17.788   0.101  0.00  0.00     0.071 C 
ATOM      2  H18 7OA d   1      -9.616  18.176   0.716  0.00  0.00     0.088 H 
ENDROOT
BRANCH   1   3
ATOM      3  C16 7OA d   1     -10.002  17.769  -1.386  0.00  0.00     0.031 C 
ATOM      4  H16 7OA d   1      -9.874  18.805  -1.733  0.00  0.00     0.069 H 
ATOM      5  H17 7OA d   1     -10.784  17.276  -1.982  0.00  0.00     0.069 H 
BRANCH   3   6
ATOM      6  N11 7OA d   1      -8.710  17.031  -1.573  0.00  0.00    -0.304 N 
BRANCH   6   7
ATOM      7  C12 7OA d   1      -7.476  17.827  -1.810  0.00  0.00     0.008 C 
ATOM      8  H7  7OA d   1      -6.810  17.256  -2.473  0.00  0.00     0.066 H 
ATOM      9  H8  7OA d   1      -7.754  18.774  -2.296  0.00  0.00     0.066 H 
BRANCH   7  10
ATOM     10  C13 7OA d   1      -6.711  18.149  -0.487  0.00  0.00    -0.045 C 
ATOM     11  H9  7OA d   1      -5.639  18.248  -0.715  0.00  0.00     0.041 H 
BRANCH  10  12
ATOM     12  C14 7OA d   1      -7.225  19.490   0.080  0.00  0.00    -0.072 C 
ATOM     13  H10 7OA d   1      -6.690  19.723   1.012  0.00  0.00     0.028 H 
ATOM     14  H11 7OA d   1      -8.303  19.412   0.285  0.00  0.00     0.028 H 
ATOM     15  H12 7OA d   1      -7.048  20.290  -0.654  0.00  0.00     0.028 H 
ENDBRANCH  10  12
BRANCH  10  16
ATOM     16  C15 7OA d   1      -6.886  17.013   0.553  0.00  0.00    -0.072 C 
ATOM     17  H13 7OA d   1      -6.514  16.068   0.130  0.00  0.00     0.028 H 
ATOM     18  H14 7OA d   1      -7.952  16.908   0.805  0.00  0.00     0.028 H 
ATOM     19  H15 7OA d   1      -6.316  17.257   1.462  0.00  0.00     0.028 H 
ENDBRANCH  10  16
ENDBRANCH   7  10
ENDBRANCH   6   7
BRANCH   6  20
ATOM     20  S8  7OA d   1      -8.857  15.600  -2.549  0.00  0.00     0.261 S 
ATOM     21  O10 7OA d   1      -7.873  14.587  -2.168  0.00  0.00    -0.200 OA
ATOM     22  O9  7OA d   1     -10.170  14.969  -2.326  0.00  0.00    -0.200 OA
BRANCH  20  23
ATOM     23  C5  7OA d   1      -8.675  16.139  -4.289  0.00  0.00     0.081 A 
ATOM     24  C4  7OA d   1      -9.771  16.516  -5.049  0.00  0.00    -0.058 A 
ATOM     25  C3  7OA d   1      -9.624  16.940  -6.362  0.00  0.00    -0.052 A 
ATOM     26  H28 7OA d   1     -10.761  16.479  -4.610  0.00  0.00     0.086 H 
ATOM     27  C2  7OA d   1      -8.365  17.005  -6.951  0.00  0.00     0.077 A 
ATOM     28  H22 7OA d   1     -10.499  17.224  -6.935  0.00  0.00     0.087 H 
ATOM     29  C39 7OA d   1      -7.264  16.637  -6.215  0.00  0.00     0.038 A 
ATOM     30  N1  7OA d   1      -8.075  17.388  -8.196  0.00  0.00    -0.224 NA
ATOM     31  C6  7OA d   1      -7.424  16.208  -4.891  0.00  0.00    -0.041 A 
ATOM     32  S1  7OA d   1      -5.841  16.775  -7.135  0.00  0.00    -0.050 SA
ATOM     33  H31 7OA d   1      -6.548  15.922  -4.320  0.00  0.00     0.088 H 
ATOM     34  C1  7OA d   1      -6.757  17.344  -8.514  0.00  0.00     0.168 A 
BRANCH  34  35
ATOM     35  N2  7OA d   1      -6.216  17.727  -9.821  0.00  0.00    -0.364 N 
ATOM     36  H39 7OA d   1      -6.862  17.982 -10.581  0.00  0.00     0.162 HD
BRANCH  35  37
ATOM     37  C79 7OA d   1      -4.772  17.753 -10.065  0.00  0.00     0.011 A 
ATOM     38  C29 7OA d   1      -3.977  18.817  -9.312  0.00  0.00    -0.044 A 
ATOM     39  C36 7OA d   1      -4.302  19.008 -10.808  0.00  0.00    -0.044 A 
ATOM     40  H20 7OA d   1      -4.474  19.443  -8.557  0.00  0.00     0.036 H 
ATOM     41  H21 7OA d   1      -2.944  18.611  -8.995  0.00  0.00     0.036 H 
ATOM     42  H26 7OA d   1      -3.502  18.936 -11.559  0.00  0.00     0.036 H 
ATOM     43  H27 7OA d   1      -5.032  19.769 -11.121  0.00  0.00     0.036 H 
ATOM     44  H34 7OA d   1      -4.361  16.753 -10.264  0.00  0.00     0.072 H 
ENDBRANCH  35  37
ENDBRANCH  34  35
ENDBRANCH  20  23
ENDBRANCH   6  20
ENDBRANCH   3   6
ENDBRANCH   1   3
BRANCH   1  45
ATOM     45  C19 7OA d   1     -10.834  16.398   0.599  0.00  0.00     0.044 C 
ATOM     46  H19 7OA d   1     -10.104  15.647   0.261  0.00  0.00     0.077 H 
BRANCH  45  47
ATOM     47  C32 7OA d   1     -12.236  16.054   0.082  0.00  0.00    -0.019 C 
ATOM     48  H23 7OA d   1     -12.960  16.803   0.436  0.00  0.00     0.043 H 
ATOM     49  H24 7OA d   1     -12.236  16.035  -1.018  0.00  0.00     0.043 H 
BRANCH  47  50
ATOM     50  C07 7OA d   1     -12.611  14.653   0.635  0.00  0.00    -0.050 A 
ATOM     51  C06 7OA d   1     -13.552  14.524   1.657  0.00  0.00    -0.039 A 
ATOM     52  C33 7OA d   1     -13.873  13.256   2.147  0.00  0.00     0.119 A 
ATOM     53  H1  7OA d   1     -14.032  15.404   2.069  0.00  0.00     0.089 H 
ATOM     54  C35 7OA d   1     -13.246  12.125   1.615  0.00  0.00    -0.009 A 
ATOM     55  F1  7OA d   1     -14.799  13.139   3.156  0.00  0.00    -0.206 F 
ATOM     56  C34 7OA d   1     -12.302  12.267   0.594  0.00  0.00     0.119 A 
ATOM     57  H25 7OA d   1     -13.492  11.139   1.994  0.00  0.00     0.092 H 
ATOM     58  C08 7OA d   1     -11.985  13.529   0.106  0.00  0.00    -0.039 A 
ATOM     59  F2  7OA d   1     -11.672  11.180   0.048  0.00  0.00    -0.206 F 
ATOM     60  H2  7OA d   1     -11.252  13.637  -0.685  0.00  0.00     0.089 H 
ENDBRANCH  47  50
ENDBRANCH  45  47
BRANCH  45  61
ATOM     61  N20 7OA d   1     -10.890  16.444   2.052  0.00  0.00    -0.329 N 
ATOM     62  C21 7OA d   1     -10.258  15.435   2.929  0.00  0.00     0.361 C 
ATOM     63  O22 7OA d   1      -9.442  14.661   2.531  0.00  0.00    -0.238 OA
ATOM     64  H40 7OA d   1     -11.383  17.200   2.482  0.00  0.00     0.165 HD
BRANCH  62  65
ATOM     65  O23 7OA d   1     -10.662  15.432   4.296  0.00  0.00    -0.298 OA
BRANCH  65  66
ATOM     66  C49 7OA d   1     -10.498  14.219   4.959  0.00  0.00     0.059 C 
ATOM     67  C59 7OA d   1     -11.713  13.834   5.642  0.00  0.00     0.001 C 
ATOM     68  C11 7OA d   1     -12.819  14.736   5.329  0.00  0.00     0.029 C 
ATOM     69  C69 7OA d   1     -11.409  14.022   7.086  0.00  0.00     0.002 C 
ATOM     70  H30 7OA d   1     -11.983  12.794   5.409  0.00  0.00     0.048 H 
ATOM     71  O2  7OA d   1     -12.669  15.845   6.387  0.00  0.00    -0.361 OA
ATOM     72  H5  7OA d   1     -13.787  14.224   5.427  0.00  0.00     0.075 H 
ATOM     73  H6  7OA d   1     -12.722  15.144   4.312  0.00  0.00     0.075 H 
ATOM     74  C7  7OA d   1     -11.816  15.390   7.401  0.00  0.00     0.132 C 
ATOM     75  H33 7OA d   1     -12.343  15.404   8.366  0.00  0.00     0.129 H 
ATOM     76  C10 7OA d   1      -9.932  13.871   7.231  0.00  0.00    -0.051 C 
ATOM     77  H32 7OA d   1     -11.942  13.295   7.716  0.00  0.00     0.048 H 
ATOM     78  C9  7OA d   1      -9.398  14.389   6.098  0.00  0.00    -0.031 C 
ATOM     79  H3  7OA d   1      -9.663  12.809   7.331  0.00  0.00     0.034 H 
ATOM     80  H4  7OA d   1      -9.574  14.425   8.112  0.00  0.00     0.034 H 
ATOM     81  H38 7OA d   1      -8.457  13.888   5.829  0.00  0.00     0.043 H 
ATOM     82  H29 7OA d   1     -10.199  13.441   4.241  0.00  0.00     0.085 H 
BRANCH  74  83
ATOM     83  O1  7OA d   1     -10.484  16.392   7.481  0.00  0.00    -0.371 OA
ATOM     84  H41 7OA d   1      -9.902  16.088   8.167  0.00  0.00     0.212 HD
ENDBRANCH  74  83
BRANCH  78  85
ATOM     85  C8  7OA d   1      -9.198  15.801   6.309  0.00  0.00    -0.070 C 
ATOM     86  H35 7OA d   1      -8.441  15.951   7.093  0.00  0.00     0.028 H 
ATOM     87  H36 7OA d   1     -10.146  16.263   6.622  0.00  0.00     0.028 H 
ATOM     88  H37 7OA d   1      -8.854  16.267   5.373  0.00  0.00     0.028 H 
ENDBRANCH  78  85
ENDBRANCH  65  66
ENDBRANCH  62  65
ENDBRANCH  45  61
ENDBRANCH   1  45
BRANCH   1  89
ATOM     89  O18 7OA d   1     -11.550  18.604   0.227  0.00  0.00    -0.392 OA
ATOM     90  H42 7OA d   1     -11.335  19.478  -0.076  0.00  0.00     0.210 HD
ENDBRANCH   1  89
TORSDOF 19
