REMARK  4 active torsions:
REMARK  status: ('A' for Active; 'I' for Inactive)
REMARK    1  A    between atoms: N8_28  and  C20_7 
REMARK    2  A    between atoms: N4_27  and  C18_18 
REMARK    3  A    between atoms: C16_19  and  C19_23 
REMARK    4  A    between atoms: C1_20  and  C2_22 
REMARK       I    between atoms: C1_20  and  N8_28 
ROOT
ATOM      1  C5  7OM d   1       5.698   3.813   2.327  0.00  0.00    -0.004 C 
ATOM      2  C6  7OM d   1       6.303   4.639   1.220  0.00  0.00    -0.049 C 
ATOM      3  C7  7OM d   1       7.745   4.253   0.985  0.00  0.00    -0.051 C 
ATOM      4  C3  7OM d   1       7.887   3.660   3.463  0.00  0.00     0.008 C 
ATOM      5  C2  7OM d   1       8.570   4.256   2.252  0.00  0.00     0.039 C 
ATOM      6  N4  7OM d   1       6.464   3.896   3.550  0.00  0.00    -0.364 N 
ATOM      7  H1  7OM d   1       5.659   2.762   2.004  0.00  0.00     0.064 H 
ATOM      8  H2  7OM d   1       4.678   4.175   2.522  0.00  0.00     0.064 H 
ATOM      9  H3  7OM d   1       6.255   5.702   1.497  0.00  0.00     0.035 H 
ATOM     10  H4  7OM d   1       5.731   4.475   0.295  0.00  0.00     0.035 H 
ATOM     11  H5  7OM d   1       8.188   4.968   0.276  0.00  0.00     0.034 H 
ATOM     12  H6  7OM d   1       7.771   3.242   0.552  0.00  0.00     0.034 H 
ATOM     13  H16 7OM d   1       8.357   4.086   4.362  0.00  0.00     0.065 H 
ATOM     14  H17 7OM d   1       8.050   2.572   3.444  0.00  0.00     0.065 H 
ATOM     15  H18 7OM d   1       9.483   3.673   2.059  0.00  0.00     0.057 H 
ENDROOT
BRANCH   5  16
ATOM     16  C1  7OM d   1       8.949   5.669   2.576  0.00  0.00     0.228 C 
ATOM     17  N8  7OM d   1       9.075   5.870   3.925  0.00  0.00    -0.327 N 
ATOM     18  H22 7OM d   1       9.051   5.107   4.571  0.00  0.00     0.169 HD
ATOM     19  O9  7OM d   1       9.128   6.526   1.723  0.00  0.00    -0.273 OA
BRANCH  17  20
ATOM     20  C20 7OM d   1       9.239   7.188   4.357  0.00  0.00     0.035 A 
ATOM     21  C21 7OM d   1       9.733   7.459   5.612  0.00  0.00    -0.046 A 
ATOM     22  C22 7OM d   1       9.887   8.763   6.029  0.00  0.00    -0.024 A 
ATOM     23  H9  7OM d   1      10.002   6.644   6.275  0.00  0.00     0.088 H 
ATOM     24  C26 7OM d   1      10.377   9.054   7.283  0.00  0.00    -0.072 A 
ATOM     25  C23 7OM d   1       9.543   9.794   5.179  0.00  0.00    -0.026 A 
ATOM     26  C27 7OM d   1      10.527  10.359   7.689  0.00  0.00    -0.082 A 
ATOM     27  H11 7OM d   1      10.647   8.248   7.955  0.00  0.00     0.084 H 
ATOM     28  C28 7OM d   1      10.187  11.384   6.840  0.00  0.00    -0.082 A 
ATOM     29  H13 7OM d   1      10.913  10.579   8.678  0.00  0.00     0.083 H 
ATOM     30  C29 7OM d   1       9.694  11.098   5.586  0.00  0.00    -0.072 A 
ATOM     31  H12 7OM d   1      10.306  12.414   7.156  0.00  0.00     0.083 H 
ATOM     32  H14 7OM d   1       9.424  11.906   4.916  0.00  0.00     0.084 H 
ATOM     33  C24 7OM d   1       9.055   9.509   3.926  0.00  0.00    -0.070 A 
ATOM     34  C25 7OM d   1       8.897   8.212   3.507  0.00  0.00    -0.056 A 
ATOM     35  H10 7OM d   1       8.791  10.321   3.259  0.00  0.00     0.084 H 
ATOM     36  H15 7OM d   1       8.508   7.998   2.518  0.00  0.00     0.086 H 
ENDBRANCH  17  20
ENDBRANCH   5  16
BRANCH   6  37
ATOM     37  C18 7OM d   1       5.797   3.661   4.719  0.00  0.00     0.147 A 
ATOM     38  C15 7OM d   1       4.629   3.027   4.768  0.00  0.00    -0.014 A 
ATOM     39  C16 7OM d   1       4.031   2.850   6.094  0.00  0.00     0.053 A 
ATOM     40  H8  7OM d   1       4.141   2.658   3.867  0.00  0.00     0.092 H 
ATOM     41  N17 7OM d   1       4.559   3.254   7.200  0.00  0.00    -0.066 NA
ATOM     42  C11 7OM d   1       5.741   3.890   7.108  0.00  0.00     0.752 A 
ATOM     43  N12 7OM d   1       6.476   4.391   8.077  0.00  0.00    -0.052 NA
ATOM     44  N10 7OM d   1       6.349   4.087   5.900  0.00  0.00    -0.042 N 
ATOM     45  C13 7OM d   1       7.547   4.904   7.399  0.00  0.00     0.126 A 
ATOM     46  N14 7OM d   1       7.505   4.739   6.075  0.00  0.00    -0.143 NA
ATOM     47  H7  7OM d   1       8.371   5.409   7.901  0.00  0.00     0.150 H 
BRANCH  39  48
ATOM     48  C19 7OM d   1       2.711   2.144   6.151  0.00  0.00    -0.035 C 
ATOM     49  H19 7OM d   1       2.376   2.078   7.197  0.00  0.00     0.035 H 
ATOM     50  H20 7OM d   1       2.819   1.131   5.736  0.00  0.00     0.035 H 
ATOM     51  H21 7OM d   1       1.970   2.705   5.563  0.00  0.00     0.035 H 
ENDBRANCH  39  48
ENDBRANCH   6  37
TORSDOF 4
