REMARK  3 active torsions:
REMARK  status: ('A' for Active; 'I' for Inactive)
REMARK    1  A    between atoms: C1_19  and  C10_3 
REMARK       I    between atoms: N12_4  and  C16_21 
REMARK    2  A    between atoms: C3_20  and  C24_10 
REMARK    3  A    between atoms: C16_21  and  C18_17 
ROOT
ATOM      1  C10 7OG d   1       9.885   5.649   5.342  0.00  0.00     0.005 C 
ATOM      2  N12 7OG d   1      10.849   7.167   3.765  0.00  0.00    -0.347 N 
ATOM      3  C13 7OG d   1       9.869   7.074   4.814  0.00  0.00     0.006 C 
ATOM      4  C15 7OG d   1      10.689   4.777   3.149  0.00  0.00    -0.049 C 
ATOM      5  C16 7OG d   1      11.812   8.147   3.636  0.00  0.00     0.253 C 
ATOM      6  C14 7OG d   1       9.664   4.626   4.239  0.00  0.00    -0.054 C 
ATOM      7  C11 7OG d   1      10.725   6.217   2.679  0.00  0.00    -0.002 C 
ATOM      8  O17 7OG d   1      12.541   8.274   2.658  0.00  0.00    -0.267 OA
ATOM      9  H2  7OG d   1      10.887   5.464   5.757  0.00  0.00     0.052 H 
ATOM     10  H3  7OG d   1      10.120   7.776   5.623  0.00  0.00     0.065 H 
ATOM     11  H4  7OG d   1       8.872   7.314   4.417  0.00  0.00     0.065 H 
ATOM     12  H5  7OG d   1      10.424   4.123   2.305  0.00  0.00     0.035 H 
ATOM     13  H6  7OG d   1      11.679   4.494   3.536  0.00  0.00     0.035 H 
ATOM     14  H18 7OG d   1       8.661   4.769   3.811  0.00  0.00     0.034 H 
ATOM     15  H19 7OG d   1       9.739   3.615   4.666  0.00  0.00     0.034 H 
ATOM     16  H20 7OG d   1      11.584   6.343   2.004  0.00  0.00     0.064 H 
ATOM     17  H21 7OG d   1       9.794   6.430   2.132  0.00  0.00     0.064 H 
ENDROOT
BRANCH   5  18
ATOM     18  C18 7OG d   1      12.049   9.115   4.720  0.00  0.00     0.033 A 
ATOM     19  C23 7OG d   1      11.916  10.443   4.376  0.00  0.00    -0.067 A 
ATOM     20  C22 7OG d   1      12.139  11.388   5.348  0.00  0.00    -0.071 A 
ATOM     21  H15 7OG d   1      11.643  10.733   3.368  0.00  0.00     0.085 H 
ATOM     22  C21 7OG d   1      12.500  11.018   6.625  0.00  0.00    -0.026 A 
ATOM     23  H7  7OG d   1      12.029  12.439   5.107  0.00  0.00     0.084 H 
ATOM     24  C20 7OG d   1      12.635   9.687   6.954  0.00  0.00    -0.025 A 
ATOM     25  C28 7OG d   1      12.721  11.980   7.590  0.00  0.00    -0.072 A 
ATOM     26  C25 7OG d   1      12.989   9.336   8.235  0.00  0.00    -0.072 A 
ATOM     27  C19 7OG d   1      12.406   8.726   5.991  0.00  0.00    -0.057 A 
ATOM     28  C26 7OG d   1      13.213  10.296   9.194  0.00  0.00    -0.082 A 
ATOM     29  H14 7OG d   1      13.093   8.288   8.493  0.00  0.00     0.084 H 
ATOM     30  C27 7OG d   1      13.079  11.627   8.871  0.00  0.00    -0.082 A 
ATOM     31  H11 7OG d   1      13.494  10.005  10.200  0.00  0.00     0.083 H 
ATOM     32  H13 7OG d   1      13.254  12.391   9.620  0.00  0.00     0.083 H 
ATOM     33  H16 7OG d   1      12.506   7.674   6.233  0.00  0.00     0.086 H 
ATOM     34  H12 7OG d   1      12.611  13.028   7.335  0.00  0.00     0.084 H 
ENDBRANCH   5  18
BRANCH   1  35
ATOM     35  C1  7OG d   1       8.898   5.493   6.465  0.00  0.00     0.062 A 
ATOM     36  C2  7OG d   1       7.680   4.930   6.385  0.00  0.00    -0.034 A 
ATOM     37  C3  7OG d   1       6.897   4.876   7.634  0.00  0.00     0.051 A 
ATOM     38  H17 7OG d   1       7.292   4.535   5.447  0.00  0.00     0.089 H 
ATOM     39  N4  7OG d   1       7.318   5.338   8.769  0.00  0.00    -0.066 NA
ATOM     40  C5  7OG d   1       8.544   5.897   8.799  0.00  0.00     0.751 A 
ATOM     41  N7  7OG d   1       9.193   6.438   9.812  0.00  0.00    -0.052 NA
ATOM     42  N6  7OG d   1       9.313   5.974   7.675  0.00  0.00    -0.062 N 
ATOM     43  C8  7OG d   1      10.374   6.831   9.252  0.00  0.00     0.126 A 
ATOM     44  N9  7OG d   1      10.490   6.565   7.950  0.00  0.00    -0.145 NA
ATOM     45  H1  7OG d   1      11.160   7.323   9.823  0.00  0.00     0.150 H 
BRANCH  37  46
ATOM     46  C24 7OG d   1       5.533   4.249   7.578  0.00  0.00    -0.035 C 
ATOM     47  H8  7OG d   1       5.327   3.910   6.552  0.00  0.00     0.035 H 
ATOM     48  H9  7OG d   1       4.777   4.989   7.878  0.00  0.00     0.035 H 
ATOM     49  H10 7OG d   1       5.496   3.389   8.263  0.00  0.00     0.035 H 
ENDBRANCH  37  46
ENDBRANCH   1  35
TORSDOF 3
