REMARK  3 active torsions:
REMARK  status: ('A' for Active; 'I' for Inactive)
REMARK    1  A    between atoms: C11_19  and  C6_3 
REMARK    2  A    between atoms: C2_15  and  C10_5 
REMARK    3  A    between atoms: C17_7  and  C18_12 
REMARK       I    between atoms: N15_23  and  C17_7 
ROOT
ATOM      1  C13 7OJ d   1       8.894   3.258   2.860  0.00  0.00     0.260 C 
ATOM      2  C17 7OJ d   1      10.108   6.520   3.650  0.00  0.00     0.254 C 
ATOM      3  C12 7OJ d   1       7.785   3.073   3.883  0.00  0.00     0.008 C 
ATOM      4  C16 7OJ d   1       8.053   5.409   4.627  0.00  0.00     0.007 C 
ATOM      5  C14 7OJ d   1       9.012   4.729   2.457  0.00  0.00     0.059 C 
ATOM      6  C11 7OJ d   1       8.060   3.954   5.092  0.00  0.00     0.010 C 
ATOM      7  N15 7OJ d   1       9.077   5.593   3.610  0.00  0.00    -0.342 N 
ATOM      8  O19 7OJ d   1      10.820   6.817   2.718  0.00  0.00    -0.267 OA
ATOM      9  F25 7OJ d   1      10.159   2.799   3.241  0.00  0.00    -0.205 F 
ATOM     10  F26 7OJ d   1       8.448   2.504   1.816  0.00  0.00    -0.205 F 
ATOM     11  H9  7OJ d   1       7.748   2.020   4.197  0.00  0.00     0.043 H 
ATOM     12  H10 7OJ d   1       6.821   3.356   3.435  0.00  0.00     0.043 H 
ATOM     13  H11 7OJ d   1       8.261   6.069   5.482  0.00  0.00     0.065 H 
ATOM     14  H12 7OJ d   1       7.067   5.655   4.205  0.00  0.00     0.065 H 
ATOM     15  H13 7OJ d   1       8.135   5.005   1.853  0.00  0.00     0.073 H 
ATOM     16  H14 7OJ d   1       9.925   4.863   1.859  0.00  0.00     0.073 H 
ATOM     17  H15 7OJ d   1       9.069   3.718   5.460  0.00  0.00     0.052 H 
ENDROOT
BRANCH   6  18
ATOM     18  C6  7OJ d   1       7.110   3.714   6.228  0.00  0.00     0.062 A 
ATOM     19  C1  7OJ d   1       5.918   3.125   6.145  0.00  0.00    -0.034 A 
ATOM     20  C2  7OJ d   1       5.192   3.009   7.425  0.00  0.00     0.051 A 
ATOM     21  H8  7OJ d   1       5.510   2.757   5.205  0.00  0.00     0.089 H 
ATOM     22  N3  7OJ d   1       5.576   3.400   8.604  0.00  0.00    -0.066 NA
ATOM     23  C4  7OJ d   1       6.804   3.998   8.631  0.00  0.00     0.751 A 
ATOM     24  N7  7OJ d   1       7.464   4.507   9.650  0.00  0.00    -0.052 NA
ATOM     25  N5  7OJ d   1       7.534   4.140   7.466  0.00  0.00    -0.062 N 
ATOM     26  C8  7OJ d   1       8.598   4.948   9.062  0.00  0.00     0.126 A 
ATOM     27  N9  7OJ d   1       8.696   4.738   7.755  0.00  0.00    -0.145 NA
ATOM     28  H1  7OJ d   1       9.385   5.446   9.627  0.00  0.00     0.150 H 
BRANCH  20  29
ATOM     29  C10 7OJ d   1       3.838   2.376   7.361  0.00  0.00    -0.035 C 
ATOM     30  H2  7OJ d   1       3.618   2.086   6.323  0.00  0.00     0.035 H 
ATOM     31  H3  7OJ d   1       3.081   3.094   7.710  0.00  0.00     0.035 H 
ATOM     32  H4  7OJ d   1       3.820   1.483   8.003  0.00  0.00     0.035 H 
ENDBRANCH  20  29
ENDBRANCH   6  18
BRANCH   2  33
ATOM     33  C18 7OJ d   1      10.387   7.344   4.806  0.00  0.00     0.033 A 
ATOM     34  C20 7OJ d   1      10.730   6.788   6.025  0.00  0.00    -0.048 A 
ATOM     35  C21 7OJ d   1      10.984   7.699   7.038  0.00  0.00     0.050 A 
ATOM     36  H5  7OJ d   1      10.796   5.717   6.177  0.00  0.00     0.087 H 
ATOM     37  C27 7OJ d   1      10.922   9.057   6.844  0.00  0.00     0.133 A 
ATOM     38 BR24 7OJ d   1      11.455   7.198   8.780  0.00  0.00    -0.048 Br
ATOM     39  C22 7OJ d   1      10.600   9.592   5.614  0.00  0.00    -0.043 A 
ATOM     40  F28 7OJ d   1      11.192   9.828   7.922  0.00  0.00    -0.205 F 
ATOM     41  C23 7OJ d   1      10.331   8.724   4.585  0.00  0.00    -0.065 A 
ATOM     42  H6  7OJ d   1      10.561  10.665   5.465  0.00  0.00     0.088 H 
ATOM     43  H7  7OJ d   1      10.076   9.107   3.604  0.00  0.00     0.085 H 
ENDBRANCH   2  33
TORSDOF 3
