REMARK  6 active torsions:
REMARK  status: ('A' for Active; 'I' for Inactive)
REMARK    1  A    between atoms: C2'_10  and  O2'_11 
REMARK    2  A    between atoms: C1'_12  and  N9_13 
REMARK    3  A    between atoms: C2_20  and  N2_21 
REMARK    4  A    between atoms: C2A_33  and  O2A_34 
REMARK    5  A    between atoms: C1A_35  and  N91_36 
REMARK    6  A    between atoms: C21_43  and  N21_44 
ROOT
ATOM      1  P1  C2E d   1     -33.686  13.435  -2.975  0.00  0.00     0.408 P 
ATOM      2  O2P C2E d   1     -32.405  13.879  -3.662  0.00  0.00    -0.624 OA
ATOM      3  O1P C2E d   1     -33.792  14.014  -1.606  0.00  0.00    -0.624 OA
ATOM      4  O5' C2E d   1     -33.817  11.908  -2.933  0.00  0.00    -0.287 OA
ATOM      5  C5' C2E d   1     -33.558  11.197  -4.064  0.00  0.00     0.058 C 
ATOM      6  C4' C2E d   1     -34.193   9.832  -4.051  0.00  0.00     0.090 C 
ATOM      7  O4' C2E d   1     -33.704   9.035  -2.982  0.00  0.00    -0.353 OA
ATOM      8  C3' C2E d   1     -35.713   9.871  -3.837  0.00  0.00     0.106 C 
ATOM      9  O3' C2E d   1     -36.396  10.074  -5.067  0.00  0.00    -0.279 OA
ATOM     10  C2' C2E d   1     -35.766   8.508  -3.445  0.00  0.00     0.106 C 
ATOM     11  C1' C2E d   1     -34.734   8.226  -2.500  0.00  0.00     0.140 C 
ATOM     12  P11 C2E d   1     -37.953  10.502  -4.975  0.00  0.00     0.408 P 
ATOM     13  O21 C2E d   1     -38.316  10.439  -6.434  0.00  0.00    -0.624 OA
ATOM     14  O11 C2E d   1     -38.622   9.572  -4.055  0.00  0.00    -0.624 OA
ATOM     15  O5A C2E d   1     -38.005  11.946  -4.453  0.00  0.00    -0.287 OA
ATOM     16  C5A C2E d   1     -37.432  12.940  -5.266  0.00  0.00     0.058 C 
ATOM     17  C4A C2E d   1     -37.077  14.201  -4.524  0.00  0.00     0.090 C 
ATOM     18  O4A C2E d   1     -38.318  14.773  -3.929  0.00  0.00    -0.353 OA
ATOM     19  C3A C2E d   1     -36.149  14.014  -3.372  0.00  0.00     0.106 C 
ATOM     20  O3A C2E d   1     -34.863  14.063  -3.875  0.00  0.00    -0.279 OA
ATOM     21  C2A C2E d   1     -36.521  15.145  -2.476  0.00  0.00     0.106 C 
ATOM     22  C1A C2E d   1     -38.023  15.244  -2.662  0.00  0.00     0.140 C 
ATOM     23  H1  C2E d   1     -32.469  11.077  -4.163  0.00  0.00     0.079 H 
ATOM     24  H2  C2E d   1     -33.945  11.757  -4.928  0.00  0.00     0.079 H 
ATOM     25  H3  C2E d   1     -33.971   9.344  -5.011  0.00  0.00     0.090 H 
ATOM     26  H4  C2E d   1     -36.052  10.584  -3.071  0.00  0.00     0.092 H 
ATOM     27  H5  C2E d   1     -36.712   8.449  -2.888  0.00  0.00     0.093 H 
ATOM     28  H7  C2E d   1     -34.501   7.152  -2.537  0.00  0.00     0.122 H 
ATOM     29  H12 C2E d   1     -38.149  13.195  -6.060  0.00  0.00     0.079 H 
ATOM     30  H13 C2E d   1     -36.515  12.533  -5.717  0.00  0.00     0.079 H 
ATOM     31  H14 C2E d   1     -36.630  14.910  -5.237  0.00  0.00     0.090 H 
ATOM     32  H15 C2E d   1     -36.309  13.052  -2.863  0.00  0.00     0.092 H 
ATOM     33  H16 C2E d   1     -36.237  14.929  -1.435  0.00  0.00     0.093 H 
ATOM     34  H18 C2E d   1     -38.321  16.300  -2.580  0.00  0.00     0.122 H 
ENDROOT
BRANCH  11  35
ATOM     35  N9  C2E d   1     -34.807   8.656  -1.064  0.00  0.00    -0.293 N 
ATOM     36  C8  C2E d   1     -34.305   9.723  -0.437  0.00  0.00     0.071 A 
ATOM     37  N7  C2E d   1     -34.532   9.700   0.775  0.00  0.00    -0.235 NA
ATOM     38  H8  C2E d   1     -33.759  10.521  -0.938  0.00  0.00     0.144 H 
ATOM     39  C5  C2E d   1     -35.208   8.603   1.122  0.00  0.00     0.159 A 
ATOM     40  C6  C2E d   1     -35.724   8.015   2.269  0.00  0.00     0.226 A 
ATOM     41  C4  C2E d   1     -35.406   7.837  -0.104  0.00  0.00     0.185 A 
ATOM     42  O6  C2E d   1     -35.631   8.594   3.462  0.00  0.00    -0.169 OA
ATOM     43  N1  C2E d   1     -36.379   6.829   2.172  0.00  0.00    -0.164 N 
ATOM     44  C2  C2E d   1     -36.515   6.176   0.981  0.00  0.00     0.702 A 
ATOM     45  H9  C2E d   1     -36.773   6.423   2.997  0.00  0.00     0.186 HD
ATOM     46  N3  C2E d   1     -36.079   6.675  -0.174  0.00  0.00    -0.044 NA
BRANCH  44  47
ATOM     47  N2  C2E d   1     -37.228   4.899   0.973  0.00  0.00    -0.233 N 
ATOM     48  H10 C2E d   1     -37.348   4.381   0.090  0.00  0.00     0.174 HD
ATOM     49  H11 C2E d   1     -37.611   4.517   1.850  0.00  0.00     0.174 HD
ENDBRANCH  44  47
ENDBRANCH  11  35
BRANCH  10  50
ATOM     50  O2' C2E d   1     -35.856   7.422  -4.354  0.00  0.00    -0.388 OA
ATOM     51  H6  C2E d   1     -35.878   6.606  -3.869  0.00  0.00     0.210 HD
ENDBRANCH  10  50
BRANCH  21  52
ATOM     52  O2A C2E d   1     -36.017  16.359  -2.864  0.00  0.00    -0.388 OA
ATOM     53  H17 C2E d   1     -35.068  16.316  -2.880  0.00  0.00     0.210 HD
ENDBRANCH  21  52
BRANCH  22  54
ATOM     54  N91 C2E d   1     -38.779  14.476  -1.693  0.00  0.00    -0.293 N 
ATOM     55  C81 C2E d   1     -39.377  13.320  -1.815  0.00  0.00     0.071 A 
ATOM     56  N71 C2E d   1     -39.941  12.939  -0.753  0.00  0.00    -0.235 NA
ATOM     57  H19 C2E d   1     -39.387  12.745  -2.739  0.00  0.00     0.144 H 
ATOM     58  C51 C2E d   1     -39.802  13.794   0.249  0.00  0.00     0.159 A 
ATOM     59  C61 C2E d   1     -40.174  13.961   1.606  0.00  0.00     0.226 A 
ATOM     60  C41 C2E d   1     -39.025  14.860  -0.334  0.00  0.00     0.185 A 
ATOM     61  O61 C2E d   1     -40.883  13.081   2.278  0.00  0.00    -0.169 OA
ATOM     62  N11 C2E d   1     -39.773  15.076   2.270  0.00  0.00    -0.164 N 
ATOM     63  C21 C2E d   1     -39.058  16.012   1.646  0.00  0.00     0.702 A 
ATOM     64  H20 C2E d   1     -40.016  15.195   3.233  0.00  0.00     0.186 HD
ATOM     65  N31 C2E d   1     -38.663  15.945   0.369  0.00  0.00    -0.044 NA
BRANCH  63  66
ATOM     66  N21 C2E d   1     -38.626  17.185   2.323  0.00  0.00    -0.233 N 
ATOM     67  H21 C2E d   1     -38.074  17.895   1.821  0.00  0.00     0.174 HD
ATOM     68  H22 C2E d   1     -38.865  17.324   3.315  0.00  0.00     0.174 HD
ENDBRANCH  63  66
ENDBRANCH  22  54
TORSDOF 6
