REMARK  6 active torsions:
REMARK  status: ('A' for Active; 'I' for Inactive)
REMARK    1  A    between atoms: C2'_10  and  O2'_11 
REMARK    2  A    between atoms: C1'_12  and  N9_13 
REMARK    3  A    between atoms: C2_20  and  N2_21 
REMARK    4  A    between atoms: C2A_33  and  O2A_34 
REMARK    5  A    between atoms: C1A_35  and  N91_36 
REMARK    6  A    between atoms: C21_43  and  N21_44 
ROOT
ATOM      1  P1  C2E d   1       2.752  23.299  -2.853  0.00  0.00     0.408 P 
ATOM      2  O2P C2E d   1       2.647  23.183  -4.405  0.00  0.00    -0.624 OA
ATOM      3  O1P C2E d   1       1.409  23.532  -2.042  0.00  0.00    -0.624 OA
ATOM      4  O5' C2E d   1       3.900  24.410  -2.721  0.00  0.00    -0.287 OA
ATOM      5  C5' C2E d   1       5.008  24.369  -3.533  0.00  0.00     0.058 C 
ATOM      6  C4' C2E d   1       6.062  25.316  -3.035  0.00  0.00     0.090 C 
ATOM      7  O4' C2E d   1       5.577  26.631  -2.984  0.00  0.00    -0.353 OA
ATOM      8  C3' C2E d   1       6.627  25.106  -1.656  0.00  0.00     0.106 C 
ATOM      9  O3' C2E d   1       7.495  24.033  -1.502  0.00  0.00    -0.279 OA
ATOM     10  C2' C2E d   1       7.387  26.379  -1.564  0.00  0.00     0.106 C 
ATOM     11  C1' C2E d   1       6.318  27.324  -1.989  0.00  0.00     0.139 C 
ATOM     12  P11 C2E d   1       7.790  23.411  -0.072  0.00  0.00     0.408 P 
ATOM     13  O21 C2E d   1       8.747  22.306  -0.573  0.00  0.00    -0.624 OA
ATOM     14  O11 C2E d   1       8.179  24.262   1.213  0.00  0.00    -0.624 OA
ATOM     15  O5A C2E d   1       6.547  22.402   0.008  0.00  0.00    -0.287 OA
ATOM     16  C5A C2E d   1       6.408  21.442  -1.000  0.00  0.00     0.058 C 
ATOM     17  C4A C2E d   1       5.017  20.854  -0.942  0.00  0.00     0.090 C 
ATOM     18  O4A C2E d   1       4.769  20.358   0.343  0.00  0.00    -0.353 OA
ATOM     19  C3A C2E d   1       3.928  21.842  -1.177  0.00  0.00     0.106 C 
ATOM     20  O3A C2E d   1       3.636  22.010  -2.493  0.00  0.00    -0.279 OA
ATOM     21  C2A C2E d   1       2.799  21.279  -0.369  0.00  0.00     0.106 C 
ATOM     22  C1A C2E d   1       3.440  20.502   0.698  0.00  0.00     0.139 C 
ATOM     23  H1  C2E d   1       4.718  24.655  -4.555  0.00  0.00     0.079 H 
ATOM     24  H2  C2E d   1       5.414  23.347  -3.539  0.00  0.00     0.079 H 
ATOM     25  H3  C2E d   1       6.894  25.260  -3.753  0.00  0.00     0.090 H 
ATOM     26  H4  C2E d   1       5.828  25.031  -0.904  0.00  0.00     0.092 H 
ATOM     27  H5  C2E d   1       7.512  26.557  -0.486  0.00  0.00     0.093 H 
ATOM     28  H7  C2E d   1       6.801  28.213  -2.420  0.00  0.00     0.122 H 
ATOM     29  H13 C2E d   1       7.151  20.644  -0.852  0.00  0.00     0.079 H 
ATOM     30  H14 C2E d   1       6.567  21.914  -1.981  0.00  0.00     0.079 H 
ATOM     31  H15 C2E d   1       4.947  20.047  -1.686  0.00  0.00     0.090 H 
ATOM     32  H16 C2E d   1       4.219  22.823  -0.773  0.00  0.00     0.092 H 
ATOM     33  H17 C2E d   1       2.230  22.114   0.066  0.00  0.00     0.093 H 
ATOM     34  H19 C2E d   1       2.957  19.522   0.826  0.00  0.00     0.122 H 
ENDROOT
BRANCH  11  35
ATOM     35  N9  C2E d   1       5.365  27.776  -0.998  0.00  0.00    -0.295 N 
ATOM     36  C8  C2E d   1       3.849  27.421  -1.009  0.00  0.00     0.071 A 
ATOM     37  N7  C2E d   1       3.209  27.991  -0.041  0.00  0.00    -0.234 NA
ATOM     38  H8  C2E d   1       3.382  26.769  -1.746  0.00  0.00     0.144 H 
ATOM     39  C5  C2E d   1       4.003  28.717   0.687  0.00  0.00     0.171 A 
ATOM     40  C6  C2E d   1       3.692  29.542   1.890  0.00  0.00     0.292 A 
ATOM     41  C4  C2E d   1       5.255  28.666   0.201  0.00  0.00     0.161 A 
ATOM     42  O6  C2E d   1       2.576  29.628   2.351  0.00  0.00    -0.265 OA
ATOM     43  N1  C2E d   1       4.719  30.228   2.478  0.00  0.00    -0.154 N 
ATOM     44  C2  C2E d   1       6.008  30.141   1.940  0.00  0.00     0.680 A 
ATOM     45  H9  C2E d   1       4.550  30.789   3.288  0.00  0.00     0.187 HD
ATOM     46  N3  C2E d   1       6.293  29.387   0.842  0.00  0.00    -0.174 N 
ATOM     47  H12 C2E d   1       7.256  29.341   0.480  0.00  0.00     0.186 HD
BRANCH  44  48
ATOM     48  N2  C2E d   1       7.020  30.801   2.507  0.00  0.00    -0.234 N 
ATOM     49  H10 C2E d   1       7.967  30.734   2.107  0.00  0.00     0.174 HD
ATOM     50  H11 C2E d   1       6.854  31.378   3.344  0.00  0.00     0.174 HD
ENDBRANCH  44  48
ENDBRANCH  11  35
BRANCH  10  51
ATOM     51  O2' C2E d   1       8.281  26.461  -1.860  0.00  0.00    -0.388 OA
ATOM     52  H6  C2E d   1       8.831  25.856  -1.376  0.00  0.00     0.210 HD
ENDBRANCH  10  51
BRANCH  21  53
ATOM     53  O2A C2E d   1       1.927  20.489  -1.037  0.00  0.00    -0.388 OA
ATOM     54  H18 C2E d   1       1.526  20.986  -1.740  0.00  0.00     0.210 HD
ENDBRANCH  21  53
BRANCH  22  55
ATOM     55  N91 C2E d   1       3.357  21.258   1.875  0.00  0.00    -0.295 N 
ATOM     56  C81 C2E d   1       4.473  22.038   2.555  0.00  0.00     0.071 A 
ATOM     57  N71 C2E d   1       4.051  22.657   3.609  0.00  0.00    -0.234 NA
ATOM     58  H20 C2E d   1       5.501  22.071   2.198  0.00  0.00     0.144 H 
ATOM     59  C51 C2E d   1       2.790  22.427   3.796  0.00  0.00     0.171 A 
ATOM     60  C61 C2E d   1       1.899  22.890   4.883  0.00  0.00     0.292 A 
ATOM     61  C41 C2E d   1       2.311  21.651   2.859  0.00  0.00     0.161 A 
ATOM     62  O61 C2E d   1       2.292  23.615   5.805  0.00  0.00    -0.265 OA
ATOM     63  N11 C2E d   1       0.572  22.502   4.856  0.00  0.00    -0.154 N 
ATOM     64  C21 C2E d   1       0.064  21.661   3.824  0.00  0.00     0.680 A 
ATOM     65  H21 C2E d   1      -0.045  22.819   5.577  0.00  0.00     0.187 HD
ATOM     66  N31 C2E d   1       0.869  21.237   2.851  0.00  0.00    -0.174 N 
ATOM     67  H24 C2E d   1       0.505  20.631   2.101  0.00  0.00     0.186 HD
BRANCH  64  68
ATOM     68  N21 C2E d   1      -1.328  21.273   3.830  0.00  0.00    -0.234 N 
ATOM     69  H22 C2E d   1      -1.696  20.665   3.085  0.00  0.00     0.174 HD
ATOM     70  H23 C2E d   1      -1.952  21.604   4.580  0.00  0.00     0.174 HD
ENDBRANCH  64  68
ENDBRANCH  22  55
TORSDOF 6
