REMARK  6 active torsions:
REMARK  status: ('A' for Active; 'I' for Inactive)
REMARK    1  A    between atoms: C2'_10  and  O2'_11 
REMARK    2  A    between atoms: C1'_12  and  N9_13 
REMARK    3  A    between atoms: C2_20  and  N2_21 
REMARK    4  A    between atoms: C2A_33  and  O2A_34 
REMARK    5  A    between atoms: C1A_35  and  N91_36 
REMARK    6  A    between atoms: C21_43  and  N21_44 
ROOT
ATOM      1  P1  C2E d   1      17.698  15.692   1.667  0.00  0.00     0.408 P 
ATOM      2  O2P C2E d   1      17.880  14.457   0.862  0.00  0.00    -0.624 OA
ATOM      3  O1P C2E d   1      18.285  16.827   0.826  0.00  0.00    -0.624 OA
ATOM      4  O5' C2E d   1      18.514  15.684   3.058  0.00  0.00    -0.287 OA
ATOM      5  C5' C2E d   1      18.356  14.476   3.912  0.00  0.00     0.058 C 
ATOM      6  C4' C2E d   1      18.735  14.867   5.411  0.00  0.00     0.090 C 
ATOM      7  O4' C2E d   1      20.356  14.879   5.573  0.00  0.00    -0.353 OA
ATOM      8  C3' C2E d   1      18.308  15.998   5.728  0.00  0.00     0.106 C 
ATOM      9  O3' C2E d   1      16.916  15.773   6.404  0.00  0.00    -0.279 OA
ATOM     10  C2' C2E d   1      19.345  16.441   6.808  0.00  0.00     0.106 C 
ATOM     11  C1' C2E d   1      20.648  15.979   6.191  0.00  0.00     0.139 C 
ATOM     12  P11 C2E d   1      16.024  17.097   6.666  0.00  0.00     0.408 P 
ATOM     13  O21 C2E d   1      14.737  16.935   7.402  0.00  0.00    -0.624 OA
ATOM     14  O11 C2E d   1      16.908  18.016   7.487  0.00  0.00    -0.624 OA
ATOM     15  O5A C2E d   1      15.833  17.665   5.176  0.00  0.00    -0.287 OA
ATOM     16  C5A C2E d   1      14.637  17.143   4.574  0.00  0.00     0.058 C 
ATOM     17  C4A C2E d   1      14.562  17.504   3.265  0.00  0.00     0.090 C 
ATOM     18  O4A C2E d   1      14.086  18.922   3.065  0.00  0.00    -0.353 OA
ATOM     19  C3A C2E d   1      16.000  17.476   2.516  0.00  0.00     0.106 C 
ATOM     20  O3A C2E d   1      16.125  16.079   1.929  0.00  0.00    -0.279 OA
ATOM     21  C2A C2E d   1      15.871  18.311   1.642  0.00  0.00     0.106 C 
ATOM     22  C1A C2E d   1      14.908  19.525   2.262  0.00  0.00     0.139 C 
ATOM     23  H1  C2E d   1      19.025  13.679   3.555  0.00  0.00     0.079 H 
ATOM     24  H2  C2E d   1      17.314  14.126   3.872  0.00  0.00     0.079 H 
ATOM     25  H3  C2E d   1      18.302  14.118   6.091  0.00  0.00     0.090 H 
ATOM     26  H4  C2E d   1      18.246  16.698   4.881  0.00  0.00     0.092 H 
ATOM     27  H5  C2E d   1      19.321  17.523   7.002  0.00  0.00     0.093 H 
ATOM     28  H7  C2E d   1      21.401  15.805   6.973  0.00  0.00     0.122 H 
ATOM     29  H13 C2E d   1      13.761  17.539   5.109  0.00  0.00     0.079 H 
ATOM     30  H14 C2E d   1      14.646  16.045   4.646  0.00  0.00     0.079 H 
ATOM     31  H15 C2E d   1      13.871  16.809   2.765  0.00  0.00     0.090 H 
ATOM     32  H16 C2E d   1      16.841  17.708   3.186  0.00  0.00     0.092 H 
ATOM     33  H17 C2E d   1      16.850  18.698   1.324  0.00  0.00     0.093 H 
ATOM     34  H19 C2E d   1      14.374  20.043   1.451  0.00  0.00     0.122 H 
ENDROOT
BRANCH  11  35
ATOM     35  N9  C2E d   1      21.166  16.943   5.213  0.00  0.00    -0.295 N 
ATOM     36  C8  C2E d   1      21.156  17.231   3.904  0.00  0.00     0.071 A 
ATOM     37  N7  C2E d   1      21.937  18.333   3.688  0.00  0.00    -0.234 NA
ATOM     38  H8  C2E d   1      20.615  16.678   3.138  0.00  0.00     0.144 H 
ATOM     39  C5  C2E d   1      22.432  18.724   4.880  0.00  0.00     0.171 A 
ATOM     40  C6  C2E d   1      23.371  19.874   5.259  0.00  0.00     0.292 A 
ATOM     41  C4  C2E d   1      21.958  17.874   5.829  0.00  0.00     0.161 A 
ATOM     42  O6  C2E d   1      23.819  20.661   4.405  0.00  0.00    -0.265 OA
ATOM     43  N1  C2E d   1      23.728  20.031   6.599  0.00  0.00    -0.154 N 
ATOM     44  C2  C2E d   1      23.232  19.138   7.586  0.00  0.00     0.680 A 
ATOM     45  H9  C2E d   1      24.337  20.777   6.866  0.00  0.00     0.187 HD
ATOM     46  N3  C2E d   1      22.344  18.050   7.239  0.00  0.00    -0.174 N 
ATOM     47  H12 C2E d   1      21.989  17.411   7.964  0.00  0.00     0.186 HD
BRANCH  44  48
ATOM     48  N2  C2E d   1      23.622  19.324   8.957  0.00  0.00    -0.234 N 
ATOM     49  H10 C2E d   1      23.270  18.684   9.684  0.00  0.00     0.174 HD
ATOM     50  H11 C2E d   1      24.253  20.097   9.213  0.00  0.00     0.174 HD
ENDBRANCH  44  48
ENDBRANCH  11  35
BRANCH  10  51
ATOM     51  O2' C2E d   1      19.140  15.716   7.964  0.00  0.00    -0.388 OA
ATOM     52  H6  C2E d   1      19.771  15.985   8.621  0.00  0.00     0.210 HD
ENDBRANCH  10  51
BRANCH  21  53
ATOM     53  O2A C2E d   1      15.126  17.716   0.476  0.00  0.00    -0.388 OA
ATOM     54  H18 C2E d   1      15.614  16.975   0.135  0.00  0.00     0.210 HD
ENDBRANCH  21  53
BRANCH  22  55
ATOM     55  N91 C2E d   1      15.640  20.464   3.038  0.00  0.00    -0.295 N 
ATOM     56  C81 C2E d   1      15.955  20.598   4.353  0.00  0.00     0.071 A 
ATOM     57  N71 C2E d   1      16.681  21.726   4.465  0.00  0.00    -0.234 NA
ATOM     58  H20 C2E d   1      15.674  19.923   5.160  0.00  0.00     0.144 H 
ATOM     59  C51 C2E d   1      16.804  22.286   3.233  0.00  0.00     0.171 A 
ATOM     60  C61 C2E d   1      17.504  23.553   2.796  0.00  0.00     0.292 A 
ATOM     61  C41 C2E d   1      16.156  21.501   2.336  0.00  0.00     0.161 A 
ATOM     62  O61 C2E d   1      18.073  24.243   3.587  0.00  0.00    -0.265 OA
ATOM     63  N11 C2E d   1      17.474  23.903   1.437  0.00  0.00    -0.154 N 
ATOM     64  C21 C2E d   1      16.816  23.083   0.514  0.00  0.00     0.680 A 
ATOM     65  H21 C2E d   1      17.924  24.741   1.128  0.00  0.00     0.187 HD
ATOM     66  N31 C2E d   1      16.137  21.872   0.925  0.00  0.00    -0.174 N 
ATOM     67  H24 C2E d   1      15.650  21.284   0.234  0.00  0.00     0.186 HD
BRANCH  64  68
ATOM     68  N21 C2E d   1      16.811  23.473  -0.854  0.00  0.00    -0.234 N 
ATOM     69  H22 C2E d   1      16.334  22.888  -1.555  0.00  0.00     0.174 HD
ATOM     70  H23 C2E d   1      17.284  24.341  -1.144  0.00  0.00     0.174 HD
ENDBRANCH  64  68
ENDBRANCH  22  55
TORSDOF 6
