REMARK  3 active torsions:
REMARK  status: ('A' for Active; 'I' for Inactive)
REMARK    1  A    between atoms: C11_19  and  C6_3 
REMARK    2  A    between atoms: C2_15  and  C10_5 
REMARK    3  A    between atoms: C17_7  and  C18_13 
REMARK       I    between atoms: N15_23  and  C17_7 
ROOT
ATOM      1  C13 7OP d   1       8.127   3.537   1.120  0.00  0.00     0.260 C 
ATOM      2  C17 7OP d   1       9.043   6.981   1.533  0.00  0.00     0.254 C 
ATOM      3  C12 7OP d   1       7.078   3.268   2.178  0.00  0.00     0.008 C 
ATOM      4  C16 7OP d   1       7.350   5.731   2.851  0.00  0.00     0.007 C 
ATOM      5  C14 7OP d   1       8.158   4.963   0.644  0.00  0.00     0.059 C 
ATOM      6  C11 7OP d   1       7.199   4.289   3.290  0.00  0.00     0.010 C 
ATOM      7  N15 7OP d   1       8.243   5.890   1.728  0.00  0.00    -0.342 N 
ATOM      8  O19 7OP d   1       9.506   7.335   0.460  0.00  0.00    -0.267 OA
ATOM      9  F24 7OP d   1       9.348   3.207   1.615  0.00  0.00    -0.205 F 
ATOM     10  F25 7OP d   1       7.929   2.762   0.027  0.00  0.00    -0.205 F 
ATOM     11  H10 7OP d   1       7.226   2.259   2.591  0.00  0.00     0.043 H 
ATOM     12  H11 7OP d   1       6.077   3.337   1.726  0.00  0.00     0.043 H 
ATOM     13  H12 7OP d   1       7.743   6.315   3.696  0.00  0.00     0.065 H 
ATOM     14  H13 7OP d   1       6.359   6.117   2.568  0.00  0.00     0.065 H 
ATOM     15  H14 7OP d   1       7.239   5.167   0.074  0.00  0.00     0.073 H 
ATOM     16  H15 7OP d   1       9.033   5.100  -0.009  0.00  0.00     0.073 H 
ATOM     17  H16 7OP d   1       8.196   4.066   3.699  0.00  0.00     0.052 H 
ENDROOT
BRANCH   6  18
ATOM     18  C6  7OP d   1       6.321   4.073   4.471  0.00  0.00     0.062 A 
ATOM     19  C1  7OP d   1       5.145   3.443   4.447  0.00  0.00    -0.034 A 
ATOM     20  C2  7OP d   1       4.430   3.321   5.724  0.00  0.00     0.051 A 
ATOM     21  H9  7OP d   1       4.734   3.038   3.523  0.00  0.00     0.089 H 
ATOM     22  N3  7OP d   1       4.871   3.769   6.850  0.00  0.00    -0.066 NA
ATOM     23  C4  7OP d   1       6.061   4.395   6.828  0.00  0.00     0.751 A 
ATOM     24  N7  7OP d   1       6.723   4.937   7.825  0.00  0.00    -0.052 NA
ATOM     25  N5  7OP d   1       6.769   4.547   5.673  0.00  0.00    -0.062 N 
ATOM     26  C8  7OP d   1       7.850   5.418   7.219  0.00  0.00     0.126 A 
ATOM     27  N9  7OP d   1       7.918   5.199   5.907  0.00  0.00    -0.145 NA
ATOM     28  H1  7OP d   1       8.633   5.940   7.767  0.00  0.00     0.150 H 
BRANCH  20  29
ATOM     29  C10 7OP d   1       3.108   2.620   5.706  0.00  0.00    -0.035 C 
ATOM     30  H2  7OP d   1       2.876   2.301   4.679  0.00  0.00     0.035 H 
ATOM     31  H3  7OP d   1       2.325   3.305   6.063  0.00  0.00     0.035 H 
ATOM     32  H4  7OP d   1       3.151   1.738   6.362  0.00  0.00     0.035 H 
ENDBRANCH  20  29
ENDBRANCH   6  18
BRANCH   2  33
ATOM     33  C18 7OP d   1       9.349   7.744   2.732  0.00  0.00     0.032 A 
ATOM     34  C20 7OP d   1       9.656   7.065   3.884  0.00  0.00    -0.065 A 
ATOM     35  C21 7OP d   1       9.949   7.793   5.009  0.00  0.00    -0.045 A 
ATOM     36  H5  7OP d   1       9.667   5.981   3.905  0.00  0.00     0.085 H 
ATOM     37  C26 7OP d   1       9.928   9.166   4.948  0.00  0.00     0.116 A 
ATOM     38  H6  7OP d   1      10.195   7.290   5.937  0.00  0.00     0.088 H 
ATOM     39  C22 7OP d   1       9.621   9.833   3.787  0.00  0.00    -0.045 A 
ATOM     40  F27 7OP d   1      10.216   9.868   6.055  0.00  0.00    -0.206 F 
ATOM     41  C23 7OP d   1       9.326   9.114   2.654  0.00  0.00    -0.065 A 
ATOM     42  H7  7OP d   1       9.612  10.917   3.765  0.00  0.00     0.088 H 
ATOM     43  H8  7OP d   1       9.082   9.615   1.724  0.00  0.00     0.085 H 
ENDBRANCH   2  33
TORSDOF 3
