REMARK  7 active torsions:
REMARK  status: ('A' for Active; 'I' for Inactive)
REMARK    1  A    between atoms: C12_16  and  C13_2 
REMARK    2  A    between atoms: C13_2  and  C14_17 
REMARK    3  A    between atoms: N05_23  and  C20_5 
REMARK    4  A    between atoms: C02_9  and  C03_10 
REMARK       I    between atoms: N05_23  and  C02_9 
REMARK    5  A    between atoms: C03_10  and  C04_11 
REMARK    6  A    between atoms: C06_12  and  N05_23 
REMARK    7  A    between atoms: C12_16  and  N09_24 
ROOT
ATOM      1  C10 7V7 d   1     -30.236   7.803 -16.104  0.00  0.00     0.085 C 
ATOM      2  C06 7V7 d   1     -28.806   9.647 -15.195  0.00  0.00     0.023 C 
ATOM      3  C07 7V7 d   1     -29.997  10.586 -15.359  0.00  0.00    -0.023 C 
ATOM      4  C08 7V7 d   1     -30.898  10.186 -16.504  0.00  0.00     0.085 C 
ATOM      5  C11 7V7 d   1     -29.370   8.228 -14.942  0.00  0.00    -0.023 C 
ATOM      6  N09 7V7 d   1     -31.339   8.764 -16.454  0.00  0.00    -0.071 N 
ATOM      7  H1  7V7 d   1     -30.693   6.834 -15.854  0.00  0.00     0.076 H 
ATOM      8  H2  7V7 d   1     -29.591   7.687 -16.987  0.00  0.00     0.076 H 
ATOM      9  H15 7V7 d   1     -28.237   9.634 -16.136  0.00  0.00     0.073 H 
ATOM     10  H16 7V7 d   1     -29.621  11.603 -15.545  0.00  0.00     0.038 H 
ATOM     11  H17 7V7 d   1     -30.584  10.576 -14.429  0.00  0.00     0.038 H 
ATOM     12  H18 7V7 d   1     -30.354  10.347 -17.446  0.00  0.00     0.076 H 
ATOM     13  H19 7V7 d   1     -31.792  10.827 -16.482  0.00  0.00     0.076 H 
ATOM     14  H20 7V7 d   1     -28.536   7.519 -14.830  0.00  0.00     0.038 H 
ATOM     15  H21 7V7 d   1     -29.972   8.234 -14.022  0.00  0.00     0.038 H 
ATOM     16  H29 7V7 d   1     -32.056   8.677 -15.751  0.00  0.00     0.279 HD
ENDROOT
BRANCH   2  17
ATOM     17  N05 7V7 d   1     -27.879  10.097 -14.114  0.00  0.00    -0.313 N 
ATOM     18  C02 7V7 d   1     -26.767  10.903 -14.382  0.00  0.00     0.224 C 
ATOM     19  O01 7V7 d   1     -26.486  11.257 -15.521  0.00  0.00    -0.273 OA
BRANCH  17  20
ATOM     20  C20 7V7 d   1     -28.194   9.681 -12.773  0.00  0.00     0.037 A 
ATOM     21  C21 7V7 d   1     -27.604   8.549 -12.200  0.00  0.00    -0.057 A 
ATOM     22  C22 7V7 d   1     -27.942   8.167 -10.891  0.00  0.00    -0.081 A 
ATOM     23  H7  7V7 d   1     -26.886   7.967 -12.766  0.00  0.00     0.086 H 
ATOM     24  C23 7V7 d   1     -28.849   8.900 -10.138  0.00  0.00    -0.083 A 
ATOM     25  H8  7V7 d   1     -27.486   7.283 -10.461  0.00  0.00     0.083 H 
ATOM     26  C24 7V7 d   1     -29.425  10.023 -10.710  0.00  0.00    -0.081 A 
ATOM     27  H27 7V7 d   1     -29.101   8.601  -9.127  0.00  0.00     0.083 H 
ATOM     28  C25 7V7 d   1     -29.104  10.400 -12.010  0.00  0.00    -0.057 A 
ATOM     29  H9  7V7 d   1     -30.133  10.613 -10.139  0.00  0.00     0.083 H 
ATOM     30  H28 7V7 d   1     -29.576  11.277 -12.438  0.00  0.00     0.086 H 
ENDBRANCH  17  20
BRANCH  18  31
ATOM     31  C03 7V7 d   1     -25.854  11.368 -13.276  0.00  0.00     0.006 C 
ATOM     32  H10 7V7 d   1     -25.067  10.617 -13.114  0.00  0.00     0.046 H 
ATOM     33  H11 7V7 d   1     -26.437  11.493 -12.352  0.00  0.00     0.046 H 
BRANCH  31  34
ATOM     34  C04 7V7 d   1     -25.211  12.697 -13.649  0.00  0.00    -0.068 C 
ATOM     35  H12 7V7 d   1     -24.548  13.025 -12.835  0.00  0.00     0.028 H 
ATOM     36  H13 7V7 d   1     -25.995  13.451 -13.810  0.00  0.00     0.028 H 
ATOM     37  H14 7V7 d   1     -24.625  12.575 -14.572  0.00  0.00     0.028 H 
ENDBRANCH  31  34
ENDBRANCH  18  31
ENDBRANCH   2  17
BRANCH   6  38
ATOM     38  C12 7V7 d   1     -31.930   8.433 -17.804  0.00  0.00     0.087 C 
ATOM     39  H22 7V7 d   1     -32.695   9.178 -18.068  0.00  0.00     0.076 H 
ATOM     40  H23 7V7 d   1     -31.138   8.434 -18.567  0.00  0.00     0.076 H 
BRANCH  38  41
ATOM     41  C13 7V7 d   1     -32.566   7.047 -17.721  0.00  0.00    -0.018 C 
ATOM     42  H3  7V7 d   1     -33.038   6.929 -16.734  0.00  0.00     0.042 H 
ATOM     43  H4  7V7 d   1     -31.781   6.286 -17.845  0.00  0.00     0.042 H 
BRANCH  41  44
ATOM     44  C14 7V7 d   1     -33.597   6.853 -18.775  0.00  0.00    -0.057 A 
ATOM     45  C15 7V7 d   1     -33.228   6.719 -20.114  0.00  0.00    -0.077 A 
ATOM     46  C16 7V7 d   1     -34.206   6.543 -21.088  0.00  0.00    -0.082 A 
ATOM     47  H5  7V7 d   1     -32.181   6.752 -20.395  0.00  0.00     0.084 H 
ATOM     48  C17 7V7 d   1     -35.549   6.503 -20.730  0.00  0.00    -0.083 A 
ATOM     49  H24 7V7 d   1     -33.920   6.437 -22.128  0.00  0.00     0.083 H 
ATOM     50  C18 7V7 d   1     -35.914   6.639 -19.397  0.00  0.00    -0.082 A 
ATOM     51  H6  7V7 d   1     -36.310   6.366 -21.490  0.00  0.00     0.083 H 
ATOM     52  C19 7V7 d   1     -34.939   6.815 -18.421  0.00  0.00    -0.077 A 
ATOM     53  H25 7V7 d   1     -36.961   6.608 -19.117  0.00  0.00     0.083 H 
ATOM     54  H26 7V7 d   1     -35.227   6.923 -17.382  0.00  0.00     0.084 H 
ENDBRANCH  41  44
ENDBRANCH  38  41
ENDBRANCH   6  38
TORSDOF 7
