REMARK  3 active torsions:
REMARK  status: ('A' for Active; 'I' for Inactive)
REMARK    1  A    between atoms: C11_19  and  C6_3 
REMARK    2  A    between atoms: C2_15  and  C10_5 
REMARK    3  A    between atoms: C17_7  and  C18_13 
REMARK       I    between atoms: N15_23  and  C17_7 
ROOT
ATOM      1  C13 7P4 d   1       7.933   3.007   1.588  0.00  0.00     0.260 C 
ATOM      2  C17 7P4 d   1       9.114   6.294   2.359  0.00  0.00     0.254 C 
ATOM      3  C12 7P4 d   1       6.915   2.735   2.665  0.00  0.00     0.008 C 
ATOM      4  C16 7P4 d   1       7.170   5.151   3.411  0.00  0.00     0.007 C 
ATOM      5  C14 7P4 d   1       8.006   4.468   1.209  0.00  0.00     0.059 C 
ATOM      6  C11 7P4 d   1       7.097   3.694   3.818  0.00  0.00     0.010 C 
ATOM      7  N15 7P4 d   1       8.122   5.337   2.353  0.00  0.00    -0.342 N 
ATOM      8  O19 7P4 d   1       9.821   6.543   1.395  0.00  0.00    -0.267 OA
ATOM      9  F24 7P4 d   1       9.164   2.589   2.005  0.00  0.00    -0.205 F 
ATOM     10  F25 7P4 d   1       7.635   2.261   0.492  0.00  0.00    -0.205 F 
ATOM     11  H9  7P4 d   1       7.039   1.704   3.028  0.00  0.00     0.043 H 
ATOM     12  H10 7P4 d   1       5.905   2.858   2.248  0.00  0.00     0.043 H 
ATOM     13  H11 7P4 d   1       7.474   5.753   4.280  0.00  0.00     0.065 H 
ATOM     14  H12 7P4 d   1       6.178   5.479   3.066  0.00  0.00     0.065 H 
ATOM     15  H13 7P4 d   1       7.093   4.734   0.657  0.00  0.00     0.073 H 
ATOM     16  H14 7P4 d   1       8.883   4.620   0.562  0.00  0.00     0.073 H 
ATOM     17  H15 7P4 d   1       8.097   3.459   4.212  0.00  0.00     0.052 H 
ENDROOT
BRANCH   6  18
ATOM     18  C6  7P4 d   1       6.181   3.485   4.963  0.00  0.00     0.062 A 
ATOM     19  C1  7P4 d   1       4.978   2.908   4.894  0.00  0.00    -0.034 A 
ATOM     20  C2  7P4 d   1       4.256   2.809   6.169  0.00  0.00     0.051 A 
ATOM     21  H8  7P4 d   1       4.562   2.537   3.958  0.00  0.00     0.089 H 
ATOM     22  N3  7P4 d   1       4.699   3.233   7.307  0.00  0.00    -0.066 NA
ATOM     23  C4  7P4 d   1       5.909   3.809   7.318  0.00  0.00     0.751 A 
ATOM     24  N7  7P4 d   1       6.577   4.318   8.329  0.00  0.00    -0.052 NA
ATOM     25  N5  7P4 d   1       6.638   3.930   6.173  0.00  0.00    -0.062 N 
ATOM     26  C8  7P4 d   1       7.729   4.754   7.743  0.00  0.00     0.126 A 
ATOM     27  N9  7P4 d   1       7.804   4.536   6.431  0.00  0.00    -0.145 NA
ATOM     28  H1  7P4 d   1       8.525   5.242   8.304  0.00  0.00     0.150 H 
BRANCH  20  29
ATOM     29  C10 7P4 d   1       2.911   2.164   6.135  0.00  0.00    -0.035 C 
ATOM     30  H2  7P4 d   1       2.676   1.859   5.104  0.00  0.00     0.035 H 
ATOM     31  H3  7P4 d   1       2.153   2.879   6.487  0.00  0.00     0.035 H 
ATOM     32  H4  7P4 d   1       2.912   1.279   6.788  0.00  0.00     0.035 H 
ENDBRANCH  20  29
ENDBRANCH   6  18
BRANCH   2  33
ATOM     33  C18 7P4 d   1       9.350   7.071   3.582  0.00  0.00     0.035 A 
ATOM     34  C20 7P4 d   1       9.665   6.452   4.771  0.00  0.00    -0.027 A 
ATOM     35  C21 7P4 d   1       9.888   7.238   5.882  0.00  0.00     0.155 A 
ATOM     36  H5  7P4 d   1       9.736   5.372   4.832  0.00  0.00     0.089 H 
ATOM     37  C26 7P4 d   1       9.803   8.607   5.793  0.00  0.00     0.154 A 
ATOM     38  F28 7P4 d   1      10.195   6.683   7.070  0.00  0.00    -0.203 F 
ATOM     39  C22 7P4 d   1       9.494   9.212   4.598  0.00  0.00    -0.042 A 
ATOM     40  F27 7P4 d   1      10.025   9.364   6.887  0.00  0.00    -0.203 F 
ATOM     41  C23 7P4 d   1       9.267   8.439   3.484  0.00  0.00    -0.065 A 
ATOM     42  H6  7P4 d   1       9.430  10.292   4.534  0.00  0.00     0.088 H 
ATOM     43  H7  7P4 d   1       9.024   8.905   2.536  0.00  0.00     0.085 H 
ENDBRANCH   2  33
TORSDOF 3
