REMARK  3 active torsions:
REMARK  status: ('A' for Active; 'I' for Inactive)
REMARK    1  A    between atoms: C11_19  and  C6_3 
REMARK    2  A    between atoms: C2_15  and  C10_5 
REMARK    3  A    between atoms: C17_7  and  C18_12 
REMARK       I    between atoms: N15_23  and  C17_7 
ROOT
ATOM      1  C13 7OY d   1       8.123   3.355   1.396  0.00  0.00     0.260 C 
ATOM      2  C17 7OY d   1       9.331   6.635   1.999  0.00  0.00     0.254 C 
ATOM      3  C12 7OY d   1       7.018   3.162   2.416  0.00  0.00     0.008 C 
ATOM      4  C16 7OY d   1       7.392   5.580   3.180  0.00  0.00     0.007 C 
ATOM      5  C14 7OY d   1       8.219   4.796   0.952  0.00  0.00     0.059 C 
ATOM      6  C11 7OY d   1       7.149   4.126   3.569  0.00  0.00     0.010 C 
ATOM      7  N15 7OY d   1       8.317   5.711   2.065  0.00  0.00    -0.342 N 
ATOM      8  O19 7OY d   1      10.020   6.839   1.012  0.00  0.00    -0.267 OA
ATOM      9  F25 7OY d   1       9.313   2.940   1.934  0.00  0.00    -0.205 F 
ATOM     10  F26 7OY d   1       7.909   2.594   0.286  0.00  0.00    -0.205 F 
ATOM     11  H9  7OY d   1       7.066   2.134   2.804  0.00  0.00     0.043 H 
ATOM     12  H10 7OY d   1       6.047   3.324   1.925  0.00  0.00     0.043 H 
ATOM     13  H11 7OY d   1       7.808   6.113   4.048  0.00  0.00     0.065 H 
ATOM     14  H12 7OY d   1       6.431   6.035   2.897  0.00  0.00     0.065 H 
ATOM     15  H13 7OY d   1       7.321   5.046   0.368  0.00  0.00     0.073 H 
ATOM     16  H14 7OY d   1       9.112   4.912   0.320  0.00  0.00     0.073 H 
ATOM     17  H15 7OY d   1       8.121   3.843   3.998  0.00  0.00     0.052 H 
ENDROOT
BRANCH   6  18
ATOM     18  C6  7OY d   1       6.221   3.871   4.717  0.00  0.00     0.062 A 
ATOM     19  C1  7OY d   1       5.009   3.303   4.616  0.00  0.00    -0.034 A 
ATOM     20  C2  7OY d   1       4.260   3.128   5.874  0.00  0.00     0.051 A 
ATOM     21  H8  7OY d   1       4.601   2.988   3.657  0.00  0.00     0.089 H 
ATOM     22  N3  7OY d   1       4.696   3.473   7.044  0.00  0.00    -0.066 NA
ATOM     23  C4  7OY d   1       5.916   4.032   7.092  0.00  0.00     0.751 A 
ATOM     24  N7  7OY d   1       6.577   4.463   8.140  0.00  0.00    -0.052 NA
ATOM     25  N5  7OY d   1       6.660   4.229   5.963  0.00  0.00    -0.062 N 
ATOM     26  C8  7OY d   1       7.743   4.928   7.612  0.00  0.00     0.126 A 
ATOM     27  N9  7OY d   1       7.832   4.794   6.292  0.00  0.00    -0.145 NA
ATOM     28  H1  7OY d   1       8.533   5.370   8.217  0.00  0.00     0.150 H 
BRANCH  20  29
ATOM     29  C10 7OY d   1       2.898   2.503   5.780  0.00  0.00    -0.035 C 
ATOM     30  H2  7OY d   1       2.674   2.268   4.729  0.00  0.00     0.035 H 
ATOM     31  H3  7OY d   1       2.145   3.205   6.168  0.00  0.00     0.035 H 
ATOM     32  H4  7OY d   1       2.877   1.578   6.375  0.00  0.00     0.035 H 
ENDBRANCH  20  29
ENDBRANCH   6  18
BRANCH   2  33
ATOM     33  C18 7OY d   1       9.624   7.438   3.184  0.00  0.00     0.034 A 
ATOM     34  C20 7OY d   1       9.911   6.858   4.406  0.00  0.00    -0.044 A 
ATOM     35  C21 7OY d   1      10.187   7.710   5.456  0.00  0.00     0.073 A 
ATOM     36  H5  7OY d   1       9.919   5.782   4.534  0.00  0.00     0.087 H 
ATOM     37  C27 7OY d   1      10.168   9.069   5.266  0.00  0.00     0.138 A 
ATOM     38 CL24 7OY d   1      10.566   7.157   7.048  0.00  0.00    -0.081 Cl
ATOM     39  C22 7OY d   1       9.881   9.625   4.047  0.00  0.00    -0.043 A 
ATOM     40  F28 7OY d   1      10.439   9.865   6.313  0.00  0.00    -0.204 F 
ATOM     41  C23 7OY d   1       9.611   8.799   2.982  0.00  0.00    -0.065 A 
ATOM     42  H6  7OY d   1       9.867  10.702   3.924  0.00  0.00     0.088 H 
ATOM     43  H7  7OY d   1       9.392   9.211   2.003  0.00  0.00     0.085 H 
ENDBRANCH   2  33
TORSDOF 3
