REMARK  11 active torsions:
REMARK  status: ('A' for Active; 'I' for Inactive)
REMARK    1  A    between atoms: C23_26  and  O3_1 
REMARK    2  A    between atoms: O3_1  and  C28_31 
REMARK    3  A    between atoms: C6_3  and  C7_2 
REMARK    4  A    between atoms: C7_2  and  C8_11 
REMARK    5  A    between atoms: C7_2  and  C9_12 
REMARK    6  A    between atoms: C4_5  and  C6_3 
REMARK    7  A    between atoms: C6_3  and  C10_13 
REMARK    8  A    between atoms: C16_19  and  C15_18 
REMARK    9  A    between atoms: C22_25  and  C21_24 
REMARK   10  A    between atoms: C21_24  and  C29_32 
REMARK   11  A    between atoms: C21_24  and  N_37 
ROOT
ATOM      1  C5  MOL d   1     -25.079  -9.856  32.351  0.00  0.00    -0.044 A 
ATOM      2  C4  MOL d   1     -25.228 -10.431  31.092  0.00  0.00    -0.050 A 
ATOM      3  C3  MOL d   1     -24.307 -11.392  30.695  0.00  0.00    -0.076 A 
ATOM      4  C2  MOL d   1     -23.261 -11.764  31.522  0.00  0.00    -0.074 A 
ATOM      5  C1  MOL d   1     -23.095 -11.180  32.776  0.00  0.00    -0.025 A 
ATOM      6  O2  MOL d   1     -23.999  -9.634  34.429  0.00  0.00    -0.345 OA
ATOM      7  C13 MOL d   1     -21.909 -11.497  33.647  0.00  0.00    -0.036 C 
ATOM      8  C14 MOL d   1     -22.200 -11.321  35.132  0.00  0.00    -0.036 C 
ATOM      9  C15 MOL d   1     -22.974 -10.036  35.388  0.00  0.00     0.049 C 
ATOM     10  C   MOL d   1     -24.034 -10.234  33.184  0.00  0.00     0.076 A 
ATOM     11  H3  MOL d   1     -25.786  -9.105  32.685  0.00  0.00     0.088 H 
ATOM     12  H4  MOL d   1     -24.409 -11.858  29.722  0.00  0.00     0.084 H 
ATOM     13  H5  MOL d   1     -22.561 -12.521  31.189  0.00  0.00     0.084 H 
ATOM     14  H14 MOL d   1     -21.081 -10.828  33.370  0.00  0.00     0.040 H 
ATOM     15  H15 MOL d   1     -21.612 -12.541  33.469  0.00  0.00     0.040 H 
ATOM     16  H16 MOL d   1     -21.249 -11.284  35.683  0.00  0.00     0.037 H 
ATOM     17  H17 MOL d   1     -22.795 -12.176  35.486  0.00  0.00     0.037 H 
ATOM     18  H18 MOL d   1     -22.206  -9.250  35.351  0.00  0.00     0.084 H 
ENDROOT
BRANCH   9  19
ATOM     19  C16 MOL d   1     -23.629  -9.938  36.770  0.00  0.00    -0.025 C 
ATOM     20  C17 MOL d   1     -24.988 -10.606  37.008  0.00  0.00    -0.037 C 
ATOM     21  C18 MOL d   1     -25.601 -10.056  38.300  0.00  0.00     0.085 C 
ATOM     22  H20 MOL d   1     -24.852 -11.694  37.099  0.00  0.00     0.036 H 
ATOM     23  H21 MOL d   1     -25.657 -10.390  36.162  0.00  0.00     0.036 H 
ATOM     24  N   MOL d   1     -24.673 -10.357  39.445  0.00  0.00    -0.063 N 
ATOM     25  H22 MOL d   1     -26.576 -10.534  38.479  0.00  0.00     0.076 H 
ATOM     26  H23 MOL d   1     -25.737  -8.968  38.211  0.00  0.00     0.076 H 
ATOM     27  C19 MOL d   1     -23.381  -9.619  39.232  0.00  0.00     0.085 C 
ATOM     28  H35 MOL d   1     -24.461 -11.341  39.395  0.00  0.00     0.280 HD
ATOM     29  C20 MOL d   1     -22.711 -10.168  37.977  0.00  0.00    -0.037 C 
ATOM     30  H24 MOL d   1     -23.584  -8.545  39.105  0.00  0.00     0.076 H 
ATOM     31  H25 MOL d   1     -22.722  -9.768  40.100  0.00  0.00     0.076 H 
ATOM     32  H26 MOL d   1     -21.754  -9.650  37.815  0.00  0.00     0.036 H 
ATOM     33  H27 MOL d   1     -22.528 -11.246  38.100  0.00  0.00     0.036 H 
ATOM     34  H19 MOL d   1     -23.868  -8.866  36.829  0.00  0.00     0.044 H 
BRANCH  24  35
ATOM     35  C21 MOL d   1     -25.280 -10.128  40.837  0.00  0.00     0.128 C 
ATOM     36  H28 MOL d   1     -25.138  -9.050  41.007  0.00  0.00     0.091 H 
BRANCH  35  37
ATOM     37  C22 MOL d   1     -24.545 -10.771  42.003  0.00  0.00     0.009 A 
ATOM     38  C23 MOL d   1     -23.961 -10.007  43.022  0.00  0.00     0.086 A 
ATOM     39  C24 MOL d   1     -23.307 -10.592  44.095  0.00  0.00    -0.047 A 
ATOM     40  C25 MOL d   1     -23.218 -11.970  44.183  0.00  0.00    -0.043 A 
ATOM     41  H29 MOL d   1     -22.865  -9.970  44.865  0.00  0.00     0.087 H 
ATOM     42  C26 MOL d   1     -23.782 -12.716  43.186  0.00  0.00     0.117 A 
ATOM     43  H30 MOL d   1     -22.716 -12.444  45.018  0.00  0.00     0.088 H 
ATOM     44  C27 MOL d   1     -24.435 -12.165  42.102  0.00  0.00    -0.035 A 
ATOM     45  F   MOL d   1     -23.704 -14.067  43.275  0.00  0.00    -0.206 F 
ATOM     46  H31 MOL d   1     -24.858 -12.804  41.335  0.00  0.00     0.089 H 
BRANCH  38  47
ATOM     47  O3  MOL d   1     -24.059  -8.621  42.878  0.00  0.00    -0.255 OA
BRANCH  47  48
ATOM     48  C28 MOL d   1     -25.039  -7.858  43.368  0.00  0.00     0.530 C 
ATOM     49  F3  MOL d   1     -25.898  -8.519  44.132  0.00  0.00    -0.144 F 
ATOM     50  F1  MOL d   1     -25.712  -7.319  42.357  0.00  0.00    -0.144 F 
ATOM     51  F2  MOL d   1     -24.545  -6.879  44.100  0.00  0.00    -0.144 F 
ENDBRANCH  47  48
ENDBRANCH  38  47
ENDBRANCH  35  37
BRANCH  35  52
ATOM     52  C29 MOL d   1     -26.793 -10.312  40.881  0.00  0.00    -0.045 C 
ATOM     53  H32 MOL d   1     -27.154 -10.133  41.904  0.00  0.00     0.030 H 
ATOM     54  H33 MOL d   1     -27.047 -11.338  40.577  0.00  0.00     0.030 H 
ATOM     55  H34 MOL d   1     -27.269  -9.598  40.194  0.00  0.00     0.030 H 
ENDBRANCH  35  52
ENDBRANCH  24  35
ENDBRANCH   9  19
BRANCH   2  56
ATOM     56  C6  MOL d   1     -26.400  -9.992  30.210  0.00  0.00    -0.013 C 
ATOM     57  H2  MOL d   1     -26.951  -9.290  30.852  0.00  0.00     0.049 H 
BRANCH  56  58
ATOM     58  C7  MOL d   1     -26.030  -9.163  28.944  0.00  0.00     0.035 C 
ATOM     59  H1  MOL d   1     -26.039  -9.883  28.112  0.00  0.00     0.057 H 
BRANCH  58  60
ATOM     60  C8  MOL d   1     -27.077  -8.096  28.597  0.00  0.00     0.177 C 
ATOM     61  O1  MOL d   1     -27.070  -7.044  29.279  0.00  0.00    -0.648 OA
ATOM     62  O   MOL d   1     -27.888  -8.346  27.669  0.00  0.00    -0.648 OA
ENDBRANCH  58  60
BRANCH  58  63
ATOM     63  C9  MOL d   1     -24.620  -8.558  28.957  0.00  0.00    -0.063 C 
ATOM     64  H6  MOL d   1     -24.454  -7.995  28.027  0.00  0.00     0.028 H 
ATOM     65  H7  MOL d   1     -23.876  -9.364  29.035  0.00  0.00     0.028 H 
ATOM     66  H8  MOL d   1     -24.519  -7.881  29.818  0.00  0.00     0.028 H 
ENDBRANCH  58  63
ENDBRANCH  56  58
BRANCH  56  67
ATOM     67  C10 MOL d   1     -27.443 -11.081  29.838  0.00  0.00    -0.046 A 
ATOM     68  C11 MOL d   1     -28.911 -10.779  29.867  0.00  0.00    -0.061 A 
ATOM     69  C12 MOL d   1     -28.343 -11.801  30.795  0.00  0.00    -0.061 A 
ATOM     70  H10 MOL d   1     -29.553 -11.092  29.031  0.00  0.00     0.033 H 
ATOM     71  H11 MOL d   1     -29.266  -9.816  30.261  0.00  0.00     0.033 H 
ATOM     72  H12 MOL d   1     -28.280 -11.590  31.873  0.00  0.00     0.033 H 
ATOM     73  H13 MOL d   1     -28.567 -12.867  30.642  0.00  0.00     0.033 H 
ATOM     74  H9  MOL d   1     -27.031 -11.657  28.996  0.00  0.00     0.041 H 
ENDBRANCH  56  67
ENDBRANCH   2  56
TORSDOF 11
