REMARK  3 active torsions:
REMARK  status: ('A' for Active; 'I' for Inactive)
REMARK    1  A    between atoms: C11_19  and  C6_3 
REMARK    2  A    between atoms: C2_15  and  C10_5 
REMARK    3  A    between atoms: C17_7  and  C18_12 
REMARK       I    between atoms: N15_23  and  C17_7 
ROOT
ATOM      1  C13 7OJ d   1       6.311   2.277   0.845  0.00  0.00     0.260 C 
ATOM      2  C17 7OJ d   1       7.448   5.552   1.573  0.00  0.00     0.254 C 
ATOM      3  C12 7OJ d   1       5.311   1.975   1.925  0.00  0.00     0.008 C 
ATOM      4  C16 7OJ d   1       5.568   4.402   2.714  0.00  0.00     0.007 C 
ATOM      5  C14 7OJ d   1       6.320   3.735   0.460  0.00  0.00     0.059 C 
ATOM      6  C11 7OJ d   1       5.454   2.935   3.087  0.00  0.00     0.010 C 
ATOM      7  N15 7OJ d   1       6.446   4.615   1.597  0.00  0.00    -0.342 N 
ATOM      8  O19 7OJ d   1       8.125   5.764   0.583  0.00  0.00    -0.267 OA
ATOM      9  F25 7OJ d   1       7.555   1.889   1.274  0.00  0.00    -0.205 F 
ATOM     10  F26 7OJ d   1       6.013   1.544  -0.256  0.00  0.00    -0.205 F 
ATOM     11  H9  7OJ d   1       5.471   0.948   2.286  0.00  0.00     0.043 H 
ATOM     12  H10 7OJ d   1       4.296   2.063   1.510  0.00  0.00     0.043 H 
ATOM     13  H11 7OJ d   1       5.957   4.958   3.580  0.00  0.00     0.065 H 
ATOM     14  H12 7OJ d   1       4.568   4.780   2.455  0.00  0.00     0.065 H 
ATOM     15  H13 7OJ d   1       5.379   3.966  -0.060  0.00  0.00     0.073 H 
ATOM     16  H14 7OJ d   1       7.168   3.914  -0.218  0.00  0.00     0.073 H 
ATOM     17  H15 7OJ d   1       6.432   2.684   3.524  0.00  0.00     0.052 H 
ENDROOT
BRANCH   6  18
ATOM     18  C6  7OJ d   1       4.480   2.713   4.183  0.00  0.00     0.062 A 
ATOM     19  C1  7OJ d   1       3.274   2.150   4.064  0.00  0.00    -0.034 A 
ATOM     20  C2  7OJ d   1       2.486   2.033   5.306  0.00  0.00     0.051 A 
ATOM     21  H8  7OJ d   1       2.895   1.798   3.106  0.00  0.00     0.089 H 
ATOM     22  N3  7OJ d   1       2.880   2.438   6.472  0.00  0.00    -0.066 NA
ATOM     23  C4  7OJ d   1       4.106   3.003   6.535  0.00  0.00     0.751 A 
ATOM     24  N7  7OJ d   1       4.742   3.487   7.573  0.00  0.00    -0.052 NA
ATOM     25  N5  7OJ d   1       4.882   3.134   5.424  0.00  0.00    -0.062 N 
ATOM     26  C8  7OJ d   1       5.918   3.925   7.038  0.00  0.00     0.126 A 
ATOM     27  N9  7OJ d   1       6.038   3.730   5.724  0.00  0.00    -0.145 NA
ATOM     28  H1  7OJ d   1       6.697   4.396   7.636  0.00  0.00     0.150 H 
BRANCH  20  29
ATOM     29  C10 7OJ d   1       1.124   1.404   5.217  0.00  0.00    -0.035 C 
ATOM     30  H2  7OJ d   1       0.923   1.110   4.176  0.00  0.00     0.035 H 
ATOM     31  H3  7OJ d   1       0.364   2.127   5.547  0.00  0.00     0.035 H 
ATOM     32  H4  7OJ d   1       1.088   0.514   5.863  0.00  0.00     0.035 H 
ENDBRANCH  20  29
ENDBRANCH   6  18
BRANCH   2  33
ATOM     33  C18 7OJ d   1       7.746   6.371   2.768  0.00  0.00     0.033 A 
ATOM     34  C20 7OJ d   1       8.107   5.846   3.994  0.00  0.00    -0.048 A 
ATOM     35  C21 7OJ d   1       8.375   6.732   5.018  0.00  0.00     0.050 A 
ATOM     36  H5  7OJ d   1       8.177   4.775   4.146  0.00  0.00     0.087 H 
ATOM     37  C27 7OJ d   1       8.290   8.090   4.828  0.00  0.00     0.133 A 
ATOM     38 BR24 7OJ d   1       8.876   6.151   6.743  0.00  0.00    -0.048 Br
ATOM     39  C22 7OJ d   1       7.942   8.587   3.598  0.00  0.00    -0.043 A 
ATOM     40  F28 7OJ d   1       8.568   8.920   5.864  0.00  0.00    -0.205 F 
ATOM     41  C23 7OJ d   1       7.674   7.726   2.565  0.00  0.00    -0.065 A 
ATOM     42  H6  7OJ d   1       7.879   9.658   3.443  0.00  0.00     0.088 H 
ATOM     43  H7  7OJ d   1       7.406   8.115   1.589  0.00  0.00     0.085 H 
ENDBRANCH   2  33
TORSDOF 3
