REMARK  3 active torsions:
REMARK  status: ('A' for Active; 'I' for Inactive)
REMARK    1  A    between atoms: C10_5  and  C6_3 
REMARK    2  A    between atoms: C19_15  and  C20_7 
REMARK    3  A    between atoms: C2_14  and  C11_19 
REMARK       I    between atoms: N15_23  and  C19_15 
ROOT
ATOM      1  C10 7OV d   1       8.924   5.010   5.239  0.00  0.00     0.010 C 
ATOM      2  C13 7OV d   1       9.758   4.337   2.996  0.00  0.00     0.260 C 
ATOM      3  C19 7OV d   1      10.847   7.633   3.681  0.00  0.00     0.254 C 
ATOM      4  C12 7OV d   1       8.765   4.036   4.088  0.00  0.00     0.008 C 
ATOM      5  C16 7OV d   1       8.934   6.459   4.787  0.00  0.00     0.007 C 
ATOM      6  C14 7OV d   1       9.772   5.788   2.571  0.00  0.00     0.059 C 
ATOM      7  N15 7OV d   1       9.855   6.685   3.699  0.00  0.00    -0.342 N 
ATOM      8  O21 7OV d   1      11.541   7.814   2.693  0.00  0.00    -0.267 OA
ATOM      9  F17 7OV d   1      10.990   3.970   3.473  0.00  0.00    -0.205 F 
ATOM     10  F18 7OV d   1       9.546   3.544   1.904  0.00  0.00    -0.205 F 
ATOM     11  H2  7OV d   1       9.920   4.811   5.660  0.00  0.00     0.052 H 
ATOM     12  H7  7OV d   1       7.746   4.119   3.683  0.00  0.00     0.043 H 
ATOM     13  H8  7OV d   1       8.931   3.013   4.455  0.00  0.00     0.043 H 
ATOM     14  H9  7OV d   1       9.227   7.093   5.637  0.00  0.00     0.065 H 
ATOM     15  H10 7OV d   1       7.921   6.734   4.457  0.00  0.00     0.065 H 
ATOM     16  H11 7OV d   1       8.848   6.003   2.014  0.00  0.00     0.073 H 
ATOM     17  H12 7OV d   1      10.641   5.958   1.919  0.00  0.00     0.073 H 
ENDROOT
BRANCH   1  18
ATOM     18  C6  7OV d   1       7.961   4.809   6.352  0.00  0.00     0.062 A 
ATOM     19  C1  7OV d   1       6.753   4.236   6.238  0.00  0.00    -0.034 A 
ATOM     20  C2  7OV d   1       5.960   4.128   7.465  0.00  0.00     0.051 A 
ATOM     21  H6  7OV d   1       6.381   3.870   5.282  0.00  0.00     0.089 H 
ATOM     22  N3  7OV d   1       6.338   4.545   8.624  0.00  0.00    -0.066 NA
ATOM     23  C4  7OV d   1       7.559   5.121   8.690  0.00  0.00     0.751 A 
ATOM     24  N7  7OV d   1       8.188   5.626   9.733  0.00  0.00    -0.052 NA
ATOM     25  N5  7OV d   1       8.355   5.253   7.589  0.00  0.00    -0.062 N 
ATOM     26  C8  7OV d   1       9.369   6.061   9.208  0.00  0.00     0.126 A 
ATOM     27  N9  7OV d   1       9.518   5.859   7.896  0.00  0.00    -0.145 NA
ATOM     28  H1  7OV d   1      10.136   6.539   9.815  0.00  0.00     0.150 H 
BRANCH  20  29
ATOM     29  C11 7OV d   1       4.609   3.483   7.344  0.00  0.00    -0.035 C 
ATOM     30  H13 7OV d   1       4.437   3.185   6.299  0.00  0.00     0.035 H 
ATOM     31  H14 7OV d   1       3.832   4.198   7.653  0.00  0.00     0.035 H 
ATOM     32  H15 7OV d   1       4.568   2.594   7.991  0.00  0.00     0.035 H 
ENDBRANCH  20  29
ENDBRANCH   1  18
BRANCH   3  33
ATOM     33  C20 7OV d   1      11.164   8.492   4.842  0.00  0.00     0.033 A 
ATOM     34  C22 7OV d   1      11.076   9.846   4.621  0.00  0.00    -0.065 A 
ATOM     35  C23 7OV d   1      11.380  10.707   5.648  0.00  0.00    -0.043 A 
ATOM     36  H3  7OV d   1      10.772  10.228   3.653  0.00  0.00     0.085 H 
ATOM     37  C24 7OV d   1      11.784  10.219   6.865  0.00  0.00     0.133 A 
ATOM     38  H5  7OV d   1      11.300  11.777   5.496  0.00  0.00     0.088 H 
ATOM     39  C25 7OV d   1      11.888   8.865   7.109  0.00  0.00     0.046 A 
ATOM     40  F28 7OV d   1      12.074  11.131   7.828  0.00  0.00    -0.205 F 
ATOM     41  C26 7OV d   1      11.565   7.994   6.067  0.00  0.00    -0.049 A 
ATOM     42  I27 7OV d   1      12.508   8.231   9.020  0.00  0.00    -0.041 I 
ATOM     43  H4  7OV d   1      11.629   6.923   6.220  0.00  0.00     0.087 H 
ENDBRANCH   3  33
TORSDOF 3
