REMARK  13 active torsions:
REMARK  status: ('A' for Active; 'I' for Inactive)
REMARK    1  A    between atoms: CA_11  and  CB_14 
REMARK    2  A    between atoms: CB_14  and  CG_15 
REMARK    3  A    between atoms: CA_22  and  CB_25 
REMARK    4  A    between atoms: CB_25  and  CG_26 
REMARK    5  A    between atoms: CG_26  and  CD_27 
REMARK    6  A    between atoms: CA_35  and  CB_38 
REMARK    7  A    between atoms: CB_38  and  CG_39 
REMARK    8  A    between atoms: CZ_44  and  OH_45 
REMARK    9  A    between atoms: CA_47  and  CB_50 
REMARK   10  A    between atoms: CB_50  and  CG_51 
REMARK   11  A    between atoms: CA_55  and  CB_58 
REMARK   12  A    between atoms: CB_58  and  CG_59 
REMARK       I    between atoms: CG_59  and  ND2_61 
REMARK   13  A    between atoms: C02_72  and  C03_73 
REMARK       I    between atoms: C03_73  and  N05_75 
ROOT
ATOM      1  N   LYS d   1       0.661  37.531 144.000  0.00  0.00    -0.347 N 
ATOM      2  CA  LYS d   1       0.341  36.354 144.798  0.00  0.00     0.089 C 
ATOM      3  C   LYS d   1      -1.112  35.934 144.604  0.00  0.00     0.241 C 
ATOM      4  O   LYS d   1      -1.939  36.721 144.143  0.00  0.00    -0.271 OA
ATOM      5  CB  LYS d   1       0.619  36.620 146.279  0.00  0.00    -0.038 C 
ATOM      6  CG  LYS d   1       1.999  37.192 146.559  0.00  0.00    -0.061 C 
ATOM      7  CD  LYS d   1       2.433  36.915 147.989  0.00  0.00    -0.050 C 
ATOM      8  CE  LYS d   1       3.909  37.219 148.187  0.00  0.00    -0.005 C 
ATOM      9  NZ  LYS d   1       4.772  36.357 147.333  0.00  0.00    -0.361 N 
ATOM     10  N   LYS d   1      -1.415  34.689 144.957  0.00  0.00    -0.346 N 
ATOM     11  CA  LYS d   1      -2.766  34.163 144.821  0.00  0.00     0.093 C 
ATOM     12  C   LYS d   1      -3.068  33.254 146.007  0.00  0.00     0.241 C 
ATOM     13  O   LYS d   1      -2.356  32.268 146.228  0.00  0.00    -0.271 OA
ATOM     14  N   LYS d   1      -4.092  33.600 146.779  0.00  0.00    -0.346 N 
ATOM     15  CA  LYS d   1      -4.468  32.838 147.968  0.00  0.00     0.090 C 
ATOM     16  C   LYS d   1      -4.665  31.354 147.698  0.00  0.00     0.240 C 
ATOM     17  O   LYS d   1      -5.384  30.971 146.784  0.00  0.00    -0.271 OA
ATOM     18  N   LYS d   1      -4.037  30.520 148.515  0.00  0.00    -0.351 N 
ATOM     19  CA  LYS d   1      -4.144  29.090 148.339  0.00  0.00     0.069 C 
ATOM     20  C   LYS d   1      -3.155  28.481 147.365  0.00  0.00     0.236 C 
ATOM     21  O   LYS d   1      -3.158  27.256 147.194  0.00  0.00    -0.272 OA
ATOM     22  N   LYS d   1      -2.311  29.285 146.727  0.00  0.00    -0.346 N 
ATOM     23  CA  LYS d   1      -1.321  28.779 145.788  0.00  0.00     0.093 C 
ATOM     24  C   LYS d   1       0.055  29.275 146.196  0.00  0.00     0.241 C 
ATOM     25  O   LYS d   1       0.195  30.159 147.045  0.00  0.00    -0.271 OA
ATOM     26  N   LYS d   1       1.085  28.693 145.583  0.00  0.00    -0.345 N 
ATOM     27  CA  LYS d   1       2.463  28.984 145.950  0.00  0.00     0.098 C 
ATOM     28  C   LYS d   1       3.130  30.035 145.058  0.00  0.00     0.241 C 
ATOM     29  O   LYS d   1       4.330  30.289 145.228  0.00  0.00    -0.271 OA
ATOM     30  N   LYS d   1       2.385  30.687 144.155  0.00  0.00    -0.346 N 
ATOM     31  CA  LYS d   1       2.996  31.699 143.291  0.00  0.00     0.097 C 
ATOM     32  C   LYS d   1       3.592  32.816 144.139  0.00  0.00     0.241 C 
ATOM     33  O   LYS d   1       2.947  33.317 145.056  0.00  0.00    -0.271 OA
ATOM     34  N   LYS d   1       4.797  33.241 143.785  0.00  0.00    -0.350 N 
ATOM     35  CA  LYS d   1       5.457  34.330 144.482  0.00  0.00     0.068 C 
ATOM     36  C   LYS d   1       6.129  35.275 143.491  0.00  0.00     0.274 A 
ATOM     37  O   LYS d   1       7.049  34.889 142.779  0.00  0.00    -0.161 OA
ATOM     38  CB  LYS d   1       6.472  33.800 145.488  0.00  0.00    -0.034 C 
ATOM     39  CG  LYS d   1       6.613  34.665 146.728  0.00  0.00     0.011 C 
ATOM     40  CD  LYS d   1       5.281  35.176 147.241  0.00  0.00     0.217 C 
ATOM     41  OE2 LYS d   1       4.848  34.711 148.313  0.00  0.00    -0.274 OA
ATOM     42  O10 LYS d   1       2.549  36.075 143.305  0.00  0.00    -0.273 OA
ATOM     43  N01 LYS d   1       5.818  36.116 142.732  0.00  0.00     0.090 N 
ATOM     44  C02 LYS d   1       6.148  37.126 141.688  0.00  0.00     0.218 C 
ATOM     45  C06 LYS d   1       4.966  38.139 141.595  0.00  0.00     0.015 C 
ATOM     46  S07 LYS d   1       3.463  37.404 140.905  0.00  0.00    -0.157 SA
ATOM     47  C08 LYS d   1       2.045  37.994 141.864  0.00  0.00     0.051 C 
ATOM     48  C09 LYS d   1       1.870  37.038 143.070  0.00  0.00     0.227 C 
ATOM     49  H1  LYS d   1       0.229  38.432 144.026  0.00  0.00     0.163 HD
ATOM     50  H2  LYS d   1       0.986  35.528 144.466  0.00  0.00     0.087 H 
ATOM     51  H3  LYS d   1       0.522  35.670 146.825  0.00  0.00     0.036 H 
ATOM     52  H4  LYS d   1      -0.132  37.334 146.649  0.00  0.00     0.036 H 
ATOM     53  H5  LYS d   1       1.976  38.280 146.396  0.00  0.00     0.033 H 
ATOM     54  H6  LYS d   1       2.723  36.733 145.870  0.00  0.00     0.033 H 
ATOM     55  H7  LYS d   1       2.252  35.855 148.220  0.00  0.00     0.035 H 
ATOM     56  H8  LYS d   1       1.843  37.545 148.671  0.00  0.00     0.035 H 
ATOM     57  H9  LYS d   1       4.169  37.048 149.242  0.00  0.00     0.064 H 
ATOM     58  H10 LYS d   1       4.093  38.273 147.930  0.00  0.00     0.064 H 
ATOM     59  H11 LYS d   1       5.064  36.890 146.539  0.00  0.00     0.162 HD
ATOM     60  H12 LYS d   1      -0.697  34.099 145.325  0.00  0.00     0.163 HD
ATOM     61  H13 LYS d   1      -3.478  35.002 144.817  0.00  0.00     0.088 H 
ATOM     62  H21 LYS d   1      -4.625  34.411 146.538  0.00  0.00     0.163 HD
ATOM     63  H22 LYS d   1      -3.644  32.933 148.691  0.00  0.00     0.087 H 
ATOM     64  H27 LYS d   1      -3.482  30.885 149.262  0.00  0.00     0.163 HD
ATOM     65  H28 LYS d   1      -5.159  28.867 147.977  0.00  0.00     0.078 H 
ATOM     66  H29 LYS d   1      -3.992  28.615 149.319  0.00  0.00     0.078 H 
ATOM     67  H30 LYS d   1      -2.358  30.269 146.898  0.00  0.00     0.163 HD
ATOM     68  H31 LYS d   1      -1.323  27.680 145.837  0.00  0.00     0.088 H 
ATOM     69  H39 LYS d   1       0.906  28.037 144.850  0.00  0.00     0.163 HD
ATOM     70  H40 LYS d   1       2.452  29.382 146.975  0.00  0.00     0.088 H 
ATOM     71  H43 LYS d   1       1.410  30.482 144.071  0.00  0.00     0.163 HD
ATOM     72  H44 LYS d   1       3.794  31.224 142.701  0.00  0.00     0.088 H 
ATOM     73  H49 LYS d   1       5.263  32.800 143.018  0.00  0.00     0.163 HD
ATOM     74  H50 LYS d   1       4.692  34.897 145.033  0.00  0.00     0.079 H 
ATOM     75  H51 LYS d   1       6.629  35.885 144.257  0.00  0.00     0.141 H 
ATOM     76  H52 LYS d   1       7.453  33.740 144.993  0.00  0.00     0.036 H 
ATOM     77  H53 LYS d   1       6.157  32.794 145.801  0.00  0.00     0.036 H 
ATOM     78  H54 LYS d   1       7.250  35.528 146.484  0.00  0.00     0.047 H 
ATOM     79  H55 LYS d   1       7.090  34.069 147.520  0.00  0.00     0.047 H 
ATOM     80  H56 LYS d   1       4.855  35.937 142.494  0.00  0.00     0.322 HD
ATOM     81  H57 LYS d   1       6.282  36.634 140.713  0.00  0.00     0.105 H 
ATOM     82  H60 LYS d   1       5.273  38.979 140.954  0.00  0.00     0.052 H 
ATOM     83  H61 LYS d   1       4.743  38.512 142.606  0.00  0.00     0.052 H 
ATOM     84  H62 LYS d   1       1.139  37.982 141.241  0.00  0.00     0.063 H 
ATOM     85  H63 LYS d   1       2.232  39.018 142.220  0.00  0.00     0.063 H 
ENDROOT
BRANCH  23  86
ATOM     86  CB  LYS d   1      -1.662  29.192 144.352  0.00  0.00    -0.014 C 
ATOM     87  H32 LYS d   1      -0.895  28.787 143.675  0.00  0.00     0.043 H 
ATOM     88  H33 LYS d   1      -1.663  30.290 144.290  0.00  0.00     0.043 H 
BRANCH  86  89
ATOM     89  CG  LYS d   1      -3.011  28.680 143.919  0.00  0.00    -0.056 A 
ATOM     90  CD1 LYS d   1      -3.154  27.401 143.393  0.00  0.00    -0.074 A 
ATOM     91  CE1 LYS d   1      -4.389  26.921 143.000  0.00  0.00    -0.051 A 
ATOM     92  H34 LYS d   1      -2.280  26.768 143.289  0.00  0.00     0.084 H 
ATOM     93  CZ  LYS d   1      -5.505  27.724 143.130  0.00  0.00     0.065 A 
ATOM     94  H36 LYS d   1      -4.481  25.921 142.592  0.00  0.00     0.087 H 
ATOM     95  CE2 LYS d   1      -5.394  28.994 143.654  0.00  0.00    -0.051 A 
ATOM     96  CD2 LYS d   1      -4.149  29.465 144.051  0.00  0.00    -0.074 A 
ATOM     97  H37 LYS d   1      -6.272  29.621 143.756  0.00  0.00     0.087 H 
ATOM     98  H35 LYS d   1      -4.064  30.461 144.470  0.00  0.00     0.084 H 
BRANCH  93  99
ATOM     99  OH  LYS d   1      -6.734  27.257 142.741  0.00  0.00    -0.361 OA
ATOM    100  H38 LYS d   1      -6.644  26.373 142.404  0.00  0.00     0.217 HD
ENDBRANCH  93  99
ENDBRANCH  86  89
ENDBRANCH  23  86
BRANCH  27 101
ATOM    101  CB  LYS d   1       3.295  27.693 145.949  0.00  0.00     0.043 C 
ATOM    102  H41 LYS d   1       4.336  27.946 146.197  0.00  0.00     0.052 H 
ATOM    103  H42 LYS d   1       3.255  27.250 144.943  0.00  0.00     0.052 H 
BRANCH 101 104
ATOM    104  CG  LYS d   1       2.790  26.660 146.958  0.00  0.00     0.175 C 
ATOM    105  OD1 LYS d   1       2.851  26.944 148.169  0.00  0.00    -0.648 OA
ATOM    106  OD2 LYS d   1       2.345  25.569 146.549  0.00  0.00    -0.648 OA
ENDBRANCH 101 104
ENDBRANCH  27 101
BRANCH  15 107
ATOM    107  CB  LYS d   1      -5.727  33.428 148.609  0.00  0.00    -0.029 C 
ATOM    108  H23 LYS d   1      -6.439  32.610 148.792  0.00  0.00     0.037 H 
ATOM    109  H24 LYS d   1      -6.169  34.149 147.906  0.00  0.00     0.037 H 
BRANCH 107 110
ATOM    110  CG  LYS d   1      -5.467  34.140 149.924  0.00  0.00     0.018 C 
ATOM    111  H25 LYS d   1      -6.412  34.574 150.283  0.00  0.00     0.049 H 
ATOM    112  H26 LYS d   1      -4.736  34.944 149.751  0.00  0.00     0.049 H 
BRANCH 110 113
ATOM    113  CD  LYS d   1      -4.924  33.210 150.990  0.00  0.00     0.172 C 
ATOM    114  OE1 LYS d   1      -4.233  33.690 151.908  0.00  0.00    -0.648 OA
ATOM    115  OE2 LYS d   1      -5.189  31.996 150.907  0.00  0.00    -0.648 OA
ENDBRANCH 110 113
ENDBRANCH 107 110
ENDBRANCH  15 107
BRANCH  31 116
ATOM    116  CB  LYS d   1       1.967  32.317 142.335  0.00  0.00     0.036 C 
ATOM    117  H45 LYS d   1       2.499  32.969 141.627  0.00  0.00     0.051 H 
ATOM    118  H46 LYS d   1       1.260  32.917 142.927  0.00  0.00     0.051 H 
BRANCH 116 119
ATOM    119  CG  LYS d   1       1.184  31.299 141.548  0.00  0.00     0.217 C 
ATOM    120  OD1 LYS d   1       0.572  30.388 142.111  0.00  0.00    -0.274 OA
ATOM    121  ND2 LYS d   1       1.140  31.488 140.225  0.00  0.00    -0.370 N 
ATOM    122  H47 LYS d   1       0.636  30.848 139.645  0.00  0.00     0.159 HD
ATOM    123  H48 LYS d   1       1.611  32.270 139.816  0.00  0.00     0.159 HD
ENDBRANCH 116 119
ENDBRANCH  31 116
BRANCH  11 124
ATOM    124  CB  LYS d   1      -2.920  33.377 143.515  0.00  0.00    -0.014 C 
ATOM    125  H14 LYS d   1      -3.974  33.081 143.411  0.00  0.00     0.043 H 
ATOM    126  H15 LYS d   1      -2.291  32.477 143.576  0.00  0.00     0.043 H 
BRANCH 124 127
ATOM    127  CG  LYS d   1      -2.523  34.149 142.292  0.00  0.00    -0.056 A 
ATOM    128  CD1 LYS d   1      -3.454  34.909 141.607  0.00  0.00    -0.077 A 
ATOM    129  CE1 LYS d   1      -3.092  35.620 140.480  0.00  0.00    -0.082 A 
ATOM    130  H16 LYS d   1      -4.479  34.947 141.959  0.00  0.00     0.084 H 
ATOM    131  CZ  LYS d   1      -1.784  35.577 140.025  0.00  0.00    -0.083 A 
ATOM    132  H18 LYS d   1      -3.831  36.212 139.952  0.00  0.00     0.083 H 
ATOM    133  CE2 LYS d   1      -0.844  34.823 140.700  0.00  0.00    -0.082 A 
ATOM    134  H20 LYS d   1      -1.499  36.135 139.140  0.00  0.00     0.083 H 
ATOM    135  CD2 LYS d   1      -1.214  34.112 141.825  0.00  0.00    -0.077 A 
ATOM    136  H19 LYS d   1       0.181  34.789 140.348  0.00  0.00     0.083 H 
ATOM    137  H17 LYS d   1      -0.475  33.518 142.350  0.00  0.00     0.084 H 
ENDBRANCH 124 127
ENDBRANCH  11 124
BRANCH  44 138
ATOM    138  C03 LYS d   1       7.494  37.828 142.111  0.00  0.00     0.250 C 
ATOM    139  O04 LYS d   1       7.793  37.916 143.293  0.00  0.00    -0.271 OA
ATOM    140  N05 LYS d   1       8.257  38.302 141.143  0.00  0.00    -0.368 N 
ATOM    141  H58 LYS d   1       9.120  38.755 141.364  0.00  0.00     0.159 HD
ATOM    142  H59 LYS d   1       7.971  38.207 140.189  0.00  0.00     0.159 HD
ENDBRANCH  44 138
TORSDOF 13
