REMARK  4 active torsions:
REMARK  status: ('A' for Active; 'I' for Inactive)
REMARK    1  A    between atoms: C17_3  and  N21_23 
REMARK    2  A    between atoms: N02_7  and  O01_6 
REMARK       I    between atoms: C03_8  and  N02_7 
REMARK    3  A    between atoms: C05_10  and  C03_8 
REMARK    4  A    between atoms: C08_13  and  C11_15 
ROOT
ATOM      1  C15 82Y d   1      -8.226  42.676  11.819  0.00  0.00     0.103 A 
ATOM      2  C17 82Y d   1     -10.037  44.427  11.744  0.00  0.00     0.206 C 
ATOM      3  C11 82Y d   1      -6.841  42.110  12.179  0.00  0.00     0.016 A 
ATOM      4  C12 82Y d   1      -6.533  41.020  11.258  0.00  0.00    -0.031 A 
ATOM      5  S13 82Y d   1      -7.756  40.817  10.225  0.00  0.00    -0.095 SA
ATOM      6  C14 82Y d   1      -8.799  41.982  10.717  0.00  0.00     0.085 A 
ATOM      7  O16 82Y d   1      -8.905  43.808  12.529  0.00  0.00    -0.315 OA
ATOM      8  C18 82Y d   1     -10.631  43.671  10.594  0.00  0.00     0.044 C 
ATOM      9  C19 82Y d   1     -10.103  42.370  10.235  0.00  0.00     0.173 C 
ATOM     10  O20 82Y d   1     -10.751  41.615   9.536  0.00  0.00    -0.292 OA
ATOM     11  H2  82Y d   1     -10.831  44.159  12.457  0.00  0.00     0.131 H 
ATOM     12  H12 82Y d   1      -5.616  40.432  11.267  0.00  0.00     0.096 H 
ATOM     13  H13 82Y d   1     -10.529  44.312   9.706  0.00  0.00     0.051 H 
ATOM     14  H14 82Y d   1     -11.697  43.529  10.823  0.00  0.00     0.051 H 
ENDROOT
BRANCH   2  15
ATOM     15  N21 82Y d   1     -10.212  45.884  11.876  0.00  0.00    -0.040 N 
ATOM     16  C22 82Y d   1     -11.313  46.531  11.260  0.00  0.00     0.106 C 
ATOM     17  C23 82Y d   1     -11.420  48.003  11.566  0.00  0.00     0.042 C 
ATOM     18  H3  82Y d   1     -12.236  46.040  11.602  0.00  0.00     0.079 H 
ATOM     19  H4  82Y d   1     -11.217  46.412  10.171  0.00  0.00     0.079 H 
ATOM     20  O24 82Y d   1     -10.154  48.619  11.365  0.00  0.00    -0.388 OA
ATOM     21  H16 82Y d   1     -11.733  48.139  12.612  0.00  0.00     0.076 H 
ATOM     22  H17 82Y d   1     -12.163  48.464  10.898  0.00  0.00     0.076 H 
ATOM     23  C25 82Y d   1      -9.230  48.163  12.330  0.00  0.00     0.042 C 
ATOM     24  C26 82Y d   1      -9.290  46.650  12.613  0.00  0.00     0.106 C 
ATOM     25  H18 82Y d   1      -8.217  48.406  11.976  0.00  0.00     0.076 H 
ATOM     26  H19 82Y d   1      -9.427  48.696  13.272  0.00  0.00     0.076 H 
ATOM     27  H5  82Y d   1      -8.289  46.239  12.416  0.00  0.00     0.079 H 
ATOM     28  H6  82Y d   1      -9.535  46.524  13.678  0.00  0.00     0.079 H 
ATOM     29  H15 82Y d   1     -10.760  45.740  12.709  0.00  0.00     0.283 HD
ENDBRANCH   2  15
BRANCH   3  30
ATOM     30  C08 82Y d   1      -5.970  42.681  13.333  0.00  0.00    -0.023 A 
ATOM     31  C07 82Y d   1      -5.137  41.870  14.137  0.00  0.00    -0.071 A 
ATOM     32  C06 82Y d   1      -4.366  42.461  15.180  0.00  0.00    -0.067 A 
ATOM     33  H10 82Y d   1      -5.085  40.802  13.961  0.00  0.00     0.084 H 
ATOM     34  C05 82Y d   1      -4.430  43.860  15.417  0.00  0.00     0.034 A 
ATOM     35  H9  82Y d   1      -3.727  41.839  15.796  0.00  0.00     0.085 H 
ATOM     36  C10 82Y d   1      -5.258  44.659  14.622  0.00  0.00    -0.067 A 
ATOM     37  C09 82Y d   1      -6.032  44.069  13.575  0.00  0.00    -0.071 A 
ATOM     38  H1  82Y d   1      -5.313  45.727  14.800  0.00  0.00     0.085 H 
ATOM     39  H11 82Y d   1      -6.672  44.694  12.962  0.00  0.00     0.084 H 
BRANCH  34  40
ATOM     40  C03 82Y d   1      -3.592  44.498  16.553  0.00  0.00     0.275 C 
ATOM     41  N02 82Y d   1      -2.641  43.715  17.267  0.00  0.00    -0.233 N 
ATOM     42  H8  82Y d   1      -2.510  42.752  17.034  0.00  0.00     0.197 HD
ATOM     43  O04 82Y d   1      -3.747  45.656  16.833  0.00  0.00    -0.265 OA
BRANCH  41  44
ATOM     44  O01 82Y d   1      -1.893  44.294  18.292  0.00  0.00    -0.287 OA
ATOM     45  H7  82Y d   1      -1.310  43.643  18.664  0.00  0.00     0.244 HD
ENDBRANCH  41  44
ENDBRANCH  34  40
ENDBRANCH   3  30
TORSDOF 4
