REMARK  6 active torsions:
REMARK  status: ('A' for Active; 'I' for Inactive)
REMARK    1  A    between atoms: C02_8  and  C01_7 
REMARK    2  A    between atoms: O03_9  and  C02_8 
REMARK    3  A    between atoms: C04_10  and  O03_9 
REMARK    4  A    between atoms: C06_12  and  C04_10 
REMARK    5  A    between atoms: C12_17  and  C09_15 
REMARK    6  A    between atoms: N22_24  and  C18_21 
ROOT
ATOM      1  C13 837 d   1     -31.523  14.752  -6.317  0.00  0.00    -0.031 A 
ATOM      2  C15 837 d   1     -32.103  16.695  -4.809  0.00  0.00     0.085 A 
ATOM      3  C20 837 d   1     -32.253  17.906  -4.017  0.00  0.00     0.173 C 
ATOM      4  C12 837 d   1     -32.707  14.428  -5.552  0.00  0.00     0.016 A 
ATOM      5  S14 837 d   1     -31.003  16.277  -5.944  0.00  0.00    -0.095 SA
ATOM      6  C16 837 d   1     -33.028  15.611  -4.635  0.00  0.00     0.103 A 
ATOM      7  O17 837 d   1     -34.154  15.674  -3.694  0.00  0.00    -0.315 OA
ATOM      8  C18 837 d   1     -34.279  16.880  -2.895  0.00  0.00     0.206 C 
ATOM      9  C19 837 d   1     -33.203  17.920  -2.945  0.00  0.00     0.044 C 
ATOM     10  O21 837 d   1     -31.575  18.861  -4.221  0.00  0.00    -0.292 OA
ATOM     11  H2  837 d   1     -31.043  14.088  -7.035  0.00  0.00     0.096 H 
ATOM     12  H15 837 d   1     -35.051  17.411  -3.471  0.00  0.00     0.131 H 
ATOM     13  H16 837 d   1     -33.706  18.898  -2.977  0.00  0.00     0.051 H 
ATOM     14  H17 837 d   1     -32.630  17.832  -2.010  0.00  0.00     0.051 H 
ENDROOT
BRANCH   4  15
ATOM     15  C09 837 d   1     -33.550  13.158  -5.525  0.00  0.00    -0.023 A 
ATOM     16  C10 837 d   1     -34.058  12.759  -4.294  0.00  0.00    -0.071 A 
ATOM     17  C11 837 d   1     -34.827  11.608  -4.174  0.00  0.00    -0.066 A 
ATOM     18  H1  837 d   1     -33.851  13.356  -3.413  0.00  0.00     0.084 H 
ATOM     19  C06 837 d   1     -35.067  10.841  -5.310  0.00  0.00     0.039 A 
ATOM     20  H14 837 d   1     -35.233  11.313  -3.213  0.00  0.00     0.085 H 
ATOM     21  C07 837 d   1     -34.544  11.231  -6.533  0.00  0.00    -0.066 A 
ATOM     22  C08 837 d   1     -33.777  12.390  -6.652  0.00  0.00    -0.071 A 
ATOM     23  H12 837 d   1     -34.734  10.625  -7.412  0.00  0.00     0.085 H 
ATOM     24  H13 837 d   1     -33.366  12.683  -7.611  0.00  0.00     0.084 H 
BRANCH  19  25
ATOM     25  C04 837 d   1     -35.912   9.568  -5.193  0.00  0.00     0.293 C 
ATOM     26  O05 837 d   1     -36.156   9.099  -4.124  0.00  0.00    -0.259 OA
BRANCH  25  27
ATOM     27  O03 837 d   1     -36.434   8.943  -6.327  0.00  0.00    -0.318 OA
BRANCH  27  28
ATOM     28  C02 837 d   1     -37.564   8.171  -6.000  0.00  0.00     0.026 C 
ATOM     29  H10 837 d   1     -37.271   7.113  -5.930  0.00  0.00     0.074 H 
ATOM     30  H11 837 d   1     -37.963   8.506  -5.031  0.00  0.00     0.074 H 
BRANCH  28  31
ATOM     31  C01 837 d   1     -38.648   8.324  -7.071  0.00  0.00    -0.056 C 
ATOM     32  H7  837 d   1     -39.522   7.714  -6.798  0.00  0.00     0.030 H 
ATOM     33  H8  837 d   1     -38.255   7.987  -8.041  0.00  0.00     0.030 H 
ATOM     34  H9  837 d   1     -38.946   9.380  -7.143  0.00  0.00     0.030 H 
ENDBRANCH  28  31
ENDBRANCH  27  28
ENDBRANCH  25  27
ENDBRANCH  19  25
ENDBRANCH   4  15
BRANCH   8  35
ATOM     35  N22 837 d   1     -34.986  16.660  -1.672  0.00  0.00    -0.040 N 
ATOM     36  C23 837 d   1     -35.110  17.675  -0.613  0.00  0.00     0.106 C 
ATOM     37  C24 837 d   1     -36.423  17.546   0.129  0.00  0.00     0.042 C 
ATOM     38  H19 837 d   1     -34.282  17.550   0.101  0.00  0.00     0.079 H 
ATOM     39  H20 837 d   1     -35.053  18.675  -1.068  0.00  0.00     0.079 H 
ATOM     40  O25 837 d   1     -36.502  16.265   0.637  0.00  0.00    -0.388 OA
ATOM     41  H3  837 d   1     -37.261  17.726  -0.561  0.00  0.00     0.076 H 
ATOM     42  H4  837 d   1     -36.461  18.276   0.951  0.00  0.00     0.076 H 
ATOM     43  C26 837 d   1     -36.711  15.338  -0.363  0.00  0.00     0.042 C 
ATOM     44  C27 837 d   1     -35.609  15.356  -1.414  0.00  0.00     0.106 C 
ATOM     45  H5  837 d   1     -37.670  15.559  -0.854  0.00  0.00     0.076 H 
ATOM     46  H6  837 d   1     -36.752  14.336   0.088  0.00  0.00     0.076 H 
ATOM     47  H21 837 d   1     -36.040  14.996  -2.360  0.00  0.00     0.079 H 
ATOM     48  H22 837 d   1     -34.819  14.665  -1.085  0.00  0.00     0.079 H 
ATOM     49  H18 837 d   1     -35.831  17.000  -2.105  0.00  0.00     0.283 HD
ENDBRANCH   8  35
TORSDOF 6
