REMARK  4 active torsions:
REMARK  status: ('A' for Active; 'I' for Inactive)
REMARK    1  A    between atoms: C17_3  and  N21_23 
REMARK    2  A    between atoms: N02_7  and  O01_6 
REMARK       I    between atoms: C03_8  and  N02_7 
REMARK    3  A    between atoms: C05_10  and  C03_8 
REMARK    4  A    between atoms: C08_13  and  C11_15 
ROOT
ATOM      1  C15 82Y d   1      26.904 -16.028  -2.887  0.00  0.00     0.103 A 
ATOM      2  C17 82Y d   1      28.866 -17.273  -3.838  0.00  0.00     0.206 C 
ATOM      3  C11 82Y d   1      25.973 -14.835  -2.604  0.00  0.00     0.016 A 
ATOM      4  C12 82Y d   1      25.092 -15.151  -1.488  0.00  0.00    -0.031 A 
ATOM      5  S13 82Y d   1      25.422 -16.672  -0.965  0.00  0.00    -0.095 SA
ATOM      6  C14 82Y d   1      26.624 -17.114  -1.970  0.00  0.00     0.085 A 
ATOM      7  O16 82Y d   1      27.963 -16.123  -3.944  0.00  0.00    -0.315 OA
ATOM      8  C18 82Y d   1      28.538 -18.421  -2.918  0.00  0.00     0.044 C 
ATOM      9  C19 82Y d   1      27.391 -18.358  -2.059  0.00  0.00     0.173 C 
ATOM     10  O20 82Y d   1      27.069 -19.307  -1.425  0.00  0.00    -0.292 OA
ATOM     11  H2  82Y d   1      28.505 -17.776  -4.747  0.00  0.00     0.131 H 
ATOM     12  H12 82Y d   1      24.338 -14.487  -1.069  0.00  0.00     0.096 H 
ATOM     13  H13 82Y d   1      29.413 -18.563  -2.266  0.00  0.00     0.051 H 
ATOM     14  H14 82Y d   1      28.407 -19.308  -3.555  0.00  0.00     0.051 H 
ENDROOT
BRANCH   2  15
ATOM     15  N21 82Y d   1      30.224 -17.084  -4.310  0.00  0.00    -0.040 N 
ATOM     16  C22 82Y d   1      31.307 -18.050  -4.121  0.00  0.00     0.106 C 
ATOM     17  C23 82Y d   1      32.253 -18.169  -5.311  0.00  0.00     0.042 C 
ATOM     18  H3  82Y d   1      30.860 -19.038  -3.936  0.00  0.00     0.079 H 
ATOM     19  H4  82Y d   1      31.894 -17.743  -3.243  0.00  0.00     0.079 H 
ATOM     20  O24 82Y d   1      32.689 -16.940  -5.771  0.00  0.00    -0.388 OA
ATOM     21  H16 82Y d   1      31.727 -18.684  -6.128  0.00  0.00     0.076 H 
ATOM     22  H17 82Y d   1      33.128 -18.762  -5.007  0.00  0.00     0.076 H 
ATOM     23  C25 82Y d   1      31.632 -16.135  -6.156  0.00  0.00     0.042 C 
ATOM     24  C26 82Y d   1      30.660 -15.872  -5.009  0.00  0.00     0.106 C 
ATOM     25  H18 82Y d   1      32.030 -15.173  -6.511  0.00  0.00     0.076 H 
ATOM     26  H19 82Y d   1      31.089 -16.631  -6.974  0.00  0.00     0.076 H 
ATOM     27  H5  82Y d   1      31.154 -15.211  -4.281  0.00  0.00     0.079 H 
ATOM     28  H6  82Y d   1      29.771 -15.369  -5.417  0.00  0.00     0.079 H 
ATOM     29  H15 82Y d   1      29.963 -17.520  -5.181  0.00  0.00     0.283 HD
ENDBRANCH   2  15
BRANCH   3  30
ATOM     30  C08 82Y d   1      26.014 -13.523  -3.386  0.00  0.00    -0.023 A 
ATOM     31  C07 82Y d   1      24.844 -12.896  -3.795  0.00  0.00    -0.071 A 
ATOM     32  C06 82Y d   1      24.919 -11.704  -4.501  0.00  0.00    -0.067 A 
ATOM     33  H10 82Y d   1      23.880 -13.335  -3.564  0.00  0.00     0.084 H 
ATOM     34  C05 82Y d   1      26.160 -11.151  -4.800  0.00  0.00     0.034 A 
ATOM     35  H9  82Y d   1      24.011 -11.204  -4.819  0.00  0.00     0.085 H 
ATOM     36  C10 82Y d   1      27.325 -11.782  -4.393  0.00  0.00    -0.067 A 
ATOM     37  C09 82Y d   1      27.249 -12.970  -3.686  0.00  0.00    -0.071 A 
ATOM     38  H1  82Y d   1      28.290 -11.348  -4.627  0.00  0.00     0.085 H 
ATOM     39  H11 82Y d   1      28.157 -13.469  -3.366  0.00  0.00     0.084 H 
BRANCH  34  40
ATOM     40  C03 82Y d   1      26.249  -9.838  -5.581  0.00  0.00     0.275 C 
ATOM     41  N02 82Y d   1      27.539  -9.197  -5.790  0.00  0.00    -0.233 N 
ATOM     42  H8  82Y d   1      28.371  -9.614  -5.424  0.00  0.00     0.197 HD
ATOM     43  O04 82Y d   1      25.260  -9.346  -6.013  0.00  0.00    -0.265 OA
BRANCH  41  44
ATOM     44  O01 82Y d   1      27.614  -7.990  -6.508  0.00  0.00    -0.287 OA
ATOM     45  H7  82Y d   1      28.519  -7.706  -6.554  0.00  0.00     0.244 HD
ENDBRANCH  41  44
ENDBRANCH  34  40
ENDBRANCH   3  30
TORSDOF 4
