REMARK WARNING: 32 MAX_TORS EXCEEDED!!!
REMARK  74 active torsions:
REMARK  status: ('A' for Active; 'I' for Inactive)
REMARK    1  A    between atoms: CA_2  and  N_1 
REMARK    2  A    between atoms: C_3  and  CA_2 
REMARK    3  A    between atoms: CA_2  and  CB_5 
REMARK       I    between atoms: N_6  and  C_3 
REMARK    4  A    between atoms: CA_7  and  N_6 
REMARK    5  A    between atoms: C_8  and  CA_7 
REMARK    6  A    between atoms: CA_7  and  CB_10 
REMARK       I    between atoms: N_17  and  C_8 
REMARK    7  A    between atoms: CB_10  and  CG_11 
REMARK    8  A    between atoms: CG_11  and  CD_12 
REMARK    9  A    between atoms: CD_12  and  NE_13 
REMARK       I    between atoms: NE_13  and  CZ_14 
REMARK       I    between atoms: CZ_14  and  NH1_15 
REMARK       I    between atoms: CZ_14  and  NH2_16 
REMARK   10  A    between atoms: CA_18  and  N_17 
REMARK   11  A    between atoms: C_19  and  CA_18 
REMARK   12  A    between atoms: CA_18  and  CB_21 
REMARK       I    between atoms: N_24  and  C_19 
REMARK   13  A    between atoms: CB_21  and  OG1_22 
REMARK   14  A    between atoms: CB_21  and  CG2_23 
REMARK   15  A    between atoms: CA_25  and  N_24 
REMARK   16  A    between atoms: C_26  and  CA_25 
REMARK   17  A    between atoms: CA_25  and  CB_28 
REMARK       I    between atoms: N_33  and  C_26 
REMARK   18  A    between atoms: CB_28  and  CG_29 
REMARK   19  A    between atoms: CG_29  and  CD_30 
REMARK   20  A    between atoms: CD_30  and  CE_31 
REMARK   21  A    between atoms: CE_31  and  NZ_32 
REMARK   22  A    between atoms: CA_34  and  N_33 
REMARK   23  A    between atoms: C_35  and  CA_34 
REMARK   24  A    between atoms: CA_34  and  CB_37 
REMARK       I    between atoms: N_42  and  C_35 
REMARK   25  A    between atoms: CB_37  and  CG_38 
REMARK   26  A    between atoms: CG_38  and  CD_39 
REMARK       I    between atoms: CD_39  and  NE2_41 
REMARK   27  A    between atoms: CA_43  and  N_42 
REMARK   28  A    between atoms: C_44  and  CA_43 
REMARK   29  A    between atoms: CA_43  and  CB_46 
REMARK       I    between atoms: N_49  and  C_44 
REMARK   30  A    between atoms: CB_46  and  OG1_47 
REMARK   31  A    between atoms: CB_46  and  CG2_48 
REMARK   32  A    between atoms: CA_50  and  N_49 
REMARK   33  A    between atoms: C_51  and  CA_50 
REMARK   34  A    between atoms: CA_50  and  CB_53 
REMARK       I    between atoms: N_54  and  C_51 
REMARK   35  A    between atoms: CA_55  and  N_54 
REMARK   36  A    between atoms: C_56  and  CA_55 
REMARK   37  A    between atoms: CA_55  and  CB_58 
REMARK       I    between atoms: N_65  and  C_56 
REMARK   38  A    between atoms: CB_58  and  CG_59 
REMARK   39  A    between atoms: CG_59  and  CD_60 
REMARK   40  A    between atoms: CD_60  and  NE_61 
REMARK       I    between atoms: NE_61  and  CZ_62 
REMARK       I    between atoms: CZ_62  and  NH1_63 
REMARK   41  A    between atoms: CA_66  and  N_65 
REMARK   42  A    between atoms: C_67  and  CA_66 
REMARK   43  A    between atoms: CA_66  and  CB_69 
REMARK       I    between atoms: N_74  and  C_67 
REMARK   44  A    between atoms: CB_69  and  CG_70 
REMARK   45  A    between atoms: CG_70  and  CD_71 
REMARK   46  A    between atoms: CD_71  and  CE_72 
REMARK   47  A    between atoms: CE_72  and  NZ_73 
REMARK   48  A    between atoms: CA_75  and  N_74 
REMARK   49  A    between atoms: C_76  and  CA_75 
REMARK   50  A    between atoms: CA_75  and  CB_78 
REMARK       I    between atoms: N_80  and  C_76 
REMARK   51  A    between atoms: CB_78  and  OG_79 
REMARK   52  A    between atoms: CA_81  and  N_80 
REMARK   53  A    between atoms: C_82  and  CA_81 
REMARK   54  A    between atoms: CA_81  and  CB_84 
REMARK       I    between atoms: N_87  and  C_82 
REMARK   55  A    between atoms: CB_84  and  OG1_85 
REMARK   56  A    between atoms: CB_84  and  CG2_86 
REMARK   57  A    between atoms: CA_88  and  N_87 
REMARK   58  A    between atoms: C_89  and  CA_88 
REMARK       I    between atoms: N_91  and  C_89 
REMARK   59  A    between atoms: CA_92  and  N_91 
REMARK   60  A    between atoms: C_93  and  CA_92 
REMARK       I    between atoms: N_96  and  C_93 
REMARK   61  A    between atoms: CA_98  and  C_95 
REMARK       I    between atoms: C_95  and  N_109 
REMARK   62  A    between atoms: CA_98  and  N_96 
REMARK   63  A    between atoms: CB_99  and  CA_98 
REMARK   64  A    between atoms: CG_102  and  CB_99 
REMARK   65  A    between atoms: CE_101  and  CD_100 
REMARK   66  A    between atoms: CD_100  and  CG_102 
REMARK   67  A    between atoms: NZ_103  and  CE_101 
REMARK       I    between atoms: CAN_108  and  NZ_103 
REMARK   68  A    between atoms: CAF_106  and  CAA_104 
REMARK   69  A    between atoms: CAJ_107  and  CAF_106 
REMARK   70  A    between atoms: CAJ_107  and  CAN_108 
REMARK   71  A    between atoms: N_109  and  CA_110 
REMARK   72  A    between atoms: CA_110  and  C_111 
REMARK   73  A    between atoms: CA_110  and  CB_113 
REMARK       I    between atoms: C_111  and  N_114 
REMARK   74  A    between atoms: CA_115  and  C_116 
ROOT
ATOM      1  CA  ARG d   1      54.923 -18.459  -3.291  0.00  0.00     0.089 C 
ATOM      2  H62 ARG d   1      55.775 -19.105  -3.031  0.00  0.00     0.087 H 
ENDROOT
BRANCH   1   3
ATOM      3  N   ARG d   1      55.190 -17.127  -2.761  0.00  0.00    -0.346 N 
ATOM      4  C   ALA d   1      56.354 -16.523  -3.019  0.00  0.00     0.240 C 
ATOM      5  O   ALA d   1      57.228 -17.051  -3.718  0.00  0.00    -0.271 OA
ATOM      6  H61 ARG d   1      54.501 -16.665  -2.203  0.00  0.00     0.163 HD
BRANCH   4   7
ATOM      7  CA  ALA d   1      56.574 -15.138  -2.423  0.00  0.00     0.086 C 
ATOM      8  H57 ALA d   1      57.398 -14.657  -2.971  0.00  0.00     0.086 H 
BRANCH   7   9
ATOM      9  N   ALA d   1      55.385 -14.304  -2.565  0.00  0.00    -0.346 N 
ATOM     10  C   THR d   1      54.948 -13.954  -3.777  0.00  0.00     0.243 C 
ATOM     11  O   THR d   1      55.503 -14.340  -4.813  0.00  0.00    -0.271 OA
ATOM     12  H56 ALA d   1      54.895 -13.993  -1.750  0.00  0.00     0.163 HD
BRANCH  10  13
ATOM     13  CA  THR d   1      53.714 -13.063  -3.851  0.00  0.00     0.113 C 
ATOM     14  H50 THR d   1      53.236 -13.223  -4.829  0.00  0.00     0.091 H 
BRANCH  13  15
ATOM     15  N   THR d   1      52.746 -13.413  -2.815  0.00  0.00    -0.344 N 
ATOM     16  C   GLN d   1      52.101 -14.583  -2.887  0.00  0.00     0.241 C 
ATOM     17  O   GLN d   1      52.334 -15.404  -3.781  0.00  0.00    -0.271 OA
ATOM     18  H49 THR d   1      52.567 -12.784  -2.059  0.00  0.00     0.163 HD
BRANCH  16  19
ATOM     19  CA  GLN d   1      51.055 -14.878  -1.816  0.00  0.00     0.090 C 
ATOM     20  H42 GLN d   1      50.781 -15.941  -1.891  0.00  0.00     0.087 H 
BRANCH  19  21
ATOM     21  N   GLN d   1      51.585 -14.641  -0.476  0.00  0.00    -0.346 N 
ATOM     22  C   LYS d   1      52.578 -15.398   0.001  0.00  0.00     0.241 C 
ATOM     23  O   LYS d   1      53.081 -16.314  -0.658  0.00  0.00    -0.271 OA
ATOM     24  H41 GLN d   1      51.203 -13.909   0.088  0.00  0.00     0.163 HD
BRANCH  22  25
ATOM     25  CA  LYS d   1      53.114 -15.060   1.386  0.00  0.00     0.089 C 
ATOM     26  H29 LYS d   1      54.150 -15.425   1.447  0.00  0.00     0.087 H 
BRANCH  25  27
ATOM     27  N   LYS d   1      53.125 -13.619   1.602  0.00  0.00    -0.346 N 
ATOM     28  C   THR d   1      53.843 -12.838   0.795  0.00  0.00     0.243 C 
ATOM     29  O   THR d   1      54.577 -13.286  -0.091  0.00  0.00    -0.271 OA
ATOM     30  H28 LYS d   1      52.597 -13.219   2.351  0.00  0.00     0.163 HD
BRANCH  28  31
ATOM     31  CA  THR d   1      53.703 -11.341   1.025  0.00  0.00     0.113 C 
ATOM     32  H22 THR d   1      53.973 -11.109   2.066  0.00  0.00     0.091 H 
BRANCH  31  33
ATOM     33  N   THR d   1      54.622 -10.651   0.136  0.00  0.00    -0.344 N 
ATOM     34  C   ARG d   1      55.505  -9.750   0.553  0.00  0.00     0.241 C 
ATOM     35  O   ARG d   1      55.603  -9.394   1.731  0.00  0.00    -0.271 OA
ATOM     36  H21 THR d   1      54.588 -10.865  -0.840  0.00  0.00     0.163 HD
BRANCH  34  37
ATOM     37  CA  ARG d   1      56.390  -9.136  -0.522  0.00  0.00     0.089 C 
ATOM     38  H9  ARG d   1      55.986  -9.411  -1.508  0.00  0.00     0.087 H 
BRANCH  37  39
ATOM     39  N   ARG d   1      56.368  -7.686  -0.400  0.00  0.00    -0.346 N 
ATOM     40  C   ALA d   1      55.437  -6.955  -1.004  0.00  0.00     0.248 C 
ATOM     41  O   ALA d   1      54.582  -7.444  -1.746  0.00  0.00    -0.271 OA
ATOM     42  H8  ARG d   1      57.068  -7.230   0.150  0.00  0.00     0.163 HD
BRANCH  40  43
ATOM     43  CA  ALA d   1      55.474  -5.458  -0.734  0.00  0.00     0.172 C 
ATOM     44  H4  ALA d   1      56.526  -5.149  -0.640  0.00  0.00     0.098 H 
BRANCH  43  45
ATOM     45  N   ALA d   1      54.876  -4.717  -1.839  0.00  0.00    -0.067 N 
ATOM     46  H1  ALA d   1      54.911  -3.730  -1.639  0.00  0.00     0.275 HD
ATOM     47  H2  ALA d   1      53.916  -5.003  -1.955  0.00  0.00     0.275 HD
ATOM     48  H3  ALA d   1      55.387  -4.907  -2.687  0.00  0.00     0.275 HD
ENDBRANCH  43  45
BRANCH  43  49
ATOM     49  CB  ALA d   1      54.762  -5.140   0.571  0.00  0.00    -0.042 C 
ATOM     50  H5  ALA d   1      55.227  -5.708   1.390  0.00  0.00     0.030 H 
ATOM     51  H6  ALA d   1      53.701  -5.419   0.487  0.00  0.00     0.030 H 
ATOM     52  H7  ALA d   1      54.842  -4.063   0.780  0.00  0.00     0.030 H 
ENDBRANCH  43  49
ENDBRANCH  40  43
ENDBRANCH  37  39
BRANCH  37  53
ATOM     53  CB  ARG d   1      57.820  -9.670  -0.422  0.00  0.00    -0.036 C 
ATOM     54  H10 ARG d   1      57.790 -10.768  -0.474  0.00  0.00     0.036 H 
ATOM     55  H11 ARG d   1      58.244  -9.361   0.545  0.00  0.00     0.036 H 
BRANCH  53  56
ATOM     56  CG  ARG d   1      58.720  -9.154  -1.536  0.00  0.00    -0.048 C 
ATOM     57  H12 ARG d   1      58.931  -8.090  -1.356  0.00  0.00     0.035 H 
ATOM     58  H13 ARG d   1      58.195  -9.267  -2.496  0.00  0.00     0.035 H 
BRANCH  56  59
ATOM     59  CD  ARG d   1      60.039  -9.911  -1.606  0.00  0.00     0.009 C 
ATOM     60  H14 ARG d   1      60.657  -9.477  -2.406  0.00  0.00     0.064 H 
ATOM     61  H15 ARG d   1      59.832 -10.967  -1.835  0.00  0.00     0.064 H 
BRANCH  59  62
ATOM     62  NE  ARG d   1      60.775  -9.837  -0.349  0.00  0.00    -0.227 N 
ATOM     63  CZ  ARG d   1      60.998 -10.874   0.451  0.00  0.00     0.665 C 
ATOM     64  NH1 ARG d   1      60.548 -12.079   0.125  0.00  0.00    -0.235 N 
ATOM     65  NH2 ARG d   1      61.675 -10.707   1.577  0.00  0.00    -0.235 N 
ATOM     66  H17 ARG d   1      60.723 -12.880   0.748  0.00  0.00     0.174 HD
ATOM     67  H18 ARG d   1      60.023 -12.213  -0.751  0.00  0.00     0.174 HD
ATOM     68  H19 ARG d   1      62.026  -9.773   1.833  0.00  0.00     0.174 HD
ATOM     69  H20 ARG d   1      61.851 -11.511   2.196  0.00  0.00     0.174 HD
ATOM     70  H16 ARG d   1      61.147  -8.920  -0.062  0.00  0.00     0.177 HD
ENDBRANCH  59  62
ENDBRANCH  56  59
ENDBRANCH  53  56
ENDBRANCH  37  53
ENDBRANCH  34  37
ENDBRANCH  31  33
BRANCH  31  71
ATOM     71  CB  THR d   1      52.252 -10.902   0.789  0.00  0.00     0.060 C 
ATOM     72  H23 THR d   1      51.616 -11.314   1.587  0.00  0.00     0.086 H 
BRANCH  71  73
ATOM     73  OG1 THR d   1      51.807 -11.396  -0.481  0.00  0.00    -0.393 OA
ATOM     74  H24 THR d   1      50.908 -11.125  -0.628  0.00  0.00     0.210 HD
ENDBRANCH  71  73
BRANCH  71  75
ATOM     75  CG2 THR d   1      52.142  -9.384   0.794  0.00  0.00    -0.050 C 
ATOM     76  H25 THR d   1      51.095  -9.092   0.623  0.00  0.00     0.031 H 
ATOM     77  H26 THR d   1      52.774  -8.968  -0.005  0.00  0.00     0.031 H 
ATOM     78  H27 THR d   1      52.477  -8.995   1.767  0.00  0.00     0.031 H 
ENDBRANCH  71  75
ENDBRANCH  31  71
ENDBRANCH  28  31
ENDBRANCH  25  27
BRANCH  25  79
ATOM     79  CB  LYS d   1      52.302 -15.750   2.481  0.00  0.00    -0.038 C 
ATOM     80  H30 LYS d   1      52.142 -16.799   2.192  0.00  0.00     0.036 H 
ATOM     81  H31 LYS d   1      51.331 -15.242   2.571  0.00  0.00     0.036 H 
BRANCH  79  82
ATOM     82  CG  LYS d   1      52.996 -15.719   3.838  0.00  0.00    -0.061 C 
ATOM     83  H32 LYS d   1      52.986 -14.686   4.216  0.00  0.00     0.033 H 
ATOM     84  H33 LYS d   1      54.036 -16.053   3.710  0.00  0.00     0.033 H 
BRANCH  82  85
ATOM     85  CD  LYS d   1      52.318 -16.616   4.856  0.00  0.00    -0.043 C 
ATOM     86  H34 LYS d   1      52.273 -17.642   4.461  0.00  0.00     0.035 H 
ATOM     87  H35 LYS d   1      51.297 -16.248   5.039  0.00  0.00     0.035 H 
BRANCH  85  88
ATOM     88  CE  LYS d   1      53.091 -16.619   6.168  0.00  0.00     0.080 C 
ATOM     89  H36 LYS d   1      52.900 -15.672   6.694  0.00  0.00     0.075 H 
ATOM     90  H37 LYS d   1      54.165 -16.705   5.946  0.00  0.00     0.075 H 
BRANCH  88  91
ATOM     91  NZ  LYS d   1      52.693 -17.747   7.053  0.00  0.00    -0.079 N 
ATOM     92  H38 LYS d   1      53.228 -17.709   7.906  0.00  0.00     0.274 HD
ATOM     93  H39 LYS d   1      52.870 -18.621   6.583  0.00  0.00     0.274 HD
ATOM     94  H40 LYS d   1      51.711 -17.675   7.269  0.00  0.00     0.274 HD
ENDBRANCH  88  91
ENDBRANCH  85  88
ENDBRANCH  82  85
ENDBRANCH  79  82
ENDBRANCH  25  79
ENDBRANCH  22  25
ENDBRANCH  19  21
BRANCH  19  95
ATOM     95  CB  GLN d   1      49.796 -14.042  -2.052  0.00  0.00    -0.030 C 
ATOM     96  H43 GLN d   1      49.993 -13.011  -1.722  0.00  0.00     0.037 H 
ATOM     97  H44 GLN d   1      48.976 -14.468  -1.455  0.00  0.00     0.037 H 
BRANCH  95  98
ATOM     98  CG  GLN d   1      49.366 -14.010  -3.515  0.00  0.00     0.011 C 
ATOM     99  H45 GLN d   1      49.622 -14.975  -3.976  0.00  0.00     0.047 H 
ATOM    100  H46 GLN d   1      49.915 -13.204  -4.023  0.00  0.00     0.047 H 
BRANCH  98 101
ATOM    101  CD  GLN d   1      47.880 -13.769  -3.696  0.00  0.00     0.215 C 
ATOM    102  OE1 GLN d   1      47.179 -13.393  -2.757  0.00  0.00    -0.274 OA
ATOM    103  NE2 GLN d   1      47.391 -13.987  -4.911  0.00  0.00    -0.370 N 
ATOM    104  H47 GLN d   1      46.418 -13.845  -5.091  0.00  0.00     0.159 HD
ATOM    105  H48 GLN d   1      47.996 -14.293  -5.646  0.00  0.00     0.159 HD
ENDBRANCH  98 101
ENDBRANCH  95  98
ENDBRANCH  19  95
ENDBRANCH  16  19
ENDBRANCH  13  15
BRANCH  13 106
ATOM    106  CB  THR d   1      54.115 -11.587  -3.752  0.00  0.00     0.060 C 
ATOM    107  H51 THR d   1      54.731 -11.330  -4.627  0.00  0.00     0.086 H 
BRANCH 106 108
ATOM    108  OG1 THR d   1      54.882 -11.365  -2.563  0.00  0.00    -0.393 OA
ATOM    109  H52 THR d   1      55.666 -11.901  -2.589  0.00  0.00     0.210 HD
ENDBRANCH 106 108
BRANCH 106 110
ATOM    110  CG2 THR d   1      52.883 -10.689  -3.739  0.00  0.00    -0.050 C 
ATOM    111  H53 THR d   1      53.197  -9.637  -3.668  0.00  0.00     0.031 H 
ATOM    112  H54 THR d   1      52.253 -10.943  -2.874  0.00  0.00     0.031 H 
ATOM    113  H55 THR d   1      52.310 -10.839  -4.666  0.00  0.00     0.031 H 
ENDBRANCH 106 110
ENDBRANCH  13 106
ENDBRANCH  10  13
ENDBRANCH   7   9
BRANCH   7 114
ATOM    114  CB  ALA d   1      56.973 -15.244  -0.952  0.00  0.00    -0.049 C 
ATOM    115  H58 ALA d   1      57.870 -15.875  -0.860  0.00  0.00     0.030 H 
ATOM    116  H59 ALA d   1      56.148 -15.694  -0.380  0.00  0.00     0.030 H 
ATOM    117  H60 ALA d   1      57.189 -14.240  -0.557  0.00  0.00     0.030 H 
ENDBRANCH   7 114
ENDBRANCH   4   7
ENDBRANCH   1   3
BRANCH   1 118
ATOM    118  C   ARG d   1      54.786 -18.448  -4.808  0.00  0.00     0.241 C 
ATOM    119  O   ARG d   1      55.167 -19.421  -5.468  0.00  0.00    -0.271 OA
ATOM    120  N   LYS d   1      54.243 -17.372  -5.380  0.00  0.00    -0.346 N 
ATOM    121  H74 LYS d   1      53.876 -16.633  -4.815  0.00  0.00     0.163 HD
BRANCH 120 122
ATOM    122  CA  LYS d   1      54.188 -17.279  -6.835  0.00  0.00     0.089 C 
ATOM    123  H75 LYS d   1      53.757 -18.213  -7.225  0.00  0.00     0.087 H 
BRANCH 122 124
ATOM    124  C   LYS d   1      55.584 -17.115  -7.421  0.00  0.00     0.241 C 
ATOM    125  O   LYS d   1      55.888 -17.659  -8.489  0.00  0.00    -0.271 OA
ATOM    126  N   SER d   1      56.451 -16.380  -6.723  0.00  0.00    -0.344 N 
ATOM    127  H87 SER d   1      56.176 -15.989  -5.845  0.00  0.00     0.163 HD
BRANCH 126 128
ATOM    128  CA  SER d   1      57.796 -16.142  -7.230  0.00  0.00     0.109 C 
ATOM    129  H88 SER d   1      57.720 -15.846  -8.287  0.00  0.00     0.090 H 
BRANCH 128 130
ATOM    130  C   SER d   1      58.648 -17.406  -7.154  0.00  0.00     0.243 C 
ATOM    131  O   SER d   1      59.371 -17.729  -8.104  0.00  0.00    -0.271 OA
ATOM    132  N   THR d   1      58.569 -18.142  -6.042  0.00  0.00    -0.344 N 
ATOM    133  H92 THR d   1      57.983 -17.840  -5.290  0.00  0.00     0.163 HD
BRANCH 132 134
ATOM    134  CA  THR d   1      59.328 -19.380  -5.912  0.00  0.00     0.113 C 
ATOM    135  H93 THR d   1      60.316 -19.217  -6.367  0.00  0.00     0.091 H 
BRANCH 134 136
ATOM    136  C   THR d   1      58.666 -20.555  -6.615  0.00  0.00     0.243 C 
ATOM    137  O   THR d   1      59.361 -21.510  -6.981  0.00  0.00    -0.271 OA
ATOM    138  N   GLY d   1      57.352 -20.511  -6.808  0.00  0.00    -0.350 N 
ATOM    139  H99 GLY d   1      56.859 -19.656  -6.647  0.00  0.00     0.163 HD
BRANCH 138 140
ATOM    140  CA  GLY d   1      56.623 -21.681  -7.248  0.00  0.00     0.069 C 
ATOM    141 0H10 GLY d   1      57.192 -22.181  -8.046  0.00  0.00     0.078 H 
ATOM    142 1H10 GLY d   1      55.642 -21.369  -7.637  0.00  0.00     0.078 H 
BRANCH 140 143
ATOM    143  C   GLY d   1      56.417 -22.652  -6.102  0.00  0.00     0.235 C 
ATOM    144  O   GLY d   1      56.798 -22.412  -4.955  0.00  0.00    -0.272 OA
ATOM    145  N   GLY d   1      55.801 -23.780  -6.428  0.00  0.00    -0.351 N 
ATOM    146 2H10 GLY d   1      55.533 -23.939  -7.378  0.00  0.00     0.163 HD
BRANCH 145 147
ATOM    147  CA  GLY d   1      55.511 -24.786  -5.425  0.00  0.00     0.069 C 
ATOM    148 3H10 GLY d   1      54.829 -25.529  -5.864  0.00  0.00     0.078 H 
ATOM    149 4H10 GLY d   1      55.020 -24.296  -4.572  0.00  0.00     0.078 H 
BRANCH 147 150
ATOM    150  C   GLY d   1      56.745 -25.507  -4.919  0.00  0.00     0.236 C 
ATOM    151  O   GLY d   1      57.769 -25.561  -5.601  0.00  0.00    -0.272 OA
ATOM    152  N   BTK d   1      56.653 -26.044  -3.708  0.00  0.00    -0.346 N 
ATOM    153 5H10 BTK d   1      55.860 -25.832  -3.137  0.00  0.00     0.163 HD
BRANCH 152 154
ATOM    154  CA  BTK d   1      57.671 -26.923  -3.203  0.00  0.00     0.089 C 
ATOM    155 6H10 BTK d   1      58.650 -26.445  -3.357  0.00  0.00     0.087 H 
BRANCH 154 156
ATOM    156  C   BTK d   1      57.610 -28.229  -3.979  0.00  0.00     0.241 C 
ATOM    157  O   BTK d   1      56.552 -28.731  -4.372  0.00  0.00    -0.271 OA
ATOM    158  N   ALA d   1      58.782 -28.801  -4.222  0.00  0.00    -0.346 N 
ATOM    159 3H12 ALA d   1      59.622 -28.371  -3.892  0.00  0.00     0.163 HD
BRANCH 158 160
ATOM    160  CA  ALA d   1      58.853 -30.052  -4.966  0.00  0.00     0.086 C 
ATOM    161 4H12 ALA d   1      58.242 -29.949  -5.875  0.00  0.00     0.086 H 
BRANCH 160 162
ATOM    162  C   ALA d   1      58.291 -31.201  -4.140  0.00  0.00     0.243 C 
ATOM    163  O   ALA d   1      58.720 -31.428  -3.010  0.00  0.00    -0.271 OA
ATOM    164  N   PRO d   1      57.313 -31.925  -4.703  0.00  0.00    -0.336 N 
ATOM    165  CA  PRO d   1      56.712 -33.090  -4.048  0.00  0.00     0.098 C 
ATOM    166  CD  PRO d   1      56.670 -31.626  -5.995  0.00  0.00    -0.001 C 
ATOM    167  CB  PRO d   1      55.445 -33.331  -4.868  0.00  0.00    -0.035 C 
ATOM    168 8H12 PRO d   1      56.464 -32.860  -3.001  0.00  0.00     0.089 H 
ATOM    169  CG  PRO d   1      55.791 -32.822  -6.225  0.00  0.00    -0.048 C 
ATOM    170 9H12 PRO d   1      54.595 -32.774  -4.447  0.00  0.00     0.036 H 
ATOM    171 0H13 PRO d   1      55.200 -34.403  -4.903  0.00  0.00     0.036 H 
ATOM    172 1H13 PRO d   1      54.881 -32.531  -6.770  0.00  0.00     0.035 H 
ATOM    173 2H13 PRO d   1      56.331 -33.591  -6.798  0.00  0.00     0.035 H 
ATOM    174 3H13 PRO d   1      57.419 -31.527  -6.795  0.00  0.00     0.064 H 
ATOM    175 4H13 PRO d   1      56.074 -30.704  -5.935  0.00  0.00     0.064 H 
BRANCH 165 176
ATOM    176  C   PRO d   1      57.624 -34.312  -4.086  0.00  0.00     0.196 C 
ATOM    177  O   PRO d   1      58.033 -34.786  -3.027  0.00  0.00    -0.646 OA
ATOM    178  OXT PRO d   1      57.930 -34.796  -5.175  0.00  0.00    -0.646 OA
ENDBRANCH 165 176
ENDBRANCH 160 162
BRANCH 160 179
ATOM    179  CB  ALA d   1      60.281 -30.343  -5.382  0.00  0.00    -0.049 C 
ATOM    180 5H12 ALA d   1      60.314 -31.290  -5.941  0.00  0.00     0.030 H 
ATOM    181 6H12 ALA d   1      60.915 -30.424  -4.487  0.00  0.00     0.030 H 
ATOM    182 7H12 ALA d   1      60.651 -29.527  -6.020  0.00  0.00     0.030 H 
ENDBRANCH 160 179
ENDBRANCH 158 160
ENDBRANCH 154 156
BRANCH 154 183
ATOM    183  CB  BTK d   1      57.524 -27.266  -1.713  0.00  0.00    -0.038 C 
ATOM    184 7H10 BTK d   1      58.274 -28.026  -1.449  0.00  0.00     0.036 H 
ATOM    185 8H10 BTK d   1      56.516 -27.670  -1.541  0.00  0.00     0.036 H 
BRANCH 183 186
ATOM    186  CG  BTK d   1      57.722 -26.059  -0.824  0.00  0.00    -0.061 C 
ATOM    187 3H11 BTK d   1      57.268 -25.178  -1.301  0.00  0.00     0.033 H 
ATOM    188 4H11 BTK d   1      58.799 -25.885  -0.682  0.00  0.00     0.033 H 
BRANCH 186 189
ATOM    189  CD  BTK d   1      57.071 -26.290   0.523  0.00  0.00    -0.050 C 
ATOM    190 9H10 BTK d   1      55.989 -26.434   0.385  0.00  0.00     0.035 H 
ATOM    191 0H11 BTK d   1      57.504 -27.188   0.988  0.00  0.00     0.035 H 
BRANCH 189 192
ATOM    192  CE  BTK d   1      57.310 -25.081   1.433  0.00  0.00    -0.005 C 
ATOM    193 1H11 BTK d   1      56.592 -25.127   2.265  0.00  0.00     0.064 H 
ATOM    194 2H11 BTK d   1      57.135 -24.167   0.847  0.00  0.00     0.064 H 
BRANCH 192 195
ATOM    195  NZ  BTK d   1      58.634 -25.018   1.983  0.00  0.00    -0.361 N 
ATOM    196  CAN BTK d   1      59.411 -23.874   2.005  0.00  0.00     0.217 C 
ATOM    197  OAD BTK d   1      59.000 -22.793   1.539  0.00  0.00    -0.274 OA
ATOM    198 5H11 BTK d   1      59.019 -25.854   2.375  0.00  0.00     0.162 HD
BRANCH 196 199
ATOM    199  CAJ BTK d   1      60.784 -24.018   2.634  0.00  0.00     0.009 C 
ATOM    200 1H12 BTK d   1      60.697 -23.862   3.719  0.00  0.00     0.047 H 
ATOM    201 2H12 BTK d   1      61.161 -25.033   2.438  0.00  0.00     0.047 H 
BRANCH 199 202
ATOM    202  CAF BTK d   1      61.766 -23.013   2.072  0.00  0.00    -0.061 C 
ATOM    203 9H11 BTK d   1      61.824 -23.136   0.980  0.00  0.00     0.033 H 
ATOM    204 0H12 BTK d   1      61.418 -21.997   2.309  0.00  0.00     0.033 H 
BRANCH 202 205
ATOM    205  CAA BTK d   1      63.134 -23.219   2.666  0.00  0.00    -0.076 C 
ATOM    206 6H11 BTK d   1      63.831 -22.480   2.245  0.00  0.00     0.027 H 
ATOM    207 7H11 BTK d   1      63.488 -24.233   2.429  0.00  0.00     0.027 H 
ATOM    208 8H11 BTK d   1      63.082 -23.094   3.758  0.00  0.00     0.027 H 
ENDBRANCH 202 205
ENDBRANCH 199 202
ENDBRANCH 196 199
ENDBRANCH 192 195
ENDBRANCH 189 192
ENDBRANCH 186 189
ENDBRANCH 183 186
ENDBRANCH 154 183
ENDBRANCH 152 154
ENDBRANCH 147 150
ENDBRANCH 145 147
ENDBRANCH 140 143
ENDBRANCH 138 140
ENDBRANCH 134 136
BRANCH 134 209
ATOM    209  CB  THR d   1      59.522 -19.755  -4.441  0.00  0.00     0.060 C 
ATOM    210  H94 THR d   1      60.169 -20.643  -4.388  0.00  0.00     0.086 H 
BRANCH 209 211
ATOM    211  OG1 THR d   1      58.252 -20.071  -3.851  0.00  0.00    -0.393 OA
ATOM    212  H95 THR d   1      57.862 -20.803  -4.314  0.00  0.00     0.210 HD
ENDBRANCH 209 211
BRANCH 209 213
ATOM    213  CG2 THR d   1      60.189 -18.624  -3.670  0.00  0.00    -0.050 C 
ATOM    214  H96 THR d   1      60.315 -18.922  -2.619  0.00  0.00     0.031 H 
ATOM    215  H97 THR d   1      59.560 -17.723  -3.723  0.00  0.00     0.031 H 
ATOM    216  H98 THR d   1      61.174 -18.410  -4.111  0.00  0.00     0.031 H 
ENDBRANCH 209 213
ENDBRANCH 134 209
ENDBRANCH 132 134
ENDBRANCH 128 130
BRANCH 128 217
ATOM    217  CB  SER d   1      58.438 -14.992  -6.454  0.00  0.00     0.044 C 
ATOM    218  H89 SER d   1      58.258 -15.141  -5.379  0.00  0.00     0.077 H 
ATOM    219  H90 SER d   1      57.980 -14.045  -6.774  0.00  0.00     0.077 H 
BRANCH 217 220
ATOM    220  OG  SER d   1      59.830 -14.929  -6.682  0.00  0.00    -0.398 OA
ATOM    221  H91 SER d   1      60.198 -14.206  -6.187  0.00  0.00     0.209 HD
ENDBRANCH 217 220
ENDBRANCH 128 217
ENDBRANCH 126 128
ENDBRANCH 122 124
BRANCH 122 222
ATOM    222  CB  LYS d   1      53.288 -16.118  -7.260  0.00  0.00    -0.038 C 
ATOM    223  H76 LYS d   1      53.533 -15.242  -6.641  0.00  0.00     0.036 H 
ATOM    224  H77 LYS d   1      52.241 -16.407  -7.088  0.00  0.00     0.036 H 
BRANCH 222 225
ATOM    225  CG  LYS d   1      53.450 -15.735  -8.727  0.00  0.00    -0.061 C 
ATOM    226  H78 LYS d   1      53.212 -16.612  -9.347  0.00  0.00     0.033 H 
ATOM    227  H79 LYS d   1      54.495 -15.438  -8.898  0.00  0.00     0.033 H 
BRANCH 225 228
ATOM    228  CD  LYS d   1      52.545 -14.587  -9.145  0.00  0.00    -0.043 C 
ATOM    229  H80 LYS d   1      52.244 -14.735 -10.193  0.00  0.00     0.035 H 
ATOM    230  H81 LYS d   1      53.103 -13.643  -9.053  0.00  0.00     0.035 H 
BRANCH 228 231
ATOM    231  CE  LYS d   1      51.296 -14.505  -8.282  0.00  0.00     0.080 C 
ATOM    232  H82 LYS d   1      51.592 -14.341  -7.235  0.00  0.00     0.075 H 
ATOM    233  H83 LYS d   1      50.741 -15.451  -8.362  0.00  0.00     0.075 H 
BRANCH 231 234
ATOM    234  NZ  LYS d   1      50.417 -13.387  -8.720  0.00  0.00    -0.079 N 
ATOM    235  H84 LYS d   1      49.598 -13.354  -8.133  0.00  0.00     0.274 HD
ATOM    236  H85 LYS d   1      50.139 -13.534  -9.678  0.00  0.00     0.274 HD
ATOM    237  H86 LYS d   1      50.919 -12.516  -8.646  0.00  0.00     0.274 HD
ENDBRANCH 231 234
ENDBRANCH 228 231
ENDBRANCH 225 228
ENDBRANCH 222 225
ENDBRANCH 122 222
ENDBRANCH 120 122
ENDBRANCH   1 118
BRANCH   1 238
ATOM    238  CB  ARG d   1      53.665 -19.045  -2.651  0.00  0.00    -0.036 C 
ATOM    239  H63 ARG d   1      53.408 -19.972  -3.184  0.00  0.00     0.036 H 
ATOM    240  H64 ARG d   1      52.849 -18.317  -2.768  0.00  0.00     0.036 H 
BRANCH 238 241
ATOM    241  CG  ARG d   1      53.804 -19.370  -1.171  0.00  0.00    -0.048 C 
ATOM    242  H65 ARG d   1      53.762 -18.437  -0.590  0.00  0.00     0.035 H 
ATOM    243  H66 ARG d   1      54.770 -19.866  -0.999  0.00  0.00     0.035 H 
BRANCH 241 244
ATOM    244  CD  ARG d   1      52.680 -20.292  -0.719  0.00  0.00     0.009 C 
ATOM    245  H67 ARG d   1      52.790 -21.259  -1.231  0.00  0.00     0.064 H 
ATOM    246  H68 ARG d   1      51.718 -19.837  -0.997  0.00  0.00     0.064 H 
BRANCH 244 247
ATOM    247  NE  ARG d   1      52.688 -20.523   0.722  0.00  0.00    -0.227 N 
ATOM    248  CZ  ARG d   1      51.838 -19.958   1.574  0.00  0.00     0.665 C 
ATOM    249  NH1 ARG d   1      50.901 -19.131   1.131  0.00  0.00    -0.235 N 
ATOM    250  NH2 ARG d   1      51.918 -20.228   2.870  0.00  0.00    -0.235 N 
ATOM    251  H70 ARG d   1      50.244 -18.695   1.794  0.00  0.00     0.174 HD
ATOM    252  H71 ARG d   1      50.830 -18.925   0.124  0.00  0.00     0.174 HD
ATOM    253  H72 ARG d   1      52.644 -20.870   3.219  0.00  0.00     0.174 HD
ATOM    254  H73 ARG d   1      51.254 -19.796   3.528  0.00  0.00     0.174 HD
ATOM    255  H69 ARG d   1      53.398 -21.165   1.103  0.00  0.00     0.177 HD
ENDBRANCH 244 247
ENDBRANCH 241 244
ENDBRANCH 238 241
ENDBRANCH   1 238
TORSDOF 74
