REMARK  12 active torsions:
REMARK  status: ('A' for Active; 'I' for Inactive)
REMARK    1  A    between atoms: C1_1  and  C2_2 
REMARK    2  A    between atoms: C1_1  and  C3_3 
REMARK    3  A    between atoms: N2_21  and  C1_1 
REMARK       I    between atoms: C2_2  and  N3_22 
REMARK    4  A    between atoms: C3_3  and  C4_13 
REMARK    5  A    between atoms: C3_3  and  C5_14 
REMARK    6  A    between atoms: C3_3  and  N1_15 
REMARK    7  A    between atoms: C7_17  and  O2_5 
REMARK    8  A    between atoms: O2_5  and  C8_18 
REMARK    9  A    between atoms: C11_7  and  C14_10 
REMARK       I    between atoms: C14_10  and  N2_21 
REMARK   10  A    between atoms: C15_11  and  C16_12 
REMARK   11  A    between atoms: C6_16  and  C7_17 
REMARK   12  A    between atoms: N3_22  and  O4_23 
ROOT
ATOM      1  O3  7TD d   1      16.558 -18.768  11.915  0.00  0.00    -0.268 OA
ATOM      2  C14 7TD d   1      15.389 -18.383  11.811  0.00  0.00     0.252 C 
ATOM      3  N2  7TD d   1      15.076 -17.069  11.780  0.00  0.00    -0.341 N 
ATOM      4  H20 7TD d   1      14.116 -16.819  11.652  0.00  0.00     0.163 HD
ENDROOT
BRANCH   3   5
ATOM      5  C1  7TD d   1      16.056 -15.987  11.923  0.00  0.00     0.122 C 
ATOM      6  H1  7TD d   1      16.970 -16.427  12.348  0.00  0.00     0.091 H 
BRANCH   5   7
ATOM      7  C2  7TD d   1      15.527 -14.973  12.974  0.00  0.00     0.266 C 
ATOM      8  O1  7TD d   1      14.484 -14.346  12.772  0.00  0.00    -0.269 OA
ATOM      9  N3  7TD d   1      16.277 -14.731  14.064  0.00  0.00    -0.236 N 
ATOM     10  H21 7TD d   1      17.144 -15.189  14.261  0.00  0.00     0.197 HD
BRANCH   9  11
ATOM     11  O4  7TD d   1      15.689 -13.745  14.902  0.00  0.00    -0.287 OA
ATOM     12  H22 7TD d   1      16.245 -13.601  15.659  0.00  0.00     0.244 HD
ENDBRANCH   9  11
ENDBRANCH   5   7
BRANCH   5  13
ATOM     13  C3  7TD d   1      16.475 -15.388  10.525  0.00  0.00     0.145 C 
BRANCH  13  14
ATOM     14  C4  7TD d   1      15.293 -14.973   9.618  0.00  0.00    -0.043 C 
ATOM     15  H7  7TD d   1      15.681 -14.569   8.671  0.00  0.00     0.030 H 
ATOM     16  H8  7TD d   1      14.693 -14.203  10.126  0.00  0.00     0.030 H 
ATOM     17  H9  7TD d   1      14.664 -15.851   9.411  0.00  0.00     0.030 H 
ENDBRANCH  13  14
BRANCH  13  18
ATOM     18  C5  7TD d   1      17.388 -14.159  10.679  0.00  0.00    -0.043 C 
ATOM     19  H10 7TD d   1      18.244 -14.416  11.320  0.00  0.00     0.030 H 
ATOM     20  H11 7TD d   1      16.820 -13.336  11.137  0.00  0.00     0.030 H 
ATOM     21  H12 7TD d   1      17.752 -13.847   9.689  0.00  0.00     0.030 H 
ENDBRANCH  13  18
BRANCH  13  22
ATOM     22  N1  7TD d   1      17.211 -16.393   9.749  0.00  0.00    -0.069 N 
ATOM     23  H13 7TD d   1      16.637 -17.213   9.631  0.00  0.00     0.275 HD
ATOM     24  H14 7TD d   1      18.056 -16.642  10.238  0.00  0.00     0.275 HD
ATOM     25  H15 7TD d   1      17.445 -16.014   8.845  0.00  0.00     0.275 HD
ENDBRANCH  13  22
ENDBRANCH   5  13
ENDBRANCH   3   5
BRANCH   2  26
ATOM     26  C11 7TD d   1      14.279 -19.395  11.650  0.00  0.00     0.032 A 
ATOM     27  C12 7TD d   1      12.898 -19.025  11.656  0.00  0.00    -0.065 A 
ATOM     28  C13 7TD d   1      11.896 -20.013  11.481  0.00  0.00    -0.050 A 
ATOM     29  H2  7TD d   1      12.616 -17.987  11.795  0.00  0.00     0.085 H 
ATOM     30  C8  7TD d   1      12.248 -21.383  11.267  0.00  0.00     0.070 A 
ATOM     31  H3  7TD d   1      10.851 -19.727  11.510  0.00  0.00     0.087 H 
ATOM     32  C9  7TD d   1      13.618 -21.739  11.234  0.00  0.00    -0.050 A 
ATOM     33  C10 7TD d   1      14.626 -20.755  11.411  0.00  0.00    -0.065 A 
ATOM     34  H18 7TD d   1      13.900 -22.773  11.072  0.00  0.00     0.087 H 
ATOM     35  H19 7TD d   1      15.670 -21.042  11.364  0.00  0.00     0.085 H 
BRANCH  30  36
ATOM     36  O2  7TD d   1      11.360 -22.419  11.048  0.00  0.00    -0.340 OA
BRANCH  36  37
ATOM     37  C7  7TD d   1       9.957 -22.185  10.941  0.00  0.00     0.080 C 
ATOM     38  H16 7TD d   1       9.779 -21.423  10.168  0.00  0.00     0.094 H 
ATOM     39  H17 7TD d   1       9.580 -21.822  11.908  0.00  0.00     0.094 H 
BRANCH  37  40
ATOM     40  C6  7TD d   1       9.235 -23.416  10.576  0.00  0.00    -0.080 C 
ATOM     41  C15 7TD d   1       8.584 -24.409  10.273  0.00  0.00    -0.109 C 
BRANCH  41  42
ATOM     42  C16 7TD d   1       7.814 -25.615   9.925  0.00  0.00    -0.021 C 
ATOM     43  H4  7TD d   1       7.085 -25.370   9.138  0.00  0.00     0.044 H 
ATOM     44  H5  7TD d   1       7.283 -25.981  10.816  0.00  0.00     0.044 H 
ATOM     45  H6  7TD d   1       8.499 -26.395   9.561  0.00  0.00     0.044 H 
ENDBRANCH  41  42
ENDBRANCH  37  40
ENDBRANCH  36  37
ENDBRANCH  30  36
ENDBRANCH   2  26
TORSDOF 12
