REMARK  7 active torsions:
REMARK  status: ('A' for Active; 'I' for Inactive)
REMARK    1  A    between atoms: C01_1  and  B01_20 
REMARK    2  A    between atoms: C07_12  and  C04_4 
REMARK    3  A    between atoms: B01_20  and  O04_5 
REMARK    4  A    between atoms: C11_8  and  O02_17 
REMARK    5  A    between atoms: C13_10  and  O01_16 
REMARK    6  A    between atoms: C08_13  and  C09_14 
REMARK    7  A    between atoms: B01_20  and  O03_18 
ROOT
ATOM      1  C07 7VG d   1      43.352  -0.284  26.400  0.00  0.00    -0.071 C 
ATOM      2  C08 7VG d   1      42.548   0.403  25.534  0.00  0.00    -0.072 C 
ATOM      3  H   7VG d   1      44.129  -0.844  25.880  0.00  0.00     0.084 H 
ATOM      4  H   7VG d   1      41.767   1.016  25.984  0.00  0.00     0.084 H 
ENDROOT
BRANCH   1   5
ATOM      5  C04 7VG d   1      43.432  -0.462  27.916  0.00  0.00    -0.015 A 
ATOM      6  C03 7VG d   1      42.688   0.280  28.913  0.00  0.00     0.044 A 
ATOM      7  C02 7VG d   1      42.817   0.032  30.310  0.00  0.00    -0.060 A 
ATOM      8 CL1  7VG d   1      41.601   1.534  28.464  0.00  0.00    -0.083 Cl
ATOM      9  C01 7VG d   1      43.668  -0.961  30.863  0.00  0.00    -0.031 A 
ATOM     10  H   7VG d   1      42.227   0.641  30.995  0.00  0.00     0.085 H 
ATOM     11  C06 7VG d   1      44.369  -1.668  29.899  0.00  0.00    -0.081 A 
ATOM     12  C05 7VG d   1      44.257  -1.443  28.515  0.00  0.00    -0.072 A 
ATOM     13  H   7VG d   1      45.051  -2.449  30.235  0.00  0.00     0.083 H 
ATOM     14  H   7VG d   1      44.852  -2.073  27.853  0.00  0.00     0.084 H 
BRANCH   9  15
ATOM     15  B01 7VG d   1      43.828  -1.275  32.439  0.00  0.00     0.529 B 
BRANCH  15  16
ATOM     16  O04 7VG d   1      44.763  -2.193  32.866  0.00  0.00    -0.433 OA
ATOM     17  H   7VG d   1      45.382  -1.764  33.461  0.00  0.00     0.185 HD
ENDBRANCH  15  16
BRANCH  15  18
ATOM     18  O03 7VG d   1      43.047  -0.663  33.389  0.00  0.00    -0.433 OA
ATOM     19  H   7VG d   1      43.608  -0.183  34.002  0.00  0.00     0.185 HD
ENDBRANCH  15  18
ENDBRANCH   9  15
ENDBRANCH   1   5
BRANCH   2  20
ATOM     20  C09 7VG d   1      42.617   0.411  24.017  0.00  0.00    -0.031 A 
ATOM     21  C14 7VG d   1      42.399   1.483  23.105  0.00  0.00    -0.041 A 
ATOM     22  C13 7VG d   1      42.499   1.275  21.711  0.00  0.00     0.069 A 
ATOM     23  H   7VG d   1      42.153   2.474  23.486  0.00  0.00     0.089 H 
ATOM     24  C12 7VG d   1      42.817   0.031  21.161  0.00  0.00    -0.019 A 
ATOM     25  C11 7VG d   1      43.030  -1.024  22.057  0.00  0.00     0.069 A 
ATOM     26  H   7VG d   1      42.896  -0.112  20.083  0.00  0.00     0.092 H 
ATOM     27  C10 7VG d   1      42.925  -0.837  23.437  0.00  0.00    -0.041 A 
ATOM     28  H   7VG d   1      43.088  -1.692  24.093  0.00  0.00     0.089 H 
BRANCH  22  29
ATOM     29  O01 7VG d   1      42.286   2.356  20.852  0.00  0.00    -0.361 OA
ATOM     30  H   7VG d   1      42.386   2.065  19.943  0.00  0.00     0.217 HD
ENDBRANCH  22  29
BRANCH  25  31
ATOM     31  O02 7VG d   1      43.345  -2.307  21.624  0.00  0.00    -0.361 OA
ATOM     32  H   7VG d   1      43.391  -2.318  20.665  0.00  0.00     0.217 HD
ENDBRANCH  25  31
ENDBRANCH   2  20
TORSDOF 7
