REMARK  6 active torsions:
REMARK  status: ('A' for Active; 'I' for Inactive)
REMARK    1  A    between atoms: C02_2  and  C15_15 
REMARK    2  A    between atoms: C04_4  and  C07_7 
REMARK    3  A    between atoms: C08_8  and  C09_9 
REMARK    4  A    between atoms: C12_12  and  B01_20 
REMARK    5  A    between atoms: B01_20  and  O01_16 
REMARK    6  A    between atoms: B01_20  and  O02_17 
ROOT
ATOM      1  C07 XBS d   1      21.532  86.099  89.359  0.00  0.00    -0.072 C 
ATOM      2  C08 XBS d   1      22.395  85.268  89.954  0.00  0.00    -0.072 C 
ATOM      3  H   XBS d   1      20.800  86.608  89.986  0.00  0.00     0.084 H 
ATOM      4  H   XBS d   1      23.092  84.738  89.305  0.00  0.00     0.084 H 
ENDROOT
BRANCH   2   5
ATOM      5  C09 XBS d   1      22.501  84.989  91.437  0.00  0.00    -0.036 A 
ATOM      6  C10 XBS d   1      23.612  84.301  91.893  0.00  0.00    -0.073 A 
ATOM      7  C11 XBS d   1      23.766  84.041  93.242  0.00  0.00    -0.081 A 
ATOM      8  H   XBS d   1      24.369  83.963  91.185  0.00  0.00     0.084 H 
ATOM      9  C12 XBS d   1      22.811  84.477  94.143  0.00  0.00    -0.032 A 
ATOM     10  H   XBS d   1      24.639  83.493  93.596  0.00  0.00     0.083 H 
ATOM     11  C13 XBS d   1      21.700  85.175  93.694  0.00  0.00    -0.081 A 
ATOM     12  C14 XBS d   1      21.547  85.438  92.338  0.00  0.00    -0.073 A 
ATOM     13  H   XBS d   1      20.947  85.517  94.404  0.00  0.00     0.083 H 
ATOM     14  H   XBS d   1      20.680  85.995  91.984  0.00  0.00     0.084 H 
BRANCH   9  15
ATOM     15  B01 XBS d   1      23.013  84.148  95.747  0.00  0.00     0.529 B 
BRANCH  15  16
ATOM     16  O01 XBS d   1      24.285  83.699  96.217  0.00  0.00    -0.433 OA
ATOM     17  H   XBS d   1      24.897  83.647  95.479  0.00  0.00     0.185 HD
ENDBRANCH  15  16
BRANCH  15  18
ATOM     18  O02 XBS d   1      21.924  84.309  96.658  0.00  0.00    -0.433 OA
ATOM     19  H   XBS d   1      21.150  84.615  96.179  0.00  0.00     0.185 HD
ENDBRANCH  15  18
ENDBRANCH   9  15
ENDBRANCH   2   5
BRANCH   1  20
ATOM     20  C04 XBS d   1      21.505  86.378  87.874  0.00  0.00    -0.035 A 
ATOM     21  C03 XBS d   1      21.682  85.378  86.928  0.00  0.00    -0.057 A 
ATOM     22  C02 XBS d   1      21.663  85.709  85.582  0.00  0.00     0.041 A 
ATOM     23  H   XBS d   1      21.834  84.345  87.240  0.00  0.00     0.086 H 
ATOM     24  C01 XBS d   1      21.484  87.025  85.194  0.00  0.00    -0.066 A 
ATOM     25  C06 XBS d   1      21.322  88.023  86.136  0.00  0.00    -0.081 A 
ATOM     26  H   XBS d   1      21.471  87.277  84.134  0.00  0.00     0.085 H 
ATOM     27  C05 XBS d   1      21.341  87.693  87.475  0.00  0.00    -0.073 A 
ATOM     28  H   XBS d   1      21.181  89.058  85.825  0.00  0.00     0.083 H 
ATOM     29  H   XBS d   1      21.226  88.475  88.226  0.00  0.00     0.084 H 
BRANCH  22  30
ATOM     30  C15 XBS d   1      21.840  84.657  84.513  0.00  0.00     0.209 C 
ATOM     31  O03 XBS d   1      22.147  83.467  84.814  0.00  0.00    -0.644 OA
ATOM     32  O04 XBS d   1      21.682  84.983  83.305  0.00  0.00    -0.644 OA
ENDBRANCH  22  30
ENDBRANCH   1  20
TORSDOF 6
