REMARK  7 active torsions:
REMARK  status: ('A' for Active; 'I' for Inactive)
REMARK    1  A    between atoms: C01_1  and  B02_21 
REMARK    2  A    between atoms: C04_4  and  C07_7 
REMARK    3  A    between atoms: C08_8  and  C09_9 
REMARK    4  A    between atoms: C12_12  and  B01_20 
REMARK    5  A    between atoms: B01_20  and  O02_15 
REMARK    6  A    between atoms: B02_21  and  O03_16 
REMARK    7  A    between atoms: B02_21  and  O04_17 
ROOT
ATOM      1  C07 IWW d   1     -21.438   0.265 -26.149  0.00  0.00    -0.071 C 
ATOM      2  C08 IWW d   1     -21.911  -0.327 -25.043  0.00  0.00    -0.071 C 
ATOM      3  H   IWW d   1     -20.806   1.143 -26.014  0.00  0.00     0.084 H 
ATOM      4  H   IWW d   1     -22.489  -1.238 -25.202  0.00  0.00     0.084 H 
ENDROOT
BRANCH   1   5
ATOM      5  C04 IWW d   1     -21.711  -0.189 -27.589  0.00  0.00    -0.015 A 
ATOM      6  C03 IWW d   1     -22.731  -1.150 -27.790  0.00  0.00    -0.072 A 
ATOM      7  C02 IWW d   1     -23.096  -1.630 -29.055  0.00  0.00    -0.081 A 
ATOM      8  H   IWW d   1     -23.259  -1.536 -26.918  0.00  0.00     0.084 H 
ATOM      9  C01 IWW d   1     -22.505  -1.191 -30.254  0.00  0.00    -0.031 A 
ATOM     10  H   IWW d   1     -23.881  -2.385 -29.113  0.00  0.00     0.083 H 
ATOM     11  C06 IWW d   1     -21.499  -0.223 -30.061  0.00  0.00    -0.060 A 
ATOM     12  C05 IWW d   1     -21.122   0.268 -28.783  0.00  0.00     0.044 A 
ATOM     13  H   IWW d   1     -20.984   0.169 -30.938  0.00  0.00     0.085 H 
ATOM     14 CL1  IWW d   1     -19.905   1.428 -28.721  0.00  0.00    -0.083 Cl
BRANCH   9  15
ATOM     15  B02 IWW d   1     -22.964  -1.778 -31.654  0.00  0.00     0.529 B 
BRANCH  15  16
ATOM     16  O03 IWW d   1     -22.107  -1.793 -32.721  0.00  0.00    -0.433 OA
ATOM     17  H   IWW d   1     -22.484  -1.281 -33.440  0.00  0.00     0.185 HD
ENDBRANCH  15  16
BRANCH  15  18
ATOM     18  O04 IWW d   1     -24.219  -2.293 -31.853  0.00  0.00    -0.433 OA
ATOM     19  H   IWW d   1     -24.148  -3.214 -32.114  0.00  0.00     0.185 HD
ENDBRANCH  15  18
ENDBRANCH   9  15
ENDBRANCH   1   5
BRANCH   2  20
ATOM     20  C09 IWW d   1     -21.743   0.114 -23.576  0.00  0.00    -0.015 A 
ATOM     21  C10 IWW d   1     -21.781  -0.871 -22.555  0.00  0.00     0.043 A 
ATOM     22  C11 IWW d   1     -21.675  -0.538 -21.220  0.00  0.00    -0.064 A 
ATOM     23 CL2  IWW d   1     -21.929  -2.544 -22.905  0.00  0.00    -0.083 Cl
ATOM     24  C12 IWW d   1     -21.534   0.750 -20.722  0.00  0.00    -0.070 A 
ATOM     25  H   IWW d   1     -21.704  -1.353 -20.497  0.00  0.00     0.085 H 
ATOM     26  C13 IWW d   1     -21.512   1.765 -21.725  0.00  0.00    -0.085 A 
ATOM     27  C14 IWW d   1     -21.628   1.436 -23.121  0.00  0.00    -0.072 A 
ATOM     28  H   IWW d   1     -21.405   2.808 -21.428  0.00  0.00     0.082 H 
ATOM     29  H   IWW d   1     -21.627   2.244 -23.852  0.00  0.00     0.084 H 
BRANCH  24  30
ATOM     30  B01 IWW d   1     -21.433   1.063 -19.178  0.00  0.00     0.359 B 
BRANCH  30  31
ATOM     31  O02 IWW d   1     -21.958   0.143 -18.299  0.00  0.00    -0.463 OA
ATOM     32  H   IWW d   1     -21.512  -0.699 -18.414  0.00  0.00     0.182 HD
ENDBRANCH  30  31
ENDBRANCH  24  30
ENDBRANCH   2  20
TORSDOF 7
