REMARK  11 active torsions:
REMARK  status: ('A' for Active; 'I' for Inactive)
REMARK    1  A    between atoms: C6_3  and  C5_2 
REMARK    2  A    between atoms: N1_4  and  C2_31 
REMARK    3  A    between atoms: C9_8  and  C10_9 
REMARK    4  A    between atoms: C10_9  and  N3_12 
REMARK    5  A    between atoms: N3_12  and  C11_10 
REMARK       I    between atoms: N3_12  and  C12_11 
REMARK    6  A    between atoms: C12_11  and  C13_13 
REMARK    7  A    between atoms: C17_18  and  O_19 
REMARK    8  A    between atoms: O_19  and  C18_20 
REMARK    9  A    between atoms: C2_31  and  C1_32 
REMARK   10  A    between atoms: C1_32  and  N_33 
REMARK   11  A    between atoms: N_33  and  C_34 
ROOT
ATOM      1  C6  7VM d   1       7.563  28.022  21.709  0.00  0.00     0.039 A 
ATOM      2  C7  7VM d   1       5.542  26.978  21.952  0.00  0.00     0.003 A 
ATOM      3  C8  7VM d   1       5.975  25.856  21.265  0.00  0.00    -0.058 A 
ATOM      4  N2  7VM d   1       6.311  28.056  22.186  0.00  0.00    -0.265 NA
ATOM      5  C9  7VM d   1       7.270  25.826  20.766  0.00  0.00    -0.037 A 
ATOM      6  C25 7VM d   1       8.068  26.937  21.000  0.00  0.00    -0.051 A 
ATOM      7  H5  7VM d   1       4.523  26.988  22.323  0.00  0.00     0.114 H 
ATOM      8  H6  7VM d   1       5.311  25.012  21.119  0.00  0.00     0.086 H 
ATOM      9  H21 7VM d   1       9.086  26.959  20.630  0.00  0.00     0.087 H 
ENDROOT
BRANCH   5  10
ATOM     10  C10 7VM d   1       7.843  24.648  20.007  0.00  0.00     0.021 C 
ATOM     11  H7  7VM d   1       8.547  24.125  20.671  0.00  0.00     0.071 H 
ATOM     12  H8  7VM d   1       8.384  25.038  19.132  0.00  0.00     0.071 H 
BRANCH  10  13
ATOM     13  N3  7VM d   1       6.852  23.666  19.530  0.00  0.00    -0.348 N 
ATOM     14  C12 7VM d   1       6.810  22.378  19.918  0.00  0.00     0.253 C 
ATOM     15  O1  7VM d   1       6.152  21.535  19.332  0.00  0.00    -0.267 OA
BRANCH  13  16
ATOM     16  C11 7VM d   1       5.993  24.141  18.455  0.00  0.00    -0.015 C 
ATOM     17  H9  7VM d   1       5.291  23.344  18.168  0.00  0.00     0.056 H 
ATOM     18  H10 7VM d   1       6.610  24.417  17.587  0.00  0.00     0.056 H 
ATOM     19  H11 7VM d   1       5.429  25.021  18.798  0.00  0.00     0.056 H 
ENDBRANCH  13  16
BRANCH  14  20
ATOM     20  C13 7VM d   1       7.669  21.956  21.063  0.00  0.00     0.034 A 
ATOM     21  C14 7VM d   1       8.645  20.984  20.884  0.00  0.00    -0.068 A 
ATOM     22  C15 7VM d   1       9.412  20.562  21.953  0.00  0.00    -0.079 A 
ATOM     23  H12 7VM d   1       8.806  20.555  19.902  0.00  0.00     0.085 H 
ATOM     24  C16 7VM d   1       9.231  21.116  23.210  0.00  0.00    -0.050 A 
ATOM     25  H13 7VM d   1      10.161  19.792  21.807  0.00  0.00     0.083 H 
ATOM     26  C17 7VM d   1       8.265  22.101  23.390  0.00  0.00     0.077 A 
ATOM     27  H20 7VM d   1       9.837  20.785  24.046  0.00  0.00     0.087 H 
ATOM     28  C24 7VM d   1       7.479  22.519  22.325  0.00  0.00    -0.035 A 
ATOM     29  H14 7VM d   1       6.721  23.279  22.473  0.00  0.00     0.089 H 
BRANCH  26  30
ATOM     30  O   7VM d   1       8.127  22.647  24.679  0.00  0.00    -0.311 OA
BRANCH  30  31
ATOM     31  C18 7VM d   1       7.148  23.614  24.916  0.00  0.00     0.076 A 
ATOM     32  C23 7VM d   1       5.913  23.222  25.408  0.00  0.00    -0.050 A 
ATOM     33  C22 7VM d   1       4.936  24.177  25.632  0.00  0.00    -0.080 A 
ATOM     34  H15 7VM d   1       5.714  22.177  25.616  0.00  0.00     0.087 H 
ATOM     35  C21 7VM d   1       5.183  25.509  25.353  0.00  0.00    -0.083 A 
ATOM     36  H16 7VM d   1       3.972  23.879  26.028  0.00  0.00     0.083 H 
ATOM     37  C20 7VM d   1       6.412  25.889  24.853  0.00  0.00    -0.080 A 
ATOM     38  H17 7VM d   1       4.413  26.252  25.527  0.00  0.00     0.083 H 
ATOM     39  C19 7VM d   1       7.404  24.945  24.635  0.00  0.00    -0.050 A 
ATOM     40  H18 7VM d   1       6.603  26.932  24.629  0.00  0.00     0.083 H 
ATOM     41  H19 7VM d   1       8.371  25.247  24.248  0.00  0.00     0.087 H 
ENDBRANCH  30  31
ENDBRANCH  26  30
ENDBRANCH  14  20
ENDBRANCH  10  13
ENDBRANCH   5  10
BRANCH   1  42
ATOM     42  C5  7VM d   1       8.410  29.251  21.945  0.00  0.00    -0.009 C 
ATOM     43  C4  7VM d   1       8.722  29.921  20.613  0.00  0.00    -0.034 C 
ATOM     44  C3  7VM d   1       9.688  31.088  20.777  0.00  0.00     0.084 C 
ATOM     45  H1  7VM d   1       7.785  30.294  20.174  0.00  0.00     0.036 H 
ATOM     46  H2  7VM d   1       9.173  29.178  19.938  0.00  0.00     0.036 H 
ATOM     47  N1  7VM d   1      10.919  30.697  21.472  0.00  0.00    -0.069 N 
ATOM     48  H22 7VM d   1       9.191  31.880  21.356  0.00  0.00     0.076 H 
ATOM     49  H23 7VM d   1       9.951  31.472  19.780  0.00  0.00     0.076 H 
ATOM     50  C27 7VM d   1      10.623  30.123  22.789  0.00  0.00     0.084 C 
ATOM     51  H4  7VM d   1      11.405  31.559  21.661  0.00  0.00     0.279 HD
ATOM     52  C26 7VM d   1       9.706  28.912  22.678  0.00  0.00    -0.034 C 
ATOM     53  H26 7VM d   1      10.132  30.887  23.410  0.00  0.00     0.076 H 
ATOM     54  H27 7VM d   1      11.566  29.815  23.264  0.00  0.00     0.076 H 
ATOM     55  H24 7VM d   1      10.230  28.117  22.127  0.00  0.00     0.036 H 
ATOM     56  H25 7VM d   1       9.461  28.556  23.690  0.00  0.00     0.036 H 
ATOM     57  H3  7VM d   1       7.836  29.953  22.567  0.00  0.00     0.049 H 
BRANCH  47  58
ATOM     58  C2  7VM d   1      11.854  29.913  20.654  0.00  0.00     0.106 C 
ATOM     59  H28 7VM d   1      11.374  29.674  19.694  0.00  0.00     0.078 H 
ATOM     60  H29 7VM d   1      12.097  28.980  21.185  0.00  0.00     0.078 H 
BRANCH  58  61
ATOM     61  C1  7VM d   1      13.127  30.668  20.388  0.00  0.00     0.103 C 
ATOM     62  H30 7VM d   1      13.533  31.020  21.348  0.00  0.00     0.078 H 
ATOM     63  H31 7VM d   1      12.894  31.533  19.749  0.00  0.00     0.078 H 
BRANCH  61  64
ATOM     64  N   7VM d   1      14.163  29.844  19.710  0.00  0.00    -0.077 N 
ATOM     65  H32 7VM d   1      14.283  28.999  20.246  0.00  0.00     0.276 HD
ATOM     66  H33 7VM d   1      15.024  30.369  19.713  0.00  0.00     0.276 HD
BRANCH  64  67
ATOM     67  C   7VM d   1      13.882  29.460  18.331  0.00  0.00     0.065 C 
ATOM     68  H34 7VM d   1      14.716  28.858  17.941  0.00  0.00     0.067 H 
ATOM     69  H35 7VM d   1      13.764  30.364  17.715  0.00  0.00     0.067 H 
ATOM     70  H36 7VM d   1      12.955  28.869  18.297  0.00  0.00     0.067 H 
ENDBRANCH  64  67
ENDBRANCH  61  64
ENDBRANCH  58  61
ENDBRANCH  47  58
ENDBRANCH   1  42
TORSDOF 11
