REMARK  12 active torsions:
REMARK  status: ('A' for Active; 'I' for Inactive)
REMARK    1  A    between atoms: PB_1  and  O3A_5 
REMARK    2  A    between atoms: O3A_5  and  PA_6 
REMARK    3  A    between atoms: PA_6  and  O5'_9 
REMARK    4  A    between atoms: O5'_9  and  C5'_10 
REMARK    5  A    between atoms: C5'_10  and  C4'_11 
REMARK    6  A    between atoms: C3'_13  and  O3'_14 
REMARK    7  A    between atoms: O3'_14  and  PC_29 
REMARK    8  A    between atoms: C2'_15  and  O2'_16 
REMARK    9  A    between atoms: C1'_17  and  N9_18 
REMARK   10  A    between atoms: C2_25  and  N2_26 
REMARK   11  A    between atoms: PC_29  and  O3C_32 
REMARK   12  A    between atoms: O3C_32  and  PD_33 
ROOT
ATOM      1  C4' G4P d   1       4.207  13.046  -2.614  0.00  0.00     0.090 C 
ATOM      2  O4' G4P d   1       3.524  11.573  -2.593  0.00  0.00    -0.353 OA
ATOM      3  C3' G4P d   1       5.188  13.014  -3.473  0.00  0.00     0.106 C 
ATOM      4  C2' G4P d   1       5.038  11.705  -4.267  0.00  0.00     0.106 C 
ATOM      5  C1' G4P d   1       4.269  10.776  -3.315  0.00  0.00     0.139 C 
ATOM      6  H3  G4P d   1       4.587  13.292  -1.612  0.00  0.00     0.090 H 
ATOM      7  H4  G4P d   1       5.137  13.880  -4.149  0.00  0.00     0.092 H 
ATOM      8  H5  G4P d   1       4.477  11.870  -5.199  0.00  0.00     0.093 H 
ATOM      9  H7  G4P d   1       4.958  10.203  -2.677  0.00  0.00     0.122 H 
ENDROOT
BRANCH   5  10
ATOM     10  N9  G4P d   1       3.433   9.851  -4.114  0.00  0.00    -0.295 N 
ATOM     11  C8  G4P d   1       2.342   9.831  -4.898  0.00  0.00     0.071 A 
ATOM     12  N7  G4P d   1       2.161   8.555  -5.305  0.00  0.00    -0.234 NA
ATOM     13  H8  G4P d   1       1.719  10.685  -5.158  0.00  0.00     0.144 H 
ATOM     14  C5  G4P d   1       3.131   7.812  -4.777  0.00  0.00     0.171 A 
ATOM     15  C6  G4P d   1       3.438   6.314  -4.885  0.00  0.00     0.292 A 
ATOM     16  C4  G4P d   1       3.934   8.620  -4.031  0.00  0.00     0.161 A 
ATOM     17  O6  G4P d   1       2.736   5.618  -5.537  0.00  0.00    -0.265 OA
ATOM     18  N1  G4P d   1       4.563   5.765  -4.201  0.00  0.00    -0.154 N 
ATOM     19  C2  G4P d   1       5.405   6.623  -3.414  0.00  0.00     0.680 A 
ATOM     20  H9  G4P d   1       4.765   4.788  -4.269  0.00  0.00     0.187 HD
ATOM     21  N3  G4P d   1       5.111   8.053  -3.316  0.00  0.00    -0.174 N 
ATOM     22  H12 G4P d   1       5.717   8.667  -2.753  0.00  0.00     0.186 HD
BRANCH  19  23
ATOM     23  N2  G4P d   1       6.546   6.059  -2.721  0.00  0.00    -0.234 N 
ATOM     24  H10 G4P d   1       7.156   6.666  -2.154  0.00  0.00     0.174 HD
ATOM     25  H11 G4P d   1       6.747   5.052  -2.795  0.00  0.00     0.174 HD
ENDBRANCH  19  23
ENDBRANCH   5  10
BRANCH   4  26
ATOM     26  O2' G4P d   1       6.260  11.180  -4.550  0.00  0.00    -0.388 OA
ATOM     27  H6  G4P d   1       6.758  11.801  -5.068  0.00  0.00     0.210 HD
ENDBRANCH   4  26
BRANCH   1  28
ATOM     28  C5' G4P d   1       3.209  14.114  -3.056  0.00  0.00     0.058 C 
ATOM     29  H1  G4P d   1       2.830  14.651  -2.174  0.00  0.00     0.079 H 
ATOM     30  H2  G4P d   1       3.707  14.825  -3.732  0.00  0.00     0.079 H 
BRANCH  28  31
ATOM     31  O5' G4P d   1       2.135  13.497  -3.729  0.00  0.00    -0.287 OA
BRANCH  31  32
ATOM     32  PA  G4P d   1       1.083  14.403  -4.652  0.00  0.00     0.418 P 
ATOM     33  O1A G4P d   1      -0.335  14.007  -4.297  0.00  0.00    -0.624 OA
ATOM     34  O2A G4P d   1       1.329  14.104  -6.108  0.00  0.00    -0.624 OA
BRANCH  32  35
ATOM     35  O3A G4P d   1       1.301  16.022  -4.383  0.00  0.00    -0.173 OA
BRANCH  35  36
ATOM     36  PB  G4P d   1       2.293  16.979  -5.291  0.00  0.00     0.431 P 
ATOM     37  O1B G4P d   1       2.105  16.624  -6.740  0.00  0.00    -0.616 OA
ATOM     38  O2B G4P d   1       1.951  18.427  -5.078  0.00  0.00    -0.616 OA
ATOM     39  O3B G4P d   1       3.725  16.732  -4.899  0.00  0.00    -0.616 OA
ENDBRANCH  35  36
ENDBRANCH  32  35
ENDBRANCH  31  32
ENDBRANCH  28  31
ENDBRANCH   1  28
BRANCH   3  40
ATOM     40  O3' G4P d   1       6.497  13.017  -2.737  0.00  0.00    -0.279 OA
BRANCH  40  41
ATOM     41  PC  G4P d   1       7.240  14.482  -2.523  0.00  0.00     0.419 P 
ATOM     42  O1C G4P d   1       7.957  14.495  -1.198  0.00  0.00    -0.624 OA
ATOM     43  O2C G4P d   1       6.213  15.588  -2.589  0.00  0.00    -0.624 OA
BRANCH  41  44
ATOM     44  O3C G4P d   1       8.337  14.705  -3.732  0.00  0.00    -0.173 OA
BRANCH  44  45
ATOM     45  PD  G4P d   1       7.880  14.837  -5.294  0.00  0.00     0.431 P 
ATOM     46  O1D G4P d   1       9.098  15.180  -6.111  0.00  0.00    -0.616 OA
ATOM     47  O2D G4P d   1       7.319  13.515  -5.744  0.00  0.00    -0.616 OA
ATOM     48  O3D G4P d   1       6.828  15.915  -5.405  0.00  0.00    -0.616 OA
ENDBRANCH  44  45
ENDBRANCH  41  44
ENDBRANCH  40  41
ENDBRANCH   3  40
TORSDOF 12
