REMARK  7 active torsions:
REMARK  status: ('A' for Active; 'I' for Inactive)
REMARK    1  A    between atoms: C2_2  and  O22_23 
REMARK    2  A    between atoms: C15_7  and  C18_9 
REMARK    3  A    between atoms: C18_9  and  C19_10 
REMARK    4  A    between atoms: C18_9  and  C20_11 
REMARK    5  A    between atoms: O22_23  and  C23_12 
REMARK    6  A    between atoms: C8_17  and  C4_13 
REMARK    7  A    between atoms: C8_17  and  C10_19 
ROOT
ATOM      1  C11 7VV d   1      -1.530   8.183  24.010  0.00  0.00    -0.055 C 
ATOM      2  C12 7VV d   1      -1.287   9.418  24.934  0.00  0.00    -0.024 C 
ATOM      3  C13 7VV d   1      -1.942  10.670  24.397  0.00  0.00     0.054 A 
ATOM      4  C15 7VV d   1      -2.136  11.831  25.061  0.00  0.00     0.080 A 
ATOM      5  C17 7VV d   1      -3.074  11.903  23.065  0.00  0.00     0.700 A 
ATOM      6  C9  7VV d   1      -2.579   9.644  22.237  0.00  0.00     0.020 C 
ATOM      7  C10 7VV d   1      -1.455   8.617  22.523  0.00  0.00    -0.033 C 
ATOM      8  N14 7VV d   1      -2.523  10.741  23.210  0.00  0.00    -0.183 N 
ATOM      9  N16 7VV d   1      -2.869  12.595  24.092  0.00  0.00    -0.067 NA
ATOM     10  N21 7VV d   1      -3.713  12.316  22.015  0.00  0.00    -0.233 N 
ATOM     11  H3  7VV d   1      -2.525   7.761  24.218  0.00  0.00     0.034 H 
ATOM     12  H4  7VV d   1      -0.761   7.422  24.208  0.00  0.00     0.034 H 
ATOM     13  H5  7VV d   1      -0.204   9.592  25.016  0.00  0.00     0.042 H 
ATOM     14  H6  7VV d   1      -1.700   9.202  25.930  0.00  0.00     0.042 H 
ATOM     15  H20 7VV d   1      -3.556   9.143  22.310  0.00  0.00     0.066 H 
ATOM     16  H21 7VV d   1      -2.450  10.051  21.223  0.00  0.00     0.066 H 
ATOM     17  H22 7VV d   1      -0.493   9.132  22.383  0.00  0.00     0.043 H 
ATOM     18  H23 7VV d   1      -4.117  13.263  21.998  0.00  0.00     0.174 HD
ATOM     19  H24 7VV d   1      -3.816  11.697  21.198  0.00  0.00     0.174 HD
ENDROOT
BRANCH   7  20
ATOM     20  C8  7VV d   1      -1.473   7.419  21.509  0.00  0.00    -0.033 C 
ATOM     21  H18 7VV d   1      -1.315   7.823  20.498  0.00  0.00     0.041 H 
ATOM     22  H19 7VV d   1      -0.647   6.740  21.765  0.00  0.00     0.041 H 
BRANCH  20  23
ATOM     23  C4  7VV d   1      -2.786   6.601  21.503  0.00  0.00    -0.017 A 
ATOM     24  C3  7VV d   1      -2.875   5.449  22.296  0.00  0.00    -0.042 A 
ATOM     25  C2  7VV d   1      -4.003   4.608  22.239  0.00  0.00     0.068 A 
ATOM     26  H2  7VV d   1      -2.060   5.201  22.966  0.00  0.00     0.088 H 
ATOM     27  C1  7VV d   1      -5.076   4.977  21.412  0.00  0.00    -0.048 A 
ATOM     28  C6  7VV d   1      -4.997   6.124  20.617  0.00  0.00    -0.043 A 
ATOM     29  H1  7VV d   1      -5.972   4.368  21.390  0.00  0.00     0.087 H 
ATOM     30  C5  7VV d   1      -3.846   6.918  20.645  0.00  0.00     0.122 A 
ATOM     31  H17 7VV d   1      -5.829   6.398  19.978  0.00  0.00     0.088 H 
ATOM     32  F7  7VV d   1      -3.781   8.000  19.874  0.00  0.00    -0.206 F 
BRANCH  25  33
ATOM     33  O22 7VV d   1      -4.105   3.481  23.073  0.00  0.00    -0.356 OA
BRANCH  33  34
ATOM     34  C23 7VV d   1      -3.015   3.015  23.882  0.00  0.00     0.010 C 
ATOM     35  H14 7VV d   1      -3.331   2.124  24.445  0.00  0.00     0.066 H 
ATOM     36  H15 7VV d   1      -2.716   3.806  24.585  0.00  0.00     0.066 H 
ATOM     37  H16 7VV d   1      -2.163   2.757  23.236  0.00  0.00     0.066 H 
ENDBRANCH  33  34
ENDBRANCH  25  33
ENDBRANCH  20  23
ENDBRANCH   7  20
BRANCH   4  38
ATOM     38  C18 7VV d   1      -1.690  12.313  26.421  0.00  0.00    -0.016 C 
ATOM     39  H7  7VV d   1      -1.089  11.536  26.916  0.00  0.00     0.048 H 
BRANCH  38  40
ATOM     40  C19 7VV d   1      -0.821  13.580  26.196  0.00  0.00    -0.068 C 
ATOM     41  H8  7VV d   1      -0.475  13.964  27.167  0.00  0.00     0.028 H 
ATOM     42  H9  7VV d   1      -1.421  14.351  25.690  0.00  0.00     0.028 H 
ATOM     43  H10 7VV d   1       0.048  13.323  25.572  0.00  0.00     0.028 H 
ENDBRANCH  38  40
BRANCH  38  44
ATOM     44  C20 7VV d   1      -2.937  12.628  27.297  0.00  0.00    -0.068 C 
ATOM     45  H11 7VV d   1      -3.529  11.711  27.436  0.00  0.00     0.028 H 
ATOM     46  H12 7VV d   1      -3.553  13.390  26.797  0.00  0.00     0.028 H 
ATOM     47  H13 7VV d   1      -2.611  13.006  28.277  0.00  0.00     0.028 H 
ENDBRANCH  38  44
ENDBRANCH   4  38
TORSDOF 7
