REMARK  4 active torsions:
REMARK  status: ('A' for Active; 'I' for Inactive)
REMARK    1  A    between atoms: O14_15  and  C15_6 
REMARK    2  A    between atoms: C7_10  and  C4_7 
REMARK    3  A    between atoms: C6_9  and  O14_15 
REMARK    4  A    between atoms: C7_10  and  C8_11 
ROOT
ATOM      1  C7  7VY d   1      18.586  -2.477  10.491  0.00  0.00    -0.036 C 
ATOM      2  H12 7VY d   1      18.354  -2.002  11.456  0.00  0.00     0.040 H 
ATOM      3  H13 7VY d   1      17.709  -3.039  10.138  0.00  0.00     0.040 H 
ENDROOT
BRANCH   1   4
ATOM      4  C4  7VY d   1      19.819  -3.394  10.609  0.00  0.00    -0.055 A 
ATOM      5  C3  7VY d   1      20.930  -3.022  11.403  0.00  0.00    -0.077 A 
ATOM      6  C2  7VY d   1      22.107  -3.786  11.390  0.00  0.00    -0.080 A 
ATOM      7  H3  7VY d   1      20.871  -2.138  12.027  0.00  0.00     0.084 H 
ATOM      8  C1  7VY d   1      22.174  -4.929  10.578  0.00  0.00    -0.051 A 
ATOM      9  H2  7VY d   1      22.955  -3.497  12.000  0.00  0.00     0.083 H 
ATOM     10  C6  7VY d   1      21.081  -5.312   9.758  0.00  0.00     0.068 A 
ATOM     11  H1  7VY d   1      23.076  -5.530  10.577  0.00  0.00     0.087 H 
ATOM     12  C5  7VY d   1      19.923  -4.520   9.775  0.00  0.00    -0.045 A 
ATOM     13  H11 7VY d   1      19.091  -4.782   9.131  0.00  0.00     0.088 H 
BRANCH  10  14
ATOM     14  O14 7VY d   1      21.142  -6.445   8.906  0.00  0.00    -0.356 OA
BRANCH  14  15
ATOM     15  C15 7VY d   1      20.010  -6.998   8.215  0.00  0.00     0.010 C 
ATOM     16  H8  7VY d   1      20.331  -7.869   7.625  0.00  0.00     0.066 H 
ATOM     17  H9  7VY d   1      19.582  -6.238   7.545  0.00  0.00     0.066 H 
ATOM     18  H10 7VY d   1      19.250  -7.310   8.947  0.00  0.00     0.066 H 
ENDBRANCH  14  15
ENDBRANCH  10  14
ENDBRANCH   1   4
BRANCH   1  19
ATOM     19  C8  7VY d   1      19.031  -1.412   9.435  0.00  0.00    -0.027 C 
ATOM     20  C13 7VY d   1      19.225   0.025  10.003  0.00  0.00     0.085 C 
ATOM     21  N12 7VY d   1      19.954   0.867   9.007  0.00  0.00    -0.075 N 
ATOM     22  H6  7VY d   1      19.808  -0.026  10.935  0.00  0.00     0.076 H 
ATOM     23  H7  7VY d   1      18.241   0.472  10.209  0.00  0.00     0.076 H 
ATOM     24  C11 7VY d   1      19.339   0.941   7.642  0.00  0.00     0.082 C 
ATOM     25  H19 7VY d   1      20.007   1.804   9.374  0.00  0.00     0.277 HD
ATOM     26  H20 7VY d   1      20.884   0.492   8.907  0.00  0.00     0.277 HD
ATOM     27  C10 7VY d   1      18.920  -0.449   7.071  0.00  0.00    -0.042 C 
ATOM     28  H4  7VY d   1      18.444   1.579   7.698  0.00  0.00     0.075 H 
ATOM     29  H5  7VY d   1      20.070   1.393   6.955  0.00  0.00     0.075 H 
ATOM     30  C9  7VY d   1      18.180  -1.315   8.140  0.00  0.00    -0.058 C 
ATOM     31  H17 7VY d   1      19.822  -0.985   6.741  0.00  0.00     0.035 H 
ATOM     32  H18 7VY d   1      18.250  -0.294   6.212  0.00  0.00     0.035 H 
ATOM     33  H15 7VY d   1      17.211  -0.851   8.376  0.00  0.00     0.033 H 
ATOM     34  H16 7VY d   1      18.014  -2.325   7.738  0.00  0.00     0.033 H 
ATOM     35  H14 7VY d   1      20.027  -1.748   9.111  0.00  0.00     0.043 H 
ENDBRANCH   1  19
TORSDOF 4
