REMARK  8 active torsions:
REMARK  status: ('A' for Active; 'I' for Inactive)
REMARK    1  A    between atoms: C17_3  and  C16_22 
REMARK    2  A    between atoms: N18_23  and  C26_7 
REMARK    3  A    between atoms: O27_28  and  C28_8 
REMARK    4  A    between atoms: C08_16  and  C03_11 
REMARK    5  A    between atoms: C09_17  and  C08_16 
REMARK    6  A    between atoms: O15_21  and  C12_19 
REMARK    7  A    between atoms: C16_22  and  O15_21 
REMARK    8  A    between atoms: C23_26  and  O27_28 
ROOT
ATOM      1  C16 7VA d   1      -7.745  29.204 126.447  0.00  0.00     0.080 C 
ATOM      2  H17 7VA d   1      -6.715  29.014 126.784  0.00  0.00     0.087 H 
ATOM      3  H18 7VA d   1      -8.028  28.454 125.694  0.00  0.00     0.087 H 
ENDROOT
BRANCH   1   4
ATOM      4  C17 7VA d   1      -7.850  30.609 125.852  0.00  0.00     0.131 A 
ATOM      5  N18 7VA d   1      -6.933  31.191 125.093  0.00  0.00    -0.336 N 
ATOM      6  C19 7VA d   1      -7.375  32.437 124.758  0.00  0.00     0.067 A 
ATOM      7  C20 7VA d   1      -8.604  32.589 125.347  0.00  0.00     0.086 A 
ATOM      8  C22 7VA d   1      -6.825  33.491 123.979  0.00  0.00    -0.023 A 
ATOM      9  N21 7VA d   1      -8.873  31.434 126.021  0.00  0.00    -0.231 NA
ATOM     10  C25 7VA d   1      -9.329  33.802 125.180  0.00  0.00    -0.050 A 
ATOM     11  C24 7VA d   1      -8.789  34.834 124.416  0.00  0.00    -0.048 A 
ATOM     12  H19 7VA d   1     -10.300  33.923 125.647  0.00  0.00     0.087 H 
ATOM     13  C23 7VA d   1      -7.535  34.678 123.815  0.00  0.00     0.070 A 
ATOM     14  H4  7VA d   1      -9.340  35.758 124.287  0.00  0.00     0.087 H 
ATOM     15  H3  7VA d   1      -5.854  33.371 123.513  0.00  0.00     0.091 H 
BRANCH   5  16
ATOM     16  C26 7VA d   1      -5.670  30.602 124.685  0.00  0.00    -0.012 C 
ATOM     17  H5  7VA d   1      -5.585  29.589 125.105  0.00  0.00     0.057 H 
ATOM     18  H6  7VA d   1      -4.840  31.222 125.054  0.00  0.00     0.057 H 
ATOM     19  H7  7VA d   1      -5.628  30.549 123.587  0.00  0.00     0.057 H 
ENDBRANCH   5  16
BRANCH  13  20
ATOM     20  O27 7VA d   1      -6.989  35.715 123.046  0.00  0.00    -0.356 OA
BRANCH  20  21
ATOM     21  C28 7VA d   1      -6.949  36.949 123.707  0.00  0.00     0.010 C 
ATOM     22  H8  7VA d   1      -6.510  37.707 123.042  0.00  0.00     0.066 H 
ATOM     23  H9  7VA d   1      -6.335  36.859 124.615  0.00  0.00     0.066 H 
ATOM     24  H10 7VA d   1      -7.970  37.251 123.983  0.00  0.00     0.066 H 
ENDBRANCH  20  21
ENDBRANCH  13  20
ENDBRANCH   1   4
BRANCH   1  25
ATOM     25  O15 7VA d   1      -8.625  29.146 127.536  0.00  0.00    -0.344 OA
BRANCH  25  26
ATOM     26  C12 7VA d   1      -8.036  29.041 128.808  0.00  0.00     0.069 A 
ATOM     27  C13 7VA d   1      -8.820  29.246 129.932  0.00  0.00    -0.050 A 
ATOM     28  C14 7VA d   1      -8.266  29.145 131.199  0.00  0.00    -0.074 A 
ATOM     29  H2  7VA d   1      -9.871  29.486 129.820  0.00  0.00     0.087 H 
ATOM     30  C09 7VA d   1      -6.922  28.843 131.351  0.00  0.00    -0.056 A 
ATOM     31  H16 7VA d   1      -8.886  29.303 132.074  0.00  0.00     0.084 H 
ATOM     32  C10 7VA d   1      -6.135  28.631 130.227  0.00  0.00    -0.074 A 
ATOM     33  C11 7VA d   1      -6.690  28.732 128.957  0.00  0.00    -0.050 A 
ATOM     34  H1  7VA d   1      -5.085  28.386 130.340  0.00  0.00     0.084 H 
ATOM     35  H15 7VA d   1      -6.072  28.569 128.082  0.00  0.00     0.087 H 
BRANCH  30  36
ATOM     36  C08 7VA d   1      -6.319  28.723 132.755  0.00  0.00    -0.021 C 
ATOM     37  H13 7VA d   1      -7.100  28.370 133.444  0.00  0.00     0.042 H 
ATOM     38  H14 7VA d   1      -5.499  27.991 132.724  0.00  0.00     0.042 H 
BRANCH  36  39
ATOM     39  C03 7VA d   1      -5.769  30.052 133.279  0.00  0.00     0.081 A 
ATOM     40  C02 7VA d   1      -6.028  30.651 134.587  0.00  0.00     0.239 A 
ATOM     41  N01 7VA d   1      -5.334  31.875 134.698  0.00  0.00    -0.287 N 
ATOM     42  O07 7VA d   1      -6.717  30.184 135.429  0.00  0.00    -0.272 OA
ATOM     43  C05 7VA d   1      -4.612  32.235 133.652  0.00  0.00     0.287 A 
ATOM     44  H11 7VA d   1      -5.386  32.438 135.523  0.00  0.00     0.172 HD
ATOM     45  S04 7VA d   1      -4.735  31.108 132.483  0.00  0.00    -0.054 SA
ATOM     46  O06 7VA d   1      -3.971  33.227 133.577  0.00  0.00    -0.260 OA
ATOM     47  H12 7VA d   1      -6.654  30.538 132.843  0.00  0.00     0.072 H 
ENDBRANCH  36  39
ENDBRANCH  30  36
ENDBRANCH  25  26
ENDBRANCH   1  25
TORSDOF 8
