REMARK  2 active torsions:
REMARK  status: ('A' for Active; 'I' for Inactive)
REMARK    1  A    between atoms: C10_16  and  C1_1 
REMARK    2  A    between atoms: C11_4  and  C10_16 
REMARK       I    between atoms: N13_17  and  C17_9 
REMARK       I    between atoms: C17_9  and  N19_19 
ROOT
ATOM      1  C11 7W7 d   1      30.030  72.727  94.155  0.00  0.00    -0.034 C 
ATOM      2  C12 7W7 d   1      31.265  72.308  93.389  0.00  0.00     0.015 C 
ATOM      3  C14 7W7 d   1      31.582  74.634  92.591  0.00  0.00     0.012 C 
ATOM      4  C15 7W7 d   1      30.465  75.106  93.531  0.00  0.00    -0.049 C 
ATOM      5  C16 7W7 d   1      30.269  74.133  94.704  0.00  0.00    -0.059 C 
ATOM      6  C17 7W7 d   1      31.154  72.747  90.989  0.00  0.00     0.667 C 
ATOM      7  N13 7W7 d   1      31.315  73.219  92.246  0.00  0.00    -0.218 N 
ATOM      8  N18 7W7 d   1      31.539  73.441  89.919  0.00  0.00    -0.235 N 
ATOM      9  N19 7W7 d   1      30.574  71.459  90.757  0.00  0.00    -0.235 N 
ATOM     10  H3  7W7 d   1      29.192  72.783  93.444  0.00  0.00     0.043 H 
ATOM     11  H4  7W7 d   1      31.177  71.265  93.051  0.00  0.00     0.065 H 
ATOM     12  H5  7W7 d   1      32.165  72.417  94.013  0.00  0.00     0.065 H 
ATOM     13  H6  7W7 d   1      32.556  74.719  93.095  0.00  0.00     0.065 H 
ATOM     14  H7  7W7 d   1      31.587  75.247  91.678  0.00  0.00     0.065 H 
ATOM     15  H8  7W7 d   1      29.525  75.176  92.963  0.00  0.00     0.035 H 
ATOM     16  H9  7W7 d   1      30.727  76.097  93.929  0.00  0.00     0.035 H 
ATOM     17  H10 7W7 d   1      31.169  74.133  95.337  0.00  0.00     0.033 H 
ATOM     18  H11 7W7 d   1      29.401  74.447  95.302  0.00  0.00     0.033 H 
ATOM     19  H17 7W7 d   1      31.401  73.051  88.975  0.00  0.00     0.174 HD
ATOM     20  H18 7W7 d   1      31.974  74.367  90.035  0.00  0.00     0.174 HD
ATOM     21  H19 7W7 d   1      30.261  70.884  91.552  0.00  0.00     0.174 HD
ATOM     22  H20 7W7 d   1      30.470  71.107  89.795  0.00  0.00     0.174 HD
ENDROOT
BRANCH   1  23
ATOM     23  C10 7W7 d   1      29.637  71.715  95.222  0.00  0.00    -0.033 C 
ATOM     24  H15 7W7 d   1      30.035  70.722  94.966  0.00  0.00     0.040 H 
ATOM     25  H16 7W7 d   1      30.029  72.026  96.201  0.00  0.00     0.040 H 
BRANCH  23  26
ATOM     26  C1  7W7 d   1      28.128  71.678  95.254  0.00  0.00    -0.021 A 
ATOM     27  C2  7W7 d   1      27.349  70.954  94.324  0.00  0.00    -0.074 A 
ATOM     28  C3  7W7 d   1      25.939  70.960  94.405  0.00  0.00    -0.080 A 
ATOM     29  H1  7W7 d   1      27.839  70.388  93.540  0.00  0.00     0.084 H 
ATOM     30  C4  7W7 d   1      25.267  71.711  95.386  0.00  0.00    -0.048 A 
ATOM     31  H2  7W7 d   1      25.363  70.374  93.697  0.00  0.00     0.083 H 
ATOM     32  C5  7W7 d   1      26.073  72.443  96.253  0.00  0.00     0.105 A 
ATOM     33  H12 7W7 d   1      24.186  71.719  95.462  0.00  0.00     0.087 H 
ATOM     34  C6  7W7 d   1      27.447  72.435  96.185  0.00  0.00     0.111 A 
ATOM     35  O7  7W7 d   1      25.683  73.221  97.300  0.00  0.00    -0.323 OA
ATOM     36  O9  7W7 d   1      27.967  73.237  97.169  0.00  0.00    -0.322 OA
ATOM     37  C8  7W7 d   1      26.862  73.813  97.891  0.00  0.00     0.115 A 
ATOM     38  H13 7W7 d   1      26.926  73.563  98.960  0.00  0.00     0.118 H 
ATOM     39  H14 7W7 d   1      26.848  74.906  97.770  0.00  0.00     0.118 H 
ENDBRANCH  23  26
ENDBRANCH   1  23
TORSDOF 2
