REMARK  3 active torsions:
REMARK  status: ('A' for Active; 'I' for Inactive)
REMARK    1  A    between atoms: C10_17  and  C3_3 
REMARK    2  A    between atoms: C11_4  and  C10_17 
REMARK    3  A    between atoms: C19_10  and  N20_20 
ROOT
ATOM      1  C11 7WD d   1      30.629  72.695  94.562  0.00  0.00    -0.033 C 
ATOM      2  C12 7WD d   1      30.379  74.195  94.802  0.00  0.00    -0.055 C 
ATOM      3  C13 7WD d   1      31.182  75.102  93.855  0.00  0.00    -0.024 C 
ATOM      4  C14 7WD d   1      31.190  74.531  92.453  0.00  0.00     0.047 A 
ATOM      5  C16 7WD d   1      30.317  72.283  93.113  0.00  0.00     0.020 C 
ATOM      6  C17 7WD d   1      31.556  75.183  91.266  0.00  0.00     0.043 A 
ATOM      7  C19 7WD d   1      30.962  73.201  90.824  0.00  0.00     0.700 A 
ATOM      8  N15 7WD d   1      30.815  73.283  92.155  0.00  0.00    -0.184 N 
ATOM      9  N18 7WD d   1      31.381  74.326  90.228  0.00  0.00    -0.075 NA
ATOM     10  H1  7WD d   1      31.706  72.528  94.710  0.00  0.00     0.043 H 
ATOM     11  H2  7WD d   1      30.660  74.435  95.838  0.00  0.00     0.034 H 
ATOM     12  H3  7WD d   1      29.308  74.399  94.656  0.00  0.00     0.034 H 
ATOM     13  H4  7WD d   1      32.217  75.180  94.220  0.00  0.00     0.042 H 
ATOM     14  H5  7WD d   1      30.723  76.102  93.836  0.00  0.00     0.042 H 
ATOM     15  H6  7WD d   1      29.228  72.185  92.995  0.00  0.00     0.066 H 
ATOM     16  H7  7WD d   1      30.797  71.316  92.904  0.00  0.00     0.066 H 
ATOM     17  H8  7WD d   1      31.920  76.207  91.190  0.00  0.00     0.118 H 
ENDROOT
BRANCH   1  18
ATOM     18  C10 7WD d   1      29.903  71.812  95.598  0.00  0.00    -0.033 C 
ATOM     19  H14 7WD d   1      30.248  70.779  95.445  0.00  0.00     0.040 H 
ATOM     20  H15 7WD d   1      30.212  72.158  96.595  0.00  0.00     0.040 H 
BRANCH  18  21
ATOM     21  C3  7WD d   1      28.375  71.786  95.581  0.00  0.00    -0.021 A 
ATOM     22  C2  7WD d   1      27.620  72.514  96.495  0.00  0.00     0.111 A 
ATOM     23  C1  7WD d   1      26.237  72.484  96.500  0.00  0.00     0.105 A 
ATOM     24  O9  7WD d   1      28.047  73.427  97.413  0.00  0.00    -0.322 OA
ATOM     25  C6  7WD d   1      25.498  71.704  95.601  0.00  0.00    -0.048 A 
ATOM     26  O7  7WD d   1      25.768  73.347  97.446  0.00  0.00    -0.323 OA
ATOM     27  C5  7WD d   1      26.247  70.916  94.712  0.00  0.00    -0.080 A 
ATOM     28  H11 7WD d   1      24.414  71.708  95.592  0.00  0.00     0.087 H 
ATOM     29  C4  7WD d   1      27.659  70.950  94.711  0.00  0.00    -0.074 A 
ATOM     30  H10 7WD d   1      25.731  70.269  94.012  0.00  0.00     0.083 H 
ATOM     31  H9  7WD d   1      28.203  70.315  94.021  0.00  0.00     0.084 H 
ATOM     32  C8  7WD d   1      26.898  73.943  98.127  0.00  0.00     0.115 A 
ATOM     33  H12 7WD d   1      26.924  73.637  99.183  0.00  0.00     0.118 H 
ATOM     34  H13 7WD d   1      26.859  75.040  98.064  0.00  0.00     0.118 H 
ENDBRANCH  18  21
ENDBRANCH   1  18
BRANCH   7  35
ATOM     35  N20 7WD d   1      30.629  72.102  90.101  0.00  0.00    -0.233 N 
ATOM     36  H16 7WD d   1      30.764  72.097  89.080  0.00  0.00     0.174 HD
ATOM     37  H17 7WD d   1      30.241  71.273  90.573  0.00  0.00     0.174 HD
ENDBRANCH   7  35
TORSDOF 3
