REMARK WARNING: 32 MAX_TORS EXCEEDED!!!
REMARK  54 active torsions:
REMARK  status: ('A' for Active; 'I' for Inactive)
REMARK    1  A    between atoms: C1_1  and  O1_2 
REMARK    2  A    between atoms: C1_1  and  C2_3 
REMARK    3  A    between atoms: C1_1  and  N_8 
REMARK    4  A    between atoms: C2_3  and  C3_4 
REMARK    5  A    between atoms: C3_4  and  C4_5 
REMARK    6  A    between atoms: N_8  and  CA_9 
REMARK    7  A    between atoms: CA_9  and  C_10 
REMARK    8  A    between atoms: CA_9  and  CB_12 
REMARK       I    between atoms: C_10  and  N_19 
REMARK    9  A    between atoms: CB_12  and  CG_13 
REMARK   10  A    between atoms: N_19  and  CA_20 
REMARK   11  A    between atoms: CA_20  and  C_21 
REMARK   12  A    between atoms: CA_20  and  CB_23 
REMARK       I    between atoms: C_21  and  N_27 
REMARK   13  A    between atoms: CB_23  and  CG_24 
REMARK       I    between atoms: CG_24  and  ND2_26 
REMARK   14  A    between atoms: N_27  and  CA_28 
REMARK   15  A    between atoms: CA_28  and  C_29 
REMARK   16  A    between atoms: CA_28  and  CB_31 
REMARK       I    between atoms: C_29  and  N_35 
REMARK   17  A    between atoms: CB_31  and  CG_32 
REMARK   18  A    between atoms: CG_32  and  SD_33 
REMARK   19  A    between atoms: SD_33  and  CE_34 
REMARK   20  A    between atoms: N_35  and  CA_36 
REMARK   21  A    between atoms: CA_48  and  CB_51 
REMARK   22  A    between atoms: CB_51  and  CG_52 
REMARK   23  A    between atoms: CG_52  and  CD_53 
REMARK       I    between atoms: CD_53  and  NE2_55 
REMARK   24  A    between atoms: CA_57  and  CB_60 
REMARK   25  A    between atoms: CB_60  and  CG_61 
REMARK   26  A    between atoms: CG_61  and  CD_62 
REMARK       I    between atoms: CD_62  and  NE2_64 
REMARK   27  A    between atoms: CA_66  and  CB_69 
REMARK   28  A    between atoms: CB_69  and  CG_70 
REMARK   29  A    between atoms: CG_70  and  CD_71 
REMARK   30  A    between atoms: CD_71  and  NE_72 
REMARK       I    between atoms: NE_72  and  CZ_73 
REMARK       I    between atoms: CZ_73  and  NH1_74 
REMARK       I    between atoms: CZ_73  and  NH2_75 
REMARK   31  A    between atoms: CA_77  and  CB_80 
REMARK   32  A    between atoms: CB_80  and  CG_81 
REMARK   33  A    between atoms: CG_81  and  CD_82 
REMARK   34  A    between atoms: CD_82  and  NE_83 
REMARK       I    between atoms: NE_83  and  CZ_84 
REMARK       I    between atoms: CZ_84  and  NH1_85 
REMARK   35  A    between atoms: CZ_84  and  NH2_86 
REMARK   36  A    between atoms: CA_88  and  CB_91 
REMARK   37  A    between atoms: CB_91  and  CG_92 
REMARK   38  A    between atoms: CA_99  and  CB_102 
REMARK   39  A    between atoms: CB_102  and  CG_103 
REMARK   40  A    between atoms: CZ_108  and  OH_109 
REMARK   41  A    between atoms: CA_111  and  C_112 
REMARK       I    between atoms: C_112  and  N_121 
REMARK   42  A    between atoms: N_121  and  CA_122 
REMARK   43  A    between atoms: CA_122  and  C_123 
REMARK   44  A    between atoms: CA_122  and  CB_125 
REMARK       I    between atoms: C_123  and  N_126 
REMARK   45  A    between atoms: N_126  and  CA_127 
REMARK   46  A    between atoms: CA_127  and  C_128 
REMARK   47  A    between atoms: CA_127  and  CB_130 
REMARK       I    between atoms: C_128  and  N_134 
REMARK   48  A    between atoms: CB_130  and  CG_131 
REMARK   49  A    between atoms: CG_131  and  CD1_132 
REMARK   50  A    between atoms: CG_131  and  CD2_133 
REMARK   51  A    between atoms: N_134  and  CA_135 
REMARK   52  A    between atoms: CA_135  and  C_136 
REMARK   53  A    between atoms: CA_135  and  CB_138 
REMARK   54  A    between atoms: CB_138  and  CG_139 
ROOT
ATOM      1  N   PHE d   1      26.919  65.448  39.767  0.00  0.00    -0.346 N 
ATOM      2  CA  PHE d   1      26.679  64.105  39.246  0.00  0.00     0.093 C 
ATOM      3  C   PHE d   1      26.933  64.125  37.716  0.00  0.00     0.241 C 
ATOM      4  O   PHE d   1      27.657  63.285  37.198  0.00  0.00    -0.271 OA
ATOM      5  H87 PHE d   1      26.153  65.952  40.166  0.00  0.00     0.163 HD
ATOM      6  H88 PHE d   1      27.369  63.395  39.725  0.00  0.00     0.088 H 
ATOM      7  CA  85J d   1      24.325  71.512  43.120  0.00  0.00     0.090 C 
ATOM      8  C   85J d   1      24.805  70.075  43.067  0.00  0.00     0.241 C 
ATOM      9  O   85J d   1      25.616  69.667  42.281  0.00  0.00    -0.271 OA
ATOM     10  CB  85J d   1      24.896  72.116  44.420  0.00  0.00    -0.030 C 
ATOM     11  CG  85J d   1      25.034  73.625  44.364  0.00  0.00     0.011 C 
ATOM     12  CD  85J d   1      25.950  74.021  43.231  0.00  0.00     0.217 C 
ATOM     13  OE1 85J d   1      25.489  74.387  42.121  0.00  0.00    -0.274 OA
ATOM     14  NE2 85J d   1      27.258  73.897  43.492  0.00  0.00    -0.361 N 
ATOM     15  CZ  85J d   1      28.306  74.173  42.486  0.00  0.00    -0.005 C 
ATOM     16  CT  85J d   1      28.482  72.894  41.673  0.00  0.00    -0.050 C 
ATOM     17  CI  85J d   1      29.279  73.177  40.410  0.00  0.00    -0.062 C 
ATOM     18  H33 85J d   1      24.694  72.065  42.243  0.00  0.00     0.087 H 
ATOM     19  H34 85J d   1      25.889  71.680  44.602  0.00  0.00     0.037 H 
ATOM     20  H35 85J d   1      24.224  71.856  45.251  0.00  0.00     0.037 H 
ATOM     21  H36 85J d   1      25.453  73.987  45.314  0.00  0.00     0.047 H 
ATOM     22  H37 85J d   1      24.043  74.075  44.205  0.00  0.00     0.047 H 
ATOM     23  H38 85J d   1      27.538  73.605  44.407  0.00  0.00     0.162 HD
ATOM     24  H39 85J d   1      29.250  74.438  42.985  0.00  0.00     0.064 H 
ATOM     25  H40 85J d   1      27.994  74.999  41.830  0.00  0.00     0.064 H 
ATOM     26  H41 85J d   1      27.493  72.500  41.397  0.00  0.00     0.035 H 
ATOM     27  H42 85J d   1      29.017  72.149  42.280  0.00  0.00     0.035 H 
ATOM     28  H43 85J d   1      30.281  73.528  40.699  0.00  0.00     0.033 H 
ATOM     29  H44 85J d   1      28.765  73.965  39.840  0.00  0.00     0.033 H 
ATOM     30  N   GLN d   1      24.017  69.005  43.757  0.00  0.00    -0.346 N 
ATOM     31  CA  GLN d   1      24.372  67.625  43.713  0.00  0.00     0.090 C 
ATOM     32  C   GLN d   1      24.115  67.085  42.316  0.00  0.00     0.241 C 
ATOM     33  O   GLN d   1      24.861  66.283  41.847  0.00  0.00    -0.271 OA
ATOM     34  N   GLN d   1      23.018  67.505  41.722  0.00  0.00    -0.347 N 
ATOM     35  CA  GLN d   1      22.740  67.091  40.302  0.00  0.00     0.077 C 
ATOM     36  C   GLN d   1      23.803  67.545  39.366  0.00  0.00     0.175 C 
ATOM     37  O   GLN d   1      24.226  66.734  38.437  0.00  0.00    -0.175 OA
ATOM     38  H45 GLN d   1      23.203  69.271  44.273  0.00  0.00     0.163 HD
ATOM     39  H46 GLN d   1      25.445  67.531  43.937  0.00  0.00     0.087 H 
ATOM     40  H53 GLN d   1      22.375  68.094  42.210  0.00  0.00     0.163 HD
ATOM     41  H54 GLN d   1      22.705  65.992  40.264  0.00  0.00     0.085 H 
ATOM     42  N   ARG d   1      24.215  68.788  39.484  0.00  0.00    -0.357 N 
ATOM     43  CA  ARG d   1      25.337  69.297  38.621  0.00  0.00     0.088 C 
ATOM     44  C   ARG d   1      26.646  68.509  38.807  0.00  0.00     0.241 C 
ATOM     45  O   ARG d   1      27.314  68.149  37.814  0.00  0.00    -0.271 OA
ATOM     46  N   ARG d   1      27.004  68.188  40.073  0.00  0.00    -0.346 N 
ATOM     47  CA  ARG d   1      28.221  67.433  40.342  0.00  0.00     0.089 C 
ATOM     48  C   ARG d   1      28.119  66.030  39.732  0.00  0.00     0.241 C 
ATOM     49  O   ARG d   1      29.088  65.548  39.166  0.00  0.00    -0.271 OA
ATOM     50  H61 ARG d   1      23.782  69.396  40.149  0.00  0.00     0.162 HD
ATOM     51  H62 ARG d   1      25.027  69.174  37.573  0.00  0.00     0.087 H 
ATOM     52  H74 ARG d   1      26.424  68.474  40.836  0.00  0.00     0.163 HD
ATOM     53  H75 ARG d   1      29.062  67.963  39.871  0.00  0.00     0.087 H 
ATOM     54  N   TYR d   1      26.285  65.066  37.084  0.00  0.00    -0.346 N 
ATOM     55  CA  TYR d   1      26.323  65.119  35.573  0.00  0.00     0.093 C 
ATOM     56  C   TYR d   1      27.796  65.285  35.156  0.00  0.00     0.241 C 
ATOM     57  O   TYR d   1      28.323  64.740  34.161  0.00  0.00    -0.271 OA
ATOM     58  H96 TYR d   1      25.765  65.749  37.597  0.00  0.00     0.163 HD
ATOM     59  H97 TYR d   1      25.903  64.200  35.139  0.00  0.00     0.088 H 
ATOM     60  N   85G d   1      28.589  66.382  35.920  0.00  0.00    -0.346 N 
ATOM     61  CA  85G d   1      30.025  66.646  35.572  0.00  0.00     0.090 C 
ATOM     62  CB  85G d   1      30.559  67.761  36.400  0.00  0.00    -0.030 C 
ATOM     63  CG  85G d   1      30.015  69.109  35.938  0.00  0.00     0.011 C 
ATOM     64  CD  85G d   1      30.273  70.141  37.023  0.00  0.00     0.217 C 
ATOM     65  OE1 85G d   1      31.323  70.041  37.672  0.00  0.00    -0.274 OA
ATOM     66  CK  85G d   1      29.431  71.969  39.526  0.00  0.00    -0.050 C 
ATOM     67  CY  85G d   1      29.835  72.455  38.136  0.00  0.00    -0.005 C 
ATOM     68  NM  85G d   1      29.353  71.478  37.124  0.00  0.00    -0.361 N 
ATOM     69 5H10 85G d   1      28.143  66.911  36.642  0.00  0.00     0.163 HD
ATOM     70 6H10 85G d   1      30.053  66.955  34.517  0.00  0.00     0.087 H 
ATOM     71 7H10 85G d   1      31.656  67.772  36.321  0.00  0.00     0.037 H 
ATOM     72 8H10 85G d   1      30.269  67.599  37.449  0.00  0.00     0.037 H 
ATOM     73 9H10 85G d   1      28.933  69.028  35.755  0.00  0.00     0.047 H 
ATOM     74 0H11 85G d   1      30.522  69.414  35.011  0.00  0.00     0.047 H 
ATOM     75 1H11 85G d   1      28.477  71.424  39.469  0.00  0.00     0.035 H 
ATOM     76 2H11 85G d   1      30.209  71.305  39.931  0.00  0.00     0.035 H 
ATOM     77 3H11 85G d   1      30.930  72.537  38.078  0.00  0.00     0.064 H 
ATOM     78 4H11 85G d   1      29.383  73.439  37.943  0.00  0.00     0.064 H 
ATOM     79 5H11 85G d   1      28.541  71.629  36.560  0.00  0.00     0.162 HD
ENDROOT
BRANCH   7  80
ATOM     80  N   85J d   1      22.872  71.586  43.165  0.00  0.00    -0.346 N 
ATOM     81  C   MET d   1      22.107  71.163  42.068  0.00  0.00     0.241 C 
ATOM     82  O   MET d   1      22.718  70.608  41.101  0.00  0.00    -0.271 OA
ATOM     83  H32 85J d   1      22.417  71.940  43.982  0.00  0.00     0.163 HD
BRANCH  81  84
ATOM     84  CA  MET d   1      20.587  71.288  42.113  0.00  0.00     0.090 C 
ATOM     85  H24 MET d   1      20.180  70.546  41.411  0.00  0.00     0.087 H 
BRANCH  84  86
ATOM     86  N   MET d   1      20.035  70.952  43.452  0.00  0.00    -0.346 N 
ATOM     87  C   ASN d   1      20.083  69.714  43.925  0.00  0.00     0.241 C 
ATOM     88  O   ASN d   1      20.665  68.760  43.361  0.00  0.00    -0.271 OA
ATOM     89  H23 MET d   1      19.620  71.673  44.006  0.00  0.00     0.163 HD
BRANCH  87  90
ATOM     90  CA  ASN d   1      19.345  69.465  45.275  0.00  0.00     0.097 C 
ATOM     91  H18 ASN d   1      19.123  70.428  45.759  0.00  0.00     0.088 H 
BRANCH  90  92
ATOM     92  N   ASN d   1      18.114  68.730  45.041  0.00  0.00    -0.346 N 
ATOM     93  C   PHE d   1      16.991  69.332  44.639  0.00  0.00     0.249 C 
ATOM     94  O   PHE d   1      16.928  70.532  44.342  0.00  0.00    -0.271 OA
ATOM     95  H17 ASN d   1      18.107  67.740  45.186  0.00  0.00     0.163 HD
BRANCH  93  96
ATOM     96  CA  PHE d   1      15.793  68.403  44.491  0.00  0.00     0.184 C 
ATOM     97  H9  PHE d   1      15.744  67.786  45.401  0.00  0.00     0.100 H 
BRANCH  96  98
ATOM     98  N   PHE d   1      14.464  69.132  44.383  0.00  0.00    -0.036 N 
ATOM     99  H7  PHE d   1      14.718  70.107  44.382  0.00  0.00     0.281 HD
ATOM    100  H8  PHE d   1      14.116  68.875  43.473  0.00  0.00     0.281 HD
BRANCH  98 101
ATOM    101  C1  SIN d   1      13.387  69.077  45.171  0.00  0.00     0.191 C 
ATOM    102  H1  SIN d   1      13.682  69.490  46.147  0.00  0.00     0.128 H 
BRANCH 101 103
ATOM    103  O1  SIN d   1      13.222  67.853  45.331  0.00  0.00    -0.370 OA
ATOM    104  H2  SIN d   1      13.995  67.481  45.740  0.00  0.00     0.212 HD
ENDBRANCH 101 103
BRANCH 101 105
ATOM    105  C2  SIN d   1      12.181  69.912  44.763  0.00  0.00    -0.008 C 
ATOM    106  H3  SIN d   1      12.144  69.936  43.664  0.00  0.00     0.040 H 
ATOM    107  H4  SIN d   1      12.332  70.932  45.147  0.00  0.00     0.040 H 
BRANCH 105 108
ATOM    108  C3  SIN d   1      10.810  69.412  45.273  0.00  0.00     0.019 C 
ATOM    109  H5  SIN d   1      10.046  70.150  44.985  0.00  0.00     0.049 H 
ATOM    110  H6  SIN d   1      10.856  69.341  46.370  0.00  0.00     0.049 H 
BRANCH 108 111
ATOM    111  C4  SIN d   1      10.394  68.068  44.731  0.00  0.00     0.172 C 
ATOM    112  O3  SIN d   1      10.774  67.715  43.571  0.00  0.00    -0.648 OA
ATOM    113  O4  SIN d   1       9.704  67.348  45.523  0.00  0.00    -0.648 OA
ENDBRANCH 108 111
ENDBRANCH 105 108
ENDBRANCH 101 105
ENDBRANCH  98 101
ENDBRANCH  96  98
BRANCH  96 114
ATOM    114  CB  PHE d   1      16.024  67.453  43.293  0.00  0.00    -0.006 C 
ATOM    115  H10 PHE d   1      15.148  66.794  43.201  0.00  0.00     0.043 H 
ATOM    116  H11 PHE d   1      16.918  66.847  43.501  0.00  0.00     0.043 H 
BRANCH 114 117
ATOM    117  CG  PHE d   1      16.229  68.169  41.953  0.00  0.00    -0.056 A 
ATOM    118  CD1 PHE d   1      15.145  68.561  41.224  0.00  0.00    -0.077 A 
ATOM    119  CE1 PHE d   1      15.339  69.283  40.059  0.00  0.00    -0.082 A 
ATOM    120  H12 PHE d   1      14.143  68.310  41.553  0.00  0.00     0.084 H 
ATOM    121  CZ  PHE d   1      16.595  69.566  39.638  0.00  0.00    -0.083 A 
ATOM    122  H14 PHE d   1      14.485  69.622  39.483  0.00  0.00     0.083 H 
ATOM    123  CE2 PHE d   1      17.694  69.155  40.347  0.00  0.00    -0.082 A 
ATOM    124  H16 PHE d   1      16.734  70.129  38.722  0.00  0.00     0.083 H 
ATOM    125  CD2 PHE d   1      17.507  68.483  41.513  0.00  0.00    -0.077 A 
ATOM    126  H15 PHE d   1      18.694  69.362  39.984  0.00  0.00     0.083 H 
ATOM    127  H13 PHE d   1      18.366  68.189  42.106  0.00  0.00     0.084 H 
ENDBRANCH 114 117
ENDBRANCH  96 114
ENDBRANCH  93  96
ENDBRANCH  90  92
BRANCH  90 128
ATOM    128  CB  ASN d   1      20.218  68.616  46.177  0.00  0.00     0.036 C 
ATOM    129  H19 ASN d   1      20.430  67.672  45.654  0.00  0.00     0.051 H 
ATOM    130  H20 ASN d   1      19.653  68.406  47.097  0.00  0.00     0.051 H 
BRANCH 128 131
ATOM    131  CG  ASN d   1      21.547  69.241  46.575  0.00  0.00     0.217 C 
ATOM    132  OD1 ASN d   1      22.116  70.099  45.926  0.00  0.00    -0.274 OA
ATOM    133  ND2 ASN d   1      22.129  68.657  47.640  0.00  0.00    -0.370 N 
ATOM    134  H21 ASN d   1      23.006  68.996  47.979  0.00  0.00     0.159 HD
ATOM    135  H22 ASN d   1      21.684  67.884  48.092  0.00  0.00     0.159 HD
ENDBRANCH 128 131
ENDBRANCH  90 128
ENDBRANCH  87  90
ENDBRANCH  84  86
BRANCH  84 136
ATOM    136  CB  MET d   1      20.151  72.669  41.605  0.00  0.00    -0.030 C 
ATOM    137  H25 MET d   1      20.548  73.432  42.291  0.00  0.00     0.037 H 
ATOM    138  H26 MET d   1      19.052  72.709  41.608  0.00  0.00     0.037 H 
BRANCH 136 139
ATOM    139  CG  MET d   1      20.645  72.991  40.180  0.00  0.00    -0.021 C 
ATOM    140  H27 MET d   1      21.740  72.889  40.145  0.00  0.00     0.049 H 
ATOM    141  H28 MET d   1      20.365  74.024  39.925  0.00  0.00     0.049 H 
BRANCH 139 142
ATOM    142  SD  MET d   1      19.901  71.856  38.976  0.00  0.00    -0.173 SA
BRANCH 142 143
ATOM    143  CE  MET d   1      18.215  72.401  39.113  0.00  0.00    -0.035 C 
ATOM    144  H29 MET d   1      17.582  71.811  38.434  0.00  0.00     0.041 H 
ATOM    145  H30 MET d   1      18.150  73.465  38.842  0.00  0.00     0.041 H 
ATOM    146  H31 MET d   1      17.869  72.264  40.148  0.00  0.00     0.041 H 
ENDBRANCH 142 143
ENDBRANCH 139 142
ENDBRANCH 136 139
ENDBRANCH  84 136
ENDBRANCH  81  84
ENDBRANCH   7  80
BRANCH  31 147
ATOM    147  CB  GLN d   1      23.589  66.820  44.754  0.00  0.00    -0.030 C 
ATOM    148  H47 GLN d   1      22.674  66.422  44.291  0.00  0.00     0.037 H 
ATOM    149  H48 GLN d   1      23.319  67.478  45.593  0.00  0.00     0.037 H 
BRANCH 147 150
ATOM    150  CG  GLN d   1      24.416  65.686  45.265  0.00  0.00     0.011 C 
ATOM    151  H49 GLN d   1      24.785  65.119  44.398  0.00  0.00     0.047 H 
ATOM    152  H50 GLN d   1      23.766  65.042  45.875  0.00  0.00     0.047 H 
BRANCH 150 153
ATOM    153  CD  GLN d   1      25.636  66.082  46.127  0.00  0.00     0.215 C 
ATOM    154  OE1 GLN d   1      26.492  65.256  46.414  0.00  0.00    -0.274 OA
ATOM    155  NE2 GLN d   1      25.758  67.362  46.437  0.00  0.00    -0.370 N 
ATOM    156  H51 GLN d   1      26.530  67.671  46.993  0.00  0.00     0.159 HD
ATOM    157  H52 GLN d   1      25.078  68.021  46.115  0.00  0.00     0.159 HD
ENDBRANCH 150 153
ENDBRANCH 147 150
ENDBRANCH  31 147
BRANCH  35 158
ATOM    158  CB  GLN d   1      21.380  67.631  39.890  0.00  0.00    -0.031 C 
ATOM    159  H55 GLN d   1      21.428  68.730  39.913  0.00  0.00     0.037 H 
ATOM    160  H56 GLN d   1      20.638  67.281  40.623  0.00  0.00     0.037 H 
BRANCH 158 161
ATOM    161  CG  GLN d   1      20.900  67.199  38.475  0.00  0.00     0.011 C 
ATOM    162  H57 GLN d   1      21.645  67.536  37.739  0.00  0.00     0.047 H 
ATOM    163  H58 GLN d   1      19.936  67.689  38.272  0.00  0.00     0.047 H 
BRANCH 161 164
ATOM    164  CD  GLN d   1      20.719  65.721  38.320  0.00  0.00     0.215 C 
ATOM    165  OE1 GLN d   1      20.483  64.975  39.282  0.00  0.00    -0.274 OA
ATOM    166  NE2 GLN d   1      20.773  65.260  37.080  0.00  0.00    -0.370 N 
ATOM    167  H59 GLN d   1      20.660  64.282  36.905  0.00  0.00     0.159 HD
ATOM    168  H60 GLN d   1      20.927  65.890  36.319  0.00  0.00     0.159 HD
ENDBRANCH 161 164
ENDBRANCH 158 161
ENDBRANCH  35 158
BRANCH  43 169
ATOM    169  CB  ARG d   1      25.564  70.774  38.868  0.00  0.00    -0.036 C 
ATOM    170  H63 ARG d   1      26.474  71.072  38.327  0.00  0.00     0.036 H 
ATOM    171  H64 ARG d   1      25.716  70.918  39.948  0.00  0.00     0.036 H 
BRANCH 169 172
ATOM    172  CG  ARG d   1      24.427  71.700  38.424  0.00  0.00    -0.048 C 
ATOM    173  H65 ARG d   1      23.530  71.495  39.026  0.00  0.00     0.035 H 
ATOM    174  H66 ARG d   1      24.204  71.524  37.361  0.00  0.00     0.035 H 
BRANCH 172 175
ATOM    175  CD  ARG d   1      24.855  73.160  38.623  0.00  0.00     0.009 C 
ATOM    176  H67 ARG d   1      25.779  73.332  38.051  0.00  0.00     0.064 H 
ATOM    177  H68 ARG d   1      25.051  73.321  39.693  0.00  0.00     0.064 H 
BRANCH 175 178
ATOM    178  NE  ARG d   1      23.851  74.137  38.184  0.00  0.00    -0.227 N 
ATOM    179  CZ  ARG d   1      23.699  74.668  36.926  0.00  0.00     0.665 C 
ATOM    180  NH1 ARG d   1      24.437  74.302  35.815  0.00  0.00    -0.235 N 
ATOM    181  NH2 ARG d   1      22.736  75.587  36.746  0.00  0.00    -0.235 N 
ATOM    182  H70 ARG d   1      24.257  74.752  34.906  0.00  0.00     0.174 HD
ATOM    183  H71 ARG d   1      25.166  73.579  35.896  0.00  0.00     0.174 HD
ATOM    184  H72 ARG d   1      22.160  75.892  37.543  0.00  0.00     0.174 HD
ATOM    185  H73 ARG d   1      22.574  75.987  35.811  0.00  0.00     0.174 HD
ATOM    186  H69 ARG d   1      23.185  74.461  38.900  0.00  0.00     0.177 HD
ENDBRANCH 175 178
ENDBRANCH 172 175
ENDBRANCH 169 172
ENDBRANCH  43 169
BRANCH  47 187
ATOM    187  CB  ARG d   1      28.516  67.300  41.852  0.00  0.00    -0.036 C 
ATOM    188  H76 ARG d   1      29.362  66.611  41.991  0.00  0.00     0.036 H 
ATOM    189  H77 ARG d   1      27.626  66.894  42.355  0.00  0.00     0.036 H 
BRANCH 187 190
ATOM    190  CG  ARG d   1      28.867  68.648  42.478  0.00  0.00    -0.048 C 
ATOM    191  H78 ARG d   1      27.938  69.227  42.590  0.00  0.00     0.035 H 
ATOM    192  H79 ARG d   1      29.549  69.177  41.795  0.00  0.00     0.035 H 
BRANCH 190 193
ATOM    193  CD  ARG d   1      29.536  68.557  43.840  0.00  0.00     0.009 C 
ATOM    194  H80 ARG d   1      30.547  68.140  43.725  0.00  0.00     0.064 H 
ATOM    195  H81 ARG d   1      28.943  67.904  44.497  0.00  0.00     0.064 H 
BRANCH 193 196
ATOM    196  NE  ARG d   1      29.625  69.918  44.441  0.00  0.00    -0.227 N 
ATOM    197  CZ  ARG d   1      30.525  70.862  44.110  0.00  0.00     0.665 C 
ATOM    198  NH1 ARG d   1      31.490  70.652  43.191  0.00  0.00    -0.235 N 
ATOM    199  H83 ARG d   1      32.160  71.402  42.967  0.00  0.00     0.174 HD
ATOM    200  H84 ARG d   1      31.557  69.742  42.714  0.00  0.00     0.174 HD
ATOM    201  H82 ARG d   1      28.939  70.156  45.172  0.00  0.00     0.177 HD
BRANCH 197 202
ATOM    202  NH2 ARG d   1      30.452  72.049  44.697  0.00  0.00    -0.235 N 
ATOM    203  H85 ARG d   1      29.723  72.231  45.402  0.00  0.00     0.174 HD
ATOM    204  H86 ARG d   1      31.124  72.789  44.448  0.00  0.00     0.174 HD
ENDBRANCH 197 202
ENDBRANCH 193 196
ENDBRANCH 190 193
ENDBRANCH 187 190
ENDBRANCH  47 187
BRANCH  61 205
ATOM    205  C   85G d   1      30.923  65.457  35.716  0.00  0.00     0.241 C 
ATOM    206  O   85G d   1      31.860  65.290  34.935  0.00  0.00    -0.271 OA
ATOM    207  N   ALA d   1      30.525  64.432  36.708  0.00  0.00    -0.346 N 
ATOM    208 6H11 ALA d   1      29.626  64.512  37.139  0.00  0.00     0.163 HD
BRANCH 207 209
ATOM    209  CA  ALA d   1      31.361  63.335  37.080  0.00  0.00     0.086 C 
ATOM    210 7H11 ALA d   1      32.388  63.561  36.756  0.00  0.00     0.086 H 
BRANCH 209 211
ATOM    211  C   ALA d   1      30.941  62.018  36.405  0.00  0.00     0.240 C 
ATOM    212  O   ALA d   1      31.515  60.970  36.726  0.00  0.00    -0.271 OA
ATOM    213  N   LEU d   1      29.936  62.052  35.509  0.00  0.00    -0.346 N 
ATOM    214 1H12 LEU d   1      29.621  62.937  35.166  0.00  0.00     0.163 HD
BRANCH 213 215
ATOM    215  CA  LEU d   1      29.288  60.823  35.021  0.00  0.00     0.089 C 
ATOM    216 2H12 LEU d   1      28.796  60.378  35.899  0.00  0.00     0.087 H 
BRANCH 215 217
ATOM    217  C   LEU d   1      30.205  59.690  34.443  0.00  0.00     0.241 C 
ATOM    218  O   LEU d   1      29.967  58.433  34.622  0.00  0.00    -0.271 OA
ATOM    219  N   HIS d   1      31.271  60.134  33.811  0.00  0.00    -0.344 N 
ATOM    220 2H13 HIS d   1      31.355  61.112  33.620  0.00  0.00     0.163 HD
BRANCH 219 221
ATOM    221  CA  HIS d   1      32.311  59.246  33.392  0.00  0.00     0.101 C 
ATOM    222 3H13 HIS d   1      31.823  58.267  33.279  0.00  0.00     0.090 H 
BRANCH 221 223
ATOM    223  C   HIS d   1      33.507  58.983  34.340  0.00  0.00     0.197 C 
ATOM    224  O   HIS d   1      34.488  58.270  33.872  0.00  0.00    -0.646 OA
ATOM    225  OXT HIS d   1      33.441  59.495  35.533  0.00  0.00    -0.646 OA
ENDBRANCH 221 223
BRANCH 221 226
ATOM    226  CB  HIS d   1      32.811  59.669  31.965  0.00  0.00     0.005 C 
ATOM    227 4H13 HIS d   1      33.689  59.055  31.715  0.00  0.00     0.046 H 
ATOM    228 5H13 HIS d   1      33.104  60.728  32.006  0.00  0.00     0.046 H 
BRANCH 226 229
ATOM    229  CG  HIS d   1      31.803  59.507  30.868  0.00  0.00     0.053 A 
ATOM    230  ND1 HIS d   1      31.340  58.273  30.484  0.00  0.00    -0.247 NA
ATOM    231  CE1 HIS d   1      30.439  58.413  29.533  0.00  0.00     0.064 A 
ATOM    232  NE2 HIS d   1      30.388  59.692  29.200  0.00  0.00    -0.359 N 
ATOM    233 7H13 HIS d   1      29.840  57.615  29.097  0.00  0.00     0.143 H 
ATOM    234  CD2 HIS d   1      31.179  60.414  30.068  0.00  0.00     0.002 A 
ATOM    235 8H13 HIS d   1      29.845  60.085  28.418  0.00  0.00     0.166 HD
ATOM    236 6H13 HIS d   1      31.284  61.497  30.106  0.00  0.00     0.114 H 
ENDBRANCH 226 229
ENDBRANCH 221 226
ENDBRANCH 219 221
ENDBRANCH 215 217
BRANCH 215 237
ATOM    237  CB  LEU d   1      28.171  61.202  34.020  0.00  0.00    -0.035 C 
ATOM    238 3H12 LEU d   1      28.634  61.545  33.083  0.00  0.00     0.037 H 
ATOM    239 4H12 LEU d   1      27.568  62.015  34.450  0.00  0.00     0.037 H 
BRANCH 237 240
ATOM    240  CG  LEU d   1      27.257  60.014  33.716  0.00  0.00    -0.059 C 
ATOM    241 5H12 LEU d   1      27.706  59.113  34.159  0.00  0.00     0.038 H 
BRANCH 240 242
ATOM    242  CD1 LEU d   1      25.922  60.239  34.332  0.00  0.00    -0.073 C 
ATOM    243 6H12 LEU d   1      25.267  59.383  34.111  0.00  0.00     0.028 H 
ATOM    244 7H12 LEU d   1      25.477  61.156  33.919  0.00  0.00     0.028 H 
ATOM    245 8H12 LEU d   1      26.034  60.344  35.421  0.00  0.00     0.028 H 
ENDBRANCH 240 242
BRANCH 240 246
ATOM    246  CD2 LEU d   1      27.083  59.776  32.226  0.00  0.00    -0.073 C 
ATOM    247 9H12 LEU d   1      28.067  59.609  31.764  0.00  0.00     0.028 H 
ATOM    248 0H13 LEU d   1      26.607  60.655  31.767  0.00  0.00     0.028 H 
ATOM    249 1H13 LEU d   1      26.449  58.892  32.068  0.00  0.00     0.028 H 
ENDBRANCH 240 246
ENDBRANCH 237 240
ENDBRANCH 215 237
ENDBRANCH 213 215
ENDBRANCH 209 211
BRANCH 209 250
ATOM    250  CB  ALA d   1      31.354  63.212  38.599  0.00  0.00    -0.049 C 
ATOM    251 8H11 ALA d   1      31.994  62.370  38.902  0.00  0.00     0.030 H 
ATOM    252 9H11 ALA d   1      30.326  63.035  38.948  0.00  0.00     0.030 H 
ATOM    253 0H12 ALA d   1      31.737  64.142  39.044  0.00  0.00     0.030 H 
ENDBRANCH 209 250
ENDBRANCH 207 209
ENDBRANCH  61 205
BRANCH   2 254
ATOM    254  CB  PHE d   1      25.222  63.672  39.535  0.00  0.00    -0.014 C 
ATOM    255  H89 PHE d   1      24.559  64.524  39.324  0.00  0.00     0.043 H 
ATOM    256  H90 PHE d   1      25.145  63.402  40.599  0.00  0.00     0.043 H 
BRANCH 254 257
ATOM    257  CG  PHE d   1      24.762  62.503  38.717  0.00  0.00    -0.056 A 
ATOM    258  CD1 PHE d   1      25.432  61.289  38.806  0.00  0.00    -0.077 A 
ATOM    259  CE1 PHE d   1      25.068  60.216  37.992  0.00  0.00    -0.082 A 
ATOM    260  H91 PHE d   1      26.245  61.175  39.514  0.00  0.00     0.084 H 
ATOM    261  CZ  PHE d   1      23.933  60.324  37.157  0.00  0.00    -0.083 A 
ATOM    262  H93 PHE d   1      25.653  59.303  38.000  0.00  0.00     0.083 H 
ATOM    263  CE2 PHE d   1      23.196  61.503  37.119  0.00  0.00    -0.082 A 
ATOM    264  H95 PHE d   1      23.635  59.483  36.542  0.00  0.00     0.083 H 
ATOM    265  CD2 PHE d   1      23.599  62.597  37.887  0.00  0.00    -0.077 A 
ATOM    266  H94 PHE d   1      22.312  61.572  36.495  0.00  0.00     0.083 H 
ATOM    267  H92 PHE d   1      23.030  63.519  37.855  0.00  0.00     0.084 H 
ENDBRANCH 254 257
ENDBRANCH   2 254
BRANCH  55 268
ATOM    268  CB  TYR d   1      25.518  66.328  35.125  0.00  0.00    -0.014 C 
ATOM    269  H98 TYR d   1      25.945  67.230  35.588  0.00  0.00     0.043 H 
ATOM    270  H99 TYR d   1      24.477  66.204  35.457  0.00  0.00     0.043 H 
BRANCH 268 271
ATOM    271  CG  TYR d   1      25.534  66.501  33.585  0.00  0.00    -0.056 A 
ATOM    272  CD1 TYR d   1      24.677  65.725  32.823  0.00  0.00    -0.074 A 
ATOM    273  CE1 TYR d   1      24.679  65.798  31.413  0.00  0.00    -0.051 A 
ATOM    274 0H10 TYR d   1      23.991  65.048  33.319  0.00  0.00     0.084 H 
ATOM    275  CZ  TYR d   1      25.527  66.758  30.846  0.00  0.00     0.065 A 
ATOM    276 2H10 TYR d   1      24.060  65.149  30.804  0.00  0.00     0.087 H 
ATOM    277  CE2 TYR d   1      26.404  67.538  31.588  0.00  0.00    -0.051 A 
ATOM    278  CD2 TYR d   1      26.366  67.425  32.994  0.00  0.00    -0.074 A 
ATOM    279 3H10 TYR d   1      27.098  68.214  31.101  0.00  0.00     0.087 H 
ATOM    280 1H10 TYR d   1      26.991  68.064  33.607  0.00  0.00     0.084 H 
BRANCH 275 281
ATOM    281  OH  TYR d   1      25.579  66.908  29.440  0.00  0.00    -0.361 OA
ATOM    282 4H10 TYR d   1      24.941  66.331  29.037  0.00  0.00     0.217 HD
ENDBRANCH 275 281
ENDBRANCH 268 271
ENDBRANCH  55 268
TORSDOF 54
