REMARK  9 active torsions:
REMARK  status: ('A' for Active; 'I' for Inactive)
REMARK    1  A    between atoms: C2_2  and  C1_1 
REMARK    2  A    between atoms: N6_21  and  C12_5 
REMARK    3  A    between atoms: C12_5  and  C10_25 
REMARK    4  A    between atoms: C14_6  and  O17_27 
REMARK    5  A    between atoms: N4_19  and  C15_7 
REMARK    6  A    between atoms: N13_26  and  C20_11 
REMARK    7  A    between atoms: N13_26  and  C21_12 
REMARK    8  A    between atoms: O17_27  and  C23_14 
REMARK    9  A    between atoms: C7_22  and  N13_26 
ROOT
ATOM      1  C2  LQD d   1     -17.403 -23.866  23.198  0.00  0.00     0.026 C 
ATOM      2  C11 LQD d   1     -16.532 -25.473  21.609  0.00  0.00     0.111 C 
ATOM      3  N6  LQD d   1     -15.440 -24.652  22.127  0.00  0.00    -0.064 N 
ATOM      4  C7  LQD d   1     -17.621 -25.262  22.642  0.00  0.00     0.135 C 
ATOM      5  C9  LQD d   1     -16.122 -23.408  22.527  0.00  0.00     0.093 C 
ATOM      6  H1  LQD d   1     -18.226 -23.224  22.851  0.00  0.00     0.053 H 
ATOM      7  H3  LQD d   1     -16.240 -26.532  21.550  0.00  0.00     0.079 H 
ATOM      8  H4  LQD d   1     -16.854 -25.126  20.616  0.00  0.00     0.079 H 
ATOM      9  H27 LQD d   1     -15.068 -25.097  22.951  0.00  0.00     0.280 HD
ATOM     10  H28 LQD d   1     -17.552 -26.020  23.437  0.00  0.00     0.088 H 
ATOM     11  H29 LQD d   1     -15.500 -22.834  23.230  0.00  0.00     0.077 H 
ATOM     12  H30 LQD d   1     -16.346 -22.789  21.646  0.00  0.00     0.077 H 
ENDROOT
BRANCH   1  13
ATOM     13  C1  LQD d   1     -17.396 -23.763  24.706  0.00  0.00    -0.022 A 
ATOM     14  C3  LQD d   1     -18.252 -22.936  25.398  0.00  0.00    -0.013 A 
ATOM     15  N4  LQD d   1     -18.017 -23.041  26.737  0.00  0.00    -0.360 N 
ATOM     16  H2  LQD d   1     -19.005 -22.294  24.944  0.00  0.00     0.112 H 
ATOM     17  C8  LQD d   1     -17.006 -23.931  26.970  0.00  0.00     0.044 A 
ATOM     18  C18 LQD d   1     -16.450 -24.333  28.166  0.00  0.00    -0.056 A 
ATOM     19  C5  LQD d   1     -16.608 -24.389  25.715  0.00  0.00    -0.001 A 
ATOM     20  C25 LQD d   1     -15.434 -25.260  28.077  0.00  0.00    -0.081 A 
ATOM     21  H11 LQD d   1     -16.791 -23.944  29.118  0.00  0.00     0.087 H 
ATOM     22  C24 LQD d   1     -15.016 -25.726  26.853  0.00  0.00    -0.082 A 
ATOM     23  H24 LQD d   1     -14.960 -25.625  28.981  0.00  0.00     0.083 H 
ATOM     24  C16 LQD d   1     -15.579 -25.311  25.671  0.00  0.00    -0.070 A 
ATOM     25  H23 LQD d   1     -14.210 -26.450  26.820  0.00  0.00     0.083 H 
ATOM     26  H10 LQD d   1     -15.224 -25.698  24.723  0.00  0.00     0.084 H 
BRANCH  15  27
ATOM     27  C15 LQD d   1     -18.764 -22.287  27.729  0.00  0.00    -0.014 C 
ATOM     28  H7  LQD d   1     -19.511 -21.657  27.224  0.00  0.00     0.057 H 
ATOM     29  H8  LQD d   1     -18.074 -21.650  28.302  0.00  0.00     0.057 H 
ATOM     30  H9  LQD d   1     -19.273 -22.983  28.412  0.00  0.00     0.057 H 
ENDBRANCH  15  27
ENDBRANCH   1  13
BRANCH   4  31
ATOM     31  N13 LQD d   1     -18.942 -25.307  22.019  0.00  0.00    -0.072 N 
ATOM     32  H31 LQD d   1     -19.075 -24.482  21.456  0.00  0.00     0.279 HD
BRANCH  31  33
ATOM     33  C20 LQD d   1     -19.958 -25.384  23.077  0.00  0.00     0.066 C 
ATOM     34  H13 LQD d   1     -20.959 -25.419  22.622  0.00  0.00     0.068 H 
ATOM     35  H14 LQD d   1     -19.880 -24.499  23.725  0.00  0.00     0.068 H 
ATOM     36  H15 LQD d   1     -19.796 -26.292  23.676  0.00  0.00     0.068 H 
ENDBRANCH  31  33
BRANCH  31  37
ATOM     37  C21 LQD d   1     -19.129 -26.505  21.201  0.00  0.00     0.066 C 
ATOM     38  H16 LQD d   1     -18.393 -26.509  20.383  0.00  0.00     0.068 H 
ATOM     39  H17 LQD d   1     -20.145 -26.506  20.780  0.00  0.00     0.068 H 
ATOM     40  H18 LQD d   1     -18.989 -27.400  21.825  0.00  0.00     0.068 H 
ENDBRANCH  31  37
ENDBRANCH   4  31
BRANCH   3  41
ATOM     41  C12 LQD d   1     -14.295 -24.456  21.205  0.00  0.00     0.110 C 
ATOM     42  H5  LQD d   1     -13.696 -23.602  21.554  0.00  0.00     0.083 H 
ATOM     43  H6  LQD d   1     -14.679 -24.246  20.196  0.00  0.00     0.083 H 
BRANCH  41  44
ATOM     44  C10 LQD d   1     -13.421 -25.679  21.152  0.00  0.00     0.001 A 
ATOM     45  C14 LQD d   1     -12.429 -25.927  22.087  0.00  0.00     0.076 A 
ATOM     46  C22 LQD d   1     -11.652 -27.070  22.005  0.00  0.00    -0.050 A 
ATOM     47  C27 LQD d   1     -11.844 -27.974  20.987  0.00  0.00    -0.080 A 
ATOM     48  H19 LQD d   1     -10.886 -27.254  22.750  0.00  0.00     0.087 H 
ATOM     49  C26 LQD d   1     -12.815 -27.742  20.047  0.00  0.00    -0.082 A 
ATOM     50  H26 LQD d   1     -11.231 -28.866  20.928  0.00  0.00     0.083 H 
ATOM     51  C19 LQD d   1     -13.594 -26.606  20.140  0.00  0.00    -0.072 A 
ATOM     52  H25 LQD d   1     -12.970 -28.445  19.237  0.00  0.00     0.083 H 
ATOM     53  H12 LQD d   1     -14.365 -26.435  19.397  0.00  0.00     0.084 H 
BRANCH  45  54
ATOM     54  O17 LQD d   1     -12.295 -24.979  23.080  0.00  0.00    -0.355 OA
BRANCH  54  55
ATOM     55  C23 LQD d   1     -11.233 -25.122  24.012  0.00  0.00     0.010 C 
ATOM     56  H20 LQD d   1     -11.264 -24.292  24.733  0.00  0.00     0.066 H 
ATOM     57  H21 LQD d   1     -10.272 -25.108  23.478  0.00  0.00     0.066 H 
ATOM     58  H22 LQD d   1     -11.341 -26.077  24.547  0.00  0.00     0.066 H 
ENDBRANCH  54  55
ENDBRANCH  45  54
ENDBRANCH  41  44
ENDBRANCH   3  41
TORSDOF 9
