REMARK  7 active torsions:
REMARK  status: ('A' for Active; 'I' for Inactive)
REMARK    1  A    between atoms: C8_5  and  C31_31 
REMARK    2  A    between atoms: C17_7  and  C19_23 
REMARK    3  A    between atoms: N10_16  and  C28_11 
REMARK    4  A    between atoms: C28_11  and  C29_29 
REMARK    5  A    between atoms: C2_13  and  N32_32 
REMARK    6  A    between atoms: N13_19  and  C27_28 
REMARK    7  A    between atoms: C29_29  and  O30_30 
ROOT
ATOM      1  N3  7YS d   1      26.681 -12.626  14.037  0.00  0.00    -0.237 NA
ATOM      2  C4  7YS d   1      27.115 -12.106  15.192  0.00  0.00     0.033 A 
ATOM      3  C5  7YS d   1      26.659 -12.554  16.427  0.00  0.00     0.091 A 
ATOM      4  C7  7YS d   1      26.976 -11.837  17.699  0.00  0.00     0.046 A 
ATOM      5  C8  7YS d   1      28.123 -10.964  17.954  0.00  0.00     0.065 A 
ATOM      6  C15 7YS d   1      22.864 -14.413  18.507  0.00  0.00     0.042 A 
ATOM      7  C17 7YS d   1      23.983 -15.689  16.588  0.00  0.00     0.071 C 
ATOM      8  C20 7YS d   1      21.689 -14.471  16.436  0.00  0.00     0.082 A 
ATOM      9  C21 7YS d   1      20.693 -13.703  16.962  0.00  0.00     0.138 A 
ATOM     10  C22 7YS d   1      20.738 -13.283  18.267  0.00  0.00    -0.043 A 
ATOM     11  C1  7YS d   1      25.356 -14.110  15.345  0.00  0.00     0.212 A 
ATOM     12  C2  7YS d   1      25.769 -13.625  14.054  0.00  0.00     0.174 A 
ATOM     13  N6  7YS d   1      25.804 -13.587  16.476  0.00  0.00    -0.219 NA
ATOM     14  N9  7YS d   1      28.091 -10.526  19.202  0.00  0.00    -0.176 NA
ATOM     15  N10 7YS d   1      26.954 -11.063  19.761  0.00  0.00    -0.269 N 
ATOM     16  C11 7YS d   1      26.261 -11.850  18.896  0.00  0.00     0.063 A 
ATOM     17  C12 7YS d   1      24.942 -12.517  19.214  0.00  0.00     0.038 C 
ATOM     18  N13 7YS d   1      24.954 -13.894  19.694  0.00  0.00    -0.347 N 
ATOM     19  C14 7YS d   1      24.002 -14.802  19.408  0.00  0.00     0.254 C 
ATOM     20  C16 7YS d   1      22.817 -14.845  17.173  0.00  0.00     0.011 A 
ATOM     21  O18 7YS d   1      24.467 -15.130  15.367  0.00  0.00    -0.322 OA
ATOM     22  C23 7YS d   1      21.824 -13.647  19.045  0.00  0.00    -0.064 A 
ATOM     23  F24 7YS d   1      19.656 -13.311  16.185  0.00  0.00    -0.204 F 
ATOM     24 CL25 7YS d   1      21.488 -14.976  14.802  0.00  0.00    -0.080 Cl
ATOM     25  O26 7YS d   1      24.001 -15.921  19.878  0.00  0.00    -0.267 OA
ATOM     26  H1  7YS d   1      27.848 -11.308  15.163  0.00  0.00     0.118 H 
ATOM     27  H2  7YS d   1      24.800 -15.678  17.325  0.00  0.00     0.091 H 
ATOM     28  H3  7YS d   1      19.939 -12.678  18.681  0.00  0.00     0.088 H 
ATOM     29  H6  7YS d   1      24.340 -12.500  18.294  0.00  0.00     0.074 H 
ATOM     30  H7  7YS d   1      24.449 -11.909  19.986  0.00  0.00     0.074 H 
ATOM     31  H11 7YS d   1      21.869 -13.335  20.082  0.00  0.00     0.085 H 
ENDROOT
BRANCH  15  32
ATOM     32  C28 7YS d   1      26.629 -10.711  21.143  0.00  0.00     0.036 C 
ATOM     33  H4  7YS d   1      27.537 -10.813  21.755  0.00  0.00     0.070 H 
ATOM     34  H5  7YS d   1      25.858 -11.404  21.511  0.00  0.00     0.070 H 
BRANCH  32  35
ATOM     35  C29 7YS d   1      26.110  -9.292  21.278  0.00  0.00     0.033 C 
ATOM     36  H15 7YS d   1      26.904  -8.592  20.977  0.00  0.00     0.076 H 
ATOM     37  H16 7YS d   1      25.840  -9.110  22.329  0.00  0.00     0.076 H 
BRANCH  35  38
ATOM     38  O30 7YS d   1      24.973  -9.069  20.468  0.00  0.00    -0.399 OA
ATOM     39  H17 7YS d   1      24.280  -9.666  20.725  0.00  0.00     0.209 HD
ENDBRANCH  35  38
ENDBRANCH  32  35
ENDBRANCH  15  32
BRANCH   5  40
ATOM     40  C31 7YS d   1      29.216 -10.517  17.039  0.00  0.00    -0.033 C 
ATOM     41  H18 7YS d   1      29.907  -9.860  17.587  0.00  0.00     0.035 H 
ATOM     42  H19 7YS d   1      28.782  -9.967  16.191  0.00  0.00     0.035 H 
ATOM     43  H20 7YS d   1      29.764 -11.395  16.665  0.00  0.00     0.035 H 
ENDBRANCH   5  40
BRANCH  18  44
ATOM     44  C27 7YS d   1      26.050 -14.270  20.580  0.00  0.00    -0.015 C 
ATOM     45  H12 7YS d   1      25.943 -15.326  20.868  0.00  0.00     0.056 H 
ATOM     46  H13 7YS d   1      26.025 -13.640  21.481  0.00  0.00     0.056 H 
ATOM     47  H14 7YS d   1      27.008 -14.127  20.059  0.00  0.00     0.056 H 
ENDBRANCH  18  44
BRANCH  12  48
ATOM     48  N32 7YS d   1      25.301 -14.063  12.883  0.00  0.00    -0.380 N 
ATOM     49  H21 7YS d   1      24.606 -14.822  12.858  0.00  0.00     0.157 HD
ATOM     50  H22 7YS d   1      25.635 -13.642  12.005  0.00  0.00     0.157 HD
ENDBRANCH  12  48
BRANCH   7  51
ATOM     51  C19 7YS d   1      23.605 -17.132  16.325  0.00  0.00    -0.048 C 
ATOM     52  H8  7YS d   1      24.472 -17.669  15.914  0.00  0.00     0.031 H 
ATOM     53  H9  7YS d   1      22.776 -17.168  15.603  0.00  0.00     0.031 H 
ATOM     54  H10 7YS d   1      23.293 -17.607  17.267  0.00  0.00     0.031 H 
ENDBRANCH   7  51
TORSDOF 7
