REMARK  7 active torsions:
REMARK  status: ('A' for Active; 'I' for Inactive)
REMARK    1  A    between atoms: C8_5  and  C31_31 
REMARK    2  A    between atoms: C17_7  and  C19_23 
REMARK    3  A    between atoms: N10_16  and  C28_11 
REMARK    4  A    between atoms: C28_11  and  C29_29 
REMARK    5  A    between atoms: C2_13  and  N32_32 
REMARK    6  A    between atoms: N13_19  and  C27_28 
REMARK    7  A    between atoms: C29_29  and  O30_30 
ROOT
ATOM      1  N3  7YS d   1      -2.121 -22.926 -18.073  0.00  0.00    -0.237 NA
ATOM      2  C4  7YS d   1      -2.216 -22.030 -17.081  0.00  0.00     0.033 A 
ATOM      3  C5  7YS d   1      -3.045 -20.915 -17.162  0.00  0.00     0.091 A 
ATOM      4  C7  7YS d   1      -3.027 -19.855 -16.114  0.00  0.00     0.046 A 
ATOM      5  C8  7YS d   1      -2.732 -20.039 -14.680  0.00  0.00     0.065 A 
ATOM      6  C15 7YS d   1      -4.698 -17.905 -20.269  0.00  0.00     0.042 A 
ATOM      7  C17 7YS d   1      -5.375 -20.362 -20.502  0.00  0.00     0.071 C 
ATOM      8  C20 7YS d   1      -3.714 -19.132 -22.067  0.00  0.00     0.082 A 
ATOM      9  C21 7YS d   1      -3.004 -18.000 -22.451  0.00  0.00     0.138 A 
ATOM     10  C22 7YS d   1      -3.121 -16.822 -21.757  0.00  0.00    -0.043 A 
ATOM     11  C1  7YS d   1      -3.733 -21.616 -19.236  0.00  0.00     0.212 A 
ATOM     12  C2  7YS d   1      -2.853 -22.762 -19.199  0.00  0.00     0.174 A 
ATOM     13  N6  7YS d   1      -3.816 -20.740 -18.246  0.00  0.00    -0.219 NA
ATOM     14  N9  7YS d   1      -2.777 -18.879 -14.062  0.00  0.00    -0.176 NA
ATOM     15  N10 7YS d   1      -3.079 -17.945 -15.024  0.00  0.00    -0.269 N 
ATOM     16  C11 7YS d   1      -3.248 -18.491 -16.262  0.00  0.00     0.063 A 
ATOM     17  C12 7YS d   1      -3.641 -17.723 -17.537  0.00  0.00     0.038 C 
ATOM     18  N13 7YS d   1      -5.067 -17.654 -17.848  0.00  0.00    -0.347 N 
ATOM     19  C14 7YS d   1      -5.611 -17.758 -19.075  0.00  0.00     0.254 C 
ATOM     20  C16 7YS d   1      -4.582 -19.118 -20.968  0.00  0.00     0.011 A 
ATOM     21  O18 7YS d   1      -4.489 -21.470 -20.344  0.00  0.00    -0.322 OA
ATOM     22  C23 7YS d   1      -3.976 -16.772 -20.671  0.00  0.00    -0.064 A 
ATOM     23  F24 7YS d   1      -2.208 -18.029 -23.542  0.00  0.00    -0.204 F 
ATOM     24 CL25 7YS d   1      -3.462 -20.575 -22.990  0.00  0.00    -0.080 Cl
ATOM     25  O26 7YS d   1      -6.821 -17.746 -19.259  0.00  0.00    -0.267 OA
ATOM     26  H1  7YS d   1      -1.626 -22.179 -16.184  0.00  0.00     0.118 H 
ATOM     27  H2  7YS d   1      -5.818 -20.123 -19.524  0.00  0.00     0.091 H 
ATOM     28  H3  7YS d   1      -2.554 -15.947 -22.054  0.00  0.00     0.088 H 
ATOM     29  H6  7YS d   1      -3.138 -18.208 -18.387  0.00  0.00     0.074 H 
ATOM     30  H7  7YS d   1      -3.272 -16.692 -17.432  0.00  0.00     0.074 H 
ATOM     31  H11 7YS d   1      -4.090 -15.844 -20.123  0.00  0.00     0.085 H 
ENDROOT
BRANCH  15  32
ATOM     32  C28 7YS d   1      -3.091 -16.539 -14.619  0.00  0.00     0.036 C 
ATOM     33  H4  7YS d   1      -3.557 -16.460 -13.626  0.00  0.00     0.070 H 
ATOM     34  H5  7YS d   1      -3.682 -15.965 -15.348  0.00  0.00     0.070 H 
BRANCH  32  35
ATOM     35  C29 7YS d   1      -1.697 -15.951 -14.551  0.00  0.00     0.033 C 
ATOM     36  H15 7YS d   1      -1.104 -16.485 -13.794  0.00  0.00     0.076 H 
ATOM     37  H16 7YS d   1      -1.755 -14.885 -14.286  0.00  0.00     0.076 H 
BRANCH  35  38
ATOM     38  O30 7YS d   1      -1.095 -16.097 -15.823  0.00  0.00    -0.399 OA
ATOM     39  H17 7YS d   1      -1.613 -15.636 -16.472  0.00  0.00     0.209 HD
ENDBRANCH  35  38
ENDBRANCH  32  35
ENDBRANCH  15  32
BRANCH   5  40
ATOM     40  C31 7YS d   1      -2.452 -21.279 -13.898  0.00  0.00    -0.033 C 
ATOM     41  H18 7YS d   1      -2.277 -21.016 -12.844  0.00  0.00     0.035 H 
ATOM     42  H19 7YS d   1      -1.559 -21.776 -14.305  0.00  0.00     0.035 H 
ATOM     43  H20 7YS d   1      -3.314 -21.959 -13.968  0.00  0.00     0.035 H 
ENDBRANCH   5  40
BRANCH  18  44
ATOM     44  C27 7YS d   1      -5.973 -17.407 -16.729  0.00  0.00    -0.015 C 
ATOM     45  H12 7YS d   1      -7.010 -17.379 -17.096  0.00  0.00     0.056 H 
ATOM     46  H13 7YS d   1      -5.723 -16.444 -16.261  0.00  0.00     0.056 H 
ATOM     47  H14 7YS d   1      -5.868 -18.213 -15.988  0.00  0.00     0.056 H 
ENDBRANCH  18  44
BRANCH  12  48
ATOM     48  N32 7YS d   1      -2.688 -23.647 -20.191  0.00  0.00    -0.380 N 
ATOM     49  H21 7YS d   1      -3.230 -23.551 -21.062  0.00  0.00     0.157 HD
ATOM     50  H22 7YS d   1      -2.019 -24.423 -20.083  0.00  0.00     0.157 HD
ENDBRANCH  12  48
BRANCH   7  51
ATOM     51  C19 7YS d   1      -6.499 -20.777 -21.429  0.00  0.00    -0.048 C 
ATOM     52  H8  7YS d   1      -7.003 -21.665 -21.019  0.00  0.00     0.031 H 
ATOM     53  H9  7YS d   1      -6.087 -21.015 -22.421  0.00  0.00     0.031 H 
ATOM     54  H10 7YS d   1      -7.222 -19.953 -21.520  0.00  0.00     0.031 H 
ENDBRANCH   7  51
TORSDOF 7
