REMARK  10 active torsions:
REMARK  status: ('A' for Active; 'I' for Inactive)
REMARK    1  A    between atoms: C11_11  and  C10_10 
REMARK    2  A    between atoms: C12_12  and  C19_19 
REMARK    3  A    between atoms: C13_13  and  C21_21 
REMARK    4  A    between atoms: C24_24  and  C14_14 
REMARK    5  A    between atoms: C25_25  and  C16_16 
REMARK       I    between atoms: C16_16  and  N29_29 
REMARK    6  A    between atoms: C20_20  and  N30_30 
REMARK    7  A    between atoms: N30_30  and  C22_22 
REMARK    8  A    between atoms: N30_30  and  C23_23 
REMARK    9  A    between atoms: N28_28  and  C24_24 
REMARK   10  A    between atoms: C25_25  and  N27_27 
ROOT
ATOM      1  C17 7XG d   1     -15.976 -23.537  22.668  0.00  0.00     0.093 C 
ATOM      2  C18 7XG d   1     -16.414 -25.547  21.549  0.00  0.00     0.111 C 
ATOM      3  C19 7XG d   1     -17.288 -24.047  23.239  0.00  0.00     0.024 C 
ATOM      4  C20 7XG d   1     -17.518 -25.407  22.574  0.00  0.00     0.135 C 
ATOM      5  N28 7XG d   1     -15.323 -24.753  22.144  0.00  0.00    -0.064 N 
ATOM      6  H10 7XG d   1     -15.363 -23.070  23.453  0.00  0.00     0.077 H 
ATOM      7  H11 7XG d   1     -16.156 -22.811  21.862  0.00  0.00     0.077 H 
ATOM      8  H12 7XG d   1     -16.720 -25.135  20.576  0.00  0.00     0.079 H 
ATOM      9  H13 7XG d   1     -16.118 -26.599  21.425  0.00  0.00     0.079 H 
ATOM     10  H14 7XG d   1     -18.109 -23.364  22.976  0.00  0.00     0.053 H 
ATOM     11  H15 7XG d   1     -17.442 -26.215  23.317  0.00  0.00     0.088 H 
ATOM     12  H29 7XG d   1     -14.954 -25.269  22.927  0.00  0.00     0.280 HD
ENDROOT
BRANCH   3  13
ATOM     13  C12 7XG d   1     -17.192 -24.132  24.745  0.00  0.00    -0.050 A 
ATOM     14  C4  7XG d   1     -17.981 -23.333  25.546  0.00  0.00    -0.076 A 
ATOM     15  C2  7XG d   1     -17.892 -23.403  26.923  0.00  0.00    -0.072 A 
ATOM     16  H4  7XG d   1     -18.680 -22.641  25.089  0.00  0.00     0.084 H 
ATOM     17  C10 7XG d   1     -17.013 -24.277  27.526  0.00  0.00    -0.023 A 
ATOM     18  H2  7XG d   1     -18.519 -22.765  27.535  0.00  0.00     0.084 H 
ATOM     19  C3  7XG d   1     -16.221 -25.082  26.737  0.00  0.00    -0.072 A 
ATOM     20  C5  7XG d   1     -16.319 -25.007  25.361  0.00  0.00    -0.076 A 
ATOM     21  H3  7XG d   1     -15.522 -25.773  27.195  0.00  0.00     0.084 H 
ATOM     22  H5  7XG d   1     -15.696 -25.650  24.750  0.00  0.00     0.084 H 
BRANCH  17  23
ATOM     23  C11 7XG d   1     -16.916 -24.301  28.958  0.00  0.00     0.010 A 
ATOM     24  C8  7XG d   1     -17.821 -23.812  29.927  0.00  0.00     0.034 A 
ATOM     25  N26 7XG d   1     -17.379 -24.002  31.172  0.00  0.00    -0.184 NA
ATOM     26  H8  7XG d   1     -18.770 -23.335  29.686  0.00  0.00     0.118 H 
ATOM     27  N27 7XG d   1     -16.191 -24.604  31.001  0.00  0.00    -0.272 N 
ATOM     28  C9  7XG d   1     -15.866 -24.812  29.693  0.00  0.00     0.011 A 
ATOM     29  H9  7XG d   1     -14.963 -25.284  29.308  0.00  0.00     0.115 H 
BRANCH  27  30
ATOM     30  C25 7XG d   1     -15.388 -24.975  32.150  0.00  0.00     0.089 C 
ATOM     31  H27 7XG d   1     -15.766 -25.930  32.543  0.00  0.00     0.082 H 
ATOM     32  H28 7XG d   1     -14.347 -25.101  31.819  0.00  0.00     0.082 H 
BRANCH  30  33
ATOM     33  C16 7XG d   1     -15.412 -23.961  33.265  0.00  0.00     0.235 C 
ATOM     34  N29 7XG d   1     -14.713 -24.411  34.355  0.00  0.00    -0.369 N 
ATOM     35  H30 7XG d   1     -14.643 -23.841  35.174  0.00  0.00     0.159 HD
ATOM     36  H31 7XG d   1     -14.273 -25.309  34.331  0.00  0.00     0.159 HD
ATOM     37  O31 7XG d   1     -15.976 -22.872  33.221  0.00  0.00    -0.272 OA
ENDBRANCH  30  33
ENDBRANCH  27  30
ENDBRANCH  17  23
ENDBRANCH   3  13
BRANCH   4  38
ATOM     38  N30 7XG d   1     -18.875 -25.441  21.956  0.00  0.00    -0.072 N 
ATOM     39  H32 7XG d   1     -18.995 -24.577  21.451  0.00  0.00     0.279 HD
BRANCH  38  40
ATOM     40  C22 7XG d   1     -19.111 -26.551  20.996  0.00  0.00     0.066 C 
ATOM     41  H19 7XG d   1     -20.136 -26.483  20.602  0.00  0.00     0.068 H 
ATOM     42  H20 7XG d   1     -18.979 -27.515  21.510  0.00  0.00     0.068 H 
ATOM     43  H21 7XG d   1     -18.393 -26.477  20.166  0.00  0.00     0.068 H 
ENDBRANCH  38  40
BRANCH  38  44
ATOM     44  C23 7XG d   1     -19.901 -25.508  23.032  0.00  0.00     0.066 C 
ATOM     45  H22 7XG d   1     -19.735 -24.690  23.748  0.00  0.00     0.068 H 
ATOM     46  H23 7XG d   1     -19.823 -26.473  23.553  0.00  0.00     0.068 H 
ATOM     47  H24 7XG d   1     -20.903 -25.410  22.590  0.00  0.00     0.068 H 
ENDBRANCH  38  44
ENDBRANCH   4  38
BRANCH   5  48
ATOM     48  C24 7XG d   1     -14.178 -24.506  21.240  0.00  0.00     0.110 C 
ATOM     49  H25 7XG d   1     -14.559 -24.260  20.238  0.00  0.00     0.083 H 
ATOM     50  H26 7XG d   1     -13.591 -23.660  21.627  0.00  0.00     0.083 H 
BRANCH  48  51
ATOM     51  C14 7XG d   1     -13.298 -25.707  21.145  0.00  0.00     0.012 A 
ATOM     52  C13 7XG d   1     -12.307 -25.964  22.078  0.00  0.00    -0.051 A 
ATOM     53  C6  7XG d   1     -11.524 -27.089  21.937  0.00  0.00    -0.076 A 
ATOM     54  C1  7XG d   1     -11.705 -27.963  20.883  0.00  0.00    -0.080 A 
ATOM     55  H6  7XG d   1     -10.750 -27.292  22.668  0.00  0.00     0.084 H 
ATOM     56  C7  7XG d   1     -12.687 -27.711  19.953  0.00  0.00    -0.045 A 
ATOM     57  H1  7XG d   1     -11.077 -28.842  20.789  0.00  0.00     0.083 H 
ATOM     58  C15 7XG d   1     -13.474 -26.587  20.090  0.00  0.00     0.124 A 
ATOM     59  H7  7XG d   1     -12.841 -28.389  19.121  0.00  0.00     0.088 H 
ATOM     60  F32 7XG d   1     -14.430 -26.388  19.158  0.00  0.00    -0.205 F 
BRANCH  52  61
ATOM     61  C21 7XG d   1     -12.005 -25.099  23.269  0.00  0.00    -0.051 C 
ATOM     62  H16 7XG d   1     -11.172 -25.537  23.839  0.00  0.00     0.033 H 
ATOM     63  H17 7XG d   1     -12.896 -25.035  23.911  0.00  0.00     0.033 H 
ATOM     64  H18 7XG d   1     -11.726 -24.091  22.929  0.00  0.00     0.033 H 
ENDBRANCH  52  61
ENDBRANCH  48  51
ENDBRANCH   5  48
TORSDOF 10
