REMARK  17 active torsions:
REMARK  status: ('A' for Active; 'I' for Inactive)
REMARK    1  A    between atoms: N_1  and  CA_2 
REMARK    2  A    between atoms: CA_2  and  C_3 
REMARK    3  A    between atoms: CA_2  and  CB_5 
REMARK       I    between atoms: C_3  and  N_12 
REMARK    4  A    between atoms: CB_5  and  CG_6 
REMARK    5  A    between atoms: N_12  and  CA_13 
REMARK    6  A    between atoms: CA_13  and  C_14 
REMARK    7  A    between atoms: CA_13  and  CB_16 
REMARK       I    between atoms: C_14  and  N_19 
REMARK    8  A    between atoms: CB_16  and  CG1_17 
REMARK    9  A    between atoms: CB_16  and  CG2_18 
REMARK   10  A    between atoms: CA_20  and  C_21 
REMARK       I    between atoms: C_21  and  N_26 
REMARK   11  A    between atoms: CA_27  and  C_28 
REMARK       I    between atoms: C_28  and  N_33 
REMARK   12  A    between atoms: N_33  and  CA_34 
REMARK   13  A    between atoms: CA_34  and  CB_35 
REMARK   14  A    between atoms: CA_34  and  C_37 
REMARK   15  A    between atoms: CB_35  and  OG_36 
REMARK   16  A    between atoms: OG_36  and  P_39 
REMARK       I    between atoms: C_37  and  N_43 
REMARK   17  A    between atoms: CA_44  and  C_45 
ROOT
ATOM      1  C   VAL d   1      21.420  86.400  41.263  0.00  0.00     0.243 C 
ATOM      2  O   VAL d   1      21.981  85.509  41.920  0.00  0.00    -0.271 OA
ATOM      3  N   PRO d   1      21.965  86.899  40.158  0.00  0.00    -0.337 N 
ATOM      4  CA  PRO d   1      23.281  86.441  39.704  0.00  0.00     0.092 C 
ATOM      5  CB  PRO d   1      23.419  87.088  38.318  0.00  0.00    -0.036 C 
ATOM      6  CG  PRO d   1      22.555  88.301  38.390  0.00  0.00    -0.048 C 
ATOM      7  CD  PRO d   1      21.391  87.918  39.261  0.00  0.00    -0.001 C 
ATOM      8  H21 PRO d   1      23.314  85.344  39.630  0.00  0.00     0.087 H 
ATOM      9  H22 PRO d   1      23.066  86.404  37.532  0.00  0.00     0.036 H 
ATOM     10  H23 PRO d   1      24.465  87.366  38.120  0.00  0.00     0.036 H 
ATOM     11  H24 PRO d   1      22.206  88.584  37.386  0.00  0.00     0.035 H 
ATOM     12  H25 PRO d   1      23.108  89.141  38.836  0.00  0.00     0.035 H 
ATOM     13  H26 PRO d   1      21.023  88.784  39.831  0.00  0.00     0.064 H 
ATOM     14  H27 PRO d   1      20.570  87.498  38.661  0.00  0.00     0.064 H 
ENDROOT
BRANCH   4  15
ATOM     15  C   PRO d   1      24.371  86.917  40.647  0.00  0.00     0.243 C 
ATOM     16  O   PRO d   1      24.156  87.849  41.437  0.00  0.00    -0.271 OA
ATOM     17  N   PRO d   1      25.564  86.302  40.598  0.00  0.00    -0.337 N 
ATOM     18  CA  PRO d   1      26.661  86.741  41.465  0.00  0.00     0.091 C 
ATOM     19  CD  PRO d   1      25.924  85.104  39.819  0.00  0.00    -0.001 C 
ATOM     20  CB  PRO d   1      27.674  85.600  41.348  0.00  0.00    -0.036 C 
ATOM     21  H28 PRO d   1      26.312  86.848  42.502  0.00  0.00     0.087 H 
ATOM     22  CG  PRO d   1      27.412  85.011  40.008  0.00  0.00    -0.048 C 
ATOM     23  H29 PRO d   1      27.513  84.853  42.140  0.00  0.00     0.036 H 
ATOM     24  H30 PRO d   1      28.703  85.984  41.410  0.00  0.00     0.036 H 
ATOM     25  H31 PRO d   1      27.739  83.961  39.978  0.00  0.00     0.035 H 
ATOM     26  H32 PRO d   1      27.936  85.581  39.227  0.00  0.00     0.035 H 
ATOM     27  H33 PRO d   1      25.668  85.232  38.757  0.00  0.00     0.064 H 
ATOM     28  H34 PRO d   1      25.419  84.210  40.213  0.00  0.00     0.064 H 
BRANCH  18  29
ATOM     29  C   PRO d   1      27.273  88.061  41.011  0.00  0.00     0.241 C 
ATOM     30  O   PRO d   1      27.262  88.373  39.819  0.00  0.00    -0.271 OA
ATOM     31  N   SEP d   1      27.798  88.825  41.963  0.00  0.00    -0.344 N 
ATOM     32  H35 SEP d   1      27.773  88.504  42.910  0.00  0.00     0.163 HD
BRANCH  31  33
ATOM     33  CA  SEP d   1      28.409  90.117  41.672  0.00  0.00     0.110 C 
ATOM     34  H36 SEP d   1      27.742  90.672  40.996  0.00  0.00     0.090 H 
BRANCH  33  35
ATOM     35  CB  SEP d   1      28.576  90.920  42.962  0.00  0.00     0.059 C 
ATOM     36  H37 SEP d   1      28.851  91.955  42.711  0.00  0.00     0.079 H 
ATOM     37  H38 SEP d   1      29.372  90.466  43.570  0.00  0.00     0.079 H 
BRANCH  35  38
ATOM     38  OG  SEP d   1      27.370  90.925  43.703  0.00  0.00    -0.280 OA
BRANCH  38  39
ATOM     39  P   SEP d   1      27.659  90.650  45.262  0.00  0.00     0.422 P 
ATOM     40  O1P SEP d   1      27.652  89.064  45.530  0.00  0.00    -0.617 OA
ATOM     41  O2P SEP d   1      29.086  91.262  45.672  0.00  0.00    -0.617 OA
ATOM     42  O3P SEP d   1      26.506  91.353  46.137  0.00  0.00    -0.617 OA
ENDBRANCH  38  39
ENDBRANCH  35  38
ENDBRANCH  33  35
BRANCH  33  43
ATOM     43  C   SEP d   1      29.758  89.949  40.984  0.00  0.00     0.245 C 
ATOM     44  O   SEP d   1      30.558  89.100  41.378  0.00  0.00    -0.271 OA
ATOM     45  N   PRO d   1      30.014  90.764  39.951  0.00  0.00    -0.336 N 
ATOM     46  CA  PRO d   1      31.268  90.703  39.192  0.00  0.00     0.098 C 
ATOM     47  CD  PRO d   1      29.115  91.815  39.443  0.00  0.00    -0.001 C 
ATOM     48  CB  PRO d   1      31.032  91.696  38.051  0.00  0.00    -0.035 C 
ATOM     49  H39 PRO d   1      31.428  89.688  38.799  0.00  0.00     0.089 H 
ATOM     50  CG  PRO d   1      30.026  92.652  38.595  0.00  0.00    -0.048 C 
ATOM     51  H40 PRO d   1      30.639  91.181  37.162  0.00  0.00     0.036 H 
ATOM     52  H41 PRO d   1      31.964  92.218  37.790  0.00  0.00     0.036 H 
ATOM     53  H42 PRO d   1      29.464  93.129  37.778  0.00  0.00     0.035 H 
ATOM     54  H43 PRO d   1      30.517  93.426  39.203  0.00  0.00     0.035 H 
ATOM     55  H44 PRO d   1      28.689  92.405  40.268  0.00  0.00     0.064 H 
ATOM     56  H45 PRO d   1      28.301  91.383  38.843  0.00  0.00     0.064 H 
BRANCH  46  57
ATOM     57  C   PRO d   1      32.485  91.108  40.020  0.00  0.00     0.196 C 
ATOM     58  O   PRO d   1      32.320  91.714  41.079  0.00  0.00    -0.646 OA
ATOM     59  OXT PRO d   1      33.612  90.822  39.616  0.00  0.00    -0.646 OA
ENDBRANCH  46  57
ENDBRANCH  33  43
ENDBRANCH  31  33
ENDBRANCH  18  29
ENDBRANCH   4  15
BRANCH   1  60
ATOM     60  CA  VAL d   1      20.073  86.944  41.732  0.00  0.00     0.092 C 
ATOM     61  H13 VAL d   1      19.661  87.596  40.948  0.00  0.00     0.088 H 
BRANCH  60  62
ATOM     62  N   VAL d   1      19.157  85.820  41.944  0.00  0.00    -0.346 N 
ATOM     63  C   PHE d   1      18.529  85.241  40.929  0.00  0.00     0.249 C 
ATOM     64  O   PHE d   1      18.672  85.603  39.762  0.00  0.00    -0.271 OA
ATOM     65  H12 VAL d   1      19.002  85.483  42.873  0.00  0.00     0.163 HD
BRANCH  63  66
ATOM     66  CA  PHE d   1      17.585  84.093  41.292  0.00  0.00     0.179 C 
ATOM     67  H4  PHE d   1      17.627  83.950  42.382  0.00  0.00     0.099 H 
BRANCH  66  68
ATOM     68  N   PHE d   1      16.207  84.409  40.932  0.00  0.00    -0.066 N 
ATOM     69  H1  PHE d   1      15.609  83.637  41.182  0.00  0.00     0.275 HD
ATOM     70  H2  PHE d   1      16.148  84.572  39.939  0.00  0.00     0.275 HD
ATOM     71  H3  PHE d   1      15.912  85.236  41.426  0.00  0.00     0.275 HD
ENDBRANCH  66  68
BRANCH  66  72
ATOM     72  CB  PHE d   1      18.036  82.785  40.621  0.00  0.00    -0.006 C 
ATOM     73  H5  PHE d   1      17.393  81.971  40.987  0.00  0.00     0.043 H 
ATOM     74  H6  PHE d   1      19.078  82.589  40.914  0.00  0.00     0.043 H 
BRANCH  72  75
ATOM     75  CG  PHE d   1      17.964  82.803  39.116  0.00  0.00    -0.056 A 
ATOM     76  CD1 PHE d   1      16.749  82.667  38.460  0.00  0.00    -0.077 A 
ATOM     77  CE1 PHE d   1      16.685  82.678  37.079  0.00  0.00    -0.082 A 
ATOM     78  H7  PHE d   1      15.839  82.551  39.037  0.00  0.00     0.084 H 
ATOM     79  CZ  PHE d   1      17.841  82.815  36.337  0.00  0.00    -0.083 A 
ATOM     80  H9  PHE d   1      15.728  82.579  36.579  0.00  0.00     0.083 H 
ATOM     81  CE2 PHE d   1      19.059  82.943  36.977  0.00  0.00    -0.082 A 
ATOM     82  H11 PHE d   1      17.793  82.822  35.254  0.00  0.00     0.083 H 
ATOM     83  CD2 PHE d   1      19.117  82.931  38.358  0.00  0.00    -0.077 A 
ATOM     84  H10 PHE d   1      19.968  83.053  36.397  0.00  0.00     0.083 H 
ATOM     85  H8  PHE d   1      20.076  83.023  38.854  0.00  0.00     0.084 H 
ENDBRANCH  72  75
ENDBRANCH  66  72
ENDBRANCH  63  66
ENDBRANCH  60  62
BRANCH  60  86
ATOM     86  CB  VAL d   1      20.227  87.763  43.009  0.00  0.00    -0.033 C 
ATOM     87  H14 VAL d   1      20.582  87.099  43.811  0.00  0.00     0.042 H 
BRANCH  86  88
ATOM     88  CG1 VAL d   1      21.251  88.870  42.808  0.00  0.00    -0.071 C 
ATOM     89  H15 VAL d   1      21.350  89.451  43.737  0.00  0.00     0.028 H 
ATOM     90  H16 VAL d   1      20.920  89.533  41.995  0.00  0.00     0.028 H 
ATOM     91  H17 VAL d   1      22.223  88.427  42.547  0.00  0.00     0.028 H 
ENDBRANCH  86  88
BRANCH  86  92
ATOM     92  CG2 VAL d   1      18.890  88.345  43.421  0.00  0.00    -0.071 C 
ATOM     93  H18 VAL d   1      18.163  87.531  43.562  0.00  0.00     0.028 H 
ATOM     94  H19 VAL d   1      18.529  89.027  42.637  0.00  0.00     0.028 H 
ATOM     95  H20 VAL d   1      19.006  88.899  44.364  0.00  0.00     0.028 H 
ENDBRANCH  86  92
ENDBRANCH  60  86
ENDBRANCH   1  60
TORSDOF 17
