REMARK  3 active torsions:
REMARK  status: ('A' for Active; 'I' for Inactive)
REMARK    1  A    between atoms: C02_10  and  C01_9 
REMARK    2  A    between atoms: N09_17  and  C23_26 
REMARK    3  A    between atoms: C19_23  and  N22_25 
ROOT
ATOM      1  C10 7WY d   1     -18.263  -4.515  -8.336  0.00  0.00     0.048 A 
ATOM      2  C13 7WY d   1     -19.408  -2.747  -6.513  0.00  0.00    -0.071 A 
ATOM      3  C15 7WY d   1     -19.457  -3.832  -8.671  0.00  0.00    -0.045 A 
ATOM      4  C17 7WY d   1     -22.009  -2.836  -9.115  0.00  0.00    -0.067 A 
ATOM      5  C21 7WY d   1     -21.566  -1.101  -7.520  0.00  0.00     0.015 A 
ATOM      6  C02 7WY d   1     -15.417  -4.425  -5.813  0.00  0.00     0.077 A 
ATOM      7  C03 7WY d   1     -16.439  -4.971  -6.665  0.00  0.00     0.087 A 
ATOM      8  N04 7WY d   1     -16.053  -6.183  -6.964  0.00  0.00    -0.270 N 
ATOM      9  N05 7WY d   1     -14.842  -6.433  -6.351  0.00  0.00     0.005 NA
ATOM     10  N06 7WY d   1     -14.475  -5.354  -5.664  0.00  0.00    -0.163 NA
ATOM     11  C07 7WY d   1     -16.952  -7.038  -7.695  0.00  0.00     0.029 C 
ATOM     12  C08 7WY d   1     -17.048  -6.653  -9.154  0.00  0.00     0.017 C 
ATOM     13  N09 7WY d   1     -17.670  -5.377  -9.351  0.00  0.00    -0.344 N 
ATOM     14  C11 7WY d   1     -17.641  -4.321  -7.127  0.00  0.00     0.021 A 
ATOM     15  C12 7WY d   1     -18.234  -3.423  -6.185  0.00  0.00    -0.068 A 
ATOM     16  C14 7WY d   1     -20.028  -2.954  -7.754  0.00  0.00    -0.022 A 
ATOM     17  C16 7WY d   1     -21.196  -2.296  -8.115  0.00  0.00    -0.008 A 
ATOM     18  C18 7WY d   1     -23.171  -2.174  -9.487  0.00  0.00    -0.038 A 
ATOM     19  C19 7WY d   1     -23.503  -0.978  -8.858  0.00  0.00     0.120 A 
ATOM     20  N20 7WY d   1     -22.702  -0.478  -7.900  0.00  0.00    -0.243 NA
ATOM     21  H1  7WY d   1     -19.846  -2.055  -5.803  0.00  0.00     0.084 H 
ATOM     22  H2  7WY d   1     -19.924  -3.992  -9.636  0.00  0.00     0.088 H 
ATOM     23  H3  7WY d   1     -21.734  -3.767  -9.598  0.00  0.00     0.085 H 
ATOM     24  H4  7WY d   1     -20.942  -0.665  -6.748  0.00  0.00     0.116 H 
ATOM     25  H10 7WY d   1     -17.953  -6.968  -7.244  0.00  0.00     0.069 H 
ATOM     26  H11 7WY d   1     -16.590  -8.074  -7.625  0.00  0.00     0.069 H 
ATOM     27  H12 7WY d   1     -17.638  -7.417  -9.681  0.00  0.00     0.067 H 
ATOM     28  H13 7WY d   1     -16.033  -6.618  -9.576  0.00  0.00     0.067 H 
ATOM     29  H14 7WY d   1     -17.771  -3.268  -5.217  0.00  0.00     0.085 H 
ATOM     30  H15 7WY d   1     -23.812  -2.584 -10.259  0.00  0.00     0.089 H 
ENDROOT
BRANCH  13  31
ATOM     31  C23 7WY d   1     -17.528  -4.820 -10.667  0.00  0.00     0.035 A 
ATOM     32  C24 7WY d   1     -17.248  -3.463 -10.847  0.00  0.00    -0.055 A 
ATOM     33  C25 7WY d   1     -17.046  -2.949 -12.129  0.00  0.00    -0.060 A 
ATOM     34  H5  7WY d   1     -17.187  -2.806  -9.987  0.00  0.00     0.087 H 
ATOM     35  C26 7WY d   1     -17.116  -3.797 -13.230  0.00  0.00     0.034 A 
ATOM     36  H18 7WY d   1     -16.836  -1.895 -12.266  0.00  0.00     0.086 H 
ATOM     37  C27 7WY d   1     -17.386  -5.146 -13.057  0.00  0.00    -0.060 A 
ATOM     38 CL   7WY d   1     -16.863  -3.183 -14.841  0.00  0.00    -0.084 Cl
ATOM     39  C28 7WY d   1     -17.593  -5.659 -11.777  0.00  0.00    -0.055 A 
ATOM     40  H19 7WY d   1     -17.436  -5.803 -13.918  0.00  0.00     0.086 H 
ATOM     41  H6  7WY d   1     -17.805  -6.714 -11.645  0.00  0.00     0.087 H 
ENDBRANCH  13  31
BRANCH  19  42
ATOM     42  N22 7WY d   1     -24.691  -0.285  -9.226  0.00  0.00    -0.384 N 
ATOM     43  H16 7WY d   1     -24.936   0.600  -8.760  0.00  0.00     0.157 HD
ATOM     44  H17 7WY d   1     -25.305  -0.669  -9.958  0.00  0.00     0.157 HD
ENDBRANCH  19  42
BRANCH   6  45
ATOM     45  C01 7WY d   1     -15.350  -3.056  -5.182  0.00  0.00    -0.032 C 
ATOM     46  H7  7WY d   1     -14.428  -2.970  -4.589  0.00  0.00     0.035 H 
ATOM     47  H8  7WY d   1     -16.222  -2.911  -4.527  0.00  0.00     0.035 H 
ATOM     48  H9  7WY d   1     -15.352  -2.288  -5.970  0.00  0.00     0.035 H 
ENDBRANCH   6  45
TORSDOF 3
