REMARK  10 active torsions:
REMARK  status: ('A' for Active; 'I' for Inactive)
REMARK    1  A    between atoms: N3_1  and  C9_6 
REMARK    2  A    between atoms: C4_2  and  C2_15 
REMARK    3  A    between atoms: C5_17  and  C4_2 
REMARK    4  A    between atoms: O1_22  and  C13_7 
REMARK    5  A    between atoms: N4_27  and  C20_8 
REMARK    6  A    between atoms: C16_12  and  O2_26 
REMARK    7  A    between atoms: O2_26  and  C19_13 
REMARK    8  A    between atoms: C2_15  and  C1_14 
REMARK    9  A    between atoms: C2_15  and  C3_16 
REMARK   10  A    between atoms: C11_20  and  O1_22 
ROOT
ATOM      1  N2  7XS d   1       8.473  -5.479  -9.095  0.00  0.00    -0.223 NA
ATOM      2  C7  7XS d   1       6.440  -4.302  -7.729  0.00  0.00     0.163 A 
ATOM      3  C6  7XS d   1       7.449  -4.877  -6.939  0.00  0.00     0.084 A 
ATOM      4  C9  7XS d   1       8.456  -5.488  -7.753  0.00  0.00     0.143 A 
ATOM      5  C8  7XS d   1       7.433  -4.855  -9.653  0.00  0.00     0.091 A 
ATOM      6  N5  7XS d   1       5.968  -3.884  -5.563  0.00  0.00    -0.175 NA
ATOM      7  C5  7XS d   1       7.080  -4.549  -5.583  0.00  0.00     0.073 A 
ATOM      8  N1  7XS d   1       6.383  -4.277  -9.067  0.00  0.00    -0.222 NA
ATOM      9  N4  7XS d   1       5.568  -3.706  -6.890  0.00  0.00    -0.256 N 
ATOM     10  H6  7XS d   1       7.443  -4.812 -10.736  0.00  0.00     0.146 H 
ENDROOT
BRANCH   4  11
ATOM     11  N3  7XS d   1       9.524  -6.170  -7.252  0.00  0.00    -0.360 N 
ATOM     12  C10 7XS d   1       9.809  -6.859  -5.985  0.00  0.00     0.023 C 
ATOM     13  C11 7XS d   1      10.929  -7.607  -6.716  0.00  0.00     0.076 C 
ATOM     14  H18 7XS d   1       8.993  -7.500  -5.619  0.00  0.00     0.068 H 
ATOM     15  H19 7XS d   1      10.152  -6.201  -5.173  0.00  0.00     0.068 H 
ATOM     16  C12 7XS d   1      10.468  -6.984  -8.038  0.00  0.00     0.023 C 
ATOM     17  H20 7XS d   1      11.965  -7.410  -6.402  0.00  0.00     0.089 H 
ATOM     18  H21 7XS d   1      11.241  -6.407  -8.567  0.00  0.00     0.068 H 
ATOM     19  H22 7XS d   1       9.994  -7.689  -8.737  0.00  0.00     0.068 H 
BRANCH  13  20
ATOM     20  O1  7XS d   1      10.571  -9.025  -6.708  0.00  0.00    -0.343 OA
BRANCH  20  21
ATOM     21  C13 7XS d   1      10.781  -9.821  -5.602  0.00  0.00     0.069 A 
ATOM     22  C18 7XS d   1      10.885 -11.175  -5.885  0.00  0.00    -0.048 A 
ATOM     23  C17 7XS d   1      10.991 -12.090  -4.850  0.00  0.00    -0.048 A 
ATOM     24  H7  7XS d   1      10.883 -11.517  -6.914  0.00  0.00     0.087 H 
ATOM     25  C16 7XS d   1      10.963 -11.652  -3.533  0.00  0.00     0.068 A 
ATOM     26  H25 7XS d   1      11.096 -13.147  -5.068  0.00  0.00     0.087 H 
ATOM     27  C15 7XS d   1      10.887 -10.293  -3.251  0.00  0.00    -0.048 A 
ATOM     28  C14 7XS d   1      10.811  -9.378  -4.286  0.00  0.00    -0.048 A 
ATOM     29  H24 7XS d   1      10.887  -9.951  -2.222  0.00  0.00     0.087 H 
ATOM     30  H23 7XS d   1      10.775  -8.316  -4.070  0.00  0.00     0.087 H 
BRANCH  25  31
ATOM     31  O2  7XS d   1      10.978 -12.671  -2.613  0.00  0.00    -0.356 OA
BRANCH  31  32
ATOM     32  C19 7XS d   1      10.930 -12.342  -1.224  0.00  0.00     0.010 C 
ATOM     33  H8  7XS d   1      10.950 -13.266  -0.627  0.00  0.00     0.066 H 
ATOM     34  H9  7XS d   1      10.005 -11.787  -1.010  0.00  0.00     0.066 H 
ATOM     35  H10 7XS d   1      11.799 -11.719  -0.964  0.00  0.00     0.066 H 
ENDBRANCH  31  32
ENDBRANCH  25  31
ENDBRANCH  20  21
ENDBRANCH  13  20
ENDBRANCH   4  11
BRANCH   7  36
ATOM     36  C4  7XS d   1       7.876  -4.777  -4.322  0.00  0.00    -0.019 C 
ATOM     37  H1  7XS d   1       7.229  -4.543  -3.464  0.00  0.00     0.043 H 
ATOM     38  H2  7XS d   1       8.162  -5.839  -4.287  0.00  0.00     0.043 H 
BRANCH  36  39
ATOM     39  C2  7XS d   1       9.153  -3.937  -4.197  0.00  0.00    -0.056 C 
ATOM     40  H14 7XS d   1       9.772  -4.117  -5.088  0.00  0.00     0.039 H 
BRANCH  39  41
ATOM     41  C1  7XS d   1       8.826  -2.458  -4.131  0.00  0.00    -0.073 C 
ATOM     42  H11 7XS d   1       9.758  -1.880  -4.042  0.00  0.00     0.028 H 
ATOM     43  H12 7XS d   1       8.188  -2.262  -3.257  0.00  0.00     0.028 H 
ATOM     44  H13 7XS d   1       8.295  -2.159  -5.047  0.00  0.00     0.028 H 
ENDBRANCH  39  41
BRANCH  39  45
ATOM     45  C3  7XS d   1       9.949  -4.339  -2.970  0.00  0.00    -0.073 C 
ATOM     46  H15 7XS d   1      10.184  -5.412  -3.021  0.00  0.00     0.028 H 
ATOM     47  H16 7XS d   1       9.356  -4.136  -2.066  0.00  0.00     0.028 H 
ATOM     48  H17 7XS d   1      10.883  -3.760  -2.933  0.00  0.00     0.028 H 
ENDBRANCH  39  45
ENDBRANCH  36  39
ENDBRANCH   7  36
BRANCH   9  49
ATOM     49  C20 7XS d   1       4.398  -2.927  -7.278  0.00  0.00     0.004 C 
ATOM     50  H3  7XS d   1       3.881  -2.568  -6.376  0.00  0.00     0.059 H 
ATOM     51  H4  7XS d   1       3.715  -3.559  -7.865  0.00  0.00     0.059 H 
ATOM     52  H5  7XS d   1       4.715  -2.067  -7.886  0.00  0.00     0.059 H 
ENDBRANCH   9  49
TORSDOF 10
