REMARK  10 active torsions:
REMARK  status: ('A' for Active; 'I' for Inactive)
REMARK    1  A    between atoms: C4_2  and  C2_12 
REMARK    2  A    between atoms: C5_14  and  C4_2 
REMARK    3  A    between atoms: O1_17  and  C7_4 
REMARK    4  A    between atoms: O2_24  and  C18_9 
REMARK    5  A    between atoms: C2_12  and  C1_11 
REMARK    6  A    between atoms: C2_12  and  C3_13 
REMARK    7  A    between atoms: C10_18  and  O1_17 
REMARK    8  A    between atoms: C11_19  and  C10_18 
REMARK    9  A    between atoms: C12_20  and  C11_19 
REMARK   10  A    between atoms: C17_23  and  O2_24 
ROOT
ATOM      1  N3  7XV d   1       7.525   4.378   6.321  0.00  0.00    -0.258 N 
ATOM      2  N2  7XV d   1       5.622   3.240   6.509  0.00  0.00    -0.128 NA
ATOM      3  C7  7XV d   1       8.622   5.047   6.848  0.00  0.00     0.170 A 
ATOM      4  C6  7XV d   1       6.587   3.815   7.197  0.00  0.00     0.177 A 
ATOM      5  C9  7XV d   1       6.803   3.892   8.610  0.00  0.00     0.048 A 
ATOM      6  C8  7XV d   1       8.749   5.078   8.249  0.00  0.00     0.051 A 
ATOM      7  C5  7XV d   1       7.044   4.067   5.065  0.00  0.00     0.137 A 
ATOM      8  N1  7XV d   1       5.917   3.408   5.158  0.00  0.00    -0.134 NA
ATOM      9  N4  7XV d   1       7.851   4.494   9.105  0.00  0.00    -0.265 NA
ATOM     10  H3  7XV d   1       6.079   3.439   9.286  0.00  0.00     0.120 H 
ATOM     11  H5  7XV d   1       9.607   5.594   8.677  0.00  0.00     0.121 H 
ENDROOT
BRANCH   3  12
ATOM     12  O1  7XV d   1       9.418   5.611   5.913  0.00  0.00    -0.334 OA
BRANCH  12  13
ATOM     13  C10 7XV d   1      10.461   6.510   6.381  0.00  0.00     0.031 C 
ATOM     14  H17 7XV d   1      11.159   5.960   7.030  0.00  0.00     0.075 H 
ATOM     15  H18 7XV d   1      10.008   7.337   6.948  0.00  0.00     0.075 H 
BRANCH  13  16
ATOM     16  C11 7XV d   1      11.207   7.062   5.187  0.00  0.00    -0.018 C 
ATOM     17  H19 7XV d   1      11.467   6.218   4.531  0.00  0.00     0.043 H 
ATOM     18  H20 7XV d   1      12.128   7.538   5.554  0.00  0.00     0.043 H 
BRANCH  16  19
ATOM     19  C12 7XV d   1      10.453   8.084   4.355  0.00  0.00    -0.023 A 
ATOM     20  C13 7XV d   1      10.053   7.749   3.064  0.00  0.00    -0.074 A 
ATOM     21  C14 7XV d   1       9.519   8.700   2.211  0.00  0.00    -0.082 A 
ATOM     22  H4  7XV d   1      10.162   6.726   2.721  0.00  0.00     0.084 H 
ATOM     23  C15 7XV d   1       9.332   9.993   2.647  0.00  0.00    -0.080 A 
ATOM     24  H21 7XV d   1       9.248   8.426   1.198  0.00  0.00     0.083 H 
ATOM     25  C16 7XV d   1       9.692  10.350   3.935  0.00  0.00    -0.050 A 
ATOM     26  H22 7XV d   1       8.902  10.732   1.981  0.00  0.00     0.083 H 
ATOM     27  C17 7XV d   1      10.275   9.406   4.778  0.00  0.00     0.074 A 
ATOM     28  H9  7XV d   1       9.521  11.361   4.287  0.00  0.00     0.087 H 
BRANCH  27  29
ATOM     29  O2  7XV d   1      10.775   9.700   6.019  0.00  0.00    -0.355 OA
BRANCH  29  30
ATOM     30  C18 7XV d   1      10.809  11.073   6.422  0.00  0.00     0.010 C 
ATOM     31  H6  7XV d   1      11.233  11.148   7.434  0.00  0.00     0.066 H 
ATOM     32  H7  7XV d   1       9.787  11.481   6.422  0.00  0.00     0.066 H 
ATOM     33  H8  7XV d   1      11.432  11.646   5.720  0.00  0.00     0.066 H 
ENDBRANCH  29  30
ENDBRANCH  27  29
ENDBRANCH  16  19
ENDBRANCH  13  16
ENDBRANCH  12  13
ENDBRANCH   3  12
BRANCH   7  34
ATOM     34  C4  7XV d   1       7.789   4.356   3.798  0.00  0.00    -0.005 C 
ATOM     35  H1  7XV d   1       7.085   4.266   2.958  0.00  0.00     0.045 H 
ATOM     36  H2  7XV d   1       8.167   5.388   3.850  0.00  0.00     0.045 H 
BRANCH  34  37
ATOM     37  C2  7XV d   1       8.972   3.429   3.529  0.00  0.00    -0.055 C 
ATOM     38  H13 7XV d   1       9.646   3.471   4.397  0.00  0.00     0.039 H 
BRANCH  37  39
ATOM     39  C1  7XV d   1       8.519   1.998   3.349  0.00  0.00    -0.073 C 
ATOM     40  H10 7XV d   1       9.393   1.358   3.157  0.00  0.00     0.028 H 
ATOM     41  H11 7XV d   1       7.826   1.937   2.497  0.00  0.00     0.028 H 
ATOM     42  H12 7XV d   1       8.008   1.657   4.262  0.00  0.00     0.028 H 
ENDBRANCH  37  39
BRANCH  37  43
ATOM     43  C3  7XV d   1       9.735   3.890   2.310  0.00  0.00    -0.073 C 
ATOM     44  H14 7XV d   1      10.059   4.931   2.453  0.00  0.00     0.028 H 
ATOM     45  H15 7XV d   1       9.085   3.826   1.425  0.00  0.00     0.028 H 
ATOM     46  H16 7XV d   1      10.617   3.248   2.165  0.00  0.00     0.028 H 
ENDBRANCH  37  43
ENDBRANCH  34  37
ENDBRANCH   7  34
TORSDOF 10
