REMARK  9 active torsions:
REMARK  status: ('A' for Active; 'I' for Inactive)
REMARK    1  A    between atoms: C21_6  and  C24_27 
REMARK    2  A    between atoms: C24_27  and  C26_9 
REMARK    3  A    between atoms: C25_11  and  C27_10 
REMARK    4  A    between atoms: C23_12  and  C25_11 
REMARK    5  A    between atoms: O18_13  and  C23_12 
REMARK    6  A    between atoms: C10_14  and  O18_13 
REMARK    7  A    between atoms: C2_20  and  C1_19 
REMARK    8  A    between atoms: N11_22  and  C22_23 
REMARK    9  A    between atoms: C5_24  and  C14_25 
ROOT
ATOM      1  C9  7Y1 d   1     -12.891  19.412 -23.047  0.00  0.00     0.038 A 
ATOM      2  C2  7Y1 d   1     -11.661  19.923 -23.437  0.00  0.00     0.061 A 
ATOM      3  N8  7Y1 d   1     -13.110  19.803 -21.762  0.00  0.00    -0.184 NA
ATOM      4  N11 7Y1 d   1     -11.962  20.499 -21.389  0.00  0.00    -0.273 N 
ATOM      5  C5  7Y1 d   1     -11.044  20.543 -22.357  0.00  0.00     0.078 A 
ATOM      6  H1  7Y1 d   1     -13.560  18.808 -23.658  0.00  0.00     0.119 H 
ENDROOT
BRANCH   2   7
ATOM      7  C1  7Y1 d   1     -11.157  19.527 -24.827  0.00  0.00     0.174 A 
ATOM      8  N3  7Y1 d   1     -11.735  19.794 -26.023  0.00  0.00    -0.254 N 
ATOM      9  C6  7Y1 d   1     -10.994  19.144 -26.957  0.00  0.00     0.177 A 
ATOM     10  C10 7Y1 d   1     -12.778  20.562 -26.414  0.00  0.00     0.170 A 
ATOM     11  C15 7Y1 d   1     -11.331  19.249 -28.307  0.00  0.00     0.048 A 
ATOM     12  N7  7Y1 d   1      -9.991  18.463 -26.349  0.00  0.00    -0.128 NA
ATOM     13  N12 7Y1 d   1     -12.374  20.008 -28.652  0.00  0.00    -0.265 NA
ATOM     14  H16 7Y1 d   1     -10.754  18.722 -29.065  0.00  0.00     0.120 H 
ATOM     15  C13 7Y1 d   1     -13.121  20.655 -27.750  0.00  0.00     0.051 A 
ATOM     16  H2  7Y1 d   1     -13.982  21.244 -28.062  0.00  0.00     0.121 H 
ATOM     17  N4  7Y1 d   1     -10.112  18.684 -24.958  0.00  0.00    -0.128 NA
BRANCH  10  18
ATOM     18  O18 7Y1 d   1     -13.521  21.255 -25.504  0.00  0.00    -0.334 OA
BRANCH  18  19
ATOM     19  C23 7Y1 d   1     -13.758  22.635 -25.768  0.00  0.00     0.027 C 
ATOM     20  H14 7Y1 d   1     -12.869  23.067 -26.252  0.00  0.00     0.075 H 
ATOM     21  H15 7Y1 d   1     -14.623  22.729 -26.440  0.00  0.00     0.075 H 
BRANCH  19  22
ATOM     22  C25 7Y1 d   1     -14.041  23.390 -24.488  0.00  0.00    -0.048 C 
ATOM     23  H12 7Y1 d   1     -14.930  24.021 -24.631  0.00  0.00     0.035 H 
ATOM     24  H13 7Y1 d   1     -14.230  22.669 -23.679  0.00  0.00     0.035 H 
BRANCH  22  25
ATOM     25  C27 7Y1 d   1     -12.873  24.262 -24.109  0.00  0.00    -0.075 C 
ATOM     26  H9  7Y1 d   1     -13.104  24.799 -23.177  0.00  0.00     0.027 H 
ATOM     27  H10 7Y1 d   1     -12.681  24.988 -24.913  0.00  0.00     0.027 H 
ATOM     28  H11 7Y1 d   1     -11.981  23.636 -23.960  0.00  0.00     0.027 H 
ENDBRANCH  22  25
ENDBRANCH  19  22
ENDBRANCH  18  19
ENDBRANCH  10  18
ENDBRANCH   2   7
BRANCH   5  29
ATOM     29  C14 7Y1 d   1      -9.747  21.211 -22.260  0.00  0.00    -0.007 A 
ATOM     30  C16 7Y1 d   1      -8.764  20.663 -21.464  0.00  0.00    -0.070 A 
ATOM     31  C19 7Y1 d   1      -7.535  21.289 -21.352  0.00  0.00    -0.076 A 
ATOM     32  H4  7Y1 d   1      -8.954  19.741 -20.926  0.00  0.00     0.084 H 
ATOM     33  C21 7Y1 d   1      -7.284  22.448 -22.072  0.00  0.00    -0.059 A 
ATOM     34  H5  7Y1 d   1      -6.771  20.875 -20.704  0.00  0.00     0.084 H 
ATOM     35  C20 7Y1 d   1      -8.287  22.993 -22.865  0.00  0.00    -0.076 A 
ATOM     36  C17 7Y1 d   1      -9.533  22.380 -22.969  0.00  0.00    -0.070 A 
ATOM     37  H3  7Y1 d   1      -8.096  23.910 -23.411  0.00  0.00     0.084 H 
ATOM     38  H20 7Y1 d   1     -10.314  22.807 -23.588  0.00  0.00     0.084 H 
BRANCH  33  39
ATOM     39  C24 7Y1 d   1      -5.947  23.137 -21.957  0.00  0.00    -0.044 C 
ATOM     40  H21 7Y1 d   1      -5.601  23.464 -22.949  0.00  0.00     0.039 H 
ATOM     41  H22 7Y1 d   1      -5.205  22.456 -21.516  0.00  0.00     0.039 H 
BRANCH  39  42
ATOM     42  C26 7Y1 d   1      -6.161  24.340 -21.051  0.00  0.00    -0.073 C 
ATOM     43  H6  7Y1 d   1      -5.212  24.883 -20.932  0.00  0.00     0.028 H 
ATOM     44  H7  7Y1 d   1      -6.515  23.999 -20.067  0.00  0.00     0.028 H 
ATOM     45  H8  7Y1 d   1      -6.911  25.008 -21.499  0.00  0.00     0.028 H 
ENDBRANCH  39  42
ENDBRANCH  33  39
ENDBRANCH   5  29
BRANCH   4  46
ATOM     46  C22 7Y1 d   1     -11.993  21.009 -20.006  0.00  0.00     0.003 C 
ATOM     47  H17 7Y1 d   1     -11.056  21.543 -19.791  0.00  0.00     0.059 H 
ATOM     48  H18 7Y1 d   1     -12.104  20.167 -19.307  0.00  0.00     0.059 H 
ATOM     49  H19 7Y1 d   1     -12.843  21.698 -19.888  0.00  0.00     0.059 H 
ENDBRANCH   4  46
TORSDOF 9
