REMARK  10 active torsions:
REMARK  status: ('A' for Active; 'I' for Inactive)
REMARK    1  A    between atoms: C11_17  and  C9_4 
REMARK    2  A    between atoms: N29_29  and  C20_6 
REMARK    3  A    between atoms: N30_30  and  C21_7 
REMARK    4  A    between atoms: C12_18  and  C8_8 
REMARK    5  A    between atoms: C18_9  and  N32_32 
REMARK    6  A    between atoms: C24_24  and  C19_11 
REMARK    7  A    between atoms: C10_16  and  C24_24 
REMARK    8  A    between atoms: C14_19  and  N31_31 
REMARK    9  A    between atoms: N32_32  and  C22_22 
REMARK   10  A    between atoms: N32_32  and  C23_23 
ROOT
ATOM      1  C7  7Y4 d   1      14.244   3.485  18.070  0.00  0.00     0.083 A 
ATOM      2  C6  7Y4 d   1      14.325   3.692  15.454  0.00  0.00     0.090 A 
ATOM      3  C13 7Y4 d   1      15.303   3.033  17.292  0.00  0.00     0.163 A 
ATOM      4  C11 7Y4 d   1      14.648   3.127  19.398  0.00  0.00     0.108 A 
ATOM      5  C14 7Y4 d   1      13.168   4.105  17.416  0.00  0.00     0.123 A 
ATOM      6  N26 7Y4 d   1      15.407   3.103  15.971  0.00  0.00    -0.222 NA
ATOM      7  N27 7Y4 d   1      13.246   4.193  16.074  0.00  0.00    -0.229 NA
ATOM      8  N28 7Y4 d   1      15.833   2.528  19.431  0.00  0.00    -0.169 NA
ATOM      9  N30 7Y4 d   1      16.232   2.501  18.149  0.00  0.00    -0.255 N 
ATOM     10  H2  7Y4 d   1      14.318   3.778  14.373  0.00  0.00     0.146 H 
ENDROOT
BRANCH   4  11
ATOM     11  C9  7Y4 d   1      13.917   3.193  20.644  0.00  0.00     0.044 A 
ATOM     12  C5  7Y4 d   1      12.742   2.438  20.862  0.00  0.00     0.036 A 
ATOM     13  N25 7Y4 d   1      12.265   2.604  22.105  0.00  0.00    -0.184 NA
ATOM     14  H18 7Y4 d   1      12.280   1.799  20.111  0.00  0.00     0.118 H 
ATOM     15  N29 7Y4 d   1      13.126   3.461  22.666  0.00  0.00    -0.273 N 
ATOM     16  C12 7Y4 d   1      14.155   3.835  21.843  0.00  0.00     0.076 A 
BRANCH  15  17
ATOM     17  C20 7Y4 d   1      12.907   3.861  24.038  0.00  0.00     0.003 C 
ATOM     18  H3  7Y4 d   1      11.990   3.386  24.417  0.00  0.00     0.059 H 
ATOM     19  H4  7Y4 d   1      12.801   4.955  24.089  0.00  0.00     0.059 H 
ATOM     20  H5  7Y4 d   1      13.764   3.547  24.653  0.00  0.00     0.059 H 
ENDBRANCH  15  17
BRANCH  16  21
ATOM     21  C8  7Y4 d   1      15.203   4.712  22.245  0.00  0.00    -0.007 A 
ATOM     22  C1  7Y4 d   1      16.172   4.311  23.138  0.00  0.00    -0.070 A 
ATOM     23  C3  7Y4 d   1      17.178   5.188  23.502  0.00  0.00    -0.076 A 
ATOM     24  H15 7Y4 d   1      16.146   3.311  23.555  0.00  0.00     0.084 H 
ATOM     25  C10 7Y4 d   1      17.190   6.459  22.946  0.00  0.00    -0.059 A 
ATOM     26  H17 7Y4 d   1      17.943   4.888  24.209  0.00  0.00     0.084 H 
ATOM     27  C4  7Y4 d   1      16.217   6.840  22.054  0.00  0.00    -0.076 A 
ATOM     28  C2  7Y4 d   1      15.220   5.969  21.705  0.00  0.00    -0.070 A 
ATOM     29  H1  7Y4 d   1      16.239   7.835  21.625  0.00  0.00     0.084 H 
ATOM     30  H16 7Y4 d   1      14.450   6.273  21.006  0.00  0.00     0.084 H 
BRANCH  25  31
ATOM     31  C24 7Y4 d   1      18.268   7.442  23.286  0.00  0.00    -0.044 C 
ATOM     32  H29 7Y4 d   1      19.130   6.888  23.686  0.00  0.00     0.039 H 
ATOM     33  H30 7Y4 d   1      18.564   7.966  22.365  0.00  0.00     0.039 H 
BRANCH  31  34
ATOM     34  C19 7Y4 d   1      17.847   8.469  24.304  0.00  0.00    -0.073 C 
ATOM     35  H12 7Y4 d   1      18.685   9.153  24.503  0.00  0.00     0.028 H 
ATOM     36  H13 7Y4 d   1      17.557   7.963  25.237  0.00  0.00     0.028 H 
ATOM     37  H14 7Y4 d   1      16.991   9.041  23.916  0.00  0.00     0.028 H 
ENDBRANCH  31  34
ENDBRANCH  25  31
ENDBRANCH  16  21
ENDBRANCH   4  11
BRANCH   5  38
ATOM     38  N31 7Y4 d   1      12.024   4.615  18.094  0.00  0.00    -0.265 NA
ATOM     39  C16 7Y4 d   1      11.068   5.258  17.181  0.00  0.00    -0.013 C 
ATOM     40  C15 7Y4 d   1      10.387   6.354  17.997  0.00  0.00    -0.026 C 
ATOM     41  H10 7Y4 d   1      11.595   5.693  16.319  0.00  0.00     0.056 H 
ATOM     42  H11 7Y4 d   1      10.326   4.527  16.826  0.00  0.00     0.056 H 
ATOM     43  C18 7Y4 d   1      11.449   6.760  18.986  0.00  0.00     0.115 C 
ATOM     44  H19 7Y4 d   1      10.100   7.201  17.357  0.00  0.00     0.037 H 
ATOM     45  H20 7Y4 d   1       9.496   5.966  18.512  0.00  0.00     0.037 H 
ATOM     46  C17 7Y4 d   1      12.356   5.545  19.178  0.00  0.00     0.012 C 
ATOM     47  H9  7Y4 d   1      12.036   7.598  18.582  0.00  0.00     0.086 H 
ATOM     48  H21 7Y4 d   1      12.165   5.077  20.155  0.00  0.00     0.059 H 
ATOM     49  H22 7Y4 d   1      13.413   5.843  19.115  0.00  0.00     0.059 H 
BRANCH  43  50
ATOM     50  N32 7Y4 d   1      10.821   7.186  20.270  0.00  0.00    -0.073 N 
ATOM     51  H31 7Y4 d   1      10.254   6.410  20.575  0.00  0.00     0.279 HD
BRANCH  50  52
ATOM     52  C22 7Y4 d   1      11.806   7.452  21.364  0.00  0.00     0.066 C 
ATOM     53  H23 7Y4 d   1      11.269   7.760  22.274  0.00  0.00     0.068 H 
ATOM     54  H24 7Y4 d   1      12.491   8.255  21.053  0.00  0.00     0.068 H 
ATOM     55  H25 7Y4 d   1      12.382   6.537  21.570  0.00  0.00     0.068 H 
ENDBRANCH  50  52
BRANCH  50  56
ATOM     56  C23 7Y4 d   1       9.905   8.353  20.110  0.00  0.00     0.066 C 
ATOM     57  H26 7Y4 d   1       9.186   8.147  19.304  0.00  0.00     0.068 H 
ATOM     58  H27 7Y4 d   1      10.492   9.248  19.857  0.00  0.00     0.068 H 
ATOM     59  H28 7Y4 d   1       9.362   8.524  21.051  0.00  0.00     0.068 H 
ENDBRANCH  50  56
ENDBRANCH  43  50
ENDBRANCH   5  38
BRANCH   9  60
ATOM     60  C21 7Y4 d   1      17.505   1.859  17.846  0.00  0.00     0.004 C 
ATOM     61  H6  7Y4 d   1      17.992   1.551  18.783  0.00  0.00     0.059 H 
ATOM     62  H7  7Y4 d   1      18.154   2.567  17.310  0.00  0.00     0.059 H 
ATOM     63  H8  7Y4 d   1      17.329   0.974  17.216  0.00  0.00     0.059 H 
ENDBRANCH   9  60
TORSDOF 10
