REMARK  6 active torsions:
REMARK  status: ('A' for Active; 'I' for Inactive)
REMARK    1  A    between atoms: C14_1  and  C12_4 
REMARK       I    between atoms: N16_25  and  C14_1 
REMARK    2  A    between atoms: C12_4  and  C11_2 
REMARK    3  A    between atoms: O02_27  and  C01_5 
REMARK    4  A    between atoms: C03_6  and  O02_27 
REMARK    5  A    between atoms: C21_14  and  C22_15 
REMARK    6  A    between atoms: C23_16  and  C25_17 
REMARK       I    between atoms: C23_16  and  N19_26 
ROOT
ATOM      1  C14 83G d   1     147.199 306.866 -18.003  0.00  0.00     0.295 C 
ATOM      2  C17 83G d   1     148.907 308.429 -18.958  0.00  0.00     0.013 C 
ATOM      3  C18 83G d   1     149.832 309.420 -18.228  0.00  0.00     0.013 C 
ATOM      4  C20 83G d   1     147.923 310.246 -16.841  0.00  0.00     0.017 C 
ATOM      5  C21 83G d   1     146.976 309.339 -17.614  0.00  0.00     0.027 C 
ATOM      6  C23 83G d   1     149.227 311.893 -18.251  0.00  0.00     0.253 C 
ATOM      7  N16 83G d   1     147.697 308.219 -18.182  0.00  0.00    -0.338 N 
ATOM      8  N19 83G d   1     149.000 310.529 -17.767  0.00  0.00    -0.344 N 
ATOM      9  O15 83G d   1     147.791 305.958 -18.477  0.00  0.00    -0.264 OA
ATOM     10  O24 83G d   1     148.539 312.783 -17.878  0.00  0.00    -0.267 OA
ATOM     11  H7  83G d   1     149.429 307.469 -19.086  0.00  0.00     0.067 H 
ATOM     12  H8  83G d   1     148.642 308.837 -19.945  0.00  0.00     0.067 H 
ATOM     13  H9  83G d   1     150.606 309.790 -18.916  0.00  0.00     0.066 H 
ATOM     14  H10 83G d   1     150.311 308.926 -17.370  0.00  0.00     0.066 H 
ATOM     15  H11 83G d   1     148.306 309.734 -15.946  0.00  0.00     0.067 H 
ATOM     16  H12 83G d   1     147.414 311.174 -16.543  0.00  0.00     0.067 H 
ATOM     17  H13 83G d   1     146.199 308.965 -16.931  0.00  0.00     0.074 H 
ENDROOT
BRANCH   1  18
ATOM     18  C12 83G d   1     145.925 306.605 -17.204  0.00  0.00     0.251 C 
ATOM     19  O13 83G d   1     145.878 306.908 -16.060  0.00  0.00    -0.281 OA
BRANCH  18  20
ATOM     20  C11 83G d   1     144.711 305.926 -17.838  0.00  0.00     0.052 A 
ATOM     21  C10 83G d   1     143.845 305.299 -17.084  0.00  0.00    -0.006 A 
ATOM     22  N09 83G d   1     142.944 304.834 -17.870  0.00  0.00    -0.349 N 
ATOM     23  H1  83G d   1     143.882 305.193 -16.001  0.00  0.00     0.112 H 
ATOM     24  C07 83G d   1     143.173 305.133 -19.187  0.00  0.00     0.141 A 
ATOM     25  H22 83G d   1     142.131 304.291 -17.544  0.00  0.00     0.167 HD
ATOM     26  C08 83G d   1     144.406 305.899 -19.179  0.00  0.00     0.059 A 
ATOM     27  N06 83G d   1     142.437 304.802 -20.237  0.00  0.00    -0.242 NA
ATOM     28  C03 83G d   1     144.825 306.310 -20.424  0.00  0.00     0.084 A 
ATOM     29  C04 83G d   1     144.078 305.980 -21.541  0.00  0.00    -0.033 A 
ATOM     30  C05 83G d   1     142.907 305.236 -21.408  0.00  0.00     0.007 A 
ATOM     31  H5  83G d   1     144.405 306.301 -22.523  0.00  0.00     0.090 H 
ATOM     32  H6  83G d   1     142.347 304.997 -22.305  0.00  0.00     0.115 H 
BRANCH  28  33
ATOM     33  O02 83G d   1     145.998 307.060 -20.580  0.00  0.00    -0.355 OA
BRANCH  33  34
ATOM     34  C01 83G d   1     146.294 307.435 -21.897  0.00  0.00     0.010 C 
ATOM     35  H2  83G d   1     147.228 308.016 -21.912  0.00  0.00     0.066 H 
ATOM     36  H3  83G d   1     145.474 308.049 -22.297  0.00  0.00     0.066 H 
ATOM     37  H4  83G d   1     146.413 306.534 -22.517  0.00  0.00     0.066 H 
ENDBRANCH  33  34
ENDBRANCH  28  33
ENDBRANCH  18  20
ENDBRANCH   1  18
BRANCH   5  38
ATOM     38  C22 83G d   1     146.319 310.122 -18.758  0.00  0.00    -0.056 C 
ATOM     39  H14 83G d   1     145.637 309.460 -19.311  0.00  0.00     0.030 H 
ATOM     40  H15 83G d   1     147.097 310.498 -19.439  0.00  0.00     0.030 H 
ATOM     41  H16 83G d   1     145.752 310.969 -18.344  0.00  0.00     0.030 H 
ENDBRANCH   5  38
BRANCH   6  42
ATOM     42  C25 83G d   1     150.361 312.162 -19.256  0.00  0.00     0.032 A 
ATOM     43  C26 83G d   1     150.150 311.912 -20.611  0.00  0.00    -0.068 A 
ATOM     44  C27 83G d   1     151.159 312.148 -21.527  0.00  0.00    -0.082 A 
ATOM     45  H17 83G d   1     149.192 311.532 -20.948  0.00  0.00     0.085 H 
ATOM     46  C28 83G d   1     152.374 312.635 -21.095  0.00  0.00    -0.083 A 
ATOM     47  H18 83G d   1     150.995 311.951 -22.580  0.00  0.00     0.083 H 
ATOM     48  C29 83G d   1     152.587 312.885 -19.757  0.00  0.00    -0.082 A 
ATOM     49  H19 83G d   1     153.166 312.822 -21.811  0.00  0.00     0.083 H 
ATOM     50  C30 83G d   1     151.588 312.652 -18.830  0.00  0.00    -0.068 A 
ATOM     51  H20 83G d   1     153.546 313.268 -19.428  0.00  0.00     0.083 H 
ATOM     52  H21 83G d   1     151.762 312.850 -17.779  0.00  0.00     0.085 H 
ENDBRANCH   6  42
TORSDOF 6
