REMARK  7 active torsions:
REMARK  status: ('A' for Active; 'I' for Inactive)
REMARK    1  A    between atoms: C13_2  and  C15_3 
REMARK       I    between atoms: N05_26  and  C13_2 
REMARK    2  A    between atoms: C22_7  and  O11_35 
REMARK    3  A    between atoms: C14_14  and  C12_13 
REMARK       I    between atoms: C12_13  and  N02_25 
REMARK    4  A    between atoms: C16_15  and  C14_14 
REMARK    5  A    between atoms: O11_35  and  C27_20 
REMARK    6  A    between atoms: N30_29  and  C29_21 
REMARK    7  A    between atoms: C33_23  and  C35_24 
ROOT
ATOM      1  C10 83J d   1     195.408 288.059  27.595  0.00  0.00     0.013 C 
ATOM      2  C13 83J d   1     197.864 288.745  27.926  0.00  0.00     0.253 C 
ATOM      3  C01 83J d   1     196.834 285.525  27.322  0.00  0.00     0.013 C 
ATOM      4  C04 83J d   1     197.211 286.748  26.506  0.00  0.00     0.013 C 
ATOM      5  C07 83J d   1     194.937 286.825  28.368  0.00  0.00     0.013 C 
ATOM      6  C12 83J d   1     194.552 284.474  27.657  0.00  0.00     0.294 C 
ATOM      7  N02 83J d   1     195.459 285.610  27.772  0.00  0.00    -0.342 N 
ATOM      8  N05 83J d   1     196.841 287.870  27.344  0.00  0.00    -0.345 N 
ATOM      9  O03 83J d   1     193.436 284.569  28.039  0.00  0.00    -0.264 OA
ATOM     10  O06 83J d   1     199.009 288.543  27.699  0.00  0.00    -0.267 OA
ATOM     11  H1  83J d   1     195.243 288.968  28.192  0.00  0.00     0.066 H 
ATOM     12  H2  83J d   1     194.863 288.142  26.643  0.00  0.00     0.066 H 
ATOM     13  H7  83J d   1     197.496 285.457  28.198  0.00  0.00     0.066 H 
ATOM     14  H8  83J d   1     196.955 284.625  26.701  0.00  0.00     0.066 H 
ATOM     15  H9  83J d   1     196.654 286.770  25.558  0.00  0.00     0.066 H 
ATOM     16  H10 83J d   1     198.291 286.758  26.297  0.00  0.00     0.066 H 
ATOM     17  H11 83J d   1     193.838 286.789  28.354  0.00  0.00     0.066 H 
ATOM     18  H12 83J d   1     195.288 286.896  29.408  0.00  0.00     0.066 H 
ENDROOT
BRANCH   6  19
ATOM     19  C14 83J d   1     195.022 283.161  27.046  0.00  0.00     0.251 C 
ATOM     20  O09 83J d   1     195.309 283.130  25.899  0.00  0.00    -0.281 OA
BRANCH  19  21
ATOM     21  C16 83J d   1     195.129 281.891  27.881  0.00  0.00     0.051 A 
ATOM     22  C17 83J d   1     195.457 281.772  29.259  0.00  0.00     0.045 A 
ATOM     23  C22 83J d   1     195.775 282.602  30.324  0.00  0.00     0.099 A 
ATOM     24  C19 83J d   1     195.418 280.378  29.516  0.00  0.00     0.094 A 
ATOM     25  C25 83J d   1     196.027 282.005  31.548  0.00  0.00     0.037 A 
ATOM     26  N28 83J d   1     195.987 280.704  31.764  0.00  0.00    -0.237 NA
ATOM     27  H15 83J d   1     196.274 282.649  32.384  0.00  0.00     0.119 H 
ATOM     28  C29 83J d   1     195.688 279.878  30.780  0.00  0.00     0.179 A 
ATOM     29  N08 83J d   1     195.103 279.823  28.380  0.00  0.00    -0.361 N 
ATOM     30  C18 83J d   1     194.925 280.627  27.404  0.00  0.00    -0.007 A 
ATOM     31  H23 83J d   1     195.004 278.803  28.276  0.00  0.00     0.165 HD
ATOM     32  H13 83J d   1     194.660 280.356  26.383  0.00  0.00     0.112 H 
BRANCH  23  33
ATOM     33  O11 83J d   1     195.833 283.992  30.147  0.00  0.00    -0.354 OA
BRANCH  33  34
ATOM     34  C27 83J d   1     196.324 284.761  31.212  0.00  0.00     0.010 C 
ATOM     35  H16 83J d   1     196.311 285.825  30.932  0.00  0.00     0.066 H 
ATOM     36  H17 83J d   1     197.355 284.454  31.441  0.00  0.00     0.066 H 
ATOM     37  H18 83J d   1     195.690 284.607  32.098  0.00  0.00     0.066 H 
ENDBRANCH  33  34
ENDBRANCH  23  33
BRANCH  28  38
ATOM     38  N30 83J d   1     195.652 278.448  31.035  0.00  0.00    -0.205 N 
ATOM     39  C31 83J d   1     195.950 277.867  32.179  0.00  0.00     0.092 A 
ATOM     40  N32 83J d   1     195.806 276.549  32.027  0.00  0.00    -0.225 NA
ATOM     41  H19 83J d   1     196.260 278.375  33.091  0.00  0.00     0.146 H 
ATOM     42  C33 83J d   1     195.419 276.322  30.770  0.00  0.00     0.144 A 
ATOM     43  N34 83J d   1     195.324 277.483  30.156  0.00  0.00    -0.150 NA
BRANCH  42  44
ATOM     44  C35 83J d   1     195.136 274.952  30.156  0.00  0.00    -0.018 C 
ATOM     45  H20 83J d   1     195.301 274.170  30.912  0.00  0.00     0.038 H 
ATOM     46  H21 83J d   1     195.811 274.786  29.303  0.00  0.00     0.038 H 
ATOM     47  H22 83J d   1     194.092 274.913  29.811  0.00  0.00     0.038 H 
ENDBRANCH  42  44
ENDBRANCH  28  38
ENDBRANCH  19  21
ENDBRANCH   6  19
BRANCH   2  48
ATOM     48  C15 83J d   1     197.452 289.914  28.835  0.00  0.00     0.032 A 
ATOM     49  C20 83J d   1     197.668 291.240  28.475  0.00  0.00    -0.068 A 
ATOM     50  C23 83J d   1     197.279 292.264  29.318  0.00  0.00    -0.082 A 
ATOM     51  H3  83J d   1     198.144 291.471  27.529  0.00  0.00     0.085 H 
ATOM     52  C26 83J d   1     196.670 291.982  30.521  0.00  0.00    -0.083 A 
ATOM     53  H14 83J d   1     197.454 293.295  29.031  0.00  0.00     0.083 H 
ATOM     54  C24 83J d   1     196.445 290.671  30.894  0.00  0.00    -0.082 A 
ATOM     55  H6  83J d   1     196.367 292.791  31.176  0.00  0.00     0.083 H 
ATOM     56  C21 83J d   1     196.834 289.639  30.054  0.00  0.00    -0.068 A 
ATOM     57  H5  83J d   1     195.966 290.450  31.841  0.00  0.00     0.083 H 
ATOM     58  H4  83J d   1     196.656 288.611  30.347  0.00  0.00     0.085 H 
ENDBRANCH   2  48
TORSDOF 7
