REMARK  7 active torsions:
REMARK  status: ('A' for Active; 'I' for Inactive)
REMARK    1  A    between atoms: C11_19  and  C10_6 
REMARK    2  A    between atoms: C15_8  and  C16_17 
REMARK    3  A    between atoms: N14_24  and  C15_8 
REMARK    4  A    between atoms: N27_25  and  C28_14 
REMARK    5  A    between atoms: C25_20  and  N27_25 
REMARK    6  A    between atoms: N2_23  and  C1_21 
REMARK    7  A    between atoms: N27_25  and  C29_22 
ROOT
ATOM      1  C13 82D d   1     -16.019 -23.421  22.701  0.00  0.00     0.093 C 
ATOM      2  C24 82D d   1     -16.512 -25.373  21.639  0.00  0.00     0.111 C 
ATOM      3  C11 82D d   1     -17.397 -23.790  23.229  0.00  0.00     0.026 C 
ATOM      4  C25 82D d   1     -17.607 -25.208  22.663  0.00  0.00     0.135 C 
ATOM      5  N14 82D d   1     -15.418 -24.668  22.265  0.00  0.00    -0.064 N 
ATOM      6  H5  82D d   1     -15.414 -22.961  23.496  0.00  0.00     0.077 H 
ATOM      7  H6  82D d   1     -16.107 -22.722  21.856  0.00  0.00     0.077 H 
ATOM      8  H11 82D d   1     -16.788 -24.913  20.679  0.00  0.00     0.079 H 
ATOM      9  H12 82D d   1     -16.267 -26.434  21.481  0.00  0.00     0.079 H 
ATOM     10  H18 82D d   1     -18.154 -23.118  22.798  0.00  0.00     0.053 H 
ATOM     11  H19 82D d   1     -17.497 -25.956  23.462  0.00  0.00     0.088 H 
ATOM     12  H26 82D d   1     -15.080 -25.186  23.061  0.00  0.00     0.280 HD
ENDROOT
BRANCH   3  13
ATOM     13  C10 82D d   1     -17.481 -23.654  24.715  0.00  0.00    -0.022 A 
ATOM     14  C4  82D d   1     -16.771 -24.362  25.720  0.00  0.00    -0.001 A 
ATOM     15  C5  82D d   1     -15.818 -25.363  25.663  0.00  0.00    -0.070 A 
ATOM     16  C3  82D d   1     -17.181 -23.896  26.963  0.00  0.00     0.044 A 
ATOM     17  C6  82D d   1     -15.319 -25.859  26.849  0.00  0.00    -0.082 A 
ATOM     18  H1  82D d   1     -15.472 -25.748  24.710  0.00  0.00     0.084 H 
ATOM     19  C7  82D d   1     -15.739 -25.377  28.070  0.00  0.00    -0.081 A 
ATOM     20  H2  82D d   1     -14.577 -26.649  26.820  0.00  0.00     0.083 H 
ATOM     21  C8  82D d   1     -16.682 -24.375  28.154  0.00  0.00    -0.056 A 
ATOM     22  H3  82D d   1     -15.321 -25.793  28.980  0.00  0.00     0.083 H 
ATOM     23  H4  82D d   1     -17.014 -23.984  29.109  0.00  0.00     0.087 H 
ATOM     24  N2  82D d   1     -18.105 -22.921  26.726  0.00  0.00    -0.360 N 
ATOM     25  C9  82D d   1     -18.298 -22.764  25.387  0.00  0.00    -0.013 A 
ATOM     26  H17 82D d   1     -18.982 -22.055  24.923  0.00  0.00     0.112 H 
BRANCH  24  27
ATOM     27  C1  82D d   1     -18.802 -22.151  27.740  0.00  0.00    -0.014 C 
ATOM     28  H20 82D d   1     -19.485 -21.439  27.254  0.00  0.00     0.057 H 
ATOM     29  H21 82D d   1     -18.070 -21.600  28.349  0.00  0.00     0.057 H 
ATOM     30  H22 82D d   1     -19.378 -22.831  28.385  0.00  0.00     0.057 H 
ENDBRANCH  24  27
ENDBRANCH   3  13
BRANCH   4  31
ATOM     31  N27 82D d   1     -18.960 -25.359  22.042  0.00  0.00    -0.072 N 
ATOM     32  H27 82D d   1     -19.105 -24.566  21.438  0.00  0.00     0.279 HD
BRANCH  31  33
ATOM     33  C28 82D d   1     -19.137 -26.578  21.208  0.00  0.00     0.066 C 
ATOM     34  H13 82D d   1     -20.158 -26.597  20.799  0.00  0.00     0.068 H 
ATOM     35  H14 82D d   1     -18.973 -27.473  21.827  0.00  0.00     0.068 H 
ATOM     36  H15 82D d   1     -18.411 -26.566  20.382  0.00  0.00     0.068 H 
ENDBRANCH  31  33
BRANCH  31  37
ATOM     37  C29 82D d   1     -19.987 -25.312  23.136  0.00  0.00     0.066 C 
ATOM     38  H23 82D d   1     -20.991 -25.421  22.701  0.00  0.00     0.068 H 
ATOM     39  H24 82D d   1     -19.918 -24.349  23.662  0.00  0.00     0.068 H 
ATOM     40  H25 82D d   1     -19.804 -26.132  23.846  0.00  0.00     0.068 H 
ENDBRANCH  31  37
ENDBRANCH   4  31
BRANCH   5  41
ATOM     41  C15 82D d   1     -14.308 -24.460  21.345  0.00  0.00     0.111 C 
ATOM     42  H7  82D d   1     -14.710 -24.224  20.349  0.00  0.00     0.083 H 
ATOM     43  H8  82D d   1     -13.700 -23.617  21.704  0.00  0.00     0.083 H 
BRANCH  41  44
ATOM     44  C16 82D d   1     -13.438 -25.682  21.244  0.00  0.00     0.024 A 
ATOM     45  C17 82D d   1     -12.468 -26.002  22.176  0.00  0.00     0.021 A 
ATOM     46  C19 82D d   1     -11.663 -27.111  22.083  0.00  0.00    -0.065 A 
ATOM     47 BR   82D d   1     -12.139 -24.932  23.677  0.00  0.00    -0.050 Br
ATOM     48  C20 82D d   1     -11.833 -27.975  21.023  0.00  0.00    -0.079 A 
ATOM     49  H16 82D d   1     -10.905 -27.304  22.833  0.00  0.00     0.085 H 
ATOM     50  C21 82D d   1     -12.799 -27.705  20.083  0.00  0.00    -0.045 A 
ATOM     51  H9  82D d   1     -11.211 -28.858  20.931  0.00  0.00     0.083 H 
ATOM     52  C22 82D d   1     -13.578 -26.570  20.195  0.00  0.00     0.125 A 
ATOM     53  H10 82D d   1     -12.950 -28.384  19.252  0.00  0.00     0.088 H 
ATOM     54  F23 82D d   1     -14.516 -26.359  19.261  0.00  0.00    -0.205 F 
ENDBRANCH  41  44
ENDBRANCH   5  41
TORSDOF 7
