REMARK  6 active torsions:
REMARK  status: ('A' for Active; 'I' for Inactive)
REMARK    1  A    between atoms: N26_26  and  C20_10 
REMARK    2  A    between atoms: C21_11  and  N27_27 
REMARK    3  A    between atoms: N25_25  and  C22_12 
REMARK    4  A    between atoms: N27_27  and  C24_13 
REMARK    5  A    between atoms: C11_18  and  C19_23 
REMARK    6  A    between atoms: N27_27  and  C23_24 
ROOT
ATOM      1  C17 82G d   1     -16.071 -23.374  22.850  0.00  0.00     0.093 C 
ATOM      2  C21 82G d   1     -17.630 -25.230  22.728  0.00  0.00     0.135 C 
ATOM      3  C18 82G d   1     -16.482 -25.380  21.748  0.00  0.00     0.111 C 
ATOM      4  C19 82G d   1     -17.456 -23.818  23.290  0.00  0.00     0.026 C 
ATOM      5  N26 82G d   1     -15.401 -24.606  22.395  0.00  0.00    -0.060 N 
ATOM      6  H8  82G d   1     -15.524 -22.925  23.692  0.00  0.00     0.077 H 
ATOM      7  H9  82G d   1     -16.141 -22.646  22.028  0.00  0.00     0.077 H 
ATOM      8  H11 82G d   1     -17.544 -25.973  23.535  0.00  0.00     0.088 H 
ATOM      9  H23 82G d   1     -16.740 -24.957  20.766  0.00  0.00     0.079 H 
ATOM     10  H24 82G d   1     -16.197 -26.436  21.629  0.00  0.00     0.079 H 
ATOM     11  H25 82G d   1     -18.211 -23.167  22.825  0.00  0.00     0.053 H 
ATOM     12  H29 82G d   1     -15.098 -25.117  23.209  0.00  0.00     0.280 HD
ENDROOT
BRANCH   4  13
ATOM     13  C11 82G d   1     -17.608 -23.686  24.767  0.00  0.00    -0.022 A 
ATOM     14  C8  82G d   1     -18.454 -22.801  25.404  0.00  0.00    -0.013 A 
ATOM     15  N25 82G d   1     -18.311 -22.965  26.749  0.00  0.00    -0.360 N 
ATOM     16  H5  82G d   1     -19.122 -22.093  24.915  0.00  0.00     0.112 H 
ATOM     17  C13 82G d   1     -17.388 -23.933  27.027  0.00  0.00     0.044 A 
ATOM     18  C6  82G d   1     -16.938 -24.405  28.247  0.00  0.00    -0.056 A 
ATOM     19  C9  82G d   1     -16.930 -24.401  25.801  0.00  0.00    -0.001 A 
ATOM     20  C2  82G d   1     -15.984 -25.402  28.192  0.00  0.00    -0.081 A 
ATOM     21  H3  82G d   1     -17.311 -24.016  29.188  0.00  0.00     0.087 H 
ATOM     22  C1  82G d   1     -15.507 -25.889  26.994  0.00  0.00    -0.082 A 
ATOM     23  H19 82G d   1     -15.599 -25.814  29.118  0.00  0.00     0.083 H 
ATOM     24  C4  82G d   1     -15.962 -25.399  25.787  0.00  0.00    -0.070 A 
ATOM     25  H18 82G d   1     -14.759 -26.673  27.000  0.00  0.00     0.083 H 
ATOM     26  H1  82G d   1     -15.574 -25.783  24.850  0.00  0.00     0.084 H 
BRANCH  15  27
ATOM     27  C22 82G d   1     -19.049 -22.189  27.727  0.00  0.00    -0.014 C 
ATOM     28  H12 82G d   1     -19.719 -21.487  27.208  0.00  0.00     0.057 H 
ATOM     29  H13 82G d   1     -18.344 -21.626  28.356  0.00  0.00     0.057 H 
ATOM     30  H14 82G d   1     -19.644 -22.865  28.358  0.00  0.00     0.057 H 
ENDBRANCH  15  27
ENDBRANCH   4  13
BRANCH   2  31
ATOM     31  N27 82G d   1     -18.955 -25.408  22.049  0.00  0.00    -0.072 N 
ATOM     32  H30 82G d   1     -19.095 -24.596  21.469  0.00  0.00     0.279 HD
BRANCH  31  33
ATOM     33  C24 82G d   1     -20.063 -25.462  23.037  0.00  0.00     0.066 C 
ATOM     34  H15 82G d   1     -21.019 -25.593  22.509  0.00  0.00     0.068 H 
ATOM     35  H16 82G d   1     -20.087 -24.525  23.612  0.00  0.00     0.068 H 
ATOM     36  H17 82G d   1     -19.903 -26.308  23.721  0.00  0.00     0.068 H 
ENDBRANCH  31  33
BRANCH  31  37
ATOM     37  C23 82G d   1     -19.049 -26.604  21.164  0.00  0.00     0.066 C 
ATOM     38  H26 82G d   1     -18.234 -26.579  20.426  0.00  0.00     0.068 H 
ATOM     39  H27 82G d   1     -20.017 -26.599  20.642  0.00  0.00     0.068 H 
ATOM     40  H28 82G d   1     -18.965 -27.517  21.771  0.00  0.00     0.068 H 
ENDBRANCH  31  37
ENDBRANCH   2  31
BRANCH   5  41
ATOM     41  C20 82G d   1     -14.173 -24.388  21.569  0.00  0.00     0.133 C 
ATOM     42  C12 82G d   1     -13.461 -25.664  21.255  0.00  0.00     0.017 A 
ATOM     43  C10 82G d   1     -12.425 -25.870  22.128  0.00  0.00    -0.047 A 
ATOM     44  C14 82G d   1     -13.720 -26.593  20.256  0.00  0.00     0.125 A 
ATOM     45  C5  82G d   1     -11.622 -26.988  22.031  0.00  0.00    -0.076 A 
ATOM     46  C15 82G d   1     -12.302 -24.756  23.112  0.00  0.00    -0.038 C 
ATOM     47  C3  82G d   1     -11.887 -27.916  21.034  0.00  0.00    -0.080 A 
ATOM     48  H2  82G d   1     -10.800 -27.139  22.721  0.00  0.00     0.084 H 
ATOM     49  C7  82G d   1     -12.928 -27.722  20.145  0.00  0.00    -0.045 A 
ATOM     50  H20 82G d   1     -11.270 -28.804  20.951  0.00  0.00     0.083 H 
ATOM     51  H4  82G d   1     -13.123 -28.450  19.366  0.00  0.00     0.088 H 
ATOM     52  C16 82G d   1     -13.142 -23.678  22.439  0.00  0.00    -0.030 C 
ATOM     53  H6  82G d   1     -11.256 -24.437  23.232  0.00  0.00     0.040 H 
ATOM     54  H7  82G d   1     -12.715 -25.036  24.093  0.00  0.00     0.040 H 
ATOM     55  H21 82G d   1     -12.502 -23.035  21.817  0.00  0.00     0.036 H 
ATOM     56  H22 82G d   1     -13.648 -23.065  23.199  0.00  0.00     0.036 H 
ATOM     57  F28 82G d   1     -14.726 -26.415  19.378  0.00  0.00    -0.205 F 
ATOM     58  H10 82G d   1     -14.419 -23.824  20.657  0.00  0.00     0.092 H 
ENDBRANCH   5  41
TORSDOF 6
