REMARK  12 active torsions:
REMARK  status: ('A' for Active; 'I' for Inactive)
REMARK    1  A    between atoms: C2_4  and  C3_1 
REMARK    2  A    between atoms: N2_2  and  C13_15 
REMARK    3  A    between atoms: C9_23  and  O2_5 
REMARK    4  A    between atoms: O2_5  and  C10_25 
REMARK    5  A    between atoms: C17_9  and  N6_8 
REMARK    6  A    between atoms: C15_14  and  C16_13 
REMARK    7  A    between atoms: C13_15  and  C14_16 
REMARK    8  A    between atoms: C4_17  and  C5_18 
REMARK    9  A    between atoms: C5_18  and  C7_19 
REMARK   10  A    between atoms: C5_18  and  C6_20 
REMARK   11  A    between atoms: C5_18  and  O1_21 
REMARK   12  A    between atoms: C10_25  and  C11_26 
ROOT
ATOM      1  N2  G93 d   1     -26.229 -15.167   3.000  0.00  0.00    -0.326 N 
ATOM      2  N3  G93 d   1     -25.932 -13.362   1.917  0.00  0.00    -0.223 NA
ATOM      3  C2  G93 d   1     -25.327 -14.611  -0.329  0.00  0.00     0.141 A 
ATOM      4  N1  G93 d   1     -25.186 -15.827  -0.854  0.00  0.00    -0.247 NA
ATOM      5  C1  G93 d   1     -25.678 -14.476   0.974  0.00  0.00     0.126 A 
ATOM      6  C15 G93 d   1     -26.258 -13.880   3.083  0.00  0.00     0.166 A 
ATOM      7  C12 G93 d   1     -25.909 -15.639   1.791  0.00  0.00     0.103 A 
ATOM      8  C9  G93 d   1     -25.762 -16.890   1.236  0.00  0.00     0.115 A 
ATOM      9  C8  G93 d   1     -25.385 -16.949  -0.127  0.00  0.00     0.038 A 
ATOM     10  H15 G93 d   1     -25.253 -17.916  -0.599  0.00  0.00     0.119 H 
ENDROOT
BRANCH   8  11
ATOM     11  O2  G93 d   1     -25.977 -18.033   2.030  0.00  0.00    -0.347 OA
BRANCH  11  12
ATOM     12  C10 G93 d   1     -25.851 -19.323   1.463  0.00  0.00     0.031 C 
ATOM     13  H16 G93 d   1     -24.922 -19.789   1.824  0.00  0.00     0.075 H 
ATOM     14  H17 G93 d   1     -25.816 -19.236   0.367  0.00  0.00     0.075 H 
BRANCH  12  15
ATOM     15  C11 G93 d   1     -27.037 -20.191   1.861  0.00  0.00    -0.010 C 
ATOM     16  C18 G93 d   1     -26.719 -20.843   3.201  0.00  0.00     0.087 C 
ATOM     17  N7  G93 d   1     -26.073 -22.121   2.982  0.00  0.00    -0.075 N 
ATOM     18  H19 G93 d   1     -27.652 -20.997   3.763  0.00  0.00     0.076 H 
ATOM     19  H20 G93 d   1     -26.048 -20.188   3.776  0.00  0.00     0.076 H 
ATOM     20  C19 G93 d   1     -27.035 -23.083   2.488  0.00  0.00     0.082 C 
ATOM     21  H21 G93 d   1     -25.686 -22.453   3.851  0.00  0.00     0.277 HD
ATOM     22  H22 G93 d   1     -25.334 -22.010   2.305  0.00  0.00     0.277 HD
ATOM     23  C20 G93 d   1     -27.733 -22.587   1.220  0.00  0.00    -0.042 C 
ATOM     24  H23 G93 d   1     -27.793 -23.261   3.265  0.00  0.00     0.075 H 
ATOM     25  H24 G93 d   1     -26.513 -24.025   2.262  0.00  0.00     0.075 H 
ATOM     26  C21 G93 d   1     -27.217 -21.228   0.749  0.00  0.00    -0.057 C 
ATOM     27  H25 G93 d   1     -28.811 -22.502   1.423  0.00  0.00     0.035 H 
ATOM     28  H26 G93 d   1     -27.568 -23.322   0.418  0.00  0.00     0.035 H 
ATOM     29  H27 G93 d   1     -26.242 -21.381   0.263  0.00  0.00     0.033 H 
ATOM     30  H28 G93 d   1     -27.933 -20.825   0.017  0.00  0.00     0.033 H 
ATOM     31  H18 G93 d   1     -27.948 -19.582   1.955  0.00  0.00     0.045 H 
ENDBRANCH  12  15
ENDBRANCH  11  12
ENDBRANCH   8  11
BRANCH   1  32
ATOM     32  C13 G93 d   1     -26.540 -16.095   4.084  0.00  0.00    -0.001 C 
ATOM     33  H3  G93 d   1     -27.252 -16.849   3.718  0.00  0.00     0.064 H 
ATOM     34  H4  G93 d   1     -26.992 -15.537   4.917  0.00  0.00     0.064 H 
BRANCH  32  35
ATOM     35  C14 G93 d   1     -25.281 -16.798   4.581  0.00  0.00    -0.061 C 
ATOM     36  H5  G93 d   1     -25.544 -17.489   5.395  0.00  0.00     0.029 H 
ATOM     37  H6  G93 d   1     -24.566 -16.050   4.952  0.00  0.00     0.029 H 
ATOM     38  H7  G93 d   1     -24.825 -17.362   3.754  0.00  0.00     0.029 H 
ENDBRANCH  32  35
ENDBRANCH   1  32
BRANCH   6  39
ATOM     39  C16 G93 d   1     -26.574 -13.024   4.302  0.00  0.00     0.179 A 
ATOM     40  C17 G93 d   1     -26.543 -11.511   4.321  0.00  0.00     0.186 A 
ATOM     41  N5  G93 d   1     -26.839 -11.141   5.469  0.00  0.00    -0.085 NA
ATOM     42  O3  G93 d   1     -27.074 -12.287   6.258  0.00  0.00    -0.104 OA
ATOM     43  N4  G93 d   1     -26.880 -13.417   5.442  0.00  0.00    -0.097 NA
BRANCH  40  44
ATOM     44  N6  G93 d   1     -26.230 -10.648   3.198  0.00  0.00    -0.380 N 
ATOM     45  H1  G93 d   1     -25.996 -11.058   2.283  0.00  0.00     0.158 HD
ATOM     46  H2  G93 d   1     -26.241  -9.625   3.316  0.00  0.00     0.158 HD
ENDBRANCH  40  44
ENDBRANCH   6  39
BRANCH   3  47
ATOM     47  C3  G93 d   1     -25.045 -13.442  -1.263  0.00  0.00    -0.041 C 
ATOM     48  C4  G93 d   1     -24.857 -12.588  -2.059  0.00  0.00    -0.062 C 
BRANCH  48  49
ATOM     49  C5  G93 d   1     -24.718 -11.501  -3.115  0.00  0.00     0.114 C 
BRANCH  49  50
ATOM     50  C7  G93 d   1     -25.907 -10.556  -2.992  0.00  0.00    -0.038 C 
ATOM     51  H8  G93 d   1     -25.824  -9.762  -3.749  0.00  0.00     0.033 H 
ATOM     52  H9  G93 d   1     -25.916 -10.106  -1.988  0.00  0.00     0.033 H 
ATOM     53  H10 G93 d   1     -26.840 -11.117  -3.151  0.00  0.00     0.033 H 
ENDBRANCH  49  50
BRANCH  49  54
ATOM     54  C6  G93 d   1     -23.409 -10.739  -2.943  0.00  0.00    -0.038 C 
ATOM     55  H11 G93 d   1     -22.564 -11.437  -3.035  0.00  0.00     0.033 H 
ATOM     56  H12 G93 d   1     -23.388 -10.266  -1.950  0.00  0.00     0.033 H 
ATOM     57  H13 G93 d   1     -23.331  -9.964  -3.720  0.00  0.00     0.033 H 
ENDBRANCH  49  54
BRANCH  49  58
ATOM     58  O1  G93 d   1     -24.740 -12.098  -4.383  0.00  0.00    -0.378 OA
ATOM     59  H14 G93 d   1     -24.001 -12.689  -4.466  0.00  0.00     0.211 HD
ENDBRANCH  49  58
ENDBRANCH  48  49
ENDBRANCH   3  47
TORSDOF 12
