REMARK WARNING: 32 MAX_TORS EXCEEDED!!!
REMARK  47 active torsions:
REMARK  status: ('A' for Active; 'I' for Inactive)
REMARK    1  A    between atoms: N_1  and  CA_2 
REMARK    2  A    between atoms: CA_2  and  C_3 
REMARK    3  A    between atoms: CA_2  and  CB_5 
REMARK       I    between atoms: C_3  and  N_8 
REMARK    4  A    between atoms: CB_5  and  CG1_6 
REMARK    5  A    between atoms: CB_5  and  CG2_7 
REMARK    6  A    between atoms: N_8  and  CA_9 
REMARK    7  A    between atoms: CA_9  and  C_10 
REMARK    8  A    between atoms: CA_9  and  CB_12 
REMARK       I    between atoms: C_10  and  N_15 
REMARK    9  A    between atoms: CB_12  and  OG1_13 
REMARK   10  A    between atoms: CB_12  and  CG2_14 
REMARK   11  A    between atoms: N_15  and  CA_16 
REMARK   12  A    between atoms: CA_16  and  C_17 
REMARK   13  A    between atoms: CA_16  and  CB_19 
REMARK       I    between atoms: C_17  and  N_22 
REMARK   14  A    between atoms: CB_19  and  OG1_20 
REMARK   15  A    between atoms: CB_19  and  CG2_21 
REMARK   16  A    between atoms: N_22  and  CA_23 
REMARK   17  A    between atoms: CA_23  and  C_24 
REMARK   18  A    between atoms: CA_23  and  CB_26 
REMARK       I    between atoms: C_24  and  N_30 
REMARK   19  A    between atoms: CB_26  and  CG_27 
REMARK   20  A    between atoms: N_30  and  CA_31 
REMARK   21  A    between atoms: CA_31  and  C_32 
REMARK   22  A    between atoms: CA_31  and  CB_34 
REMARK       I    between atoms: C_32  and  N_38 
REMARK   23  A    between atoms: CB_34  and  CG1_35 
REMARK   24  A    between atoms: CB_34  and  CG2_36 
REMARK   25  A    between atoms: CG1_35  and  CD1_37 
REMARK   26  A    between atoms: N_38  and  CA_39 
REMARK   27  A    between atoms: CA_39  and  C_40 
REMARK   28  A    between atoms: CA_39  and  CB_42 
REMARK       I    between atoms: C_40  and  N_47 
REMARK   29  A    between atoms: CB_42  and  CG_43 
REMARK   30  A    between atoms: CG_43  and  CD_44 
REMARK       I    between atoms: CD_44  and  NE2_46 
REMARK   31  A    between atoms: N_47  and  CA_48 
REMARK   32  A    between atoms: CA_48  and  C_49 
REMARK   33  A    between atoms: CA_48  and  CB_51 
REMARK       I    between atoms: C_49  and  N_54 
REMARK   34  A    between atoms: CB_51  and  CG1_52 
REMARK   35  A    between atoms: CB_51  and  CG2_53 
REMARK   36  A    between atoms: N_54  and  CA_55 
REMARK   37  A    between atoms: CA_55  and  C_56 
REMARK   38  A    between atoms: CA_55  and  CB_58 
REMARK       I    between atoms: C_56  and  N_63 
REMARK   39  A    between atoms: CB_58  and  CG_59 
REMARK   40  A    between atoms: CG_59  and  CD_60 
REMARK   41  A    between atoms: CD_60  and  CE_61 
REMARK   42  A    between atoms: CE_61  and  NZ_62 
REMARK   43  A    between atoms: N_63  and  CA_64 
REMARK   44  A    between atoms: CA_64  and  C_65 
REMARK   45  A    between atoms: CA_64  and  CB_67 
REMARK   46  A    between atoms: CB_67  and  CG1_68 
REMARK   47  A    between atoms: CB_67  and  CG2_69 
ROOT
ATOM      1  CA  VAL d   1      24.295   9.450 -11.618  0.00  0.00     0.092 C 
ATOM      2  H31 VAL d   1      24.670  10.173 -12.357  0.00  0.00     0.088 H 
ENDROOT
BRANCH   1   3
ATOM      3  N   VAL d   1      25.364   9.170 -10.662  0.00  0.00    -0.346 N 
ATOM      4  C   VAL d   1      25.935  10.151  -9.977  0.00  0.00     0.241 C 
ATOM      5  O   VAL d   1      25.544  11.317 -10.029  0.00  0.00    -0.271 OA
ATOM      6  H30 VAL d   1      25.668   8.228 -10.523  0.00  0.00     0.163 HD
BRANCH   4   7
ATOM      7  CA  VAL d   1      27.175   9.800  -9.167  0.00  0.00     0.098 C 
ATOM      8  H27 VAL d   1      27.042  10.181  -8.144  0.00  0.00     0.088 H 
BRANCH   7   9
ATOM      9  N   VAL d   1      27.437   8.363  -9.080  0.00  0.00    -0.345 N 
ATOM     10  C   VAL d   1      26.825   7.543  -8.223  0.00  0.00     0.243 C 
ATOM     11  O   VAL d   1      26.063   7.929  -7.336  0.00  0.00    -0.271 OA
ATOM     12  H26 VAL d   1      28.116   7.971  -9.701  0.00  0.00     0.163 HD
BRANCH  10  13
ATOM     13  CA  VAL d   1      27.157   6.060  -8.369  0.00  0.00     0.113 C 
ATOM     14  H20 VAL d   1      28.154   5.971  -8.825  0.00  0.00     0.091 H 
BRANCH  13  15
ATOM     15  N   VAL d   1      27.205   5.430  -7.055  0.00  0.00    -0.344 N 
ATOM     16  C   VAL d   1      28.299   5.512  -6.311  0.00  0.00     0.243 C 
ATOM     17  O   VAL d   1      29.337   6.073  -6.694  0.00  0.00    -0.271 OA
ATOM     18  H19 VAL d   1      26.408   4.933  -6.713  0.00  0.00     0.163 HD
BRANCH  16  19
ATOM     19  CA  VAL d   1      28.202   4.911  -4.922  0.00  0.00     0.113 C 
ATOM     20  H13 VAL d   1      27.631   3.972  -4.974  0.00  0.00     0.091 H 
BRANCH  19  21
ATOM     21  N   VAL d   1      29.519   4.612  -4.372  0.00  0.00    -0.344 N 
ATOM     22  C   VAL d   1      30.236   3.581  -4.793  0.00  0.00     0.249 C 
ATOM     23  O   VAL d   1      29.818   2.768  -5.634  0.00  0.00    -0.271 OA
ATOM     24  H12 VAL d   1      29.892   5.202  -3.656  0.00  0.00     0.163 HD
BRANCH  22  25
ATOM     25  CA  VAL d   1      31.609   3.413  -4.142  0.00  0.00     0.178 C 
ATOM     26  H4  VAL d   1      31.582   3.872  -3.143  0.00  0.00     0.099 H 
BRANCH  25  27
ATOM     27  N   VAL d   1      31.881   1.992  -3.995  0.00  0.00    -0.066 N 
ATOM     28  H1  VAL d   1      31.144   1.563  -3.458  0.00  0.00     0.275 HD
ATOM     29  H2  VAL d   1      32.761   1.866  -3.519  0.00  0.00     0.275 HD
ATOM     30  H3  VAL d   1      31.927   1.563  -4.906  0.00  0.00     0.275 HD
ENDBRANCH  25  27
BRANCH  25  31
ATOM     31  CB  VAL d   1      32.733   4.123  -4.973  0.00  0.00    -0.025 C 
ATOM     32  H5  VAL d   1      33.691   3.662  -4.691  0.00  0.00     0.042 H 
BRANCH  31  33
ATOM     33  CG1 VAL d   1      32.549   3.912  -6.473  0.00  0.00    -0.071 C 
ATOM     34  H6  VAL d   1      33.356   4.425  -7.017  0.00  0.00     0.028 H 
ATOM     35  H7  VAL d   1      31.578   4.323  -6.785  0.00  0.00     0.028 H 
ATOM     36  H8  VAL d   1      32.581   2.836  -6.699  0.00  0.00     0.028 H 
ENDBRANCH  31  33
BRANCH  31  37
ATOM     37  CG2 VAL d   1      32.820   5.607  -4.632  0.00  0.00    -0.071 C 
ATOM     38  H9  VAL d   1      32.952   5.727  -3.546  0.00  0.00     0.028 H 
ATOM     39  H10 VAL d   1      31.894   6.110  -4.946  0.00  0.00     0.028 H 
ATOM     40  H11 VAL d   1      33.677   6.054  -5.157  0.00  0.00     0.028 H 
ENDBRANCH  31  37
ENDBRANCH  25  31
ENDBRANCH  22  25
ENDBRANCH  19  21
BRANCH  19  41
ATOM     41  CB  VAL d   1      27.439   5.910  -4.061  0.00  0.00     0.060 C 
ATOM     42  H14 VAL d   1      26.491   6.156  -4.561  0.00  0.00     0.086 H 
BRANCH  41  43
ATOM     43  OG1 VAL d   1      28.223   7.101  -3.935  0.00  0.00    -0.393 OA
ATOM     44  H15 VAL d   1      29.054   6.890  -3.526  0.00  0.00     0.210 HD
ENDBRANCH  41  43
BRANCH  41  45
ATOM     45  CG2 VAL d   1      27.120   5.331  -2.663  0.00  0.00    -0.050 C 
ATOM     46  H16 VAL d   1      26.570   6.079  -2.073  0.00  0.00     0.031 H 
ATOM     47  H17 VAL d   1      28.058   5.076  -2.149  0.00  0.00     0.031 H 
ATOM     48  H18 VAL d   1      26.504   4.426  -2.773  0.00  0.00     0.031 H 
ENDBRANCH  41  45
ENDBRANCH  19  41
ENDBRANCH  16  19
ENDBRANCH  13  15
BRANCH  13  49
ATOM     49  CB  VAL d   1      26.139   5.371  -9.311  0.00  0.00     0.060 C 
ATOM     50  H21 VAL d   1      26.430   4.317  -9.428  0.00  0.00     0.086 H 
BRANCH  49  51
ATOM     51  OG1 VAL d   1      26.171   6.013 -10.591  0.00  0.00    -0.393 OA
ATOM     52  H22 VAL d   1      27.044   5.942 -10.958  0.00  0.00     0.210 HD
ENDBRANCH  49  51
BRANCH  49  53
ATOM     53  CG2 VAL d   1      24.700   5.425  -8.763  0.00  0.00    -0.050 C 
ATOM     54  H23 VAL d   1      24.020   4.924  -9.468  0.00  0.00     0.031 H 
ATOM     55  H24 VAL d   1      24.393   6.474  -8.641  0.00  0.00     0.031 H 
ATOM     56  H25 VAL d   1      24.659   4.916  -7.789  0.00  0.00     0.031 H 
ENDBRANCH  49  53
ENDBRANCH  13  49
ENDBRANCH  10  13
ENDBRANCH   7   9
BRANCH   7  57
ATOM     57  CB  VAL d   1      28.365  10.522  -9.823  0.00  0.00     0.043 C 
ATOM     58  H28 VAL d   1      28.044  11.530 -10.124  0.00  0.00     0.052 H 
ATOM     59  H29 VAL d   1      28.675   9.955 -10.713  0.00  0.00     0.052 H 
BRANCH  57  60
ATOM     60  CG  VAL d   1      29.535  10.647  -8.902  0.00  0.00     0.175 C 
ATOM     61  OD1 VAL d   1      29.345  10.376  -7.697  0.00  0.00    -0.648 OA
ATOM     62  OD2 VAL d   1      30.631  11.015  -9.375  0.00  0.00    -0.648 OA
ENDBRANCH  57  60
ENDBRANCH   7  57
ENDBRANCH   4   7
ENDBRANCH   1   3
BRANCH   1  63
ATOM     63  C   VAL d   1      23.103  10.070 -10.899  0.00  0.00     0.241 C 
ATOM     64  O   VAL d   1      22.668   9.556  -9.878  0.00  0.00    -0.271 OA
ATOM     65  N   VAL d   1      22.616  11.205 -11.400  0.00  0.00    -0.346 N 
ATOM     66  H41 VAL d   1      23.083  11.640 -12.170  0.00  0.00     0.163 HD
BRANCH  65  67
ATOM     67  CA  VAL d   1      21.415  11.828 -10.850  0.00  0.00     0.090 C 
ATOM     68  H42 VAL d   1      21.069  11.236  -9.990  0.00  0.00     0.087 H 
BRANCH  67  69
ATOM     69  C   VAL d   1      20.329  11.826 -11.924  0.00  0.00     0.241 C 
ATOM     70  O   VAL d   1      20.519  12.434 -12.977  0.00  0.00    -0.271 OA
ATOM     71  N   VAL d   1      19.219  11.121 -11.682  0.00  0.00    -0.346 N 
ATOM     72  H49 VAL d   1      19.148  10.589 -10.838  0.00  0.00     0.163 HD
BRANCH  71  73
ATOM     73  CA  VAL d   1      18.105  11.116 -12.635  0.00  0.00     0.092 C 
ATOM     74  H50 VAL d   1      18.328  11.879 -13.395  0.00  0.00     0.088 H 
BRANCH  73  75
ATOM     75  C   VAL d   1      16.774  11.475 -11.988  0.00  0.00     0.241 C 
ATOM     76  O   VAL d   1      16.496  11.100 -10.843  0.00  0.00    -0.271 OA
ATOM     77  N   VAL d   1      15.966  12.221 -12.740  0.00  0.00    -0.346 N 
ATOM     78  H58 VAL d   1      16.318  12.582 -13.604  0.00  0.00     0.163 HD
BRANCH  77  79
ATOM     79  CA  VAL d   1      14.594  12.536 -12.364  0.00  0.00     0.089 C 
ATOM     80  H59 VAL d   1      14.530  12.579 -11.267  0.00  0.00     0.087 H 
BRANCH  79  81
ATOM     81  C   VAL d   1      13.659  11.446 -12.869  0.00  0.00     0.241 C 
ATOM     82  O   VAL d   1      13.814  10.946 -13.983  0.00  0.00    -0.271 OA
ATOM     83  N   VAL d   1      12.689  11.064 -12.050  0.00  0.00    -0.344 N 
ATOM     84  H71 VAL d   1      12.613  11.470 -11.139  0.00  0.00     0.163 HD
BRANCH  83  85
ATOM     85  CA  VAL d   1      11.735  10.053 -12.478  0.00  0.00     0.099 C 
ATOM     86  H72 VAL d   1      12.264   9.304 -13.086  0.00  0.00     0.090 H 
BRANCH  85  87
ATOM     87  C   VAL d   1      10.668  10.725 -13.334  0.00  0.00     0.197 C 
ATOM     88  O   VAL d   1      10.629  11.951 -13.396  0.00  0.00    -0.646 OA
ATOM     89  OXT VAL d   1       9.838  10.082 -13.974  0.00  0.00    -0.646 OA
ENDBRANCH  85  87
BRANCH  85  90
ATOM     90  CB  VAL d   1      11.080   9.332 -11.275  0.00  0.00    -0.032 C 
ATOM     91  H73 VAL d   1      10.388   8.569 -11.661  0.00  0.00     0.042 H 
BRANCH  90  92
ATOM     92  CG1 VAL d   1      12.164   8.619 -10.423  0.00  0.00    -0.071 C 
ATOM     93  H74 VAL d   1      11.686   8.111  -9.572  0.00  0.00     0.028 H 
ATOM     94  H75 VAL d   1      12.884   9.362 -10.049  0.00  0.00     0.028 H 
ATOM     95  H76 VAL d   1      12.690   7.879 -11.044  0.00  0.00     0.028 H 
ENDBRANCH  90  92
BRANCH  90  96
ATOM     96  CG2 VAL d   1      10.286  10.313 -10.442  0.00  0.00    -0.071 C 
ATOM     97  H77 VAL d   1       9.528  10.800 -11.073  0.00  0.00     0.028 H 
ATOM     98  H78 VAL d   1      10.963  11.075 -10.028  0.00  0.00     0.028 H 
ATOM     99  H79 VAL d   1       9.789   9.778  -9.620  0.00  0.00     0.028 H 
ENDBRANCH  90  96
ENDBRANCH  85  90
ENDBRANCH  83  85
ENDBRANCH  79  81
BRANCH  79 100
ATOM    100  CB  VAL d   1      14.171  13.890 -12.930  0.00  0.00    -0.038 C 
ATOM    101  H60 VAL d   1      13.087  14.003 -12.778  0.00  0.00     0.036 H 
ATOM    102  H61 VAL d   1      14.393  13.897 -14.007  0.00  0.00     0.036 H 
BRANCH 100 103
ATOM    103  CG  VAL d   1      14.868  15.084 -12.293  0.00  0.00    -0.061 C 
ATOM    104  H62 VAL d   1      15.942  15.048 -12.527  0.00  0.00     0.033 H 
ATOM    105  H63 VAL d   1      14.729  15.049 -11.202  0.00  0.00     0.033 H 
BRANCH 103 106
ATOM    106  CD  VAL d   1      14.274  16.378 -12.838  0.00  0.00    -0.043 C 
ATOM    107  H64 VAL d   1      13.180  16.272 -12.890  0.00  0.00     0.035 H 
ATOM    108  H65 VAL d   1      14.674  16.554 -13.848  0.00  0.00     0.035 H 
BRANCH 106 109
ATOM    109  CE  VAL d   1      14.609  17.575 -11.963  0.00  0.00     0.080 C 
ATOM    110  H66 VAL d   1      14.375  17.326 -10.917  0.00  0.00     0.075 H 
ATOM    111  H67 VAL d   1      13.995  18.430 -12.282  0.00  0.00     0.075 H 
BRANCH 109 112
ATOM    112  NZ  VAL d   1      16.045  17.954 -12.056  0.00  0.00    -0.079 N 
ATOM    113  H68 VAL d   1      16.222  18.749 -11.462  0.00  0.00     0.274 HD
ATOM    114  H69 VAL d   1      16.269  18.191 -13.010  0.00  0.00     0.274 HD
ATOM    115  H70 VAL d   1      16.617  17.179 -11.759  0.00  0.00     0.274 HD
ENDBRANCH 109 112
ENDBRANCH 106 109
ENDBRANCH 103 106
ENDBRANCH 100 103
ENDBRANCH  79 100
ENDBRANCH  77  79
ENDBRANCH  73  75
BRANCH  73 116
ATOM    116  CB  VAL d   1      17.938   9.750 -13.362  0.00  0.00    -0.033 C 
ATOM    117  H51 VAL d   1      16.994   9.787 -13.926  0.00  0.00     0.042 H 
BRANCH 116 118
ATOM    118  CG1 VAL d   1      19.077   9.539 -14.371  0.00  0.00    -0.071 C 
ATOM    119  H52 VAL d   1      18.945   8.571 -14.876  0.00  0.00     0.028 H 
ATOM    120  H53 VAL d   1      20.042   9.548 -13.842  0.00  0.00     0.028 H 
ATOM    121  H54 VAL d   1      19.060  10.347 -15.117  0.00  0.00     0.028 H 
ENDBRANCH 116 118
BRANCH 116 122
ATOM    122  CG2 VAL d   1      17.836   8.589 -12.381  0.00  0.00    -0.071 C 
ATOM    123  H55 VAL d   1      17.012   8.775 -11.677  0.00  0.00     0.028 H 
ATOM    124  H56 VAL d   1      18.780   8.495 -11.824  0.00  0.00     0.028 H 
ATOM    125  H57 VAL d   1      17.642   7.658 -12.934  0.00  0.00     0.028 H 
ENDBRANCH 116 122
ENDBRANCH  73 116
ENDBRANCH  71  73
ENDBRANCH  67  69
BRANCH  67 126
ATOM    126  CB  VAL d   1      21.702  13.253 -10.374  0.00  0.00    -0.030 C 
ATOM    127  H43 VAL d   1      20.790  13.647  -9.901  0.00  0.00     0.037 H 
ATOM    128  H44 VAL d   1      21.953  13.865 -11.253  0.00  0.00     0.037 H 
BRANCH 126 129
ATOM    129  CG  VAL d   1      22.855  13.369  -9.364  0.00  0.00     0.011 C 
ATOM    130  H45 VAL d   1      23.094  14.434  -9.232  0.00  0.00     0.047 H 
ATOM    131  H46 VAL d   1      23.730  12.845  -9.775  0.00  0.00     0.047 H 
BRANCH 129 132
ATOM    132  CD  VAL d   1      22.537  12.772  -7.991  0.00  0.00     0.215 C 
ATOM    133  OE1 VAL d   1      21.438  12.939  -7.475  0.00  0.00    -0.274 OA
ATOM    134  NE2 VAL d   1      23.514  12.078  -7.390  0.00  0.00    -0.370 N 
ATOM    135  H47 VAL d   1      23.356  11.668  -6.492  0.00  0.00     0.159 HD
ATOM    136  H48 VAL d   1      24.401  11.970  -7.840  0.00  0.00     0.159 HD
ENDBRANCH 129 132
ENDBRANCH 126 129
ENDBRANCH  67 126
ENDBRANCH  65  67
ENDBRANCH   1  63
BRANCH   1 137
ATOM    137  CB  VAL d   1      23.876   8.171 -12.363  0.00  0.00    -0.030 C 
ATOM    138  H32 VAL d   1      23.649   7.400 -11.612  0.00  0.00     0.043 H 
BRANCH 137 139
ATOM    139  CG1 VAL d   1      25.035   7.656 -13.236  0.00  0.00    -0.063 C 
ATOM    140  H33 VAL d   1      25.977   7.798 -12.686  0.00  0.00     0.033 H 
ATOM    141  H34 VAL d   1      25.061   8.244 -14.165  0.00  0.00     0.033 H 
BRANCH 139 142
ATOM    142  CD1 VAL d   1      24.904   6.179 -13.600  0.00  0.00    -0.076 C 
ATOM    143  H38 VAL d   1      25.760   5.877 -14.221  0.00  0.00     0.027 H 
ATOM    144  H39 VAL d   1      23.971   6.021 -14.160  0.00  0.00     0.027 H 
ATOM    145  H40 VAL d   1      24.887   5.575 -12.681  0.00  0.00     0.027 H 
ENDBRANCH 139 142
ENDBRANCH 137 139
BRANCH 137 146
ATOM    146  CG2 VAL d   1      22.606   8.399 -13.199  0.00  0.00    -0.071 C 
ATOM    147  H35 VAL d   1      21.799   8.766 -12.547  0.00  0.00     0.028 H 
ATOM    148  H36 VAL d   1      22.299   7.451 -13.665  0.00  0.00     0.028 H 
ATOM    149  H37 VAL d   1      22.811   9.143 -13.982  0.00  0.00     0.028 H 
ENDBRANCH 137 146
ENDBRANCH   1 137
TORSDOF 47
