REMARK  6 active torsions:
REMARK  status: ('A' for Active; 'I' for Inactive)
REMARK    1  A    between atoms: N2_21  and  C1_1 
REMARK    2  A    between atoms: C5_3  and  C3_2 
REMARK       I    between atoms: C3_2  and  N2_21 
REMARK    3  A    between atoms: C21_12  and  C19_10 
REMARK       I    between atoms: C19_10  and  N18_28 
REMARK    4  A    between atoms: C26_31  and  C25_30 
REMARK    5  A    between atoms: N27_32  and  C26_31 
REMARK    6  A    between atoms: N27_32  and  C28_33 
ROOT
ATOM      1  C5  83P d   1      -9.897   7.058 -12.787  0.00  0.00     0.096 C 
ATOM      2  C7  83P d   1     -10.410   5.857 -12.020  0.00  0.00    -0.011 C 
ATOM      3  C8  83P d   1     -11.702   6.227 -11.381  0.00  0.00    -0.019 A 
ATOM      4  C11 83P d   1     -12.848   4.124  -8.499  0.00  0.00    -0.082 A 
ATOM      5  C12 83P d   1     -13.995   4.857  -8.219  0.00  0.00    -0.081 A 
ATOM      6  C16 83P d   1     -12.466   7.288 -11.727  0.00  0.00     0.035 A 
ATOM      7  C17 83P d   1     -12.153   8.242 -12.861  0.00  0.00     0.037 C 
ATOM      8  C19 83P d   1     -10.978   7.441 -14.953  0.00  0.00     0.279 C 
ATOM      9  O20 83P d   1     -10.051   6.833 -15.469  0.00  0.00    -0.265 OA
ATOM     10  C9  83P d   1     -12.328   5.584 -10.275  0.00  0.00    -0.001 A 
ATOM     11  C10 83P d   1     -11.985   4.459  -9.510  0.00  0.00    -0.070 A 
ATOM     12  C13 83P d   1     -14.361   5.965  -8.974  0.00  0.00    -0.056 A 
ATOM     13  C14 83P d   1     -13.493   6.335 -10.001  0.00  0.00     0.043 A 
ATOM     14  N15 83P d   1     -13.540   7.345 -10.913  0.00  0.00    -0.357 N 
ATOM     15  N18 83P d   1     -11.018   7.619 -13.614  0.00  0.00    -0.327 N 
ATOM     16  H4  83P d   1      -9.100   6.719 -13.465  0.00  0.00     0.088 H 
ATOM     17  H5  83P d   1      -9.682   5.571 -11.247  0.00  0.00     0.044 H 
ATOM     18  H6  83P d   1     -10.564   5.014 -12.709  0.00  0.00     0.044 H 
ATOM     19  H7  83P d   1     -12.627   3.252  -7.894  0.00  0.00     0.083 H 
ATOM     20  H8  83P d   1     -14.622   4.556  -7.388  0.00  0.00     0.083 H 
ATOM     21  H9  83P d   1     -11.857   9.225 -12.465  0.00  0.00     0.073 H 
ATOM     22  H10 83P d   1     -13.029   8.360 -13.516  0.00  0.00     0.073 H 
ATOM     23  H18 83P d   1     -11.086   3.886  -9.708  0.00  0.00     0.084 H 
ATOM     24  H19 83P d   1     -15.274   6.514  -8.775  0.00  0.00     0.086 H 
ATOM     25  H20 83P d   1     -14.288   8.051 -10.973  0.00  0.00     0.166 HD
ENDROOT
BRANCH   1  26
ATOM     26  C3  83P d   1      -9.302   8.127 -11.862  0.00  0.00     0.240 C 
ATOM     27  N2  83P d   1      -9.402   9.454 -12.160  0.00  0.00    -0.364 N 
ATOM     28  H17 83P d   1      -9.867   9.721 -13.004  0.00  0.00     0.161 HD
ATOM     29  O4  83P d   1      -8.722   7.782 -10.848  0.00  0.00    -0.271 OA
BRANCH  27  30
ATOM     30  C1  83P d   1      -8.859  10.505 -11.298  0.00  0.00    -0.018 C 
ATOM     31  H1  83P d   1      -9.062  11.489 -11.747  0.00  0.00     0.056 H 
ATOM     32  H2  83P d   1      -7.773  10.368 -11.192  0.00  0.00     0.056 H 
ATOM     33  H3  83P d   1      -9.334  10.449 -10.307  0.00  0.00     0.056 H 
ENDBRANCH  27  30
ENDBRANCH   1  26
BRANCH   8  34
ATOM     34  C21 83P d   1     -11.958   8.074 -15.831  0.00  0.00     0.150 A 
ATOM     35  O22 83P d   1     -12.498   9.290 -15.514  0.00  0.00    -0.316 OA
ATOM     36  C23 83P d   1     -13.274   9.679 -16.506  0.00  0.00     0.020 A 
ATOM     37  C24 83P d   1     -13.204   8.781 -17.508  0.00  0.00    -0.051 A 
ATOM     38  H11 83P d   1     -13.878  10.585 -16.514  0.00  0.00     0.123 H 
ATOM     39  C25 83P d   1     -12.328   7.768 -17.094  0.00  0.00     0.001 A 
ATOM     40  H12 83P d   1     -13.729   8.832 -18.461  0.00  0.00     0.087 H 
BRANCH  39  41
ATOM     41  C26 83P d   1     -11.930   6.525 -17.855  0.00  0.00     0.019 C 
ATOM     42  H21 83P d   1     -11.875   5.677 -17.156  0.00  0.00     0.071 H 
ATOM     43  H22 83P d   1     -10.944   6.685 -18.316  0.00  0.00     0.071 H 
BRANCH  41  44
ATOM     44  N27 83P d   1     -12.898   6.222 -18.896  0.00  0.00    -0.386 N 
ATOM     45  H23 83P d   1     -12.595   6.308 -19.877  0.00  0.00     0.160 HD
BRANCH  44  46
ATOM     46  C28 83P d   1     -14.213   5.822 -18.651  0.00  0.00     0.030 A 
ATOM     47  C37 83P d   1     -14.768   5.794 -17.372  0.00  0.00    -0.028 A 
ATOM     48  C36 83P d   1     -16.097   5.402 -17.191  0.00  0.00     0.087 A 
ATOM     49  H16 83P d   1     -14.167   6.077 -16.516  0.00  0.00     0.090 H 
ATOM     50  C31 83P d   1     -16.879   5.012 -18.337  0.00  0.00     0.085 A 
ATOM     51  N35 83P d   1     -16.615   5.391 -15.955  0.00  0.00    -0.257 NA
ATOM     52  C30 83P d   1     -16.282   5.050 -19.611  0.00  0.00    -0.051 A 
ATOM     53  N32 83P d   1     -18.144   4.626 -18.173  0.00  0.00    -0.257 NA
ATOM     54  C29 83P d   1     -14.996   5.442 -19.766  0.00  0.00    -0.055 A 
ATOM     55  H13 83P d   1     -16.861   4.761 -20.481  0.00  0.00     0.087 H 
ATOM     56  H24 83P d   1     -14.560   5.465 -20.758  0.00  0.00     0.087 H 
ATOM     57  C33 83P d   1     -18.642   4.640 -16.952  0.00  0.00     0.020 A 
ATOM     58  C34 83P d   1     -17.869   5.004 -15.824  0.00  0.00     0.020 A 
ATOM     59  H14 83P d   1     -19.680   4.363 -16.807  0.00  0.00     0.117 H 
ATOM     60  H15 83P d   1     -18.315   4.964 -14.837  0.00  0.00     0.117 H 
ENDBRANCH  44  46
ENDBRANCH  41  44
ENDBRANCH  39  41
ENDBRANCH   8  34
TORSDOF 6
