REMARK  11 active torsions:
REMARK  status: ('A' for Active; 'I' for Inactive)
REMARK    1  A    between atoms: C1_1  and  C2_2 
REMARK    2  A    between atoms: C3_3  and  C5_4 
REMARK    3  A    between atoms: C3_3  and  C4_14 
REMARK    4  A    between atoms: C5_4  and  C6_5 
REMARK    5  A    between atoms: C6_5  and  C7_6 
REMARK    6  A    between atoms: C8_7  and  C9_8 
REMARK    7  A    between atoms: C8_7  and  C10_15 
REMARK    8  A    between atoms: C9_8  and  C11_9 
REMARK    9  A    between atoms: C11_9  and  C12_10 
REMARK   10  A    between atoms: C13_11  and  C14_12 
REMARK   11  A    between atoms: C13_11  and  C15_13 
ROOT
ATOM      1  C7  FAR d   1       1.986  10.785   8.914  0.00  0.00    -0.101 C 
ATOM      2  C8  FAR d   1       2.107  10.992  10.246  0.00  0.00    -0.087 C 
ATOM      3  H9  FAR d   1       1.031  11.009   8.441  0.00  0.00     0.077 H 
ENDROOT
BRANCH   2   4
ATOM      4  C9  FAR d   1       0.908  11.519  11.041  0.00  0.00    -0.042 C 
ATOM      5  H10 FAR d   1       0.480  10.695  11.631  0.00  0.00     0.040 H 
ATOM      6  H11 FAR d   1       0.152  11.899  10.338  0.00  0.00     0.040 H 
BRANCH   4   7
ATOM      7  C11 FAR d   1       1.319  12.650  11.990  0.00  0.00    -0.046 C 
ATOM      8  H12 FAR d   1       2.402  12.830  11.922  0.00  0.00     0.039 H 
ATOM      9  H13 FAR d   1       1.054  12.394  13.026  0.00  0.00     0.039 H 
BRANCH   7  10
ATOM     10  C12 FAR d   1       0.581  13.833  11.556  0.00  0.00    -0.101 C 
ATOM     11  C13 FAR d   1       0.179  14.792  12.362  0.00  0.00    -0.091 C 
ATOM     12  H14 FAR d   1       0.348  13.928  10.496  0.00  0.00     0.077 H 
BRANCH  11  13
ATOM     13  C14 FAR d   1       0.441  14.754  13.785  0.00  0.00    -0.055 C 
ATOM     14  H15 FAR d   1       0.018  15.651  14.260  0.00  0.00     0.033 H 
ATOM     15  H16 FAR d   1       1.527  14.726  13.957  0.00  0.00     0.033 H 
ATOM     16  H17 FAR d   1      -0.023  13.856  14.219  0.00  0.00     0.033 H 
ENDBRANCH  11  13
BRANCH  11  17
ATOM     17  C15 FAR d   1      -0.558  15.988  11.821  0.00  0.00    -0.055 C 
ATOM     18  H18 FAR d   1      -0.684  15.880  10.734  0.00  0.00     0.033 H 
ATOM     19  H19 FAR d   1       0.018  16.901  12.034  0.00  0.00     0.033 H 
ATOM     20  H20 FAR d   1      -1.546  16.057  12.300  0.00  0.00     0.033 H 
ENDBRANCH  11  17
ENDBRANCH   7  10
ENDBRANCH   4   7
ENDBRANCH   2   4
BRANCH   2  21
ATOM     21  C10 FAR d   1       3.349  10.654  11.045  0.00  0.00    -0.055 C 
ATOM     22  H24 FAR d   1       4.134  10.289  10.366  0.00  0.00     0.033 H 
ATOM     23  H25 FAR d   1       3.110   9.873  11.782  0.00  0.00     0.033 H 
ATOM     24  H26 FAR d   1       3.706  11.554  11.567  0.00  0.00     0.033 H 
ENDBRANCH   2  21
BRANCH   1  25
ATOM     25  C6  FAR d   1       3.082  10.272   8.072  0.00  0.00    -0.046 C 
ATOM     26  H7  FAR d   1       3.026  10.745   7.080  0.00  0.00     0.039 H 
ATOM     27  H8  FAR d   1       4.045  10.520   8.543  0.00  0.00     0.039 H 
BRANCH  25  28
ATOM     28  C5  FAR d   1       2.979   8.741   7.908  0.00  0.00    -0.042 C 
ATOM     29  H5  FAR d   1       3.573   8.239   8.685  0.00  0.00     0.040 H 
ATOM     30  H6  FAR d   1       1.929   8.424   7.987  0.00  0.00     0.040 H 
BRANCH  28  31
ATOM     31  C3  FAR d   1       3.533   8.390   6.510  0.00  0.00    -0.088 C 
ATOM     32  C2  FAR d   1       2.991   7.398   5.788  0.00  0.00    -0.105 C 
ATOM     33  H4  FAR d   1       3.408   7.164   4.809  0.00  0.00     0.076 H 
BRANCH  32  34
ATOM     34  C1  FAR d   1       1.827   6.604   6.295  0.00  0.00    -0.059 C 
ATOM     35  H1  FAR d   1       1.546   5.847   5.548  0.00  0.00     0.032 H 
ATOM     36  H2  FAR d   1       0.975   7.276   6.475  0.00  0.00     0.032 H 
ATOM     37  H3  FAR d   1       2.105   6.105   7.235  0.00  0.00     0.032 H 
ENDBRANCH  32  34
BRANCH  31  38
ATOM     38  C4  FAR d   1       4.711   9.171   5.999  0.00  0.00    -0.055 C 
ATOM     39  H21 FAR d   1       4.986   8.807   4.998  0.00  0.00     0.033 H 
ATOM     40  H22 FAR d   1       5.562   9.041   6.684  0.00  0.00     0.033 H 
ATOM     41  H23 FAR d   1       4.447  10.237   5.941  0.00  0.00     0.033 H 
ENDBRANCH  31  38
ENDBRANCH  28  31
ENDBRANCH  25  28
ENDBRANCH   1  25
TORSDOF 11
