REMARK  20 active torsions:
REMARK  status: ('A' for Active; 'I' for Inactive)
REMARK    1  A    between atoms: C1_1  and  O1_48 
REMARK    2  A    between atoms: C43_43  and  C3_3 
REMARK    3  A    between atoms: C4_4  and  O12_59 
REMARK    4  A    between atoms: C7_7  and  C14_14 
REMARK    5  A    between atoms: C8_8  and  O2_49 
REMARK    6  A    between atoms: C12_12  and  C13_13 
REMARK    7  A    between atoms: C16_16  and  C30_30 
REMARK    8  A    between atoms: C20_20  and  C31_31 
REMARK    9  A    between atoms: C21_21  and  O10_57 
REMARK   10  A    between atoms: C22_22  and  C32_32 
REMARK   11  A    between atoms: C23_23  and  O9_56 
REMARK   12  A    between atoms: C24_24  and  C33_33 
REMARK   13  A    between atoms: C25_25  and  O7_54 
REMARK   14  A    between atoms: C26_26  and  C34_34 
REMARK   15  A    between atoms: C27_27  and  O6_53 
REMARK   16  A    between atoms: C35_35  and  C36_36 
REMARK   17  A    between atoms: O7_54  and  C35_35 
REMARK   18  A    between atoms: O6_53  and  C37_37 
REMARK   19  A    between atoms: N4_47  and  C38_38 
REMARK   20  A    between atoms: N2_45  and  N3_46 
ROOT
ATOM      1  C1  RFP d   1     116.718  26.886  -8.554  0.00  0.00     0.107 A 
ATOM      2  C2  RFP d   1     115.495  26.476  -8.055  0.00  0.00     0.084 A 
ATOM      3  C3  RFP d   1     114.333  26.648  -8.759  0.00  0.00     0.047 A 
ATOM      4  C4  RFP d   1     114.373  27.190 -10.016  0.00  0.00     0.092 A 
ATOM      5  C5  RFP d   1     115.704  28.151 -11.813  0.00  0.00     0.064 A 
ATOM      6  C6  RFP d   1     116.946  28.506 -12.273  0.00  0.00     0.096 A 
ATOM      7  C7  RFP d   1     118.104  28.384 -11.619  0.00  0.00     0.007 A 
ATOM      8  C8  RFP d   1     118.049  27.847 -10.352  0.00  0.00     0.088 A 
ATOM      9  C9  RFP d   1     116.771  27.444  -9.825  0.00  0.00     0.047 A 
ATOM     10  C10 RFP d   1     115.562  27.589 -10.560  0.00  0.00     0.031 A 
ATOM     11  C11 RFP d   1     114.897  28.472 -12.860  0.00  0.00     0.225 C 
ATOM     12  C12 RFP d   1     115.406  29.218 -13.823  0.00  0.00     0.237 C 
ATOM     13  C15 RFP d   1     116.434  25.700  -5.823  0.00  0.00     0.251 C 
ATOM     14  C16 RFP d   1     116.153  25.188  -4.441  0.00  0.00     0.006 C 
ATOM     15  C17 RFP d   1     115.977  26.146  -3.426  0.00  0.00    -0.072 C 
ATOM     16  C18 RFP d   1     115.786  27.671  -3.665  0.00  0.00    -0.085 C 
ATOM     17  C19 RFP d   1     114.872  28.327  -2.824  0.00  0.00    -0.097 C 
ATOM     18  C20 RFP d   1     114.678  29.795  -2.734  0.00  0.00    -0.016 C 
ATOM     19  C21 RFP d   1     114.806  30.369  -4.109  0.00  0.00     0.047 C 
ATOM     20  C22 RFP d   1     113.974  31.566  -4.344  0.00  0.00    -0.007 C 
ATOM     21  C23 RFP d   1     114.317  32.358  -5.555  0.00  0.00     0.046 C 
ATOM     22  C24 RFP d   1     114.119  31.758  -6.878  0.00  0.00    -0.006 C 
ATOM     23  C25 RFP d   1     114.615  32.646  -7.997  0.00  0.00     0.059 C 
ATOM     24  C26 RFP d   1     114.272  32.003  -9.266  0.00  0.00    -0.003 C 
ATOM     25  C27 RFP d   1     114.569  32.855 -10.447  0.00  0.00     0.061 C 
ATOM     26  C28 RFP d   1     114.425  32.207 -11.821  0.00  0.00    -0.054 C 
ATOM     27  C29 RFP d   1     115.338  31.370 -12.527  0.00  0.00     0.015 C 
ATOM     28  N1  RFP d   1     115.319  25.929  -6.732  0.00  0.00    -0.320 N 
ATOM     29  O3  RFP d   1     116.791  29.090 -13.696  0.00  0.00    -0.305 OA
ATOM     30  O4  RFP d   1     113.774  28.065 -12.925  0.00  0.00    -0.286 OA
ATOM     31  O5  RFP d   1     114.985  30.568 -13.650  0.00  0.00    -0.319 OA
ATOM     32  O11 RFP d   1     117.574  25.930  -6.144  0.00  0.00    -0.268 OA
ATOM     33  H7  RFP d   1     115.974  25.793  -2.396  0.00  0.00     0.084 H 
ATOM     34  H8  RFP d   1     116.332  28.202  -4.443  0.00  0.00     0.083 H 
ATOM     35  H9  RFP d   1     114.252  27.703  -2.182  0.00  0.00     0.077 H 
ATOM     36  H10 RFP d   1     115.372  30.293  -2.041  0.00  0.00     0.049 H 
ATOM     37  H11 RFP d   1     114.591  29.598  -4.864  0.00  0.00     0.084 H 
ATOM     38  H12 RFP d   1     112.903  31.322  -4.287  0.00  0.00     0.047 H 
ATOM     39  H13 RFP d   1     113.737  33.292  -5.528  0.00  0.00     0.084 H 
ATOM     40  H14 RFP d   1     114.573  30.760  -6.961  0.00  0.00     0.047 H 
ATOM     41  H15 RFP d   1     115.656  32.978  -7.875  0.00  0.00     0.085 H 
ATOM     42  H16 RFP d   1     113.218  31.689  -9.282  0.00  0.00     0.047 H 
ATOM     43  H17 RFP d   1     113.895  33.724 -10.435  0.00  0.00     0.090 H 
ATOM     44  H18 RFP d   1     113.489  32.414 -12.337  0.00  0.00     0.083 H 
ATOM     45  H19 RFP d   1     116.372  31.342 -12.186  0.00  0.00     0.122 H 
ATOM     46  H53 RFP d   1     114.395  25.698  -6.427  0.00  0.00     0.169 HD
ENDROOT
BRANCH   3  47
ATOM     47  C43 RFP d   1     113.001  26.226  -8.141  0.00  0.00     0.036 C 
ATOM     48  N2  RFP d   1     112.660  26.698  -6.951  0.00  0.00    -0.189 NA
ATOM     49  H52 RFP d   1     112.339  25.544  -8.673  0.00  0.00     0.118 H 
BRANCH  48  50
ATOM     50  N3  RFP d   1     111.619  26.096  -6.270  0.00  0.00    -0.302 N 
ATOM     51  C40 RFP d   1     110.624  26.973  -6.731  0.00  0.00     0.034 C 
ATOM     52  C39 RFP d   1     109.675  27.216  -5.618  0.00  0.00     0.099 C 
ATOM     53  H46 RFP d   1     111.081  27.923  -7.046  0.00  0.00     0.069 H 
ATOM     54  H47 RFP d   1     110.093  26.521  -7.582  0.00  0.00     0.069 H 
ATOM     55  N4  RFP d   1     109.244  25.952  -5.145  0.00  0.00    -0.072 N 
ATOM     56  H44 RFP d   1     108.813  27.796  -5.979  0.00  0.00     0.078 H 
ATOM     57  H45 RFP d   1     110.177  27.769  -4.810  0.00  0.00     0.078 H 
ATOM     58  C42 RFP d   1     110.304  25.241  -4.502  0.00  0.00     0.099 C 
ATOM     59  H54 RFP d   1     109.172  25.437  -6.008  0.00  0.00     0.279 HD
ATOM     60  C41 RFP d   1     111.288  24.877  -5.588  0.00  0.00     0.034 C 
ATOM     61  H50 RFP d   1     110.788  25.879  -3.747  0.00  0.00     0.078 H 
ATOM     62  H51 RFP d   1     109.915  24.332  -4.019  0.00  0.00     0.078 H 
ATOM     63  H48 RFP d   1     110.832  24.162  -6.289  0.00  0.00     0.069 H 
ATOM     64  H49 RFP d   1     112.192  24.432  -5.147  0.00  0.00     0.069 H 
BRANCH  55  65
ATOM     65  C38 RFP d   1     107.852  25.818  -4.669  0.00  0.00     0.066 C 
ATOM     66  H41 RFP d   1     107.191  26.440  -5.290  0.00  0.00     0.068 H 
ATOM     67  H42 RFP d   1     107.789  26.149  -3.622  0.00  0.00     0.068 H 
ATOM     68  H43 RFP d   1     107.540  24.766  -4.740  0.00  0.00     0.068 H 
ENDBRANCH  55  65
ENDBRANCH  48  50
ENDBRANCH   3  47
BRANCH   4  69
ATOM     69  O12 RFP d   1     113.242  27.338 -10.734  0.00  0.00    -0.359 OA
ATOM     70  H59 RFP d   1     113.313  26.842 -11.541  0.00  0.00     0.217 HD
ENDBRANCH   4  69
BRANCH   1  71
ATOM     71  O1  RFP d   1     117.870  26.778  -7.915  0.00  0.00    -0.357 OA
ATOM     72  H55 RFP d   1     117.722  26.387  -7.062  0.00  0.00     0.217 HD
ENDBRANCH   1  71
BRANCH   8  73
ATOM     73  O2  RFP d   1     119.231  27.725  -9.664  0.00  0.00    -0.359 OA
ATOM     74  H56 RFP d   1     119.383  26.810  -9.457  0.00  0.00     0.217 HD
ENDBRANCH   8  73
BRANCH  14  75
ATOM     75  C30 RFP d   1     115.856  23.715  -4.269  0.00  0.00    -0.046 C 
ATOM     76  H20 RFP d   1     116.077  23.184  -5.207  0.00  0.00     0.033 H 
ATOM     77  H21 RFP d   1     114.794  23.582  -4.014  0.00  0.00     0.033 H 
ATOM     78  H22 RFP d   1     116.481  23.307  -3.461  0.00  0.00     0.033 H 
ENDBRANCH  14  75
BRANCH   7  79
ATOM     79  C14 RFP d   1     119.407  28.793 -12.172  0.00  0.00    -0.046 C 
ATOM     80  H4  RFP d   1     119.265  29.197 -13.185  0.00  0.00     0.033 H 
ATOM     81  H5  RFP d   1     120.077  27.922 -12.216  0.00  0.00     0.033 H 
ATOM     82  H6  RFP d   1     119.852  29.566 -11.528  0.00  0.00     0.033 H 
ENDBRANCH   7  79
BRANCH  12  83
ATOM     83  C13 RFP d   1     114.872  28.530 -15.028  0.00  0.00    -0.017 C 
ATOM     84  H1  RFP d   1     115.220  29.051 -15.932  0.00  0.00     0.035 H 
ATOM     85  H2  RFP d   1     113.772  28.541 -14.999  0.00  0.00     0.035 H 
ATOM     86  H3  RFP d   1     115.228  27.489 -15.044  0.00  0.00     0.035 H 
ENDBRANCH  12  83
BRANCH  18  87
ATOM     87  C31 RFP d   1     113.299  29.778  -2.238  0.00  0.00    -0.067 C 
ATOM     88  H23 RFP d   1     113.278  29.345  -1.227  0.00  0.00     0.028 H 
ATOM     89  H24 RFP d   1     112.675  29.170  -2.910  0.00  0.00     0.028 H 
ATOM     90  H25 RFP d   1     112.908  30.806  -2.205  0.00  0.00     0.028 H 
ENDBRANCH  18  87
BRANCH  19  91
ATOM     91  O10 RFP d   1     116.080  30.829  -4.193  0.00  0.00    -0.394 OA
ATOM     92  H58 RFP d   1     116.225  31.201  -5.055  0.00  0.00     0.210 HD
ENDBRANCH  19  91
BRANCH  25  93
ATOM     93  O6  RFP d   1     115.824  33.253 -10.191  0.00  0.00    -0.386 OA
BRANCH  93  94
ATOM     94  C37 RFP d   1     116.098  34.578 -10.509  0.00  0.00     0.005 C 
ATOM     95  H38 RFP d   1     117.146  34.805 -10.263  0.00  0.00     0.066 H 
ATOM     96  H39 RFP d   1     115.435  35.239  -9.931  0.00  0.00     0.066 H 
ATOM     97  H40 RFP d   1     115.930  34.739 -11.584  0.00  0.00     0.066 H 
ENDBRANCH  93  94
ENDBRANCH  25  93
BRANCH  20  98
ATOM     98  C32 RFP d   1     114.445  32.555  -3.348  0.00  0.00    -0.068 C 
ATOM     99  H26 RFP d   1     114.281  32.161  -2.334  0.00  0.00     0.028 H 
ATOM    100  H27 RFP d   1     113.886  33.494  -3.471  0.00  0.00     0.028 H 
ATOM    101  H28 RFP d   1     115.518  32.745  -3.499  0.00  0.00     0.028 H 
ENDBRANCH  20  98
BRANCH  24 102
ATOM    102  C34 RFP d   1     115.194  30.862  -9.285  0.00  0.00    -0.068 C 
ATOM    103  H32 RFP d   1     114.994  30.215  -8.419  0.00  0.00     0.028 H 
ATOM    104  H33 RFP d   1     116.231  31.227  -9.238  0.00  0.00     0.028 H 
ATOM    105  H34 RFP d   1     115.049  30.289 -10.213  0.00  0.00     0.028 H 
ENDBRANCH  24 102
BRANCH  21 106
ATOM    106  O9  RFP d   1     115.640  32.618  -5.413  0.00  0.00    -0.395 OA
ATOM    107  H57 RFP d   1     116.130  31.808  -5.485  0.00  0.00     0.210 HD
ENDBRANCH  21 106
BRANCH  23 108
ATOM    108  O7  RFP d   1     113.701  33.583  -8.166  0.00  0.00    -0.315 OA
BRANCH 108 109
ATOM    109  C35 RFP d   1     113.838  34.825  -7.680  0.00  0.00     0.255 C 
ATOM    110  O8  RFP d   1     114.804  35.035  -6.985  0.00  0.00    -0.266 OA
BRANCH 109 111
ATOM    111  C36 RFP d   1     112.686  35.720  -7.777  0.00  0.00     0.004 C 
ATOM    112  H35 RFP d   1     112.943  36.697  -7.341  0.00  0.00     0.041 H 
ATOM    113  H36 RFP d   1     111.837  35.286  -7.229  0.00  0.00     0.041 H 
ATOM    114  H37 RFP d   1     112.411  35.851  -8.834  0.00  0.00     0.041 H 
ENDBRANCH 109 111
ENDBRANCH 108 109
ENDBRANCH  23 108
BRANCH  22 115
ATOM    115  C33 RFP d   1     112.629  31.718  -6.851  0.00  0.00    -0.068 C 
ATOM    116  H29 RFP d   1     112.294  31.067  -6.030  0.00  0.00     0.028 H 
ATOM    117  H30 RFP d   1     112.255  31.323  -7.807  0.00  0.00     0.028 H 
ATOM    118  H31 RFP d   1     112.238  32.734  -6.696  0.00  0.00     0.028 H 
ENDBRANCH  22 115
TORSDOF 20
