REMARK  20 active torsions:
REMARK  status: ('A' for Active; 'I' for Inactive)
REMARK    1  A    between atoms: C1_1  and  O1_48 
REMARK    2  A    between atoms: C43_43  and  C3_3 
REMARK    3  A    between atoms: C4_4  and  O12_59 
REMARK    4  A    between atoms: C7_7  and  C14_14 
REMARK    5  A    between atoms: C8_8  and  O2_49 
REMARK    6  A    between atoms: C12_12  and  C13_13 
REMARK    7  A    between atoms: C16_16  and  C30_30 
REMARK    8  A    between atoms: C20_20  and  C31_31 
REMARK    9  A    between atoms: C21_21  and  O10_57 
REMARK   10  A    between atoms: C22_22  and  C32_32 
REMARK   11  A    between atoms: C23_23  and  O9_56 
REMARK   12  A    between atoms: C24_24  and  C33_33 
REMARK   13  A    between atoms: C25_25  and  O7_54 
REMARK   14  A    between atoms: C26_26  and  C34_34 
REMARK   15  A    between atoms: C27_27  and  O6_53 
REMARK   16  A    between atoms: C35_35  and  C36_36 
REMARK   17  A    between atoms: O7_54  and  C35_35 
REMARK   18  A    between atoms: O6_53  and  C37_37 
REMARK   19  A    between atoms: N4_47  and  C38_38 
REMARK   20  A    between atoms: N2_45  and  N3_46 
ROOT
ATOM      1  C1  RFP d   1     114.852  26.922  -9.330  0.00  0.00     0.107 A 
ATOM      2  C2  RFP d   1     113.612  26.482  -8.833  0.00  0.00     0.084 A 
ATOM      3  C3  RFP d   1     112.448  26.586  -9.588  0.00  0.00     0.047 A 
ATOM      4  C4  RFP d   1     112.479  27.111 -10.869  0.00  0.00     0.092 A 
ATOM      5  C5  RFP d   1     113.820  28.109 -12.730  0.00  0.00     0.064 A 
ATOM      6  C6  RFP d   1     115.094  28.520 -13.166  0.00  0.00     0.096 A 
ATOM      7  C7  RFP d   1     116.266  28.456 -12.480  0.00  0.00     0.007 A 
ATOM      8  C8  RFP d   1     116.192  27.914 -11.174  0.00  0.00     0.088 A 
ATOM      9  C9  RFP d   1     114.899  27.467 -10.653  0.00  0.00     0.047 A 
ATOM     10  C10 RFP d   1     113.674  27.556 -11.431  0.00  0.00     0.031 A 
ATOM     11  C11 RFP d   1     112.999  28.413 -13.836  0.00  0.00     0.225 C 
ATOM     12  C12 RFP d   1     113.550  29.204 -14.805  0.00  0.00     0.237 C 
ATOM     13  C15 RFP d   1     114.438  25.863  -6.392  0.00  0.00     0.251 C 
ATOM     14  C16 RFP d   1     114.042  25.278  -5.027  0.00  0.00     0.006 C 
ATOM     15  C17 RFP d   1     113.446  26.175  -4.124  0.00  0.00    -0.072 C 
ATOM     16  C18 RFP d   1     113.173  27.635  -4.547  0.00  0.00    -0.085 C 
ATOM     17  C19 RFP d   1     112.973  28.625  -3.566  0.00  0.00    -0.097 C 
ATOM     18  C20 RFP d   1     112.106  29.845  -3.803  0.00  0.00    -0.016 C 
ATOM     19  C21 RFP d   1     112.442  30.486  -5.128  0.00  0.00     0.047 C 
ATOM     20  C22 RFP d   1     111.647  31.740  -5.345  0.00  0.00    -0.007 C 
ATOM     21  C23 RFP d   1     112.111  32.441  -6.587  0.00  0.00     0.046 C 
ATOM     22  C24 RFP d   1     111.719  31.777  -7.871  0.00  0.00    -0.006 C 
ATOM     23  C25 RFP d   1     112.261  32.592  -9.034  0.00  0.00     0.059 C 
ATOM     24  C26 RFP d   1     112.432  31.742 -10.264  0.00  0.00    -0.003 C 
ATOM     25  C27 RFP d   1     112.693  32.624 -11.469  0.00  0.00     0.061 C 
ATOM     26  C28 RFP d   1     112.417  31.920 -12.775  0.00  0.00    -0.054 C 
ATOM     27  C29 RFP d   1     113.432  31.314 -13.526  0.00  0.00     0.015 C 
ATOM     28  N1  RFP d   1     113.414  25.920  -7.479  0.00  0.00    -0.320 N 
ATOM     29  O3  RFP d   1     114.950  29.085 -14.620  0.00  0.00    -0.305 OA
ATOM     30  O4  RFP d   1     111.849  27.999 -13.928  0.00  0.00    -0.286 OA
ATOM     31  O5  RFP d   1     113.128  30.550 -14.663  0.00  0.00    -0.319 OA
ATOM     32  O11 RFP d   1     115.579  26.283  -6.566  0.00  0.00    -0.268 OA
ATOM     33  H7  RFP d   1     113.176  25.840  -3.124  0.00  0.00     0.084 H 
ATOM     34  H8  RFP d   1     113.135  27.898  -5.603  0.00  0.00     0.083 H 
ATOM     35  H9  RFP d   1     113.460  28.509  -2.599  0.00  0.00     0.077 H 
ATOM     36  H10 RFP d   1     112.317  30.578  -3.010  0.00  0.00     0.049 H 
ATOM     37  H11 RFP d   1     112.194  29.777  -5.931  0.00  0.00     0.084 H 
ATOM     38  H12 RFP d   1     110.579  31.487  -5.416  0.00  0.00     0.047 H 
ATOM     39  H13 RFP d   1     111.694  33.459  -6.598  0.00  0.00     0.084 H 
ATOM     40  H14 RFP d   1     112.150  30.765  -7.900  0.00  0.00     0.047 H 
ATOM     41  H15 RFP d   1     113.247  32.991  -8.755  0.00  0.00     0.085 H 
ATOM     42  H16 RFP d   1     111.495  31.192 -10.436  0.00  0.00     0.047 H 
ATOM     43  H17 RFP d   1     112.021  33.492 -11.402  0.00  0.00     0.090 H 
ATOM     44  H18 RFP d   1     111.394  31.882 -13.146  0.00  0.00     0.083 H 
ATOM     45  H19 RFP d   1     114.471  31.437 -13.223  0.00  0.00     0.122 H 
ATOM     46  H53 RFP d   1     112.511  25.543  -7.272  0.00  0.00     0.169 HD
ENDROOT
BRANCH   3  47
ATOM     47  C43 RFP d   1     111.141  26.027  -9.000  0.00  0.00     0.036 C 
ATOM     48  N2  RFP d   1     110.519  26.729  -8.048  0.00  0.00    -0.189 NA
ATOM     49  H52 RFP d   1     110.732  25.081  -9.351  0.00  0.00     0.118 H 
BRANCH  48  50
ATOM     50  N3  RFP d   1     109.430  26.181  -7.352  0.00  0.00    -0.302 N 
ATOM     51  C40 RFP d   1     108.412  27.056  -7.841  0.00  0.00     0.034 C 
ATOM     52  C39 RFP d   1     107.356  27.305  -6.803  0.00  0.00     0.099 C 
ATOM     53  H46 RFP d   1     108.870  28.016  -8.122  0.00  0.00     0.069 H 
ATOM     54  H47 RFP d   1     107.943  26.600  -8.726  0.00  0.00     0.069 H 
ATOM     55  N4  RFP d   1     106.885  26.087  -6.193  0.00  0.00    -0.072 N 
ATOM     56  H44 RFP d   1     106.505  27.813  -7.280  0.00  0.00     0.078 H 
ATOM     57  H45 RFP d   1     107.777  27.952  -6.019  0.00  0.00     0.078 H 
ATOM     58  C42 RFP d   1     107.950  25.275  -5.638  0.00  0.00     0.099 C 
ATOM     59  H54 RFP d   1     106.638  25.547  -7.007  0.00  0.00     0.279 HD
ATOM     60  C41 RFP d   1     109.084  24.985  -6.615  0.00  0.00     0.034 C 
ATOM     61  H50 RFP d   1     108.369  25.802  -4.768  0.00  0.00     0.078 H 
ATOM     62  H51 RFP d   1     107.520  24.316  -5.313  0.00  0.00     0.078 H 
ATOM     63  H48 RFP d   1     108.764  24.204  -7.320  0.00  0.00     0.069 H 
ATOM     64  H49 RFP d   1     109.965  24.636  -6.056  0.00  0.00     0.069 H 
BRANCH  55  65
ATOM     65  C38 RFP d   1     105.572  26.117  -5.496  0.00  0.00     0.066 C 
ATOM     66  H41 RFP d   1     104.881  26.775  -6.043  0.00  0.00     0.068 H 
ATOM     67  H42 RFP d   1     105.708  26.498  -4.473  0.00  0.00     0.068 H 
ATOM     68  H43 RFP d   1     105.155  25.100  -5.456  0.00  0.00     0.068 H 
ENDBRANCH  55  65
ENDBRANCH  48  50
ENDBRANCH   3  47
BRANCH   4  69
ATOM     69  O12 RFP d   1     111.326  27.187 -11.573  0.00  0.00    -0.359 OA
ATOM     70  H59 RFP d   1     111.408  26.676 -12.369  0.00  0.00     0.217 HD
ENDBRANCH   4  69
BRANCH   1  71
ATOM     71  O1  RFP d   1     115.989  26.838  -8.612  0.00  0.00    -0.357 OA
ATOM     72  H55 RFP d   1     115.798  26.459  -7.762  0.00  0.00     0.217 HD
ENDBRANCH   1  71
BRANCH   8  73
ATOM     73  O2  RFP d   1     117.340  27.803 -10.382  0.00  0.00    -0.359 OA
ATOM     74  H56 RFP d   1     117.484  26.890 -10.160  0.00  0.00     0.217 HD
ENDBRANCH   8  73
BRANCH  14  75
ATOM     75  C30 RFP d   1     113.756  23.789  -4.925  0.00  0.00    -0.046 C 
ATOM     76  H20 RFP d   1     114.309  23.255  -5.712  0.00  0.00     0.033 H 
ATOM     77  H21 RFP d   1     112.677  23.613  -5.051  0.00  0.00     0.033 H 
ATOM     78  H22 RFP d   1     114.074  23.421  -3.938  0.00  0.00     0.033 H 
ENDBRANCH  14  75
BRANCH   7  79
ATOM     79  C14 RFP d   1     117.555  28.933 -13.072  0.00  0.00    -0.046 C 
ATOM     80  H4  RFP d   1     117.374  29.311 -14.089  0.00  0.00     0.033 H 
ATOM     81  H5  RFP d   1     118.271  28.099 -13.113  0.00  0.00     0.033 H 
ATOM     82  H6  RFP d   1     117.968  29.740 -12.449  0.00  0.00     0.033 H 
ENDBRANCH   7  79
BRANCH  12  83
ATOM     83  C13 RFP d   1     113.155  28.683 -16.157  0.00  0.00    -0.017 C 
ATOM     84  H1  RFP d   1     113.597  29.318 -16.938  0.00  0.00     0.035 H 
ATOM     85  H2  RFP d   1     112.059  28.698 -16.250  0.00  0.00     0.035 H 
ATOM     86  H3  RFP d   1     113.519  27.652 -16.273  0.00  0.00     0.035 H 
ENDBRANCH  12  83
BRANCH  18  87
ATOM     87  C31 RFP d   1     110.669  29.469  -3.711  0.00  0.00    -0.067 C 
ATOM     88  H23 RFP d   1     110.473  29.008  -2.732  0.00  0.00     0.028 H 
ATOM     89  H24 RFP d   1     110.426  28.753  -4.509  0.00  0.00     0.028 H 
ATOM     90  H25 RFP d   1     110.047  30.369  -3.824  0.00  0.00     0.028 H 
ENDBRANCH  18  87
BRANCH  19  91
ATOM     91  O10 RFP d   1     113.801  30.757  -5.179  0.00  0.00    -0.394 OA
ATOM     92  H58 RFP d   1     114.019  31.118  -6.030  0.00  0.00     0.210 HD
ENDBRANCH  19  91
BRANCH  25  93
ATOM     93  O6  RFP d   1     113.994  33.078 -11.459  0.00  0.00    -0.386 OA
BRANCH  93  94
ATOM     94  C37 RFP d   1     114.269  34.395 -11.818  0.00  0.00     0.005 C 
ATOM     95  H38 RFP d   1     115.352  34.575 -11.751  0.00  0.00     0.066 H 
ATOM     96  H39 RFP d   1     113.741  35.079 -11.137  0.00  0.00     0.066 H 
ATOM     97  H40 RFP d   1     113.931  34.572 -12.850  0.00  0.00     0.066 H 
ENDBRANCH  93  94
ENDBRANCH  25  93
BRANCH  20  98
ATOM     98  C32 RFP d   1     111.881  32.736  -4.244  0.00  0.00    -0.068 C 
ATOM     99  H26 RFP d   1     111.565  32.302  -3.284  0.00  0.00     0.028 H 
ATOM    100  H27 RFP d   1     111.298  33.647  -4.444  0.00  0.00     0.028 H 
ATOM    101  H28 RFP d   1     112.951  32.988  -4.199  0.00  0.00     0.028 H 
ENDBRANCH  20  98
BRANCH  24 102
ATOM    102  C34 RFP d   1     113.537  30.733 -10.078  0.00  0.00    -0.068 C 
ATOM    103  H32 RFP d   1     113.320  30.109  -9.198  0.00  0.00     0.028 H 
ATOM    104  H33 RFP d   1     114.492  31.258  -9.928  0.00  0.00     0.028 H 
ATOM    105  H34 RFP d   1     113.605  30.095 -10.972  0.00  0.00     0.028 H 
ENDBRANCH  24 102
BRANCH  21 106
ATOM    106  O9  RFP d   1     113.483  32.504  -6.455  0.00  0.00    -0.395 OA
ATOM    107  H57 RFP d   1     113.841  31.624  -6.463  0.00  0.00     0.210 HD
ENDBRANCH  21 106
BRANCH  23 108
ATOM    108  O7  RFP d   1     111.400  33.657  -9.263  0.00  0.00    -0.315 OA
BRANCH 108 109
ATOM    109  C35 RFP d   1     111.668  34.974  -8.846  0.00  0.00     0.255 C 
ATOM    110  O8  RFP d   1     112.642  35.225  -8.155  0.00  0.00    -0.266 OA
BRANCH 109 111
ATOM    111  C36 RFP d   1     110.610  36.016  -8.964  0.00  0.00     0.004 C 
ATOM    112  H35 RFP d   1     110.998  36.976  -8.592  0.00  0.00     0.041 H 
ATOM    113  H36 RFP d   1     109.734  35.719  -8.368  0.00  0.00     0.041 H 
ATOM    114  H37 RFP d   1     110.317  36.123 -10.019  0.00  0.00     0.041 H 
ENDBRANCH 109 111
ENDBRANCH 108 109
ENDBRANCH  23 108
BRANCH  22 115
ATOM    115  C33 RFP d   1     110.225  31.677  -7.991  0.00  0.00    -0.068 C 
ATOM    116  H29 RFP d   1     109.828  31.088  -7.151  0.00  0.00     0.028 H 
ATOM    117  H30 RFP d   1     109.966  31.184  -8.940  0.00  0.00     0.028 H 
ATOM    118  H31 RFP d   1     109.787  32.686  -7.970  0.00  0.00     0.028 H 
ENDBRANCH  22 115
TORSDOF 20
