REMARK  20 active torsions:
REMARK  status: ('A' for Active; 'I' for Inactive)
REMARK    1  A    between atoms: C1_1  and  O1_48 
REMARK    2  A    between atoms: C43_43  and  C3_3 
REMARK    3  A    between atoms: C4_4  and  O12_59 
REMARK    4  A    between atoms: C7_7  and  C14_14 
REMARK    5  A    between atoms: C8_8  and  O2_49 
REMARK    6  A    between atoms: C12_12  and  C13_13 
REMARK    7  A    between atoms: C16_16  and  C30_30 
REMARK    8  A    between atoms: C20_20  and  C31_31 
REMARK    9  A    between atoms: C21_21  and  O10_57 
REMARK   10  A    between atoms: C22_22  and  C32_32 
REMARK   11  A    between atoms: C23_23  and  O9_56 
REMARK   12  A    between atoms: C24_24  and  C33_33 
REMARK   13  A    between atoms: C25_25  and  O7_54 
REMARK   14  A    between atoms: C26_26  and  C34_34 
REMARK   15  A    between atoms: C27_27  and  O6_53 
REMARK   16  A    between atoms: C35_35  and  C36_36 
REMARK   17  A    between atoms: O7_54  and  C35_35 
REMARK   18  A    between atoms: O6_53  and  C37_37 
REMARK   19  A    between atoms: N4_47  and  C38_38 
REMARK   20  A    between atoms: N2_45  and  N3_46 
ROOT
ATOM      1  C1  RFP d   1    -113.900 -26.734  -8.429  0.00  0.00     0.107 A 
ATOM      2  C2  RFP d   1    -112.727 -26.231  -7.840  0.00  0.00     0.084 A 
ATOM      3  C3  RFP d   1    -111.495 -26.341  -8.466  0.00  0.00     0.047 A 
ATOM      4  C4  RFP d   1    -111.392 -26.927  -9.718  0.00  0.00     0.092 A 
ATOM      5  C5  RFP d   1    -112.566 -28.054 -11.636  0.00  0.00     0.064 A 
ATOM      6  C6  RFP d   1    -113.799 -28.503 -12.142  0.00  0.00     0.096 A 
ATOM      7  C7  RFP d   1    -115.013 -28.431 -11.559  0.00  0.00     0.007 A 
ATOM      8  C8  RFP d   1    -115.041 -27.832 -10.299  0.00  0.00     0.088 A 
ATOM      9  C9  RFP d   1    -113.808 -27.342  -9.707  0.00  0.00     0.047 A 
ATOM     10  C10 RFP d   1    -112.523 -27.436 -10.361  0.00  0.00     0.031 A 
ATOM     11  C11 RFP d   1    -111.670 -28.396 -12.662  0.00  0.00     0.225 C 
ATOM     12  C12 RFP d   1    -112.155 -29.196 -13.645  0.00  0.00     0.237 C 
ATOM     13  C15 RFP d   1    -113.838 -25.494  -5.581  0.00  0.00     0.226 C 
ATOM     14  C16 RFP d   1    -113.599 -24.864  -4.213  0.00  0.00     0.020 C 
ATOM     15  C17 RFP d   1    -113.245 -25.805  -3.226  0.00  0.00    -0.054 C 
ATOM     16  C18 RFP d   1    -112.996 -27.266  -3.668  0.00  0.00    -0.064 C 
ATOM     17  C19 RFP d   1    -113.191 -28.358  -2.809  0.00  0.00    -0.060 C 
ATOM     18  C20 RFP d   1    -112.172 -29.468  -2.810  0.00  0.00    -0.032 C 
ATOM     19  C21 RFP d   1    -112.390 -30.341  -4.013  0.00  0.00     0.044 C 
ATOM     20  C22 RFP d   1    -111.419 -31.486  -4.025  0.00  0.00    -0.007 C 
ATOM     21  C23 RFP d   1    -111.709 -32.415  -5.173  0.00  0.00     0.046 C 
ATOM     22  C24 RFP d   1    -110.971 -31.929  -6.371  0.00  0.00    -0.006 C 
ATOM     23  C25 RFP d   1    -111.512 -32.518  -7.658  0.00  0.00     0.059 C 
ATOM     24  C26 RFP d   1    -111.394 -31.569  -8.798  0.00  0.00    -0.003 C 
ATOM     25  C27 RFP d   1    -111.570 -32.346 -10.071  0.00  0.00     0.061 C 
ATOM     26  C28 RFP d   1    -111.265 -31.490 -11.270  0.00  0.00    -0.054 C 
ATOM     27  C29 RFP d   1    -112.149 -31.263 -12.328  0.00  0.00     0.015 C 
ATOM     28  N1  RFP d   1    -112.679 -25.608  -6.510  0.00  0.00    -0.324 N 
ATOM     29  O3  RFP d   1    -113.561 -29.139 -13.547  0.00  0.00    -0.305 OA
ATOM     30  O4  RFP d   1    -110.512 -28.004 -12.674  0.00  0.00    -0.286 OA
ATOM     31  O5  RFP d   1    -111.713 -30.517 -13.435  0.00  0.00    -0.319 OA
ATOM     32  O11 RFP d   1    -114.955 -25.913  -5.864  0.00  0.00    -0.273 OA
ATOM     33  H7  RFP d   1    -114.636 -24.665  -3.905  0.00  0.00     0.054 H 
ATOM     34  H8  RFP d   1    -114.058 -25.822  -2.485  0.00  0.00     0.034 H 
ATOM     35  H9  RFP d   1    -112.321 -25.446  -2.749  0.00  0.00     0.034 H 
ATOM     36  H10 RFP d   1    -111.945 -27.313  -3.988  0.00  0.00     0.033 H 
ATOM     37  H11 RFP d   1    -113.651 -27.439  -4.535  0.00  0.00     0.033 H 
ATOM     38  H12 RFP d   1    -114.160 -28.808  -3.071  0.00  0.00     0.033 H 
ATOM     39  H13 RFP d   1    -113.236 -27.960  -1.784  0.00  0.00     0.033 H 
ATOM     40  H14 RFP d   1    -112.290 -30.075  -1.900  0.00  0.00     0.043 H 
ATOM     41  H15 RFP d   1    -112.207 -29.735  -4.912  0.00  0.00     0.084 H 
ATOM     42  H16 RFP d   1    -110.410 -31.068  -4.158  0.00  0.00     0.047 H 
ATOM     43  H17 RFP d   1    -111.341 -33.420  -4.921  0.00  0.00     0.084 H 
ATOM     44  H18 RFP d   1    -111.058 -30.834  -6.425  0.00  0.00     0.047 H 
ATOM     45  H19 RFP d   1    -112.557 -32.833  -7.520  0.00  0.00     0.085 H 
ATOM     46  H20 RFP d   1    -110.396 -31.106  -8.779  0.00  0.00     0.047 H 
ATOM     47  H21 RFP d   1    -110.890 -33.211 -10.069  0.00  0.00     0.090 H 
ATOM     48  H22 RFP d   1    -110.287 -31.014 -11.317  0.00  0.00     0.083 H 
ATOM     49  H23 RFP d   1    -113.163 -31.659 -12.295  0.00  0.00     0.122 H 
ATOM     50  H57 RFP d   1    -111.803 -25.233  -6.206  0.00  0.00     0.169 HD
ENDROOT
BRANCH   3  51
ATOM     51  C43 RFP d   1    -110.241 -25.837  -7.738  0.00  0.00     0.036 C 
ATOM     52  N2  RFP d   1    -109.593 -26.687  -6.938  0.00  0.00    -0.189 NA
ATOM     53  H56 RFP d   1    -109.890 -24.815  -7.870  0.00  0.00     0.118 H 
BRANCH  52  54
ATOM     54  N3  RFP d   1    -108.544 -26.212  -6.134  0.00  0.00    -0.302 N 
ATOM     55  C40 RFP d   1    -107.551 -27.196  -6.445  0.00  0.00     0.034 C 
ATOM     56  C39 RFP d   1    -106.649 -27.465  -5.272  0.00  0.00     0.099 C 
ATOM     57  H50 RFP d   1    -108.054 -28.132  -6.730  0.00  0.00     0.069 H 
ATOM     58  H51 RFP d   1    -106.943 -26.835  -7.287  0.00  0.00     0.069 H 
ATOM     59  N4  RFP d   1    -106.195 -26.273  -4.594  0.00  0.00    -0.072 N 
ATOM     60  H48 RFP d   1    -105.767 -28.015  -5.633  0.00  0.00     0.078 H 
ATOM     61  H49 RFP d   1    -107.198 -28.086  -4.549  0.00  0.00     0.078 H 
ATOM     62  C42 RFP d   1    -107.260 -25.349  -4.256  0.00  0.00     0.099 C 
ATOM     63  H58 RFP d   1    -105.727 -25.780  -5.339  0.00  0.00     0.279 HD
ATOM     64  C41 RFP d   1    -108.170 -25.003  -5.430  0.00  0.00     0.034 C 
ATOM     65  H54 RFP d   1    -107.874 -25.802  -3.463  0.00  0.00     0.078 H 
ATOM     66  H55 RFP d   1    -106.807 -24.419  -3.883  0.00  0.00     0.078 H 
ATOM     67  H52 RFP d   1    -107.638 -24.329  -6.118  0.00  0.00     0.069 H 
ATOM     68  H53 RFP d   1    -109.076 -24.504  -5.055  0.00  0.00     0.069 H 
BRANCH  59  69
ATOM     69  C38 RFP d   1    -105.086 -26.429  -3.617  0.00  0.00     0.066 C 
ATOM     70  H45 RFP d   1    -104.356 -27.156  -4.003  0.00  0.00     0.068 H 
ATOM     71  H46 RFP d   1    -105.489 -26.788  -2.659  0.00  0.00     0.068 H 
ATOM     72  H47 RFP d   1    -104.591 -25.458  -3.466  0.00  0.00     0.068 H 
ENDBRANCH  59  69
ENDBRANCH  52  54
ENDBRANCH   3  51
BRANCH   4  73
ATOM     73  O12 RFP d   1    -110.174 -27.001 -10.307  0.00  0.00    -0.359 OA
ATOM     74  H63 RFP d   1    -110.194 -26.532 -11.133  0.00  0.00     0.217 HD
ENDBRANCH   4  73
BRANCH   1  75
ATOM     75  O1  RFP d   1    -115.113 -26.663  -7.859  0.00  0.00    -0.357 OA
ATOM     76  H59 RFP d   1    -115.040 -26.238  -7.013  0.00  0.00     0.217 HD
ENDBRANCH   1  75
BRANCH   8  77
ATOM     77  O2  RFP d   1    -116.241 -27.713  -9.620  0.00  0.00    -0.359 OA
ATOM     78  H60 RFP d   1    -116.419 -26.795  -9.453  0.00  0.00     0.217 HD
ENDBRANCH   8  77
BRANCH  14  79
ATOM     79  C30 RFP d   1    -113.079 -23.437  -4.191  0.00  0.00    -0.065 C 
ATOM     80  H24 RFP d   1    -113.484 -22.886  -5.053  0.00  0.00     0.028 H 
ATOM     81  H25 RFP d   1    -111.980 -23.446  -4.245  0.00  0.00     0.028 H 
ATOM     82  H26 RFP d   1    -113.396 -22.945  -3.260  0.00  0.00     0.028 H 
ENDBRANCH  14  79
BRANCH   7  83
ATOM     83  C14 RFP d   1    -116.241 -28.956 -12.216  0.00  0.00    -0.046 C 
ATOM     84  H4  RFP d   1    -115.979 -29.381 -13.196  0.00  0.00     0.033 H 
ATOM     85  H5  RFP d   1    -116.963 -28.137 -12.352  0.00  0.00     0.033 H 
ATOM     86  H6  RFP d   1    -116.689 -29.738 -11.585  0.00  0.00     0.033 H 
ENDBRANCH   7  83
BRANCH  12  87
ATOM     87  C13 RFP d   1    -111.696 -28.647 -14.961  0.00  0.00    -0.017 C 
ATOM     88  H1  RFP d   1    -112.078 -29.280 -15.776  0.00  0.00     0.035 H 
ATOM     89  H2  RFP d   1    -110.597 -28.635 -14.990  0.00  0.00     0.035 H 
ATOM     90  H3  RFP d   1    -112.077 -27.622 -15.084  0.00  0.00     0.035 H 
ENDBRANCH  12  87
BRANCH  18  91
ATOM     91  C31 RFP d   1    -110.813 -28.875  -2.825  0.00  0.00    -0.071 C 
ATOM     92  H27 RFP d   1    -110.680 -28.242  -1.935  0.00  0.00     0.028 H 
ATOM     93  H28 RFP d   1    -110.689 -28.265  -3.732  0.00  0.00     0.028 H 
ATOM     94  H29 RFP d   1    -110.062 -29.679  -2.819  0.00  0.00     0.028 H 
ENDBRANCH  18  91
BRANCH  19  95
ATOM     95  O10 RFP d   1    -113.703 -30.784  -4.057  0.00  0.00    -0.395 OA
ATOM     96  H62 RFP d   1    -113.840 -31.286  -4.852  0.00  0.00     0.210 HD
ENDBRANCH  19  95
BRANCH  25  97
ATOM     97  O6  RFP d   1    -112.866 -32.783 -10.112  0.00  0.00    -0.386 OA
BRANCH  97  98
ATOM     98  C37 RFP d   1    -113.114 -34.089 -10.512  0.00  0.00     0.005 C 
ATOM     99  H42 RFP d   1    -114.197 -34.280 -10.490  0.00  0.00     0.066 H 
ATOM    100  H43 RFP d   1    -112.606 -34.785  -9.828  0.00  0.00     0.066 H 
ATOM    101  H44 RFP d   1    -112.736 -34.237 -11.534  0.00  0.00     0.066 H 
ENDBRANCH  97  98
ENDBRANCH  25  97
BRANCH  20 102
ATOM    102  C32 RFP d   1    -111.430 -32.284  -2.752  0.00  0.00    -0.068 C 
ATOM    103  H30 RFP d   1    -111.219 -31.620  -1.901  0.00  0.00     0.028 H 
ATOM    104  H31 RFP d   1    -110.660 -33.068  -2.804  0.00  0.00     0.028 H 
ATOM    105  H32 RFP d   1    -112.418 -32.748  -2.619  0.00  0.00     0.028 H 
ENDBRANCH  20 102
BRANCH  24 106
ATOM    106  C34 RFP d   1    -112.431 -30.491  -8.748  0.00  0.00    -0.068 C 
ATOM    107  H36 RFP d   1    -112.314 -29.913  -7.820  0.00  0.00     0.028 H 
ATOM    108  H37 RFP d   1    -113.433 -30.944  -8.774  0.00  0.00     0.028 H 
ATOM    109  H38 RFP d   1    -112.308 -29.823  -9.614  0.00  0.00     0.028 H 
ENDBRANCH  24 106
BRANCH  21 110
ATOM    110  O9  RFP d   1    -113.075 -32.498  -5.389  0.00  0.00    -0.395 OA
ATOM    111  H61 RFP d   1    -113.501 -32.811  -4.600  0.00  0.00     0.210 HD
ENDBRANCH  21 110
BRANCH  23 112
ATOM    112  O7  RFP d   1    -110.708 -33.572  -8.002  0.00  0.00    -0.315 OA
BRANCH 112 113
ATOM    113  C35 RFP d   1    -111.054 -34.862  -7.640  0.00  0.00     0.255 C 
ATOM    114  O8  RFP d   1    -112.040 -35.028  -6.946  0.00  0.00    -0.266 OA
BRANCH 113 115
ATOM    115  C36 RFP d   1    -110.418 -35.996  -8.356  0.00  0.00     0.004 C 
ATOM    116  H39 RFP d   1    -110.799 -36.945  -7.951  0.00  0.00     0.041 H 
ATOM    117  H40 RFP d   1    -109.327 -35.950  -8.220  0.00  0.00     0.041 H 
ATOM    118  H41 RFP d   1    -110.657 -35.933  -9.428  0.00  0.00     0.041 H 
ENDBRANCH 113 115
ENDBRANCH 112 113
ENDBRANCH  23 112
BRANCH  22 119
ATOM    119  C33 RFP d   1    -109.531 -32.308  -6.197  0.00  0.00    -0.068 C 
ATOM    120  H33 RFP d   1    -109.149 -31.876  -5.261  0.00  0.00     0.028 H 
ATOM    121  H34 RFP d   1    -108.945 -31.923  -7.045  0.00  0.00     0.028 H 
ATOM    122  H35 RFP d   1    -109.442 -33.404  -6.158  0.00  0.00     0.028 H 
ENDBRANCH  22 119
TORSDOF 20
