REMARK  17 active torsions:
REMARK  status: ('A' for Active; 'I' for Inactive)
REMARK    1  A    between atoms: PG_2  and  O3B_5 
REMARK    2  A    between atoms: O3B_5  and  PB_6 
REMARK    3  A    between atoms: PB_6  and  O3A_9 
REMARK    4  A    between atoms: O3A_9  and  PA_10 
REMARK    5  A    between atoms: PA_10  and  O5'_13 
REMARK    6  A    between atoms: O5'_13  and  C5'_14 
REMARK    7  A    between atoms: C5'_14  and  C4'_15 
REMARK    8  A    between atoms: C3'_17  and  O3'_18 
REMARK    9  A    between atoms: C2'_19  and  O2'_20 
REMARK   10  A    between atoms: C1'_21  and  N9_22 
REMARK   11  A    between atoms: C6_27  and  N6_28 
REMARK   12  A    between atoms: N1_31  and  C11_32 
REMARK   13  A    between atoms: C12_33  and  O12_34 
REMARK   14  A    between atoms: C13_35  and  O13_36 
REMARK   15  A    between atoms: C14_38  and  C15_39 
REMARK   16  A    between atoms: C15_39  and  O15_40 
REMARK   17  A    between atoms: O15_40  and  P_41 
ROOT
ATOM      1  N9  PRT d   1      21.572 -20.211 -19.705  0.00  0.00    -0.294 N 
ATOM      2  C8  PRT d   1      22.782 -20.543 -19.241  0.00  0.00     0.071 A 
ATOM      3  C4  PRT d   1      21.674 -20.137 -21.021  0.00  0.00     0.167 A 
ATOM      4  C5  PRT d   1      22.940 -20.424 -21.389  0.00  0.00     0.148 A 
ATOM      5  N7  PRT d   1      23.618 -20.682 -20.273  0.00  0.00    -0.236 NA
ATOM      6  C6  PRT d   1      23.292 -20.414 -22.693  0.00  0.00     0.137 A 
ATOM      7  N3  PRT d   1      20.744 -19.847 -21.939  0.00  0.00    -0.223 NA
ATOM      8  C2  PRT d   1      21.072 -19.828 -23.264  0.00  0.00     0.072 A 
ATOM      9  N1  PRT d   1      22.381 -20.113 -23.649  0.00  0.00    -0.295 N 
ATOM     10  H9  PRT d   1      23.043 -20.678 -18.192  0.00  0.00     0.144 H 
ATOM     11  H12 PRT d   1      20.318 -19.592 -24.013  0.00  0.00     0.144 H 
ENDROOT
BRANCH   1  12
ATOM     12  C1' PRT d   1      20.370 -19.970 -18.810  0.00  0.00     0.139 C 
ATOM     13  O4' PRT d   1      19.391 -20.954 -19.159  0.00  0.00    -0.353 OA
ATOM     14  C4' PRT d   1      18.111 -20.289 -19.359  0.00  0.00     0.089 C 
ATOM     15  C3' PRT d   1      18.520 -18.943 -19.937  0.00  0.00     0.091 C 
ATOM     16  H3  PRT d   1      17.600 -20.132 -18.398  0.00  0.00     0.090 H 
ATOM     17  C2' PRT d   1      19.722 -18.630 -19.011  0.00  0.00     0.105 C 
ATOM     18  H4  PRT d   1      18.808 -19.005 -20.997  0.00  0.00     0.091 H 
ATOM     19  H6  PRT d   1      20.414 -17.914 -19.478  0.00  0.00     0.093 H 
ATOM     20  H8  PRT d   1      20.672 -20.075 -17.758  0.00  0.00     0.122 H 
BRANCH  14  21
ATOM     21  C5' PRT d   1      17.213 -21.159 -20.234  0.00  0.00     0.058 C 
ATOM     22  H1  PRT d   1      17.137 -22.171 -19.809  0.00  0.00     0.079 H 
ATOM     23  H2  PRT d   1      16.209 -20.715 -20.304  0.00  0.00     0.079 H 
BRANCH  21  24
ATOM     24  O5' PRT d   1      17.814 -21.214 -21.522  0.00  0.00    -0.287 OA
BRANCH  24  25
ATOM     25  PA  PRT d   1      17.060 -21.896 -22.788  0.00  0.00     0.417 P 
ATOM     26  O1A PRT d   1      16.748 -23.345 -22.308  0.00  0.00    -0.624 OA
ATOM     27  O2A PRT d   1      17.848 -21.845 -24.049  0.00  0.00    -0.624 OA
BRANCH  25  28
ATOM     28  O3A PRT d   1      15.738 -21.140 -22.749  0.00  0.00    -0.180 OA
BRANCH  28  29
ATOM     29  PB  PRT d   1      14.674 -20.987 -23.901  0.00  0.00     0.428 P 
ATOM     30  O1B PRT d   1      15.210 -21.527 -25.316  0.00  0.00    -0.624 OA
ATOM     31  O2B PRT d   1      14.427 -19.537 -23.913  0.00  0.00    -0.624 OA
BRANCH  29  32
ATOM     32  O3B PRT d   1      13.627 -22.025 -23.241  0.00  0.00    -0.173 OA
BRANCH  32  33
ATOM     33  PG  PRT d   1      12.006 -22.004 -23.359  0.00  0.00     0.431 P 
ATOM     34  O1G PRT d   1      11.425 -22.638 -21.914  0.00  0.00    -0.616 OA
ATOM     35  O2G PRT d   1      11.769 -23.013 -24.561  0.00  0.00    -0.616 OA
ATOM     36  O3G PRT d   1      11.500 -20.651 -23.684  0.00  0.00    -0.616 OA
ENDBRANCH  32  33
ENDBRANCH  29  32
ENDBRANCH  28  29
ENDBRANCH  25  28
ENDBRANCH  24  25
ENDBRANCH  21  24
ENDBRANCH  14  21
BRANCH  15  37
ATOM     37  O3' PRT d   1      17.493 -18.005 -19.763  0.00  0.00    -0.390 OA
ATOM     38  H5  PRT d   1      16.710 -18.308 -20.207  0.00  0.00     0.210 HD
ENDBRANCH  15  37
BRANCH  17  39
ATOM     39  O2' PRT d   1      19.257 -18.124 -17.769  0.00  0.00    -0.388 OA
ATOM     40  H7  PRT d   1      18.761 -17.328 -17.919  0.00  0.00     0.210 HD
ENDBRANCH  17  39
ENDBRANCH   1  12
BRANCH   6  41
ATOM     41  N6  PRT d   1      24.559 -20.702 -22.991  0.00  0.00    -0.383 N 
ATOM     42  H10 PRT d   1      25.227 -20.927 -22.239  0.00  0.00     0.157 HD
ATOM     43  H11 PRT d   1      24.870 -20.700 -23.973  0.00  0.00     0.157 HD
ENDBRANCH   6  41
BRANCH   9  44
ATOM     44  C11 PRT d   1      22.633 -20.143 -25.107  0.00  0.00     0.139 C 
ATOM     45  C12 PRT d   1      23.617 -19.226 -25.719  0.00  0.00     0.105 C 
ATOM     46  C13 PRT d   1      23.934 -20.013 -26.988  0.00  0.00     0.091 C 
ATOM     47  H14 PRT d   1      24.498 -19.031 -25.090  0.00  0.00     0.093 H 
ATOM     48  C14 PRT d   1      23.913 -21.465 -26.548  0.00  0.00     0.089 C 
ATOM     49  H16 PRT d   1      24.906 -19.720 -27.412  0.00  0.00     0.091 H 
ATOM     50  O14 PRT d   1      23.184 -21.484 -25.304  0.00  0.00    -0.353 OA
ATOM     51  H18 PRT d   1      23.399 -22.075 -27.305  0.00  0.00     0.090 H 
ATOM     52  H13 PRT d   1      21.674 -20.014 -25.631  0.00  0.00     0.122 H 
BRANCH  45  53
ATOM     53  O12 PRT d   1      22.930 -18.021 -26.063  0.00  0.00    -0.388 OA
ATOM     54  H15 PRT d   1      23.541 -17.412 -26.460  0.00  0.00     0.210 HD
ENDBRANCH  45  53
BRANCH  46  55
ATOM     55  O13 PRT d   1      22.880 -19.856 -27.954  0.00  0.00    -0.390 OA
ATOM     56  H17 PRT d   1      22.789 -18.936 -28.175  0.00  0.00     0.210 HD
ENDBRANCH  46  55
BRANCH  48  57
ATOM     57  C15 PRT d   1      25.317 -22.036 -26.312  0.00  0.00     0.059 C 
ATOM     58  H19 PRT d   1      25.823 -22.163 -27.280  0.00  0.00     0.079 H 
ATOM     59  H20 PRT d   1      25.231 -23.012 -25.813  0.00  0.00     0.079 H 
BRANCH  57  60
ATOM     60  O15 PRT d   1      26.088 -21.152 -25.489  0.00  0.00    -0.280 OA
BRANCH  60  61
ATOM     61  P   PRT d   1      27.692 -21.208 -25.543  0.00  0.00     0.422 P 
ATOM     62  O3P PRT d   1      28.131 -22.450 -24.654  0.00  0.00    -0.617 OA
ATOM     63  O1P PRT d   1      28.129 -21.563 -27.024  0.00  0.00    -0.617 OA
ATOM     64  O2P PRT d   1      28.294 -19.984 -24.961  0.00  0.00    -0.617 OA
ENDBRANCH  60  61
ENDBRANCH  57  60
ENDBRANCH  48  57
ENDBRANCH   9  44
TORSDOF 17
