REMARK  6 active torsions:
REMARK  status: ('A' for Active; 'I' for Inactive)
REMARK    1  A    between atoms: C6_2  and  N10_13 
REMARK    2  A    between atoms: C7_4  and  C12_8 
REMARK    3  A    between atoms: C11_7  and  C9_6 
REMARK    4  A    between atoms: N13_14  and  C17_17 
REMARK    5  A    between atoms: C26_26  and  N28_28 
REMARK       I    between atoms: N31_31  and  C34_34 
REMARK    6  A    between atoms: C34_34  and  C35_35 
ROOT
ATOM      1  C5  85S d   1      35.434  15.102  33.137  0.00  0.00     0.117 A 
ATOM      2  C6  85S d   1      34.881  16.369  32.760  0.00  0.00     0.152 A 
ATOM      3  N1  85S d   1      35.580  17.493  33.020  0.00  0.00    -0.221 NA
ATOM      4  C7  85S d   1      37.131  13.882  34.083  0.00  0.00     0.070 A 
ATOM      5  C8  85S d   1      36.142  13.010  33.657  0.00  0.00    -0.040 A 
ATOM      6  C9  85S d   1      35.082  13.761  33.067  0.00  0.00     0.027 A 
ATOM      7  N3  85S d   1      37.395  16.300  34.022  0.00  0.00    -0.160 NA
ATOM      8  N4  85S d   1      36.676  15.161  33.753  0.00  0.00    -0.228 N 
ATOM      9  C2  85S d   1      36.776  17.372  33.628  0.00  0.00     0.108 A 
ATOM     10  H1  85S d   1      36.169  11.926  33.757  0.00  0.00     0.088 H 
ATOM     11  H3  85S d   1      37.300  18.308  33.816  0.00  0.00     0.149 H 
ENDROOT
BRANCH   4  12
ATOM     12  C12 85S d   1      38.417  13.575  34.750  0.00  0.00    -0.005 A 
ATOM     13  C23 85S d   1      38.481  12.576  35.717  0.00  0.00    -0.071 A 
ATOM     14  C24 85S d   1      39.679  12.284  36.344  0.00  0.00    -0.080 A 
ATOM     15  H16 85S d   1      37.587  12.023  35.980  0.00  0.00     0.084 H 
ATOM     16  C25 85S d   1      40.832  12.980  36.018  0.00  0.00    -0.057 A 
ATOM     17  H17 85S d   1      39.716  11.505  37.096  0.00  0.00     0.083 H 
ATOM     18  C26 85S d   1      40.792  13.987  35.049  0.00  0.00     0.031 A 
ATOM     19  H18 85S d   1      41.766  12.743  36.515  0.00  0.00     0.086 H 
ATOM     20  C27 85S d   1      39.575  14.280  34.417  0.00  0.00    -0.045 A 
ATOM     21  H19 85S d   1      39.533  15.059  33.665  0.00  0.00     0.088 H 
BRANCH  18  22
ATOM     22  N28 85S d   1      41.951  14.686  34.721  0.00  0.00    -0.378 N 
ATOM     23  C29 85S d   1      41.992  16.127  34.999  0.00  0.00     0.010 C 
ATOM     24  C30 85S d   1      43.426  16.646  34.937  0.00  0.00     0.012 C 
ATOM     25  H20 85S d   1      41.583  16.313  36.003  0.00  0.00     0.066 H 
ATOM     26  H21 85S d   1      41.383  16.657  34.252  0.00  0.00     0.066 H 
ATOM     27  N31 85S d   1      44.039  16.290  33.645  0.00  0.00    -0.349 N 
ATOM     28  H22 85S d   1      44.011  16.197  35.753  0.00  0.00     0.066 H 
ATOM     29  H23 85S d   1      43.422  17.740  35.048  0.00  0.00     0.066 H 
ATOM     30  C32 85S d   1      44.039  14.834  33.436  0.00  0.00     0.012 C 
ATOM     31  C34 85S d   1      44.552  17.178  32.737  0.00  0.00     0.215 C 
ATOM     32  C33 85S d   1      42.614  14.306  33.470  0.00  0.00     0.010 C 
ATOM     33  H24 85S d   1      44.626  14.351  34.231  0.00  0.00     0.066 H 
ATOM     34  H25 85S d   1      44.489  14.606  32.459  0.00  0.00     0.066 H 
ATOM     35  H26 85S d   1      42.053  14.726  32.622  0.00  0.00     0.066 H 
ATOM     36  H27 85S d   1      42.633  13.209  33.390  0.00  0.00     0.066 H 
ATOM     37  O36 85S d   1      45.044  16.789  31.685  0.00  0.00    -0.274 OA
BRANCH  31  38
ATOM     38  C35 85S d   1      44.495  18.641  33.063  0.00  0.00    -0.003 C 
ATOM     39  H28 85S d   1      44.943  19.218  32.241  0.00  0.00     0.040 H 
ATOM     40  H29 85S d   1      45.053  18.832  33.992  0.00  0.00     0.040 H 
ATOM     41  H30 85S d   1      43.447  18.947  33.196  0.00  0.00     0.040 H 
ENDBRANCH  31  38
ENDBRANCH  18  22
ENDBRANCH   4  12
BRANCH   6  42
ATOM     42  C11 85S d   1      33.856  13.176  32.501  0.00  0.00     0.067 A 
ATOM     43  N13 85S d   1      33.790  12.122  31.633  0.00  0.00    -0.264 N 
ATOM     44  N14 85S d   1      32.500  11.813  31.289  0.00  0.00    -0.184 NA
ATOM     45  C15 85S d   1      31.773  12.699  31.963  0.00  0.00     0.024 A 
ATOM     46  C16 85S d   1      32.547  13.567  32.728  0.00  0.00    -0.036 A 
ATOM     47  H2  85S d   1      30.686  12.741  31.921  0.00  0.00     0.117 H 
ATOM     48  H6  85S d   1      32.199  14.378  33.366  0.00  0.00     0.089 H 
BRANCH  43  49
ATOM     49  C17 85S d   1      34.943  11.371  31.100  0.00  0.00     0.039 C 
ATOM     50  C18 85S d   1      34.880  11.307  29.575  0.00  0.00    -0.024 C 
ATOM     51  C19 85S d   1      35.906  10.348  29.021  0.00  0.00     0.021 C 
ATOM     52  H8  85S d   1      35.071  12.310  29.166  0.00  0.00     0.039 H 
ATOM     53  H9  85S d   1      33.877  10.972  29.272  0.00  0.00     0.039 H 
ATOM     54  O20 85S d   1      35.781   9.052  29.614  0.00  0.00    -0.391 OA
ATOM     55  H10 85S d   1      36.912  10.741  29.228  0.00  0.00     0.074 H 
ATOM     56  H11 85S d   1      35.763  10.260  27.934  0.00  0.00     0.074 H 
ATOM     57  C21 85S d   1      36.042   9.129  31.019  0.00  0.00     0.021 C 
ATOM     58  C22 85S d   1      35.011   9.980  31.724  0.00  0.00    -0.024 C 
ATOM     59  H12 85S d   1      37.038   9.570  31.175  0.00  0.00     0.074 H 
ATOM     60  H13 85S d   1      36.020   8.114  31.444  0.00  0.00     0.074 H 
ATOM     61  H14 85S d   1      34.026   9.498  31.640  0.00  0.00     0.039 H 
ATOM     62  H15 85S d   1      35.284  10.073  32.785  0.00  0.00     0.039 H 
ATOM     63  H7  85S d   1      35.861  11.910  31.378  0.00  0.00     0.076 H 
ENDBRANCH  43  49
ENDBRANCH   6  42
BRANCH   2  64
ATOM     64  N10 85S d   1      33.692  16.479  32.156  0.00  0.00    -0.382 N 
ATOM     65  H4  85S d   1      33.328  17.408  31.900  0.00  0.00     0.157 HD
ATOM     66  H5  85S d   1      33.141  15.635  31.947  0.00  0.00     0.157 HD
ENDBRANCH   2  64
TORSDOF 6
