REMARK  8 active torsions:
REMARK  status: ('A' for Active; 'I' for Inactive)
REMARK    1  A    between atoms: C14_10  and  C18_11 
REMARK    2  A    between atoms: C24_14  and  N27_15 
REMARK    3  A    between atoms: N27_15  and  C29_16 
REMARK    4  A    between atoms: N27_15  and  C28_17 
REMARK    5  A    between atoms: C12_21  and  C19_22 
REMARK    6  A    between atoms: C17_23  and  C31_24 
REMARK    7  A    between atoms: C17_23  and  O3_27 
REMARK    8  A    between atoms: C30_25  and  C32_26 
ROOT
ATOM      1  O30 486 d   1     -28.296   4.950  20.267  0.00  0.00    -0.293 OA
ATOM      2  C2  486 d   1     -27.555   5.021  21.238  0.00  0.00     0.150 C 
ATOM      3  C1  486 d   1     -27.776   4.114  22.446  0.00  0.00    -0.002 C 
ATOM      4  C3  486 d   1     -26.478   6.020  21.313  0.00  0.00    -0.032 C 
ATOM      5  C4  486 d   1     -25.703   6.197  22.411  0.00  0.00    -0.048 C 
ATOM      6  C7  486 d   1     -24.688   7.300  22.425  0.00  0.00    -0.040 C 
ATOM      7  C5  486 d   1     -25.865   5.391  23.642  0.00  0.00    -0.048 C 
ATOM      8  C6  486 d   1     -26.631   4.089  23.467  0.00  0.00    -0.034 C 
ATOM      9  C10 486 d   1     -25.338   5.777  24.831  0.00  0.00    -0.060 C 
ATOM     10  C14 486 d   1     -25.443   4.895  26.085  0.00  0.00    -0.005 C 
ATOM     11  C13 486 d   1     -25.670   5.715  27.383  0.00  0.00    -0.044 C 
ATOM     12  C12 486 d   1     -24.828   6.993  27.516  0.00  0.00     0.004 C 
ATOM     13  C17 486 d   1     -25.234   8.004  28.663  0.00  0.00     0.128 C 
ATOM     14  C16 486 d   1     -24.730   9.383  28.128  0.00  0.00    -0.025 C 
ATOM     15  C15 486 d   1     -24.593   9.252  26.574  0.00  0.00    -0.057 C 
ATOM     16  C11 486 d   1     -25.118   7.828  26.260  0.00  0.00    -0.036 C 
ATOM     17  C9  486 d   1     -24.640   7.129  24.982  0.00  0.00    -0.026 C 
ATOM     18  C8  486 d   1     -24.823   8.034  23.756  0.00  0.00    -0.054 C 
ATOM     19  H1  486 d   1     -27.925   3.088  22.078  0.00  0.00     0.045 H 
ATOM     20  H2  486 d   1     -28.685   4.454  22.964  0.00  0.00     0.045 H 
ATOM     21  H3  486 d   1     -26.294   6.649  20.443  0.00  0.00     0.089 H 
ATOM     22  H4  486 d   1     -24.877   7.994  21.593  0.00  0.00     0.040 H 
ATOM     23  H5  486 d   1     -23.676   6.880  22.329  0.00  0.00     0.040 H 
ATOM     24  H6  486 d   1     -25.914   3.317  23.150  0.00  0.00     0.040 H 
ATOM     25  H7  486 d   1     -27.057   3.815  24.444  0.00  0.00     0.040 H 
ATOM     26  H8  486 d   1     -26.349   4.286  25.952  0.00  0.00     0.054 H 
ATOM     27  H19 486 d   1     -25.436   5.065  28.239  0.00  0.00     0.035 H 
ATOM     28  H20 486 d   1     -26.731   6.003  27.420  0.00  0.00     0.035 H 
ATOM     29  H28 486 d   1     -23.754   9.627  28.573  0.00  0.00     0.038 H 
ATOM     30  H29 486 d   1     -25.454  10.172  28.378  0.00  0.00     0.038 H 
ATOM     31  H30 486 d   1     -23.542   9.356  26.266  0.00  0.00     0.033 H 
ATOM     32  H31 486 d   1     -25.202  10.013  26.064  0.00  0.00     0.033 H 
ATOM     33  H32 486 d   1     -26.210   7.913  26.154  0.00  0.00     0.042 H 
ATOM     34  H33 486 d   1     -23.562   6.935  25.087  0.00  0.00     0.047 H 
ATOM     35  H34 486 d   1     -25.825   8.485  23.804  0.00  0.00     0.034 H 
ATOM     36  H35 486 d   1     -24.062   8.827  23.794  0.00  0.00     0.034 H 
ENDROOT
BRANCH  10  37
ATOM     37  C18 486 d   1     -24.285   3.906  26.198  0.00  0.00    -0.050 A 
ATOM     38  C22 486 d   1     -24.239   3.043  27.292  0.00  0.00    -0.074 A 
ATOM     39  C23 486 d   1     -23.214   2.124  27.465  0.00  0.00    -0.057 A 
ATOM     40  H9  486 d   1     -25.030   3.092  28.032  0.00  0.00     0.084 H 
ATOM     41  C24 486 d   1     -22.151   2.027  26.521  0.00  0.00     0.029 A 
ATOM     42  H10 486 d   1     -23.222   1.471  28.330  0.00  0.00     0.086 H 
ATOM     43  C25 486 d   1     -22.210   2.890  25.411  0.00  0.00    -0.057 A 
ATOM     44  C26 486 d   1     -23.242   3.813  25.261  0.00  0.00    -0.074 A 
ATOM     45  H17 486 d   1     -21.434   2.835  24.656  0.00  0.00     0.086 H 
ATOM     46  H18 486 d   1     -23.241   4.474  24.402  0.00  0.00     0.084 H 
BRANCH  41  47
ATOM     47  N27 486 d   1     -21.107   1.109  26.662  0.00  0.00    -0.390 N 
BRANCH  47  48
ATOM     48  C29 486 d   1     -19.990   1.125  25.726  0.00  0.00    -0.019 C 
ATOM     49  H11 486 d   1     -19.274   0.335  25.997  0.00  0.00     0.056 H 
ATOM     50  H12 486 d   1     -19.490   2.104  25.768  0.00  0.00     0.056 H 
ATOM     51  H13 486 d   1     -20.363   0.948  24.707  0.00  0.00     0.056 H 
ENDBRANCH  47  48
BRANCH  47  52
ATOM     52  C28 486 d   1     -21.381  -0.189  27.275  0.00  0.00    -0.019 C 
ATOM     53  H14 486 d   1     -22.236  -0.097  27.961  0.00  0.00     0.056 H 
ATOM     54  H15 486 d   1     -20.496  -0.524  27.835  0.00  0.00     0.056 H 
ATOM     55  H16 486 d   1     -21.617  -0.923  26.490  0.00  0.00     0.056 H 
ENDBRANCH  47  52
ENDBRANCH  41  47
ENDBRANCH  10  37
BRANCH  12  56
ATOM     56  C19 486 d   1     -23.326   6.686  27.677  0.00  0.00    -0.065 C 
ATOM     57  H21 486 d   1     -23.009   5.983  26.892  0.00  0.00     0.028 H 
ATOM     58  H22 486 d   1     -23.147   6.237  28.665  0.00  0.00     0.028 H 
ATOM     59  H23 486 d   1     -22.750   7.619  27.588  0.00  0.00     0.028 H 
ENDBRANCH  12  56
BRANCH  13  60
ATOM     60  C31 486 d   1     -26.680   8.081  28.833  0.00  0.00    -0.068 C 
ATOM     61  C30 486 d   1     -27.875   8.137  28.942  0.00  0.00    -0.108 C 
BRANCH  61  62
ATOM     62  C32 486 d   1     -29.323   8.223  29.060  0.00  0.00    -0.021 C 
ATOM     63  H24 486 d   1     -29.685   7.425  29.725  0.00  0.00     0.044 H 
ATOM     64  H25 486 d   1     -29.779   8.107  28.066  0.00  0.00     0.044 H 
ATOM     65  H26 486 d   1     -29.599   9.202  29.478  0.00  0.00     0.044 H 
ENDBRANCH  61  62
ENDBRANCH  13  60
BRANCH  13  66
ATOM     66  O3  486 d   1     -24.613   7.611  29.902  0.00  0.00    -0.377 OA
ATOM     67  H27 486 d   1     -24.943   6.760  30.165  0.00  0.00     0.211 HD
ENDBRANCH  13  66
TORSDOF 8
