REMARK  6 active torsions:
REMARK  status: ('A' for Active; 'I' for Inactive)
REMARK    1  A    between atoms: C06_16  and  C14_5 
REMARK       I    between atoms: C14_5  and  N16_22 
REMARK    2  A    between atoms: C10_20  and  C11_6 
REMARK    3  A    between atoms: C02_12  and  C01_11 
REMARK    4  A    between atoms: C02_12  and  C03_13 
REMARK    5  A    between atoms: C04_14  and  C02_12 
REMARK    6  A    between atoms: C07_17  and  O08_18 
ROOT
ATOM      1  C12 871 d   1      19.900 100.432  56.586  0.00  0.00     0.063 C 
ATOM      2  C11 871 d   1      20.899 100.565  55.448  0.00  0.00     0.039 C 
ATOM      3  N13 871 d   1      19.165 100.330  57.443  0.00  0.00    -0.197 NA
ATOM      4  H3  871 d   1      20.790 101.561  54.994  0.00  0.00     0.062 H 
ATOM      5  H4  871 d   1      20.684  99.793  54.694  0.00  0.00     0.062 H 
ENDROOT
BRANCH   2   6
ATOM      6  C10 871 d   1      22.386 100.392  55.943  0.00  0.00    -0.036 A 
ATOM      7  C04 871 d   1      22.837  99.129  56.497  0.00  0.00    -0.046 A 
ATOM      8  C05 871 d   1      24.156  98.990  56.916  0.00  0.00    -0.058 A 
ATOM      9  C06 871 d   1      25.032 100.102  56.793  0.00  0.00     0.066 A 
ATOM     10  H14 871 d   1      24.509  98.052  57.328  0.00  0.00     0.086 H 
ATOM     11  C07 871 d   1      24.590 101.340  56.248  0.00  0.00     0.082 A 
ATOM     12  C09 871 d   1      23.280 101.493  55.837  0.00  0.00    -0.043 A 
ATOM     13  H16 871 d   1      22.938 102.441  55.438  0.00  0.00     0.088 H 
BRANCH   7  14
ATOM     14  C02 871 d   1      21.901  97.910  56.617  0.00  0.00    -0.035 C 
ATOM     15  H10 871 d   1      20.868  98.239  56.431  0.00  0.00     0.046 H 
BRANCH  14  16
ATOM     16  C01 871 d   1      21.980  97.306  58.067  0.00  0.00    -0.069 C 
ATOM     17  H7  871 d   1      21.308  96.438  58.140  0.00  0.00     0.028 H 
ATOM     18  H8  871 d   1      21.674  98.068  58.799  0.00  0.00     0.028 H 
ATOM     19  H9  871 d   1      23.012  96.989  58.277  0.00  0.00     0.028 H 
ENDBRANCH  14  16
BRANCH  14  20
ATOM     20  C03 871 d   1      22.281  96.845  55.553  0.00  0.00    -0.069 C 
ATOM     21  H11 871 d   1      22.218  97.291  54.549  0.00  0.00     0.028 H 
ATOM     22  H12 871 d   1      21.586  95.995  55.621  0.00  0.00     0.028 H 
ATOM     23  H13 871 d   1      23.308  96.495  55.735  0.00  0.00     0.028 H 
ENDBRANCH  14  20
ENDBRANCH   7  14
BRANCH   9  24
ATOM     24  C14 871 d   1      26.495  99.980  57.237  0.00  0.00     0.264 C 
ATOM     25  O15 871 d   1      27.378  99.838  56.430  0.00  0.00    -0.267 OA
ATOM     26  N16 871 d   1      26.802 100.002  58.625  0.00  0.00    -0.298 N 
ATOM     27  C17 871 d   1      28.136  99.860  59.133  0.00  0.00    -0.002 C 
ATOM     28  C24 871 d   1      25.842 100.171  59.709  0.00  0.00    -0.002 C 
ATOM     29  C18 871 d   1      28.038 100.332  60.588  0.00  0.00    -0.009 A 
ATOM     30  H1  871 d   1      29.017  99.499  58.605  0.00  0.00     0.113 H 
ATOM     31  C23 871 d   1      26.730 100.524  60.925  0.00  0.00    -0.009 A 
ATOM     32  C19 871 d   1      29.081 100.566  61.501  0.00  0.00    -0.071 A 
ATOM     33  C22 871 d   1      26.386 100.981  62.255  0.00  0.00    -0.071 A 
ATOM     34  C21 871 d   1      27.422 101.214  63.165  0.00  0.00    -0.082 A 
ATOM     35  H17 871 d   1      25.352 101.139  62.538  0.00  0.00     0.084 H 
ATOM     36  C20 871 d   1      28.728 101.022  62.813  0.00  0.00    -0.082 A 
ATOM     37  H6  871 d   1      27.185 101.553  64.167  0.00  0.00     0.083 H 
ATOM     38  H2  871 d   1      29.510 101.218  63.538  0.00  0.00     0.083 H 
ATOM     39  H5  871 d   1      30.116 100.407  61.222  0.00  0.00     0.084 H 
ATOM     40  H18 871 d   1      24.758 100.072  59.672  0.00  0.00     0.113 H 
ENDBRANCH   9  24
BRANCH  11  41
ATOM     41  O08 871 d   1      25.572 102.383  56.178  0.00  0.00    -0.360 OA
ATOM     42  H15 871 d   1      25.179 103.162  55.802  0.00  0.00     0.217 HD
ENDBRANCH  11  41
ENDBRANCH   2   6
TORSDOF 6
