REMARK  8 active torsions:
REMARK  status: ('A' for Active; 'I' for Inactive)
REMARK       I    between atoms: C14_6  and  N16_8 
REMARK    1  A    between atoms: C06_16  and  C14_6 
REMARK    2  A    between atoms: C10_7  and  O11_20 
REMARK    3  A    between atoms: C02_12  and  C01_11 
REMARK    4  A    between atoms: C02_12  and  C03_13 
REMARK    5  A    between atoms: C04_14  and  C02_12 
REMARK    6  A    between atoms: C07_17  and  O08_18 
REMARK    7  A    between atoms: C09_19  and  C12_21 
REMARK    8  A    between atoms: C12_21  and  O13_22 
ROOT
ATOM      1  C10 874 d   1      31.009  30.915  32.108  0.00  0.00     0.083 A 
ATOM      2  C04 874 d   1      31.800  29.898  31.618  0.00  0.00    -0.020 A 
ATOM      3  C05 874 d   1      31.232  28.685  31.289  0.00  0.00    -0.056 A 
ATOM      4  C06 874 d   1      29.865  28.517  31.467  0.00  0.00     0.067 A 
ATOM      5  C07 874 d   1      29.082  29.541  31.958  0.00  0.00     0.092 A 
ATOM      6  C09 874 d   1      29.647  30.753  32.281  0.00  0.00     0.033 A 
ATOM      7  H14 874 d   1      31.841  27.878  30.899  0.00  0.00     0.086 H 
ENDROOT
BRANCH   4   8
ATOM      8  C14 874 d   1      29.204  27.201  31.102  0.00  0.00     0.264 C 
ATOM      9  N16 874 d   1      28.824  26.993  29.746  0.00  0.00    -0.298 N 
ATOM     10  C24 874 d   1      28.992  27.871  28.785  0.00  0.00    -0.002 A 
ATOM     11  C17 874 d   1      28.255  25.874  29.338  0.00  0.00    -0.002 A 
ATOM     12  C23 874 d   1      28.465  27.285  27.606  0.00  0.00    -0.009 A 
ATOM     13  H1  874 d   1      29.447  28.856  28.875  0.00  0.00     0.113 H 
ATOM     14  C22 874 d   1      28.345  27.735  26.270  0.00  0.00    -0.071 A 
ATOM     15  C18 874 d   1      28.004  26.021  27.955  0.00  0.00    -0.009 A 
ATOM     16  C21 874 d   1      27.775  26.905  25.313  0.00  0.00    -0.082 A 
ATOM     17  H2  874 d   1      28.696  28.723  25.994  0.00  0.00     0.084 H 
ATOM     18  C20 874 d   1      27.312  25.629  25.672  0.00  0.00    -0.082 A 
ATOM     19  H5  874 d   1      27.688  27.243  24.287  0.00  0.00     0.083 H 
ATOM     20  C19 874 d   1      27.419  25.172  26.989  0.00  0.00    -0.071 A 
ATOM     21  H4  874 d   1      26.866  24.990  24.919  0.00  0.00     0.083 H 
ATOM     22  H6  874 d   1      27.061  24.186  27.263  0.00  0.00     0.084 H 
ATOM     23  H3  874 d   1      28.023  25.004  29.950  0.00  0.00     0.113 H 
ATOM     24  O15 874 d   1      29.013  26.340  31.877  0.00  0.00    -0.267 OA
ENDBRANCH   4   8
BRANCH   5  25
ATOM     25  O08 874 d   1      27.729  29.312  32.106  0.00  0.00    -0.359 OA
ATOM     26  H15 874 d   1      27.312  30.093  32.450  0.00  0.00     0.217 HD
ENDBRANCH   5  25
BRANCH   2  27
ATOM     27  C02 874 d   1      33.313  30.096  31.448  0.00  0.00    -0.033 C 
ATOM     28  H10 874 d   1      33.522  31.164  31.290  0.00  0.00     0.046 H 
BRANCH  27  29
ATOM     29  C01 874 d   1      34.053  29.609  32.695  0.00  0.00    -0.069 C 
ATOM     30  H7  874 d   1      35.135  29.756  32.560  0.00  0.00     0.028 H 
ATOM     31  H8  874 d   1      33.845  28.540  32.851  0.00  0.00     0.028 H 
ATOM     32  H9  874 d   1      33.711  30.180  33.571  0.00  0.00     0.028 H 
ENDBRANCH  27  29
BRANCH  27  33
ATOM     33  C03 874 d   1      33.814  29.296  30.253  0.00  0.00    -0.069 C 
ATOM     34  H11 874 d   1      33.294  29.631  29.343  0.00  0.00     0.028 H 
ATOM     35  H12 874 d   1      33.614  28.227  30.417  0.00  0.00     0.028 H 
ATOM     36  H13 874 d   1      34.896  29.452  30.135  0.00  0.00     0.028 H 
ENDBRANCH  27  33
ENDBRANCH   2  27
BRANCH   6  37
ATOM     37  C12 874 d   1      28.781  31.876  32.822  0.00  0.00     0.046 C 
ATOM     38  H17 874 d   1      28.211  31.517  33.692  0.00  0.00     0.081 H 
ATOM     39  H18 874 d   1      28.084  32.214  32.041  0.00  0.00     0.081 H 
BRANCH  37  40
ATOM     40  O13 874 d   1      29.613  32.946  33.210  0.00  0.00    -0.396 OA
ATOM     41  H19 874 d   1      30.105  33.252  32.457  0.00  0.00     0.209 HD
ENDBRANCH  37  40
ENDBRANCH   6  37
BRANCH   1  42
ATOM     42  O11 874 d   1      31.618  32.112  32.431  0.00  0.00    -0.359 OA
ATOM     43  H16 874 d   1      31.483  32.296  33.353  0.00  0.00     0.217 HD
ENDBRANCH   1  42
TORSDOF 8
