REMARK  8 active torsions:
REMARK  status: ('A' for Active; 'I' for Inactive)
REMARK    1  A    between atoms: C09_18  and  C11_2 
REMARK    2  A    between atoms: C12_3  and  N_22 
REMARK    3  A    between atoms: C13_4  and  C14_5 
REMARK       I    between atoms: N_22  and  C15_6 
REMARK    4  A    between atoms: C15_6  and  C_23 
REMARK    5  A    between atoms: O01_8  and  C01_7 
REMARK    6  A    between atoms: C02_9  and  O01_8 
REMARK    7  A    between atoms: N01_15  and  C07_14 
REMARK    8  A    between atoms: C08_16  and  N01_15 
ROOT
ATOM      1  C10 5XQ d   1      46.473  63.426  45.351  0.00  0.00    -0.012 A 
ATOM      2  C08 5XQ d   1      46.194  62.101  43.302  0.00  0.00     0.171 A 
ATOM      3  N02 5XQ d   1      46.919  63.189  43.093  0.00  0.00    -0.223 NA
ATOM      4  C09 5XQ d   1      47.099  63.963  44.249  0.00  0.00     0.085 A 
ATOM      5  S01 5XQ d   1      45.647  61.947  44.961  0.00  0.00    -0.061 SA
ATOM      6  H1  5XQ d   1      46.493  63.872  46.344  0.00  0.00     0.098 H 
ENDROOT
BRANCH   2   7
ATOM      7  N01 5XQ d   1      45.886  61.178  42.329  0.00  0.00    -0.333 N 
ATOM      8  H12 5XQ d   1      45.244  60.435  42.639  0.00  0.00     0.168 HD
BRANCH   7   9
ATOM      9  C07 5XQ d   1      46.278  61.071  41.030  0.00  0.00     0.067 A 
ATOM     10  C02 5XQ d   1      45.811  59.970  40.271  0.00  0.00     0.094 A 
ATOM     11  C03 5XQ d   1      46.211  59.857  38.908  0.00  0.00    -0.049 A 
ATOM     12  C04 5XQ d   1      47.056  60.828  38.326  0.00  0.00    -0.080 A 
ATOM     13  H8  5XQ d   1      45.864  59.020  38.313  0.00  0.00     0.087 H 
ATOM     14  C05 5XQ d   1      47.514  61.922  39.087  0.00  0.00    -0.081 A 
ATOM     15  H9  5XQ d   1      47.354  60.731  37.288  0.00  0.00     0.083 H 
ATOM     16  C06 5XQ d   1      47.129  62.043  40.444  0.00  0.00    -0.054 A 
ATOM     17  H10 5XQ d   1      48.158  62.668  38.635  0.00  0.00     0.083 H 
ATOM     18  H11 5XQ d   1      47.485  62.879  41.036  0.00  0.00     0.087 H 
BRANCH  10  19
ATOM     19  O01 5XQ d   1      44.984  59.079  40.932  0.00  0.00    -0.354 OA
BRANCH  19  20
ATOM     20  C01 5XQ d   1      44.329  58.027  40.230  0.00  0.00     0.010 C 
ATOM     21  H5  5XQ d   1      43.724  57.437  40.934  0.00  0.00     0.066 H 
ATOM     22  H6  5XQ d   1      45.081  57.377  39.759  0.00  0.00     0.066 H 
ATOM     23  H7  5XQ d   1      43.676  58.454  39.455  0.00  0.00     0.066 H 
ENDBRANCH  19  20
ENDBRANCH  10  19
ENDBRANCH   7   9
ENDBRANCH   2   7
BRANCH   4  24
ATOM     24  C11 5XQ d   1      47.863  65.195  44.125  0.00  0.00     0.062 A 
ATOM     25  C13 5XQ d   1      48.401  66.027  45.081  0.00  0.00     0.053 A 
ATOM     26  N03 5XQ d   1      49.052  67.132  44.529  0.00  0.00    -0.228 NA
ATOM     27  C12 5XQ d   1      48.999  67.134  43.194  0.00  0.00     0.174 A 
ATOM     28  S   5XQ d   1      48.137  65.769  42.490  0.00  0.00    -0.048 SA
BRANCH  25  29
ATOM     29  C14 5XQ d   1      48.368  65.889  46.577  0.00  0.00    -0.034 C 
ATOM     30  H2  5XQ d   1      48.899  66.737  47.035  0.00  0.00     0.035 H 
ATOM     31  H3  5XQ d   1      48.858  64.948  46.869  0.00  0.00     0.035 H 
ATOM     32  H4  5XQ d   1      47.323  65.881  46.922  0.00  0.00     0.035 H 
ENDBRANCH  25  29
BRANCH  27  33
ATOM     33  N   5XQ d   1      49.578  68.154  42.406  0.00  0.00    -0.306 N 
ATOM     34  C15 5XQ d   1      49.436  68.302  41.087  0.00  0.00     0.219 C 
ATOM     35  O   5XQ d   1      48.766  67.531  40.393  0.00  0.00    -0.274 OA
ATOM     36  H13 5XQ d   1      50.146  68.827  42.880  0.00  0.00     0.171 HD
BRANCH  34  37
ATOM     37  C   5XQ d   1      50.160  69.494  40.466  0.00  0.00    -0.002 C 
ATOM     38  H14 5XQ d   1      49.971  69.514  39.383  0.00  0.00     0.040 H 
ATOM     39  H15 5XQ d   1      51.241  69.402  40.648  0.00  0.00     0.040 H 
ATOM     40  H16 5XQ d   1      49.789  70.425  40.919  0.00  0.00     0.040 H 
ENDBRANCH  34  37
ENDBRANCH  27  33
ENDBRANCH   4  24
TORSDOF 8
