REMARK  5 active torsions:
REMARK  status: ('A' for Active; 'I' for Inactive)
REMARK    1  A    between atoms: N26_26  and  C8_5 
REMARK    2  A    between atoms: C24_13  and  C22_12 
REMARK    3  A    between atoms: S34_34  and  C24_13 
REMARK    4  A    between atoms: N25_25  and  C23_24 
REMARK    5  A    between atoms: N26_26  and  S34_34 
ROOT
ATOM      1  C4  89D d   1      13.491  13.683  24.262  0.00  0.00    -0.037 A 
ATOM      2  C5  89D d   1      13.087  11.329  24.257  0.00  0.00    -0.006 A 
ATOM      3  C6  89D d   1      12.045  12.113  18.765  0.00  0.00     0.014 A 
ATOM      4  C7  89D d   1      13.492  13.725  22.878  0.00  0.00    -0.018 A 
ATOM      5  C8  89D d   1       9.664  11.846  18.759  0.00  0.00     0.043 A 
ATOM      6  C10 89D d   1      13.289  12.538  22.184  0.00  0.00     0.121 A 
ATOM      7  C13 89D d   1      15.148  13.390  17.033  0.00  0.00     0.016 A 
ATOM      8  C15 89D d   1      13.268  12.187  17.976  0.00  0.00     0.026 A 
ATOM      9  C17 89D d   1      15.602  12.127  16.407  0.00  0.00     0.249 A 
ATOM     10  C20 89D d   1      13.753  16.174  20.057  0.00  0.00    -0.044 C 
ATOM     11  C21 89D d   1      14.482  15.144  19.221  0.00  0.00     0.026 C 
ATOM     12  C1  89D d   1       9.660  12.013  20.125  0.00  0.00    -0.054 A 
ATOM     13  C2  89D d   1      10.836  12.218  20.813  0.00  0.00    -0.047 A 
ATOM     14  C3  89D d   1      10.865  11.895  18.080  0.00  0.00    -0.043 A 
ATOM     15  C9  89D d   1      12.048  12.263  20.142  0.00  0.00     0.087 A 
ATOM     16  C11 89D d   1      13.271  12.507  24.940  0.00  0.00     0.120 A 
ATOM     17  C12 89D d   1      13.110  11.355  22.881  0.00  0.00     0.153 A 
ATOM     18  C14 89D d   1      13.672  11.064  17.385  0.00  0.00    -0.004 A 
ATOM     19  C16 89D d   1      14.038  13.381  17.783  0.00  0.00     0.086 A 
ATOM     20  C18 89D d   1      13.782  15.069  22.268  0.00  0.00    -0.038 C 
ATOM     21  C19 89D d   1      12.896  15.546  21.139  0.00  0.00    -0.059 C 
ATOM     22  N25 89D d   1      14.803  11.019  16.617  0.00  0.00    -0.328 N 
ATOM     23  O27 89D d   1      16.628  12.136  15.747  0.00  0.00    -0.268 OA
ATOM     24  O30 89D d   1      13.280  12.488  20.790  0.00  0.00    -0.306 OA
ATOM     25  O31 89D d   1      13.516  14.506  18.397  0.00  0.00    -0.350 OA
ATOM     26  F32 89D d   1      13.262  12.514  26.281  0.00  0.00    -0.206 F 
ATOM     27  F33 89D d   1      12.910  10.206  22.226  0.00  0.00    -0.203 F 
ATOM     28  H1  89D d   1      13.667  14.595  24.822  0.00  0.00     0.089 H 
ATOM     29  H2  89D d   1      12.927  10.399  24.791  0.00  0.00     0.093 H 
ATOM     30  H3  89D d   1      15.708  14.312  16.886  0.00  0.00     0.096 H 
ATOM     31  H4  89D d   1      13.106  16.770  19.397  0.00  0.00     0.036 H 
ATOM     32  H5  89D d   1      14.496  16.831  20.533  0.00  0.00     0.036 H 
ATOM     33  H6  89D d   1      14.967  14.404  19.875  0.00  0.00     0.075 H 
ATOM     34  H7  89D d   1      15.243  15.636  18.597  0.00  0.00     0.075 H 
ATOM     35  H13 89D d   1       8.721  11.983  20.666  0.00  0.00     0.087 H 
ATOM     36  H14 89D d   1      10.813  12.345  21.889  0.00  0.00     0.087 H 
ATOM     37  H15 89D d   1      10.882  11.762  17.004  0.00  0.00     0.088 H 
ATOM     38  H16 89D d   1      13.085  10.156  17.517  0.00  0.00     0.113 H 
ATOM     39  H17 89D d   1      14.812  15.038  21.884  0.00  0.00     0.040 H 
ATOM     40  H18 89D d   1      13.714  15.815  23.074  0.00  0.00     0.040 H 
ATOM     41  H19 89D d   1      12.344  14.692  20.720  0.00  0.00     0.033 H 
ATOM     42  H20 89D d   1      12.183  16.291  21.522  0.00  0.00     0.033 H 
ENDROOT
BRANCH   5  43
ATOM     43  N26 89D d   1       8.373  11.621  18.159  0.00  0.00    -0.285 N 
ATOM     44  H24 89D d   1       7.604  11.404  18.761  0.00  0.00     0.178 HD
BRANCH  43  45
ATOM     45  S34 89D d   1       8.081  11.705  16.467  0.00  0.00     0.230 S 
ATOM     46  O28 89D d   1       6.646  11.682  16.262  0.00  0.00    -0.206 OA
ATOM     47  O29 89D d   1       8.883  12.738  15.841  0.00  0.00    -0.206 OA
BRANCH  45  48
ATOM     48  C24 89D d   1       8.685  10.127  15.923  0.00  0.00     0.043 C 
ATOM     49  H11 89D d   1       8.383   9.972  14.877  0.00  0.00     0.058 H 
ATOM     50  H12 89D d   1       9.783  10.123  15.992  0.00  0.00     0.058 H 
BRANCH  48  51
ATOM     51  C22 89D d   1       8.139   8.996  16.762  0.00  0.00    -0.062 C 
ATOM     52  H8  89D d   1       8.537   8.040  16.392  0.00  0.00     0.028 H 
ATOM     53  H9  89D d   1       7.041   8.986  16.695  0.00  0.00     0.028 H 
ATOM     54  H10 89D d   1       8.441   9.138  17.810  0.00  0.00     0.028 H 
ENDBRANCH  48  51
ENDBRANCH  45  48
ENDBRANCH  43  45
ENDBRANCH   5  43
BRANCH  22  55
ATOM     55  C23 89D d   1      15.191   9.773  16.005  0.00  0.00    -0.012 C 
ATOM     56  H21 89D d   1      16.116   9.920  15.429  0.00  0.00     0.057 H 
ATOM     57  H22 89D d   1      14.391   9.430  15.333  0.00  0.00     0.057 H 
ATOM     58  H23 89D d   1      15.362   9.018  16.787  0.00  0.00     0.057 H 
ENDBRANCH  22  55
TORSDOF 5
