REMARK  11 active torsions:
REMARK  status: ('A' for Active; 'I' for Inactive)
REMARK    1  A    between atoms: C7_7  and  C15_15 
REMARK    2  A    between atoms: N24_24  and  C8_8 
REMARK    3  A    between atoms: C9_9  and  O28_28 
REMARK    4  A    between atoms: O28_28  and  C10_10 
REMARK    5  A    between atoms: C16_16  and  O29_29 
REMARK    6  A    between atoms: C21_21  and  C18_18 
REMARK    7  A    between atoms: C22_22  and  C19_19 
REMARK    8  A    between atoms: N23_23  and  C20_20 
REMARK    9  A    between atoms: O29_29  and  C21_21 
REMARK   10  A    between atoms: S32_32  and  C22_22 
REMARK   11  A    between atoms: N24_24  and  S32_32 
ROOT
ATOM      1  C1  88M d   1       9.987  11.212  20.323  0.00  0.00    -0.054 A 
ATOM      2  C2  88M d   1      11.169  11.152  21.028  0.00  0.00    -0.047 A 
ATOM      3  C5  88M d   1      11.197  11.685  18.323  0.00  0.00    -0.043 A 
ATOM      4  C7  88M d   1      12.385  11.613  19.023  0.00  0.00     0.014 A 
ATOM      5  C8  88M d   1       9.993  11.475  18.969  0.00  0.00     0.043 A 
ATOM      6  C9  88M d   1      12.373  11.348  20.379  0.00  0.00     0.087 A 
ATOM      7  H1  88M d   1       9.046  11.051  20.836  0.00  0.00     0.087 H 
ATOM      8  H2  88M d   1      11.155  10.951  22.093  0.00  0.00     0.087 H 
ATOM      9  H5  88M d   1      11.209  11.907  17.262  0.00  0.00     0.088 H 
ENDROOT
BRANCH   4  10
ATOM     10  C15 88M d   1      13.630  11.757  18.278  0.00  0.00     0.026 A 
ATOM     11  C14 88M d   1      13.992  10.677  17.585  0.00  0.00    -0.004 A 
ATOM     12  N23 88M d   1      15.132  10.642  16.825  0.00  0.00    -0.328 N 
ATOM     13  H8  88M d   1      13.360   9.791  17.624  0.00  0.00     0.113 H 
ATOM     14  C17 88M d   1      15.983  11.729  16.711  0.00  0.00     0.249 A 
ATOM     15  C13 88M d   1      15.590  12.940  17.469  0.00  0.00     0.016 A 
ATOM     16  O25 88M d   1      17.011  11.765  16.048  0.00  0.00    -0.268 OA
ATOM     17  C16 88M d   1      14.472  12.921  18.212  0.00  0.00     0.086 A 
ATOM     18  H7  88M d   1      16.203  13.839  17.424  0.00  0.00     0.096 H 
BRANCH  12  19
ATOM     19  C20 88M d   1      15.432   9.427  16.109  0.00  0.00    -0.012 C 
ATOM     20  H15 88M d   1      14.654   8.678  16.317  0.00  0.00     0.057 H 
ATOM     21  H16 88M d   1      16.409   9.041  16.435  0.00  0.00     0.057 H 
ATOM     22  H17 88M d   1      15.462   9.635  15.029  0.00  0.00     0.057 H 
ENDBRANCH  12  19
BRANCH  17  23
ATOM     23  O29 88M d   1      14.047  14.019  18.938  0.00  0.00    -0.350 OA
BRANCH  23  24
ATOM     24  C21 88M d   1      14.945  14.184  20.033  0.00  0.00     0.023 C 
ATOM     25  H18 88M d   1      14.659  13.509  20.853  0.00  0.00     0.074 H 
ATOM     26  H19 88M d   1      15.971  13.954  19.710  0.00  0.00     0.074 H 
BRANCH  24  27
ATOM     27  C18 88M d   1      14.867  15.616  20.501  0.00  0.00    -0.056 C 
ATOM     28  H9  88M d   1      15.554  15.763  21.347  0.00  0.00     0.030 H 
ATOM     29  H10 88M d   1      13.839  15.842  20.820  0.00  0.00     0.030 H 
ATOM     30  H11 88M d   1      15.151  16.287  19.677  0.00  0.00     0.030 H 
ENDBRANCH  24  27
ENDBRANCH  23  24
ENDBRANCH  17  23
ENDBRANCH   4  10
BRANCH   6  31
ATOM     31  O28 88M d   1      13.599  11.258  21.032  0.00  0.00    -0.307 OA
BRANCH  31  32
ATOM     32  C10 88M d   1      13.647  11.547  22.388  0.00  0.00     0.114 A 
ATOM     33  C3  88M d   1      13.304  12.793  22.872  0.00  0.00    -0.044 A 
ATOM     34  C4  88M d   1      13.383  13.041  24.227  0.00  0.00    -0.043 A 
ATOM     35  H3  88M d   1      12.975  13.571  22.193  0.00  0.00     0.088 H 
ATOM     36  C11 88M d   1      13.806  12.045  25.082  0.00  0.00     0.119 A 
ATOM     37  H4  88M d   1      13.114  14.015  24.618  0.00  0.00     0.088 H 
ATOM     38  C6  88M d   1      14.153  10.800  24.603  0.00  0.00    -0.006 A 
ATOM     39  F30 88M d   1      13.881  12.289  26.399  0.00  0.00    -0.206 F 
ATOM     40  C12 88M d   1      14.074  10.559  23.248  0.00  0.00     0.153 A 
ATOM     41  H6  88M d   1      14.483  10.022  25.282  0.00  0.00     0.093 H 
ATOM     42  F31 88M d   1      14.410   9.351  22.768  0.00  0.00    -0.203 F 
ENDBRANCH  31  32
ENDBRANCH   6  31
BRANCH   5  43
ATOM     43  N24 88M d   1       8.716  11.545  18.295  0.00  0.00    -0.285 N 
ATOM     44  H22 88M d   1       7.941  11.958  18.774  0.00  0.00     0.178 HD
BRANCH  43  45
ATOM     45  S32 88M d   1       8.480  10.944  16.698  0.00  0.00     0.230 S 
ATOM     46  O26 88M d   1       7.053  10.784  16.487  0.00  0.00    -0.206 OA
ATOM     47  O27 88M d   1       9.245  11.745  15.763  0.00  0.00    -0.206 OA
BRANCH  45  48
ATOM     48  C22 88M d   1       9.203   9.318  16.752  0.00  0.00     0.043 C 
ATOM     49  H20 88M d   1       9.198   8.891  15.738  0.00  0.00     0.058 H 
ATOM     50  H21 88M d   1      10.240   9.400  17.110  0.00  0.00     0.058 H 
BRANCH  48  51
ATOM     51  C19 88M d   1       8.436   8.401  17.675  0.00  0.00    -0.062 C 
ATOM     52  H12 88M d   1       8.910   7.409  17.683  0.00  0.00     0.028 H 
ATOM     53  H13 88M d   1       7.399   8.309  17.321  0.00  0.00     0.028 H 
ATOM     54  H14 88M d   1       8.441   8.818  18.693  0.00  0.00     0.028 H 
ENDBRANCH  48  51
ENDBRANCH  45  48
ENDBRANCH  43  45
ENDBRANCH   5  43
TORSDOF 11
