REMARK  16 active torsions:
REMARK  status: ('A' for Active; 'I' for Inactive)
REMARK    1  A    between atoms: C15_5  and  N3_2 
REMARK    2  A    between atoms: C13_3  and  C14_4 
REMARK       I    between atoms: N2_12  and  C13_3 
REMARK    3  A    between atoms: C14_4  and  C15_5 
REMARK    4  A    between atoms: N1_11  and  C11_13 
REMARK       I    between atoms: C10_31  and  N1_11 
REMARK    5  A    between atoms: C12_14  and  N2_12 
REMARK    6  A    between atoms: C11_13  and  C12_14 
REMARK    7  A    between atoms: C11_13  and  C20_15 
REMARK    8  A    between atoms: C1_21  and  C2_22 
REMARK    9  A    between atoms: C3_23  and  C1_21 
REMARK   10  A    between atoms: C1_21  and  C_36 
REMARK   11  A    between atoms: C9_30  and  N4_25 
REMARK       I    between atoms: N4_25  and  C26_38 
REMARK   12  A    between atoms: C8_29  and  C7_28 
REMARK   13  A    between atoms: C9_30  and  C8_29 
REMARK   14  A    between atoms: C9_30  and  C10_31 
REMARK   15  A    between atoms: C26_38  and  C27_39 
REMARK   16  A    between atoms: C27_39  and  C28_40 
ROOT
ATOM      1  C11 8B1 d   1       4.432  -0.231  46.516  0.00  0.00     0.031 C 
ATOM      2  H16 8B1 d   1       4.690  -1.010  47.248  0.00  0.00     0.075 H 
ENDROOT
BRANCH   1   3
ATOM      3  N1  8B1 d   1       4.941   1.059  46.963  0.00  0.00    -0.353 N 
ATOM      4  C10 8B1 d   1       5.397   1.250  48.204  0.00  0.00     0.241 C 
ATOM      5  O2  8B1 d   1       5.737   0.324  48.942  0.00  0.00    -0.271 OA
ATOM      6  H14 8B1 d   1       4.949   1.825  46.321  0.00  0.00     0.163 HD
BRANCH   4   7
ATOM      7  C9  8B1 d   1       5.435   2.699  48.698  0.00  0.00     0.095 C 
ATOM      8  H38 8B1 d   1       5.658   3.359  47.847  0.00  0.00     0.088 H 
BRANCH   7   9
ATOM      9  N4  8B1 d   1       4.140   3.065  49.250  0.00  0.00    -0.347 N 
ATOM     10  C26 8B1 d   1       3.315   3.983  48.727  0.00  0.00     0.217 C 
ATOM     11  O3  8B1 d   1       3.560   4.577  47.678  0.00  0.00    -0.274 OA
ATOM     12  H35 8B1 d   1       3.843   2.597  50.082  0.00  0.00     0.163 HD
BRANCH  10  13
ATOM     13  C27 8B1 d   1       2.057   4.243  49.514  0.00  0.00     0.006 C 
ATOM     14  H44 8B1 d   1       1.917   5.330  49.601  0.00  0.00     0.046 H 
ATOM     15  H45 8B1 d   1       2.175   3.807  50.517  0.00  0.00     0.046 H 
BRANCH  13  16
ATOM     16  C28 8B1 d   1       0.832   3.652  48.877  0.00  0.00    -0.068 C 
ATOM     17  H46 8B1 d   1      -0.048   3.876  49.498  0.00  0.00     0.028 H 
ATOM     18  H47 8B1 d   1       0.953   2.562  48.792  0.00  0.00     0.028 H 
ATOM     19  H48 8B1 d   1       0.694   4.085  47.875  0.00  0.00     0.028 H 
ENDBRANCH  13  16
ENDBRANCH  10  13
ENDBRANCH   7   9
BRANCH   7  20
ATOM     20  C8  8B1 d   1       6.536   2.870  49.759  0.00  0.00     0.009 C 
ATOM     21  H36 8B1 d   1       6.291   2.204  50.600  0.00  0.00     0.046 H 
ATOM     22  H37 8B1 d   1       7.486   2.552  49.304  0.00  0.00     0.046 H 
BRANCH  20  23
ATOM     23  C7  8B1 d   1       6.739   4.228  50.311  0.00  0.00     0.079 A 
ATOM     24  S   8B1 d   1       5.546   4.827  51.433  0.00  0.00    -0.072 SA
ATOM     25  C5  8B1 d   1       6.433   6.315  51.530  0.00  0.00     0.036 A 
ATOM     26  C4  8B1 d   1       6.161   7.441  52.300  0.00  0.00    -0.058 A 
ATOM     27  C6  8B1 d   1       7.571   6.233  50.722  0.00  0.00     0.074 A 
ATOM     28  C3  8B1 d   1       7.075   8.496  52.295  0.00  0.00    -0.053 A 
ATOM     29  H34 8B1 d   1       5.256   7.498  52.893  0.00  0.00     0.086 H 
ATOM     30  C30 8B1 d   1       8.216   8.409  51.496  0.00  0.00    -0.074 A 
ATOM     31  C29 8B1 d   1       8.468   7.297  50.708  0.00  0.00    -0.053 A 
ATOM     32  H40 8B1 d   1       8.922   9.231  51.492  0.00  0.00     0.084 H 
ATOM     33  H39 8B1 d   1       9.355   7.256  50.087  0.00  0.00     0.087 H 
ATOM     34  N   8B1 d   1       7.713   5.030  50.031  0.00  0.00    -0.245 NA
BRANCH  28  35
ATOM     35  C1  8B1 d   1       6.887   9.691  53.217  0.00  0.00    -0.035 C 
ATOM     36  H30 8B1 d   1       7.888   9.924  53.609  0.00  0.00     0.046 H 
BRANCH  35  37
ATOM     37  C2  8B1 d   1       6.415  10.941  52.493  0.00  0.00    -0.069 C 
ATOM     38  H31 8B1 d   1       6.300  11.762  53.216  0.00  0.00     0.028 H 
ATOM     39  H32 8B1 d   1       5.448  10.741  52.009  0.00  0.00     0.028 H 
ATOM     40  H33 8B1 d   1       7.155  11.225  51.730  0.00  0.00     0.028 H 
ENDBRANCH  35  37
BRANCH  35  41
ATOM     41  C   8B1 d   1       6.013   9.398  54.437  0.00  0.00    -0.069 C 
ATOM     42  H41 8B1 d   1       6.378   8.490  54.940  0.00  0.00     0.028 H 
ATOM     43  H42 8B1 d   1       4.972   9.246  54.115  0.00  0.00     0.028 H 
ATOM     44  H43 8B1 d   1       6.060  10.247  55.135  0.00  0.00     0.028 H 
ENDBRANCH  35  41
ENDBRANCH  28  35
ENDBRANCH  20  23
ENDBRANCH   7  20
ENDBRANCH   4   7
ENDBRANCH   1   3
BRANCH   1  45
ATOM     45  C12 8B1 d   1       5.121  -0.605  45.189  0.00  0.00     0.014 C 
ATOM     46  H17 8B1 d   1       4.745  -1.577  44.837  0.00  0.00     0.067 H 
ATOM     47  H18 8B1 d   1       4.911   0.165  44.432  0.00  0.00     0.067 H 
BRANCH  45  48
ATOM     48  N2  8B1 d   1       6.558  -0.688  45.421  0.00  0.00    -0.359 N 
ATOM     49  C13 8B1 d   1       7.246  -1.829  45.433  0.00  0.00     0.219 C 
ATOM     50  O1  8B1 d   1       6.719  -2.920  45.212  0.00  0.00    -0.274 OA
ATOM     51  H15 8B1 d   1       7.058   0.163  45.581  0.00  0.00     0.162 HD
BRANCH  49  52
ATOM     52  C14 8B1 d   1       8.725  -1.711  45.745  0.00  0.00     0.032 C 
ATOM     53  H2  8B1 d   1       9.187  -2.706  45.669  0.00  0.00     0.049 H 
ATOM     54  H3  8B1 d   1       8.845  -1.328  46.769  0.00  0.00     0.049 H 
BRANCH  52  55
ATOM     55  C15 8B1 d   1       9.425  -0.764  44.776  0.00  0.00     0.091 C 
ATOM     56  H4  8B1 d   1       9.056  -1.000  43.767  0.00  0.00     0.076 H 
ATOM     57  H5  8B1 d   1       9.124   0.259  45.047  0.00  0.00     0.076 H 
BRANCH  55  58
ATOM     58  N3  8B1 d   1      10.897  -0.785  44.718  0.00  0.00    -0.067 N 
ATOM     59  C16 8B1 d   1      11.495  -0.598  46.055  0.00  0.00     0.103 C 
ATOM     60  C17 8B1 d   1      12.999  -0.498  45.954  0.00  0.00     0.042 C 
ATOM     61  H6  8B1 d   1      11.232  -1.455  46.692  0.00  0.00     0.079 H 
ATOM     62  H7  8B1 d   1      11.100   0.326  46.502  0.00  0.00     0.079 H 
ATOM     63  O   8B1 d   1      13.398   0.562  45.079  0.00  0.00    -0.388 OA
ATOM     64  H8  8B1 d   1      13.395  -1.448  45.567  0.00  0.00     0.076 H 
ATOM     65  H9  8B1 d   1      13.412  -0.309  46.956  0.00  0.00     0.076 H 
ATOM     66  C18 8B1 d   1      12.850   0.359  43.780  0.00  0.00     0.042 C 
ATOM     67  C19 8B1 d   1      11.345   0.294  43.820  0.00  0.00     0.103 C 
ATOM     68  H10 8B1 d   1      13.155   1.192  43.129  0.00  0.00     0.076 H 
ATOM     69  H11 8B1 d   1      13.238  -0.586  43.372  0.00  0.00     0.076 H 
ATOM     70  H12 8B1 d   1      10.951   1.254  44.184  0.00  0.00     0.079 H 
ATOM     71  H13 8B1 d   1      10.964   0.102  42.806  0.00  0.00     0.079 H 
ATOM     72  H1  8B1 d   1      11.198  -1.673  44.349  0.00  0.00     0.280 HD
ENDBRANCH  55  58
ENDBRANCH  52  55
ENDBRANCH  49  52
ENDBRANCH  45  48
ENDBRANCH   1  45
BRANCH   1  73
ATOM     73  C20 8B1 d   1       2.916  -0.068  46.516  0.00  0.00    -0.033 C 
ATOM     74  C25 8B1 d   1       2.184  -0.718  47.692  0.00  0.00    -0.060 C 
ATOM     75  C24 8B1 d   1       0.840  -0.052  47.979  0.00  0.00    -0.065 C 
ATOM     76  H20 8B1 d   1       2.816  -0.639  48.589  0.00  0.00     0.033 H 
ATOM     77  H21 8B1 d   1       2.010  -1.779  47.458  0.00  0.00     0.033 H 
ATOM     78  C23 8B1 d   1      -0.038   0.011  46.729  0.00  0.00    -0.065 C 
ATOM     79  H22 8B1 d   1       1.019   0.971  48.341  0.00  0.00     0.033 H 
ATOM     80  H23 8B1 d   1       0.315  -0.628  48.755  0.00  0.00     0.033 H 
ATOM     81  C22 8B1 d   1       0.697   0.677  45.568  0.00  0.00    -0.065 C 
ATOM     82  H24 8B1 d   1      -0.946   0.589  46.957  0.00  0.00     0.033 H 
ATOM     83  H25 8B1 d   1      -0.319  -1.012  46.436  0.00  0.00     0.033 H 
ATOM     84  C21 8B1 d   1       2.028  -0.015  45.277  0.00  0.00    -0.060 C 
ATOM     85  H26 8B1 d   1       0.890   1.729  45.824  0.00  0.00     0.033 H 
ATOM     86  H27 8B1 d   1       0.065   0.628  44.669  0.00  0.00     0.033 H 
ATOM     87  H28 8B1 d   1       1.829  -1.042  44.936  0.00  0.00     0.033 H 
ATOM     88  H29 8B1 d   1       2.553   0.539  44.485  0.00  0.00     0.033 H 
ATOM     89  H19 8B1 d   1       2.873   0.993  46.803  0.00  0.00     0.043 H 
ENDBRANCH   1  73
TORSDOF 16
