REMARK  11 active torsions:
REMARK  status: ('A' for Active; 'I' for Inactive)
REMARK    1  A    between atoms: C05_15  and  C06_14 
REMARK    2  A    between atoms: C23_27  and  C22_16 
REMARK    3  A    between atoms: C23_27  and  C30_17 
REMARK    4  A    between atoms: C09_19  and  S10_40 
REMARK    5  A    between atoms: C33_21  and  C34_28 
REMARK    6  A    between atoms: C24_22  and  C23_27 
REMARK    7  A    between atoms: C03_23  and  O02_36 
REMARK    8  A    between atoms: N25_32  and  C26_24 
REMARK    9  A    between atoms: O02_36  and  C01_25 
REMARK   10  A    between atoms: S10_40  and  C11_26 
REMARK   11  A    between atoms: C23_27  and  O40_35 
ROOT
ATOM      1  C21 87J d   1      11.608 -24.037  -8.438  0.00  0.00    -0.071 A 
ATOM      2  C20 87J d   1      10.809 -25.018  -7.909  0.00  0.00    -0.054 A 
ATOM      3  C41 87J d   1      12.034 -25.414 -10.324  0.00  0.00    -0.059 A 
ATOM      4  C18 87J d   1      11.228 -26.394  -9.787  0.00  0.00     0.016 A 
ATOM      5  C05 87J d   1      10.209 -28.567  -9.868  0.00  0.00     0.050 A 
ATOM      6  C22 87J d   1      12.224 -24.229  -9.649  0.00  0.00    -0.012 A 
ATOM      7  C19 87J d   1      10.613 -26.202  -8.571  0.00  0.00     0.071 A 
ATOM      8  C16 87J d   1      11.012 -27.597 -10.424  0.00  0.00     0.062 A 
ATOM      9  C03 87J d   1       9.640 -28.272  -8.651  0.00  0.00     0.177 A 
ATOM     10  N04 87J d   1       9.827 -27.119  -8.010  0.00  0.00    -0.223 NA
ATOM     11 CL17 87J d   1      11.766 -27.889 -11.944  0.00  0.00    -0.082 Cl
ATOM     12  H3  87J d   1      11.753 -23.108  -7.898  0.00  0.00     0.084 H 
ATOM     13  H5  87J d   1      10.325 -24.855  -6.953  0.00  0.00     0.087 H 
ATOM     14  H9  87J d   1      12.519 -25.576 -11.280  0.00  0.00     0.086 H 
ENDROOT
BRANCH   6  15
ATOM     15  C23 87J d   1      13.091 -23.147 -10.195  0.00  0.00     0.158 C 
BRANCH  15  16
ATOM     16  C30 87J d   1      14.198 -22.846  -9.240  0.00  0.00     0.004 A 
ATOM     17  C39 87J d   1      14.044 -21.884  -8.271  0.00  0.00    -0.070 A 
ATOM     18  C38 87J d   1      15.077 -21.626  -7.403  0.00  0.00    -0.050 A 
ATOM     19  H4  87J d   1      13.114 -21.333  -8.192  0.00  0.00     0.084 H 
ATOM     20  C33 87J d   1      16.243 -22.345  -7.531  0.00  0.00     0.140 A 
ATOM     21  H8  87J d   1      14.975 -20.871  -6.632  0.00  0.00     0.087 H 
ATOM     22  N32 87J d   1      16.420 -23.285  -8.462  0.00  0.00    -0.256 NA
ATOM     23  C31 87J d   1      15.399 -23.514  -9.292  0.00  0.00     0.013 A 
ATOM     24  H10 87J d   1      15.525 -24.274 -10.055  0.00  0.00     0.115 H 
BRANCH  20  25
ATOM     25  C34 87J d   1      17.365 -22.068  -6.590  0.00  0.00     0.434 C 
ATOM     26  F35 87J d   1      17.619 -20.738  -6.450  0.00  0.00    -0.165 F 
ATOM     27  F36 87J d   1      17.118 -22.533  -5.336  0.00  0.00    -0.165 F 
ATOM     28  F37 87J d   1      18.540 -22.632  -6.979  0.00  0.00    -0.165 F 
ENDBRANCH  20  25
ENDBRANCH  15  16
BRANCH  15  29
ATOM     29  C24 87J d   1      12.329 -21.931 -10.528  0.00  0.00     0.074 A 
ATOM     30  C29 87J d   1      10.991 -21.616 -10.432  0.00  0.00     0.029 A 
ATOM     31  N28 87J d   1      10.741 -20.341 -10.867  0.00  0.00    -0.254 NA
ATOM     32  H11 87J d   1      10.227 -22.296 -10.057  0.00  0.00     0.118 H 
ATOM     33  C27 87J d   1      11.916 -19.878 -11.226  0.00  0.00     0.065 A 
ATOM     34  N25 87J d   1      12.900 -20.801 -11.040  0.00  0.00    -0.345 N 
ATOM     35  H12 87J d   1      12.083 -18.878 -11.624  0.00  0.00     0.143 H 
BRANCH  34  36
ATOM     36  C26 87J d   1      14.301 -20.602 -11.338  0.00  0.00    -0.013 C 
ATOM     37  H13 87J d   1      14.450 -19.589 -11.739  0.00  0.00     0.057 H 
ATOM     38  H14 87J d   1      14.626 -21.343 -12.083  0.00  0.00     0.057 H 
ATOM     39  H15 87J d   1      14.892 -20.723 -10.418  0.00  0.00     0.057 H 
ENDBRANCH  34  36
ENDBRANCH  15  29
BRANCH  15  40
ATOM     40  O40 87J d   1      13.666 -23.602 -11.408  0.00  0.00    -0.374 OA
ATOM     41  H22 87J d   1      12.976 -23.799 -12.030  0.00  0.00     0.212 HD
ENDBRANCH  15  40
ENDBRANCH   6  15
BRANCH   5  42
ATOM     42  C06 87J d   1       9.977 -29.849 -10.487  0.00  0.00    -0.020 A 
ATOM     43  C07 87J d   1       8.742 -30.206 -10.978  0.00  0.00    -0.071 A 
ATOM     44  C08 87J d   1       8.561 -31.444 -11.553  0.00  0.00    -0.061 A 
ATOM     45  H1  87J d   1       7.912 -29.512 -10.912  0.00  0.00     0.084 H 
ATOM     46  C09 87J d   1       9.623 -32.309 -11.627  0.00  0.00     0.058 A 
ATOM     47  H6  87J d   1       7.591 -31.732 -11.942  0.00  0.00     0.085 H 
ATOM     48  C14 87J d   1      10.860 -31.967 -11.143  0.00  0.00    -0.061 A 
ATOM     49  C15 87J d   1      11.029 -30.730 -10.572  0.00  0.00    -0.071 A 
ATOM     50  H7  87J d   1      11.690 -32.661 -11.210  0.00  0.00     0.085 H 
ATOM     51  H2  87J d   1      12.001 -30.445 -10.185  0.00  0.00     0.084 H 
BRANCH  46  52
ATOM     52  S10 87J d   1       9.399 -33.908 -12.362  0.00  0.00     0.171 S 
ATOM     53  O12 87J d   1      10.606 -34.660 -12.086  0.00  0.00    -0.223 OA
ATOM     54  O13 87J d   1       8.088 -34.381 -11.965  0.00  0.00    -0.223 OA
BRANCH  52  55
ATOM     55  C11 87J d   1       9.357 -33.538 -14.093  0.00  0.00     0.020 C 
ATOM     56  H19 87J d   1       9.220 -34.468 -14.664  0.00  0.00     0.049 H 
ATOM     57  H20 87J d   1      10.304 -33.062 -14.389  0.00  0.00     0.049 H 
ATOM     58  H21 87J d   1       8.522 -32.853 -14.302  0.00  0.00     0.049 H 
ENDBRANCH  52  55
ENDBRANCH  46  52
ENDBRANCH   5  42
BRANCH   9  59
ATOM     59  O02 87J d   1       8.820 -29.223  -8.070  0.00  0.00    -0.339 OA
BRANCH  59  60
ATOM     60  C01 87J d   1       8.856 -29.027  -6.661  0.00  0.00     0.012 C 
ATOM     61  H16 87J d   1       8.211 -29.771  -6.171  0.00  0.00     0.067 H 
ATOM     62  H17 87J d   1       8.496 -28.015  -6.422  0.00  0.00     0.067 H 
ATOM     63  H18 87J d   1       9.889 -29.143  -6.301  0.00  0.00     0.067 H 
ENDBRANCH  59  60
ENDBRANCH   9  59
TORSDOF 11
