REMARK  10 active torsions:
REMARK  status: ('A' for Active; 'I' for Inactive)
REMARK    1  A    between atoms: N4_15  and  C6_2 
REMARK    2  A    between atoms: C8_3  and  N18_21 
REMARK    3  A    between atoms: N12_5  and  C15_7 
REMARK    4  A    between atoms: C15_7  and  C17_8 
REMARK    5  A    between atoms: C15_7  and  C16_20 
REMARK    6  A    between atoms: N21_23  and  C24_10 
REMARK    7  A    between atoms: C27_28  and  C28_11 
REMARK    8  A    between atoms: C28_11  and  C29_29 
REMARK    9  A    between atoms: N26_27  and  C1_12 
REMARK   10  A    between atoms: N18_21  and  C19_22 
REMARK       I    between atoms: N26_27  and  C27_28 
ROOT
ATOM      1  C6  8BP d   1     -13.278  16.004 -27.373  0.00  0.00     0.728 A 
ATOM      2  C8  8BP d   1     -13.346  13.635 -27.812  0.00  0.00     0.180 A 
ATOM      3  C10 8BP d   1     -11.686  15.102 -28.731  0.00  0.00     0.183 A 
ATOM      4  N12 8BP d   1     -10.594  15.014 -29.549  0.00  0.00    -0.320 N 
ATOM      5  C13 8BP d   1     -10.475  13.679 -29.895  0.00  0.00     0.069 A 
ATOM      6  N7  8BP d   1     -13.840  14.773 -27.216  0.00  0.00    -0.042 NA
ATOM      7  C9  8BP d   1     -12.187  13.801 -28.622  0.00  0.00     0.151 A 
ATOM      8  N11 8BP d   1     -12.179  16.227 -28.145  0.00  0.00    -0.042 NA
ATOM      9  N14 8BP d   1     -11.416  12.929 -29.356  0.00  0.00    -0.236 NA
ATOM     10  H3  8BP d   1      -9.690  13.290 -30.542  0.00  0.00     0.143 H 
ENDROOT
BRANCH   1  11
ATOM     11  N4  8BP d   1     -13.859  17.045 -26.690  0.00  0.00    -0.209 N 
ATOM     12  C5  8BP d   1     -15.017  16.863 -25.824  0.00  0.00     0.033 C 
ATOM     13  C1  8BP d   1     -15.251  18.258 -25.238  0.00  0.00     0.059 C 
ATOM     14  H1  8BP d   1     -15.891  16.528 -26.402  0.00  0.00     0.068 H 
ATOM     15  H2  8BP d   1     -14.802  16.134 -25.029  0.00  0.00     0.068 H 
ATOM     16  C2  8BP d   1     -14.604  19.186 -26.247  0.00  0.00     0.116 C 
ATOM     17  H14 8BP d   1     -16.323  18.472 -25.115  0.00  0.00     0.079 H 
ATOM     18  C3  8BP d   1     -13.384  18.412 -26.734  0.00  0.00     0.042 C 
ATOM     19  F25 8BP d   1     -15.469  19.365 -27.288  0.00  0.00    -0.245 F 
ATOM     20  H15 8BP d   1     -14.324  20.151 -25.799  0.00  0.00     0.097 H 
ATOM     21  H16 8BP d   1     -12.524  18.558 -26.064  0.00  0.00     0.069 H 
ATOM     22  H17 8BP d   1     -13.106  18.706 -27.757  0.00  0.00     0.069 H 
BRANCH  13  23
ATOM     23  N26 8BP d   1     -14.550  18.378 -23.955  0.00  0.00    -0.352 N 
ATOM     24  C27 8BP d   1     -15.018  17.851 -22.759  0.00  0.00     0.217 C 
ATOM     25  O30 8BP d   1     -16.073  17.221 -22.619  0.00  0.00    -0.274 OA
ATOM     26  H23 8BP d   1     -13.680  18.871 -23.941  0.00  0.00     0.163 HD
BRANCH  24  27
ATOM     27  C28 8BP d   1     -14.041  18.158 -21.630  0.00  0.00     0.006 C 
ATOM     28  H12 8BP d   1     -14.019  19.247 -21.480  0.00  0.00     0.046 H 
ATOM     29  H13 8BP d   1     -13.043  17.809 -21.933  0.00  0.00     0.046 H 
BRANCH  27  30
ATOM     30  C29 8BP d   1     -14.392  17.502 -20.303  0.00  0.00    -0.068 C 
ATOM     31  H24 8BP d   1     -13.639  17.775 -19.549  0.00  0.00     0.028 H 
ATOM     32  H25 8BP d   1     -14.407  16.409 -20.427  0.00  0.00     0.028 H 
ATOM     33  H26 8BP d   1     -15.383  17.848 -19.974  0.00  0.00     0.028 H 
ENDBRANCH  27  30
ENDBRANCH  24  27
ENDBRANCH  13  23
ENDBRANCH   1  11
BRANCH   2  34
ATOM     34  N18 8BP d   1     -13.980  12.390 -27.610  0.00  0.00    -0.336 N 
ATOM     35  H21 8BP d   1     -13.537  11.587 -28.078  0.00  0.00     0.168 HD
BRANCH  34  36
ATOM     36  C19 8BP d   1     -15.106  12.099 -26.876  0.00  0.00     0.070 A 
ATOM     37  C20 8BP d   1     -15.945  12.923 -26.137  0.00  0.00     0.025 A 
ATOM     38  N21 8BP d   1     -16.907  12.116 -25.621  0.00  0.00    -0.283 N 
ATOM     39  H8  8BP d   1     -15.850  13.999 -25.999  0.00  0.00     0.117 H 
ATOM     40  N22 8BP d   1     -16.767  10.824 -25.959  0.00  0.00    -0.183 NA
ATOM     41  C23 8BP d   1     -15.668  10.820 -26.725  0.00  0.00     0.049 A 
ATOM     42  H22 8BP d   1     -15.255   9.922 -27.182  0.00  0.00     0.121 H 
BRANCH  38  43
ATOM     43  C24 8BP d   1     -18.008  12.519 -24.781  0.00  0.00     0.002 C 
ATOM     44  H9  8BP d   1     -18.615  11.638 -24.525  0.00  0.00     0.059 H 
ATOM     45  H10 8BP d   1     -18.630  13.250 -25.318  0.00  0.00     0.059 H 
ATOM     46  H11 8BP d   1     -17.618  12.976 -23.860  0.00  0.00     0.059 H 
ENDBRANCH  38  43
ENDBRANCH  34  36
ENDBRANCH   2  34
BRANCH   4  47
ATOM     47  C15 8BP d   1      -9.754  16.160 -29.943  0.00  0.00     0.012 C 
ATOM     48  H4  8BP d   1      -9.720  16.851 -29.088  0.00  0.00     0.072 H 
BRANCH  47  49
ATOM     49  C17 8BP d   1      -8.304  15.775 -30.290  0.00  0.00    -0.057 C 
ATOM     50  H5  8BP d   1      -7.743  16.678 -30.573  0.00  0.00     0.030 H 
ATOM     51  H6  8BP d   1      -8.304  15.065 -31.130  0.00  0.00     0.030 H 
ATOM     52  H7  8BP d   1      -7.829  15.307 -29.415  0.00  0.00     0.030 H 
ENDBRANCH  47  49
BRANCH  47  53
ATOM     53  C16 8BP d   1     -10.370  16.900 -31.134  0.00  0.00    -0.057 C 
ATOM     54  H18 8BP d   1      -9.728  17.749 -31.410  0.00  0.00     0.030 H 
ATOM     55  H19 8BP d   1     -11.369  17.270 -30.859  0.00  0.00     0.030 H 
ATOM     56  H20 8BP d   1     -10.456  16.212 -31.988  0.00  0.00     0.030 H 
ENDBRANCH  47  53
ENDBRANCH   4  47
TORSDOF 10
