REMARK  12 active torsions:
REMARK  status: ('A' for Active; 'I' for Inactive)
REMARK    1  A    between atoms: C6_2  and  N4_14 
REMARK    2  A    between atoms: N18_20  and  C8_3 
REMARK    3  A    between atoms: N12_5  and  C15_7 
REMARK    4  A    between atoms: C15_7  and  C17_8 
REMARK    5  A    between atoms: C15_7  and  C16_19 
REMARK    6  A    between atoms: N21_22  and  C26_10 
REMARK    7  A    between atoms: C1_11  and  N28_28 
REMARK    8  A    between atoms: N18_20  and  C19_21 
REMARK    9  A    between atoms: C23_24  and  O24_25 
REMARK   10  A    between atoms: O24_25  and  C25_26 
REMARK       I    between atoms: N28_28  and  C29_29 
REMARK   11  A    between atoms: C29_29  and  C30_30 
REMARK   12  A    between atoms: C30_30  and  C31_31 
ROOT
ATOM      1  C6  8AM d   1     -13.289  15.888 -27.250  0.00  0.00     0.728 A 
ATOM      2  C8  8AM d   1     -13.359  13.536 -27.750  0.00  0.00     0.180 A 
ATOM      3  C10 8AM d   1     -11.677  15.011 -28.597  0.00  0.00     0.183 A 
ATOM      4  N12 8AM d   1     -10.572  14.937 -29.401  0.00  0.00    -0.320 N 
ATOM      5  C13 8AM d   1     -10.456  13.612 -29.774  0.00  0.00     0.069 A 
ATOM      6  N7  8AM d   1     -13.863  14.660 -27.134  0.00  0.00    -0.042 NA
ATOM      7  C9  8AM d   1     -12.185  13.714 -28.527  0.00  0.00     0.151 A 
ATOM      8  N11 8AM d   1     -12.175  16.118 -27.994  0.00  0.00    -0.042 NA
ATOM      9  N14 8AM d   1     -11.411  12.856 -29.266  0.00  0.00    -0.236 NA
ATOM     10  H3  8AM d   1      -9.663  13.233 -30.417  0.00  0.00     0.143 H 
ENDROOT
BRANCH   1  11
ATOM     11  N4  8AM d   1     -13.867  16.926 -26.565  0.00  0.00    -0.209 N 
ATOM     12  C5  8AM d   1     -15.044  16.768 -25.718  0.00  0.00     0.033 C 
ATOM     13  C1  8AM d   1     -15.255  18.177 -25.137  0.00  0.00     0.059 C 
ATOM     14  H1  8AM d   1     -15.915  16.451 -26.310  0.00  0.00     0.068 H 
ATOM     15  H2  8AM d   1     -14.858  16.036 -24.918  0.00  0.00     0.068 H 
ATOM     16  C2  8AM d   1     -14.594  19.080 -26.156  0.00  0.00     0.116 C 
ATOM     17  H12 8AM d   1     -16.324  18.407 -25.017  0.00  0.00     0.079 H 
ATOM     18  C3  8AM d   1     -13.365  18.285 -26.590  0.00  0.00     0.042 C 
ATOM     19  F27 8AM d   1     -15.445  19.229 -27.215  0.00  0.00    -0.245 F 
ATOM     20  H13 8AM d   1     -14.322  20.057 -25.731  0.00  0.00     0.097 H 
ATOM     21  H14 8AM d   1     -12.532  18.417 -25.884  0.00  0.00     0.069 H 
ATOM     22  H15 8AM d   1     -13.038  18.573 -27.600  0.00  0.00     0.069 H 
BRANCH  13  23
ATOM     23  N28 8AM d   1     -14.552  18.323 -23.854  0.00  0.00    -0.352 N 
ATOM     24  C29 8AM d   1     -15.007  17.806 -22.652  0.00  0.00     0.217 C 
ATOM     25  O32 8AM d   1     -16.044  17.165 -22.506  0.00  0.00    -0.274 OA
ATOM     26  H23 8AM d   1     -13.689  18.828 -23.849  0.00  0.00     0.163 HD
BRANCH  24  27
ATOM     27  C30 8AM d   1     -14.037  18.146 -21.524  0.00  0.00     0.006 C 
ATOM     28  H24 8AM d   1     -14.057  19.235 -21.368  0.00  0.00     0.046 H 
ATOM     29  H25 8AM d   1     -13.027  17.838 -21.833  0.00  0.00     0.046 H 
BRANCH  27  30
ATOM     30  C31 8AM d   1     -14.359  17.468 -20.200  0.00  0.00    -0.068 C 
ATOM     31  H26 8AM d   1     -13.616  17.765 -19.446  0.00  0.00     0.028 H 
ATOM     32  H27 8AM d   1     -14.332  16.376 -20.331  0.00  0.00     0.028 H 
ATOM     33  H28 8AM d   1     -15.362  17.773 -19.866  0.00  0.00     0.028 H 
ENDBRANCH  27  30
ENDBRANCH  24  27
ENDBRANCH  13  23
ENDBRANCH   1  11
BRANCH   2  34
ATOM     34  N18 8AM d   1     -13.998  12.292 -27.613  0.00  0.00    -0.334 N 
ATOM     35  H19 8AM d   1     -13.539  11.496 -28.078  0.00  0.00     0.168 HD
BRANCH  34  36
ATOM     36  C19 8AM d   1     -15.154  12.007 -26.939  0.00  0.00     0.106 A 
ATOM     37  C20 8AM d   1     -15.845  12.696 -25.952  0.00  0.00     0.028 A 
ATOM     38  N21 8AM d   1     -16.945  11.939 -25.669  0.00  0.00    -0.281 N 
ATOM     39  H8  8AM d   1     -15.567  13.645 -25.497  0.00  0.00     0.117 H 
ATOM     40  N22 8AM d   1     -17.026  10.809 -26.396  0.00  0.00    -0.145 NA
ATOM     41  C23 8AM d   1     -15.928  10.861 -27.168  0.00  0.00     0.212 A 
BRANCH  38  42
ATOM     42  C26 8AM d   1     -17.976  12.242 -24.706  0.00  0.00     0.002 C 
ATOM     43  H9  8AM d   1     -18.728  11.439 -24.709  0.00  0.00     0.059 H 
ATOM     44  H10 8AM d   1     -18.456  13.195 -24.971  0.00  0.00     0.059 H 
ATOM     45  H11 8AM d   1     -17.530  12.322 -23.704  0.00  0.00     0.059 H 
ENDBRANCH  38  42
BRANCH  41  46
ATOM     46  O24 8AM d   1     -15.601   9.901 -28.086  0.00  0.00    -0.337 OA
BRANCH  46  47
ATOM     47  C25 8AM d   1     -16.500   8.795 -28.206  0.00  0.00     0.012 C 
ATOM     48  H20 8AM d   1     -16.126   8.100 -28.972  0.00  0.00     0.067 H 
ATOM     49  H21 8AM d   1     -17.495   9.161 -28.498  0.00  0.00     0.067 H 
ATOM     50  H22 8AM d   1     -16.570   8.273 -27.240  0.00  0.00     0.067 H 
ENDBRANCH  46  47
ENDBRANCH  41  46
ENDBRANCH  34  36
ENDBRANCH   2  34
BRANCH   4  51
ATOM     51  C15 8AM d   1      -9.721  16.085 -29.761  0.00  0.00     0.012 C 
ATOM     52  H4  8AM d   1      -9.685  16.755 -28.890  0.00  0.00     0.072 H 
BRANCH  51  53
ATOM     53  C17 8AM d   1      -8.279  15.692 -30.111  0.00  0.00    -0.057 C 
ATOM     54  H5  8AM d   1      -7.705  16.595 -30.368  0.00  0.00     0.030 H 
ATOM     55  H6  8AM d   1      -8.284  15.004 -30.969  0.00  0.00     0.030 H 
ATOM     56  H7  8AM d   1      -7.814  15.196 -29.246  0.00  0.00     0.030 H 
ENDBRANCH  51  53
BRANCH  51  57
ATOM     57  C16 8AM d   1     -10.325  16.858 -30.941  0.00  0.00    -0.057 C 
ATOM     58  H16 8AM d   1      -9.675  17.709 -31.193  0.00  0.00     0.030 H 
ATOM     59  H17 8AM d   1     -11.323  17.228 -30.664  0.00  0.00     0.030 H 
ATOM     60  H18 8AM d   1     -10.409  16.191 -31.812  0.00  0.00     0.030 H 
ENDBRANCH  51  57
ENDBRANCH   4  51
TORSDOF 12
