REMARK  10 active torsions:
REMARK  status: ('A' for Active; 'I' for Inactive)
REMARK    1  A    between atoms: N9_16  and  C7_3 
REMARK    2  A    between atoms: C10_5  and  N9_16 
REMARK    3  A    between atoms: C17_7  and  N20_24 
REMARK    4  A    between atoms: N23_25  and  C24_10 
REMARK    5  A    between atoms: C2_13  and  C1_12 
REMARK       I    between atoms: N4_15  and  C2_13 
REMARK    6  A    between atoms: N13_19  and  C12_18 
REMARK    7  A    between atoms: N13_19  and  C14_20 
REMARK    8  A    between atoms: N30_30  and  C31_31 
REMARK    9  A    between atoms: C31_31  and  C32_32 
REMARK   10  A    between atoms: C31_31  and  C33_33 
ROOT
ATOM      1  C10 8BM d   1      12.070  -4.941 -32.881  0.00  0.00     0.726 A 
ATOM      2  N11 8BM d   1      12.836  -3.802 -32.942  0.00  0.00    -0.043 NA
ATOM      3  C12 8BM d   1      12.276  -2.556 -33.177  0.00  0.00     0.180 A 
ATOM      4  C27 8BM d   1      10.869  -2.510 -33.347  0.00  0.00     0.151 A 
ATOM      5  N28 8BM d   1       9.995  -1.482 -33.580  0.00  0.00    -0.236 NA
ATOM      6  C29 8BM d   1       8.807  -2.060 -33.631  0.00  0.00     0.069 A 
ATOM      7  N30 8BM d   1       8.871  -3.425 -33.442  0.00  0.00    -0.320 N 
ATOM      8  C34 8BM d   1      10.190  -3.724 -33.260  0.00  0.00     0.183 A 
ATOM      9  N35 8BM d   1      10.720  -4.948 -33.037  0.00  0.00    -0.042 NA
ATOM     10  H29 8BM d   1       7.879  -1.517 -33.803  0.00  0.00     0.143 H 
ENDROOT
BRANCH   3  11
ATOM     11  N13 8BM d   1      13.030  -1.379 -33.235  0.00  0.00    -0.338 N 
ATOM     12  H22 8BM d   1      12.479  -0.535 -33.449  0.00  0.00     0.167 HD
BRANCH  11  13
ATOM     13  C14 8BM d   1      14.410  -1.139 -33.053  0.00  0.00     0.033 A 
ATOM     14  C15 8BM d   1      15.363  -2.144 -32.728  0.00  0.00    -0.056 A 
ATOM     15  C16 8BM d   1      16.727  -1.821 -32.512  0.00  0.00    -0.060 A 
ATOM     16  H8  8BM d   1      15.041  -3.176 -32.644  0.00  0.00     0.087 H 
ATOM     17  C17 8BM d   1      17.227  -0.479 -32.610  0.00  0.00     0.010 A 
ATOM     18  H23 8BM d   1      17.418  -2.618 -32.263  0.00  0.00     0.086 H 
ATOM     19  C18 8BM d   1      16.252   0.522 -32.954  0.00  0.00    -0.060 A 
ATOM     20  C19 8BM d   1      14.881   0.200 -33.170  0.00  0.00    -0.056 A 
ATOM     21  H24 8BM d   1      16.571   1.554 -33.052  0.00  0.00     0.086 H 
ATOM     22  H25 8BM d   1      14.184   0.989 -33.428  0.00  0.00     0.087 H 
BRANCH  17  23
ATOM     23  N20 8BM d   1      18.596  -0.196 -32.347  0.00  0.00    -0.280 NA
ATOM     24  C21 8BM d   1      19.083   1.201 -32.416  0.00  0.00     0.006 C 
ATOM     25  C22 8BM d   1      20.333   1.297 -31.535  0.00  0.00     0.094 C 
ATOM     26  H9  8BM d   1      19.335   1.460 -33.455  0.00  0.00     0.058 H 
ATOM     27  H10 8BM d   1      18.308   1.888 -32.044  0.00  0.00     0.058 H 
ATOM     28  N23 8BM d   1      21.391   0.347 -32.081  0.00  0.00    -0.073 N 
ATOM     29  H11 8BM d   1      20.080   1.015 -30.502  0.00  0.00     0.077 H 
ATOM     30  H12 8BM d   1      20.718   2.327 -31.550  0.00  0.00     0.077 H 
ATOM     31  C25 8BM d   1      20.860  -1.089 -32.189  0.00  0.00     0.094 C 
ATOM     32  H26 8BM d   1      21.629   0.657 -33.010  0.00  0.00     0.279 HD
ATOM     33  C26 8BM d   1      19.579  -1.079 -33.045  0.00  0.00     0.006 C 
ATOM     34  H27 8BM d   1      21.618  -1.729 -32.664  0.00  0.00     0.077 H 
ATOM     35  H28 8BM d   1      20.631  -1.476 -31.185  0.00  0.00     0.077 H 
ATOM     36  H16 8BM d   1      19.797  -0.683 -34.048  0.00  0.00     0.058 H 
ATOM     37  H17 8BM d   1      19.175  -2.098 -33.133  0.00  0.00     0.058 H 
BRANCH  28  38
ATOM     38  C24 8BM d   1      22.639   0.389 -31.249  0.00  0.00     0.066 C 
ATOM     39  H13 8BM d   1      23.382  -0.306 -31.667  0.00  0.00     0.068 H 
ATOM     40  H14 8BM d   1      22.401   0.093 -30.216  0.00  0.00     0.068 H 
ATOM     41  H15 8BM d   1      23.048   1.410 -31.253  0.00  0.00     0.068 H 
ENDBRANCH  28  38
ENDBRANCH  17  23
ENDBRANCH  11  13
ENDBRANCH   3  11
BRANCH   1  42
ATOM     42  N9  8BM d   1      12.643  -6.187 -32.643  0.00  0.00    -0.216 N 
ATOM     43  H21 8BM d   1      12.055  -7.027 -32.742  0.00  0.00     0.178 HD
BRANCH  42  44
ATOM     44  C7  8BM d   1      14.043  -6.355 -32.259  0.00  0.00     0.043 C 
ATOM     45  C6  8BM d   1      14.360  -5.797 -30.860  0.00  0.00    -0.029 C 
ATOM     46  C5  8BM d   1      13.916  -6.893 -29.898  0.00  0.00    -0.001 C 
ATOM     47  H3  8BM d   1      15.437  -5.601 -30.755  0.00  0.00     0.038 H 
ATOM     48  H4  8BM d   1      13.799  -4.869 -30.676  0.00  0.00     0.038 H 
ATOM     49  N4  8BM d   1      13.887  -8.122 -30.687  0.00  0.00    -0.350 N 
ATOM     50  H1  8BM d   1      12.916  -6.670 -29.498  0.00  0.00     0.064 H 
ATOM     51  H2  8BM d   1      14.631  -6.987 -29.067  0.00  0.00     0.064 H 
ATOM     52  C8  8BM d   1      14.282  -7.855 -32.081  0.00  0.00     0.017 C 
ATOM     53  C2  8BM d   1      13.521  -9.345 -30.114  0.00  0.00     0.215 C 
ATOM     54  H6  8BM d   1      15.342  -8.103 -32.240  0.00  0.00     0.067 H 
ATOM     55  H7  8BM d   1      13.661  -8.434 -32.780  0.00  0.00     0.067 H 
ATOM     56  O3  8BM d   1      13.203  -9.468 -28.923  0.00  0.00    -0.274 OA
ATOM     57  H5  8BM d   1      14.702  -5.913 -33.021  0.00  0.00     0.075 H 
BRANCH  53  58
ATOM     58  C1  8BM d   1      13.525 -10.556 -31.019  0.00  0.00    -0.003 C 
ATOM     59  H18 8BM d   1      13.831 -10.256 -32.032  0.00  0.00     0.040 H 
ATOM     60  H19 8BM d   1      12.515 -10.990 -31.055  0.00  0.00     0.040 H 
ATOM     61  H20 8BM d   1      14.232 -11.303 -30.629  0.00  0.00     0.040 H 
ENDBRANCH  53  58
ENDBRANCH  42  44
ENDBRANCH   1  42
BRANCH   7  62
ATOM     62  C31 8BM d   1       7.792  -4.432 -33.421  0.00  0.00     0.012 C 
ATOM     63  H30 8BM d   1       8.019  -5.133 -32.604  0.00  0.00     0.072 H 
BRANCH  62  64
ATOM     64  C32 8BM d   1       7.740  -5.228 -34.733  0.00  0.00    -0.057 C 
ATOM     65  H31 8BM d   1       6.927  -5.967 -34.682  0.00  0.00     0.030 H 
ATOM     66  H32 8BM d   1       8.698  -5.747 -34.885  0.00  0.00     0.030 H 
ATOM     67  H33 8BM d   1       7.558  -4.540 -35.572  0.00  0.00     0.030 H 
ENDBRANCH  62  64
BRANCH  62  68
ATOM     68  C33 8BM d   1       6.396  -3.839 -33.155  0.00  0.00    -0.057 C 
ATOM     69  H34 8BM d   1       5.649  -4.646 -33.154  0.00  0.00     0.030 H 
ATOM     70  H35 8BM d   1       6.150  -3.112 -33.943  0.00  0.00     0.030 H 
ATOM     71  H36 8BM d   1       6.392  -3.335 -32.177  0.00  0.00     0.030 H 
ENDBRANCH  62  68
ENDBRANCH   7  62
TORSDOF 10
