REMARK  10 active torsions:
REMARK  status: ('A' for Active; 'I' for Inactive)
REMARK    1  A    between atoms: N9_16  and  C7_3 
REMARK    2  A    between atoms: C10_5  and  N9_16 
REMARK    3  A    between atoms: C17_7  and  N20_24 
REMARK    4  A    between atoms: N23_25  and  C24_10 
REMARK    5  A    between atoms: C2_13  and  C1_12 
REMARK       I    between atoms: N4_15  and  C2_13 
REMARK    6  A    between atoms: N13_19  and  C12_18 
REMARK    7  A    between atoms: N13_19  and  C14_20 
REMARK    8  A    between atoms: N30_30  and  C31_31 
REMARK    9  A    between atoms: C31_31  and  C32_32 
REMARK   10  A    between atoms: C31_31  and  C33_33 
ROOT
ATOM      1  C10 8BM d   1       0.892 -51.894 -22.020  0.00  0.00     0.726 A 
ATOM      2  N11 8BM d   1       0.313 -52.138 -20.814  0.00  0.00    -0.043 NA
ATOM      3  C12 8BM d   1      -0.607 -53.120 -20.604  0.00  0.00     0.180 A 
ATOM      4  C27 8BM d   1      -0.960 -53.911 -21.710  0.00  0.00     0.151 A 
ATOM      5  N28 8BM d   1      -1.827 -54.947 -21.822  0.00  0.00    -0.236 NA
ATOM      6  C29 8BM d   1      -1.757 -55.293 -23.090  0.00  0.00     0.069 A 
ATOM      7  N30 8BM d   1      -0.882 -54.529 -23.819  0.00  0.00    -0.320 N 
ATOM      8  C34 8BM d   1      -0.335 -53.611 -22.929  0.00  0.00     0.183 A 
ATOM      9  N35 8BM d   1       0.591 -52.623 -23.144  0.00  0.00    -0.042 NA
ATOM     10  H29 8BM d   1      -2.338 -56.108 -23.519  0.00  0.00     0.143 H 
ENDROOT
BRANCH   3  11
ATOM     11  N13 8BM d   1      -1.191 -53.346 -19.353  0.00  0.00    -0.338 N 
ATOM     12  H22 8BM d   1      -1.969 -54.021 -19.353  0.00  0.00     0.167 HD
BRANCH  11  13
ATOM     13  C14 8BM d   1      -0.882 -52.794 -18.091  0.00  0.00     0.033 A 
ATOM     14  C15 8BM d   1      -1.535 -53.339 -16.954  0.00  0.00    -0.056 A 
ATOM     15  C16 8BM d   1      -1.262 -52.839 -15.662  0.00  0.00    -0.060 A 
ATOM     16  H8  8BM d   1      -2.249 -54.145 -17.079  0.00  0.00     0.087 H 
ATOM     17  C17 8BM d   1      -0.328 -51.777 -15.454  0.00  0.00     0.010 A 
ATOM     18  H23 8BM d   1      -1.772 -53.270 -14.808  0.00  0.00     0.086 H 
ATOM     19  C18 8BM d   1       0.324 -51.227 -16.603  0.00  0.00    -0.060 A 
ATOM     20  C19 8BM d   1       0.048 -51.727 -17.880  0.00  0.00    -0.056 A 
ATOM     21  H24 8BM d   1       1.036 -50.418 -16.483  0.00  0.00     0.086 H 
ATOM     22  H25 8BM d   1       0.554 -51.293 -18.735  0.00  0.00     0.087 H 
BRANCH  17  23
ATOM     23  N20 8BM d   1      -0.086 -51.329 -14.134  0.00  0.00    -0.280 NA
ATOM     24  C21 8BM d   1      -0.586 -49.957 -13.878  0.00  0.00     0.006 C 
ATOM     25  C22 8BM d   1      -0.504 -49.712 -12.363  0.00  0.00     0.094 C 
ATOM     26  H9  8BM d   1       0.037 -49.224 -14.412  0.00  0.00     0.058 H 
ATOM     27  H10 8BM d   1      -1.629 -49.868 -14.217  0.00  0.00     0.058 H 
ATOM     28  N23 8BM d   1       0.948 -49.895 -11.899  0.00  0.00    -0.073 N 
ATOM     29  H11 8BM d   1      -1.151 -50.431 -11.839  0.00  0.00     0.077 H 
ATOM     30  H12 8BM d   1      -0.836 -48.688 -12.138  0.00  0.00     0.077 H 
ATOM     31  C25 8BM d   1       1.488 -51.276 -12.246  0.00  0.00     0.094 C 
ATOM     32  H26 8BM d   1       1.512 -49.208 -12.375  0.00  0.00     0.279 HD
ATOM     33  C26 8BM d   1       1.352 -51.482 -13.746  0.00  0.00     0.006 C 
ATOM     34  H27 8BM d   1       2.547 -51.344 -11.956  0.00  0.00     0.077 H 
ATOM     35  H28 8BM d   1       0.911 -52.045 -11.712  0.00  0.00     0.077 H 
ATOM     36  H16 8BM d   1       1.958 -50.733 -14.277  0.00  0.00     0.058 H 
ATOM     37  H17 8BM d   1       1.700 -52.491 -14.012  0.00  0.00     0.058 H 
BRANCH  28  38
ATOM     38  C24 8BM d   1       1.078 -49.671 -10.422  0.00  0.00     0.066 C 
ATOM     39  H13 8BM d   1       2.127 -49.809 -10.121  0.00  0.00     0.068 H 
ATOM     40  H14 8BM d   1       0.445 -50.392  -9.885  0.00  0.00     0.068 H 
ATOM     41  H15 8BM d   1       0.758 -48.648 -10.177  0.00  0.00     0.068 H 
ENDBRANCH  28  38
ENDBRANCH  17  23
ENDBRANCH  11  13
ENDBRANCH   3  11
BRANCH   1  42
ATOM     42  N9  8BM d   1       1.835 -50.856 -22.106  0.00  0.00    -0.216 N 
ATOM     43  H21 8BM d   1       2.286 -50.657 -23.010  0.00  0.00     0.178 HD
BRANCH  42  44
ATOM     44  C7  8BM d   1       2.192 -50.045 -20.923  0.00  0.00     0.043 C 
ATOM     45  C6  8BM d   1       2.974 -50.836 -19.853  0.00  0.00    -0.029 C 
ATOM     46  C5  8BM d   1       4.404 -50.802 -20.342  0.00  0.00    -0.001 C 
ATOM     47  H3  8BM d   1       2.886 -50.353 -18.869  0.00  0.00     0.038 H 
ATOM     48  H4  8BM d   1       2.608 -51.871 -19.788  0.00  0.00     0.038 H 
ATOM     49  N4  8BM d   1       4.496 -49.483 -20.961  0.00  0.00    -0.350 N 
ATOM     50  H1  8BM d   1       4.592 -51.599 -21.076  0.00  0.00     0.064 H 
ATOM     51  H2  8BM d   1       5.112 -50.899 -19.506  0.00  0.00     0.064 H 
ATOM     52  C8  8BM d   1       3.181 -48.974 -21.336  0.00  0.00     0.017 C 
ATOM     53  C2  8BM d   1       5.647 -48.728 -21.193  0.00  0.00     0.215 C 
ATOM     54  H6  8BM d   1       2.970 -48.033 -20.808  0.00  0.00     0.067 H 
ATOM     55  H7  8BM d   1       3.131 -48.804 -22.422  0.00  0.00     0.067 H 
ATOM     56  O3  8BM d   1       5.622 -47.603 -21.715  0.00  0.00    -0.274 OA
ATOM     57  H5  8BM d   1       1.280 -49.607 -20.492  0.00  0.00     0.075 H 
BRANCH  53  58
ATOM     58  C1  8BM d   1       6.973 -49.343 -20.772  0.00  0.00    -0.003 C 
ATOM     59  H18 8BM d   1       6.794 -50.335 -20.332  0.00  0.00     0.040 H 
ATOM     60  H19 8BM d   1       7.458 -48.694 -20.028  0.00  0.00     0.040 H 
ATOM     61  H20 8BM d   1       7.626 -49.444 -21.651  0.00  0.00     0.040 H 
ENDBRANCH  53  58
ENDBRANCH  42  44
ENDBRANCH   1  42
BRANCH   7  62
ATOM     62  C31 8BM d   1      -0.668 -54.740 -25.263  0.00  0.00     0.012 C 
ATOM     63  H30 8BM d   1      -1.635 -55.075 -25.667  0.00  0.00     0.072 H 
BRANCH  62  64
ATOM     64  C32 8BM d   1       0.342 -55.827 -25.563  0.00  0.00    -0.057 C 
ATOM     65  H31 8BM d   1       0.454 -55.933 -26.652  0.00  0.00     0.030 H 
ATOM     66  H32 8BM d   1      -0.006 -56.779 -25.136  0.00  0.00     0.030 H 
ATOM     67  H33 8BM d   1       1.312 -55.559 -25.119  0.00  0.00     0.030 H 
ENDBRANCH  62  64
BRANCH  62  68
ATOM     68  C33 8BM d   1      -0.272 -53.472 -26.044  0.00  0.00    -0.057 C 
ATOM     69  H34 8BM d   1      -0.134 -53.724 -27.106  0.00  0.00     0.030 H 
ATOM     70  H35 8BM d   1       0.668 -53.069 -25.638  0.00  0.00     0.030 H 
ATOM     71  H36 8BM d   1      -1.067 -52.718 -25.946  0.00  0.00     0.030 H 
ENDBRANCH  62  68
ENDBRANCH   7  62
TORSDOF 10
