REMARK  10 active torsions:
REMARK  status: ('A' for Active; 'I' for Inactive)
REMARK    1  A    between atoms: N4_15  and  C6_2 
REMARK    2  A    between atoms: C8_3  and  N16_20 
REMARK    3  A    between atoms: N12_5  and  C15_7 
REMARK    4  A    between atoms: N16_20  and  C17_8 
REMARK    5  A    between atoms: C21_9  and  O22_24 
REMARK    6  A    between atoms: N19_22  and  C24_10 
REMARK    7  A    between atoms: C27_28  and  C28_11 
REMARK    8  A    between atoms: C28_11  and  C29_29 
REMARK    9  A    between atoms: N26_27  and  C1_12 
REMARK   10  A    between atoms: O22_24  and  C23_25 
REMARK       I    between atoms: N26_27  and  C27_28 
ROOT
ATOM      1  C6  8BS d   1     -13.296  15.747 -27.149  0.00  0.00     0.728 A 
ATOM      2  C8  8BS d   1     -13.324  13.379 -27.589  0.00  0.00     0.180 A 
ATOM      3  C10 8BS d   1     -11.680  14.860 -28.499  0.00  0.00     0.182 A 
ATOM      4  N12 8BS d   1     -10.594  14.763 -29.313  0.00  0.00    -0.328 N 
ATOM      5  C13 8BS d   1     -10.456  13.444 -29.656  0.00  0.00     0.068 A 
ATOM      6  N7  8BS d   1     -13.847  14.509 -26.997  0.00  0.00    -0.042 NA
ATOM      7  C9  8BS d   1     -12.166  13.556 -28.389  0.00  0.00     0.151 A 
ATOM      8  N11 8BS d   1     -12.191  15.981 -27.915  0.00  0.00    -0.042 NA
ATOM      9  N14 8BS d   1     -11.390  12.686 -29.117  0.00  0.00    -0.236 NA
ATOM     10  H3  8BS d   1      -9.665  13.065 -30.301  0.00  0.00     0.143 H 
ENDROOT
BRANCH   1  11
ATOM     11  N4  8BS d   1     -13.899  16.786 -26.474  0.00  0.00    -0.209 N 
ATOM     12  C5  8BS d   1     -15.062  16.603 -25.611  0.00  0.00     0.033 C 
ATOM     13  C1  8BS d   1     -15.317  18.008 -25.049  0.00  0.00     0.059 C 
ATOM     14  H1  8BS d   1     -15.928  16.248 -26.189  0.00  0.00     0.068 H 
ATOM     15  H2  8BS d   1     -14.843  15.890 -24.802  0.00  0.00     0.068 H 
ATOM     16  C2  8BS d   1     -14.697  18.916 -26.095  0.00  0.00     0.116 C 
ATOM     17  H12 8BS d   1     -16.392  18.204 -24.920  0.00  0.00     0.079 H 
ATOM     18  C3  8BS d   1     -13.444  18.159 -26.526  0.00  0.00     0.042 C 
ATOM     19  F25 8BS d   1     -15.566  19.015 -27.149  0.00  0.00    -0.245 F 
ATOM     20  H13 8BS d   1     -14.456  19.910 -25.691  0.00  0.00     0.097 H 
ATOM     21  H14 8BS d   1     -12.611  18.332 -25.829  0.00  0.00     0.069 H 
ATOM     22  H15 8BS d   1     -13.135  18.441 -27.543  0.00  0.00     0.069 H 
BRANCH  13  23
ATOM     23  N26 8BS d   1     -14.605  18.189 -23.774  0.00  0.00    -0.352 N 
ATOM     24  C27 8BS d   1     -15.061  17.721 -22.551  0.00  0.00     0.217 C 
ATOM     25  O30 8BS d   1     -16.110  17.099 -22.372  0.00  0.00    -0.274 OA
ATOM     26  H21 8BS d   1     -13.735  18.682 -23.791  0.00  0.00     0.163 HD
BRANCH  24  27
ATOM     27  C28 8BS d   1     -14.080  18.086 -21.441  0.00  0.00     0.006 C 
ATOM     28  H10 8BS d   1     -14.132  19.172 -21.277  0.00  0.00     0.046 H 
ATOM     29  H11 8BS d   1     -13.067  17.813 -21.771  0.00  0.00     0.046 H 
BRANCH  27  30
ATOM     30  C29 8BS d   1     -14.355  17.389 -20.116  0.00  0.00    -0.068 C 
ATOM     31  H22 8BS d   1     -13.607  17.705 -19.373  0.00  0.00     0.028 H 
ATOM     32  H23 8BS d   1     -14.296  16.299 -20.256  0.00  0.00     0.028 H 
ATOM     33  H24 8BS d   1     -15.361  17.659 -19.761  0.00  0.00     0.028 H 
ENDBRANCH  27  30
ENDBRANCH  24  27
ENDBRANCH  13  23
ENDBRANCH   1  11
BRANCH   2  34
ATOM     34  N16 8BS d   1     -13.945  12.125 -27.431  0.00  0.00    -0.334 N 
ATOM     35  H16 8BS d   1     -13.451  11.322 -27.846  0.00  0.00     0.168 HD
BRANCH  34  36
ATOM     36  C17 8BS d   1     -15.119  11.841 -26.797  0.00  0.00     0.106 A 
ATOM     37  C21 8BS d   1     -15.882  10.691 -27.050  0.00  0.00     0.212 A 
ATOM     38  N20 8BS d   1     -17.004  10.640 -26.316  0.00  0.00    -0.145 NA
ATOM     39  N19 8BS d   1     -16.949  11.773 -25.590  0.00  0.00    -0.281 N 
ATOM     40  C18 8BS d   1     -15.844  12.531 -25.837  0.00  0.00     0.028 A 
ATOM     41  H17 8BS d   1     -15.584  13.482 -25.376  0.00  0.00     0.117 H 
BRANCH  37  42
ATOM     42  O22 8BS d   1     -15.524   9.732 -27.955  0.00  0.00    -0.337 OA
BRANCH  42  43
ATOM     43  C23 8BS d   1     -16.420   8.631 -28.109  0.00  0.00     0.012 C 
ATOM     44  H18 8BS d   1     -16.020   7.935 -28.861  0.00  0.00     0.067 H 
ATOM     45  H19 8BS d   1     -17.402   9.001 -28.438  0.00  0.00     0.067 H 
ATOM     46  H20 8BS d   1     -16.528   8.109 -27.147  0.00  0.00     0.067 H 
ENDBRANCH  42  43
ENDBRANCH  37  42
BRANCH  39  47
ATOM     47  C24 8BS d   1     -18.014  12.075 -24.662  0.00  0.00     0.002 C 
ATOM     48  H7  8BS d   1     -17.803  13.031 -24.161  0.00  0.00     0.059 H 
ATOM     49  H8  8BS d   1     -18.083  11.275 -23.910  0.00  0.00     0.059 H 
ATOM     50  H9  8BS d   1     -18.966  12.149 -25.208  0.00  0.00     0.059 H 
ENDBRANCH  39  47
ENDBRANCH  34  36
ENDBRANCH   2  34
BRANCH   4  51
ATOM     51  C15 8BS d   1      -9.748  15.852 -29.737  0.00  0.00    -0.012 C 
ATOM     52  H4  8BS d   1     -10.112  16.792 -29.297  0.00  0.00     0.057 H 
ATOM     53  H5  8BS d   1      -9.771  15.928 -30.834  0.00  0.00     0.057 H 
ATOM     54  H6  8BS d   1      -8.716  15.666 -29.403  0.00  0.00     0.057 H 
ENDBRANCH   4  51
TORSDOF 10
