REMARK  18 active torsions:
REMARK  status: ('A' for Active; 'I' for Inactive)
REMARK    1  A    between atoms: CAA_1  and  CAM_2 
REMARK    2  A    between atoms: CAM_2  and  CAO_3 
REMARK    3  A    between atoms: CAO_3  and  CAP_4 
REMARK    4  A    between atoms: CAP_4  and  CAQ_5 
REMARK    5  A    between atoms: CAQ_5  and  CAR_6 
REMARK    6  A    between atoms: CAR_6  and  CAS_7 
REMARK    7  A    between atoms: CAS_7  and  CAT_8 
REMARK    8  A    between atoms: CAT_8  and  NBB_9 
REMARK       I    between atoms: NBB_9  and  C_10 
REMARK    9  A    between atoms: C_10  and  CA_12 
REMARK   10  A    between atoms: CA_12  and  N_13 
REMARK   11  A    between atoms: CA_12  and  CB_24 
REMARK       I    between atoms: N_13  and  CBF_14 
REMARK   12  A    between atoms: CBF_14  and  CBK_16 
REMARK   13  A    between atoms: CBJ_19  and  CAN_20 
REMARK   14  A    between atoms: CAN_20  and  NAB_21 
REMARK   15  A    between atoms: CB_24  and  CG_25 
REMARK   16  A    between atoms: CZ_30  and  OH_31 
REMARK   17  A    between atoms: OH_31  and  CAY_32 
REMARK   18  A    between atoms: CAY_32  and  CBG_33 
ROOT
ATOM      1  CA  89S d   1      18.048  -6.046 133.289  0.00  0.00     0.093 C 
ATOM      2  H19 89S d   1      17.224  -5.322 133.211  0.00  0.00     0.088 H 
ENDROOT
BRANCH   1   3
ATOM      3  C   89S d   1      18.209  -6.388 134.765  0.00  0.00     0.240 C 
ATOM      4  NBB 89S d   1      17.190  -5.970 135.539  0.00  0.00    -0.359 N 
ATOM      5  H18 89S d   1      16.467  -5.429 135.109  0.00  0.00     0.162 HD
ATOM      6  O   89S d   1      19.180  -7.067 135.137  0.00  0.00    -0.271 OA
BRANCH   4   7
ATOM      7  CAT 89S d   1      17.070  -6.259 136.987  0.00  0.00    -0.005 C 
ATOM      8  H16 89S d   1      17.669  -7.146 137.240  0.00  0.00     0.064 H 
ATOM      9  H17 89S d   1      17.426  -5.397 137.570  0.00  0.00     0.064 H 
BRANCH   7  10
ATOM     10  CAS 89S d   1      15.585  -6.525 137.304  0.00  0.00    -0.050 C 
ATOM     11  H14 89S d   1      15.048  -5.567 137.365  0.00  0.00     0.035 H 
ATOM     12  H15 89S d   1      15.147  -7.141 136.505  0.00  0.00     0.035 H 
BRANCH  10  13
ATOM     13  CAR 89S d   1      15.458  -7.263 138.640  0.00  0.00    -0.064 C 
ATOM     14  H12 89S d   1      16.317  -7.939 138.766  0.00  0.00     0.033 H 
ATOM     15  H13 89S d   1      15.444  -6.531 139.461  0.00  0.00     0.033 H 
BRANCH  13  16
ATOM     16  CAQ 89S d   1      14.163  -8.078 138.666  0.00  0.00    -0.065 C 
ATOM     17  H10 89S d   1      13.637  -7.901 139.616  0.00  0.00     0.033 H 
ATOM     18  H11 89S d   1      13.520  -7.771 137.828  0.00  0.00     0.033 H 
BRANCH  16  19
ATOM     19  CAP 89S d   1      14.496  -9.570 138.535  0.00  0.00    -0.065 C 
ATOM     20  H8  89S d   1      14.339  -9.892 137.495  0.00  0.00     0.033 H 
ATOM     21  H9  89S d   1      15.546  -9.738 138.816  0.00  0.00     0.033 H 
BRANCH  19  22
ATOM     22  CAO 89S d   1      13.581 -10.376 139.465  0.00  0.00    -0.065 C 
ATOM     23  H6  89S d   1      13.953 -10.302 140.498  0.00  0.00     0.033 H 
ATOM     24  H7  89S d   1      12.559  -9.972 139.413  0.00  0.00     0.033 H 
BRANCH  22  25
ATOM     25  CAM 89S d   1      13.570 -11.846 139.031  0.00  0.00    -0.069 C 
ATOM     26  H4  89S d   1      12.530 -12.184 138.913  0.00  0.00     0.032 H 
ATOM     27  H5  89S d   1      14.099 -11.947 138.072  0.00  0.00     0.032 H 
BRANCH  25  28
ATOM     28  CAA 89S d   1      14.266 -12.707 140.088  0.00  0.00    -0.077 C 
ATOM     29  H1  89S d   1      14.254 -13.760 139.769  0.00  0.00     0.027 H 
ATOM     30  H2  89S d   1      13.737 -12.608 141.048  0.00  0.00     0.027 H 
ATOM     31  H3  89S d   1      15.307 -12.372 140.207  0.00  0.00     0.027 H 
ENDBRANCH  25  28
ENDBRANCH  22  25
ENDBRANCH  19  22
ENDBRANCH  16  19
ENDBRANCH  13  16
ENDBRANCH  10  13
ENDBRANCH   7  10
ENDBRANCH   4   7
ENDBRANCH   1   3
BRANCH   1  32
ATOM     32  N   89S d   1      19.261  -5.402 132.732  0.00  0.00    -0.347 N 
ATOM     33  CBF 89S d   1      19.553  -4.122 133.053  0.00  0.00     0.222 C 
ATOM     34  OAD 89S d   1      18.884  -3.433 133.842  0.00  0.00    -0.273 OA
ATOM     35  H20 89S d   1      19.863  -5.914 132.119  0.00  0.00     0.163 HD
BRANCH  33  36
ATOM     36  CBK 89S d   1      20.807  -3.580 132.375  0.00  0.00     0.024 C 
ATOM     37  CAW 89S d   1      22.028  -3.933 133.274  0.00  0.00    -0.053 C 
ATOM     38  CAU 89S d   1      23.324  -3.435 132.618  0.00  0.00    -0.059 C 
ATOM     39  H22 89S d   1      22.081  -5.024 133.404  0.00  0.00     0.034 H 
ATOM     40  H23 89S d   1      21.909  -3.452 134.256  0.00  0.00     0.034 H 
ATOM     41  CBJ 89S d   1      23.266  -1.916 132.385  0.00  0.00    -0.031 C 
ATOM     42  H24 89S d   1      23.458  -3.944 131.652  0.00  0.00     0.033 H 
ATOM     43  H25 89S d   1      24.174  -3.667 133.276  0.00  0.00     0.033 H 
ATOM     44  CAV 89S d   1      22.057  -1.577 131.487  0.00  0.00    -0.059 C 
ATOM     45  H26 89S d   1      23.164  -1.395 133.348  0.00  0.00     0.042 H 
ATOM     46  CAX 89S d   1      20.756  -2.028 132.173  0.00  0.00    -0.053 C 
ATOM     47  H32 89S d   1      22.161  -2.097 130.523  0.00  0.00     0.033 H 
ATOM     48  H33 89S d   1      22.022  -0.491 131.316  0.00  0.00     0.033 H 
ATOM     49  H34 89S d   1      20.661  -1.530 133.149  0.00  0.00     0.034 H 
ATOM     50  H35 89S d   1      19.894  -1.765 131.542  0.00  0.00     0.034 H 
ATOM     51  H21 89S d   1      20.919  -4.061 131.392  0.00  0.00     0.054 H 
BRANCH  41  52
ATOM     52  CAN 89S d   1      24.557  -1.487 131.705  0.00  0.00     0.083 C 
ATOM     53  H27 89S d   1      24.586  -1.923 130.695  0.00  0.00     0.075 H 
ATOM     54  H28 89S d   1      25.408  -1.864 132.292  0.00  0.00     0.075 H 
BRANCH  52  55
ATOM     55  NAB 89S d   1      24.672  -0.023 131.592  0.00  0.00    -0.079 N 
ATOM     56  H29 89S d   1      25.540   0.212 131.137  0.00  0.00     0.274 HD
ATOM     57  H30 89S d   1      24.654   0.388 132.512  0.00  0.00     0.274 HD
ATOM     58  H31 89S d   1      23.901   0.334 131.049  0.00  0.00     0.274 HD
ENDBRANCH  52  55
ENDBRANCH  41  52
ENDBRANCH  33  36
ENDBRANCH   1  32
BRANCH   1  59
ATOM     59  CB  89S d   1      17.666  -7.265 132.463  0.00  0.00    -0.014 C 
ATOM     60  H36 89S d   1      18.472  -8.010 132.536  0.00  0.00     0.043 H 
ATOM     61  H37 89S d   1      17.545  -6.958 131.414  0.00  0.00     0.043 H 
BRANCH  59  62
ATOM     62  CG  89S d   1      16.450  -7.858 132.912  0.00  0.00    -0.056 A 
ATOM     63  CD2 89S d   1      15.211  -7.244 132.707  0.00  0.00    -0.074 A 
ATOM     64  CE2 89S d   1      14.024  -7.872 133.118  0.00  0.00    -0.050 A 
ATOM     65  H38 89S d   1      15.166  -6.274 132.226  0.00  0.00     0.084 H 
ATOM     66  CZ  89S d   1      14.073  -9.125 133.751  0.00  0.00     0.069 A 
ATOM     67  H39 89S d   1      13.069  -7.389 132.946  0.00  0.00     0.087 H 
ATOM     68  CE1 89S d   1      15.312  -9.752 133.941  0.00  0.00    -0.050 A 
ATOM     69  CD1 89S d   1      16.493  -9.123 133.526  0.00  0.00    -0.074 A 
ATOM     70  H41 89S d   1      15.357 -10.728 134.411  0.00  0.00     0.087 H 
ATOM     71  H40 89S d   1      17.447  -9.615 133.679  0.00  0.00     0.084 H 
BRANCH  66  72
ATOM     72  OH  89S d   1      12.893  -9.769 134.052  0.00  0.00    -0.347 OA
BRANCH  72  73
ATOM     73  CAY 89S d   1      12.485  -9.918 135.421  0.00  0.00     0.050 C 
ATOM     74  H42 89S d   1      12.702  -8.986 135.963  0.00  0.00     0.082 H 
ATOM     75  H43 89S d   1      13.050 -10.746 135.875  0.00  0.00     0.082 H 
BRANCH  73  76
ATOM     76  CBG 89S d   1      11.107 -10.195 135.520  0.00  0.00    -0.031 A 
ATOM     77  CAG 89S d   1      10.653 -11.028 136.549  0.00  0.00    -0.058 A 
ATOM     78  CAE 89S d   1       9.283 -11.266 136.701  0.00  0.00     0.002 A 
ATOM     79  H44 89S d   1      11.362 -11.488 137.227  0.00  0.00     0.086 H 
ATOM     80  NBA 89S d   1       8.358 -10.655 135.828  0.00  0.00    -0.273 NA
ATOM     81  H45 89S d   1       8.931 -11.921 137.490  0.00  0.00     0.114 H 
ATOM     82  CAF 89S d   1       8.813  -9.817 134.790  0.00  0.00     0.002 A 
ATOM     83  CAH 89S d   1      10.186  -9.599 134.654  0.00  0.00    -0.058 A 
ATOM     84  H46 89S d   1       8.110  -9.350 134.109  0.00  0.00     0.114 H 
ATOM     85  H47 89S d   1      10.545  -8.954 133.860  0.00  0.00     0.086 H 
ENDBRANCH  73  76
ENDBRANCH  72  73
ENDBRANCH  66  72
ENDBRANCH  59  62
ENDBRANCH   1  59
TORSDOF 18
