REMARK  18 active torsions:
REMARK  status: ('A' for Active; 'I' for Inactive)
REMARK    1  A    between atoms: CAA_1  and  CAO_2 
REMARK    2  A    between atoms: CAO_2  and  CAQ_3 
REMARK    3  A    between atoms: CAQ_3  and  CAR_4 
REMARK    4  A    between atoms: CAR_4  and  CAS_5 
REMARK    5  A    between atoms: CAS_5  and  CAT_6 
REMARK    6  A    between atoms: CAT_6  and  CAU_7 
REMARK    7  A    between atoms: CAU_7  and  CAV_8 
REMARK    8  A    between atoms: CAV_8  and  NBD_9 
REMARK       I    between atoms: NBD_9  and  C_10 
REMARK    9  A    between atoms: C_10  and  CA_12 
REMARK   10  A    between atoms: CA_12  and  N_13 
REMARK   11  A    between atoms: CA_12  and  CB_24 
REMARK       I    between atoms: N_13  and  CBH_14 
REMARK   12  A    between atoms: CBH_14  and  CBO_16 
REMARK   13  A    between atoms: CBN_19  and  CAP_20 
REMARK   14  A    between atoms: CAP_20  and  NAB_21 
REMARK   15  A    between atoms: CB_24  and  CG_25 
REMARK   16  A    between atoms: CZ_30  and  OH_31 
REMARK   17  A    between atoms: OH_31  and  CBA_32 
REMARK   18  A    between atoms: CBA_32  and  CBK_33 
ROOT
ATOM      1  CA  89M d   1      28.198  -9.154  46.295  0.00  0.00     0.093 C 
ATOM      2  H19 89M d   1      27.403  -8.399  46.204  0.00  0.00     0.088 H 
ENDROOT
BRANCH   1   3
ATOM      3  C   89M d   1      28.313  -9.544  47.762  0.00  0.00     0.240 C 
ATOM      4  NBD 89M d   1      27.331  -9.076  48.534  0.00  0.00    -0.359 N 
ATOM      5  H18 89M d   1      26.643  -8.476  48.125  0.00  0.00     0.162 HD
ATOM      6  O   89M d   1      29.237 -10.280  48.160  0.00  0.00    -0.271 OA
BRANCH   4   7
ATOM      7  CAV 89M d   1      27.218  -9.408  49.971  0.00  0.00    -0.005 C 
ATOM      8  H16 89M d   1      27.873 -10.260  50.206  0.00  0.00     0.064 H 
ATOM      9  H17 89M d   1      27.516  -8.539  50.575  0.00  0.00     0.064 H 
BRANCH   7  10
ATOM     10  CAU 89M d   1      25.762  -9.777  50.282  0.00  0.00    -0.050 C 
ATOM     11  H14 89M d   1      25.196  -8.863  50.516  0.00  0.00     0.035 H 
ATOM     12  H15 89M d   1      25.316 -10.271  49.406  0.00  0.00     0.035 H 
BRANCH  10  13
ATOM     13  CAT 89M d   1      25.709 -10.732  51.488  0.00  0.00    -0.064 C 
ATOM     14  H12 89M d   1      26.447 -11.536  51.349  0.00  0.00     0.033 H 
ATOM     15  H13 89M d   1      25.944 -10.173  52.406  0.00  0.00     0.033 H 
BRANCH  13  16
ATOM     16  CAS 89M d   1      24.309 -11.343  51.609  0.00  0.00    -0.065 C 
ATOM     17  H10 89M d   1      24.139 -11.653  52.651  0.00  0.00     0.033 H 
ATOM     18  H11 89M d   1      23.560 -10.589  51.324  0.00  0.00     0.033 H 
BRANCH  16  19
ATOM     19  CAR 89M d   1      24.168 -12.566  50.690  0.00  0.00    -0.065 C 
ATOM     20  H8  89M d   1      23.364 -12.384  49.962  0.00  0.00     0.033 H 
ATOM     21  H9  89M d   1      25.115 -12.731  50.156  0.00  0.00     0.033 H 
BRANCH  19  22
ATOM     22  CAQ 89M d   1      23.830 -13.808  51.518  0.00  0.00    -0.065 C 
ATOM     23  H6  89M d   1      23.565 -13.503  52.541  0.00  0.00     0.033 H 
ATOM     24  H7  89M d   1      22.978 -14.331  51.059  0.00  0.00     0.033 H 
BRANCH  22  25
ATOM     25  CAO 89M d   1      25.040 -14.750  51.565  0.00  0.00    -0.069 C 
ATOM     26  H4  89M d   1      25.188 -15.209  50.577  0.00  0.00     0.032 H 
ATOM     27  H5  89M d   1      25.939 -14.181  51.843  0.00  0.00     0.032 H 
BRANCH  25  28
ATOM     28  CAA 89M d   1      24.781 -15.846  52.608  0.00  0.00    -0.077 C 
ATOM     29  H1  89M d   1      25.645 -16.526  52.648  0.00  0.00     0.027 H 
ATOM     30  H2  89M d   1      23.881 -16.413  52.328  0.00  0.00     0.027 H 
ATOM     31  H3  89M d   1      24.632 -15.385  53.595  0.00  0.00     0.027 H 
ENDBRANCH  25  28
ENDBRANCH  22  25
ENDBRANCH  19  22
ENDBRANCH  16  19
ENDBRANCH  13  16
ENDBRANCH  10  13
ENDBRANCH   7  10
ENDBRANCH   4   7
ENDBRANCH   1   3
BRANCH   1  32
ATOM     32  N   89M d   1      29.446  -8.551  45.791  0.00  0.00    -0.347 N 
ATOM     33  CBH 89M d   1      29.773  -7.291  46.127  0.00  0.00     0.222 C 
ATOM     34  OAD 89M d   1      29.110  -6.602  46.902  0.00  0.00    -0.273 OA
ATOM     35  H20 89M d   1      30.051  -9.081  45.197  0.00  0.00     0.163 HD
BRANCH  33  36
ATOM     36  CBO 89M d   1      31.046  -6.761  45.481  0.00  0.00     0.024 C 
ATOM     37  CAY 89M d   1      30.984  -5.222  45.247  0.00  0.00    -0.053 C 
ATOM     38  CAW 89M d   1      32.291  -4.743  44.574  0.00  0.00    -0.059 C 
ATOM     39  H22 89M d   1      30.861  -4.710  46.213  0.00  0.00     0.034 H 
ATOM     40  H23 89M d   1      30.130  -4.986  44.596  0.00  0.00     0.034 H 
ATOM     41  CBN 89M d   1      33.503  -5.100  45.462  0.00  0.00    -0.031 C 
ATOM     42  H24 89M d   1      32.251  -3.653  44.434  0.00  0.00     0.033 H 
ATOM     43  H25 89M d   1      32.399  -5.235  43.596  0.00  0.00     0.033 H 
ATOM     44  CAX 89M d   1      33.573  -6.610  45.724  0.00  0.00    -0.059 C 
ATOM     45  H26 89M d   1      33.390  -4.579  46.424  0.00  0.00     0.042 H 
ATOM     46  CAZ 89M d   1      32.272  -7.111  46.369  0.00  0.00    -0.053 C 
ATOM     47  H32 89M d   1      34.415  -6.820  46.400  0.00  0.00     0.033 H 
ATOM     48  H33 89M d   1      33.728  -7.135  44.770  0.00  0.00     0.033 H 
ATOM     49  H34 89M d   1      32.328  -8.203  46.493  0.00  0.00     0.034 H 
ATOM     50  H35 89M d   1      32.151  -6.636  47.354  0.00  0.00     0.034 H 
ATOM     51  H21 89M d   1      31.167  -7.253  44.505  0.00  0.00     0.054 H 
BRANCH  41  52
ATOM     52  CAP 89M d   1      34.809  -4.658  44.816  0.00  0.00     0.083 C 
ATOM     53  H27 89M d   1      34.879  -5.119  43.820  0.00  0.00     0.075 H 
ATOM     54  H28 89M d   1      35.643  -5.008  45.441  0.00  0.00     0.075 H 
BRANCH  52  55
ATOM     55  NAB 89M d   1      34.921  -3.202  44.664  0.00  0.00    -0.079 N 
ATOM     56  H29 89M d   1      35.803  -2.976  44.232  0.00  0.00     0.274 HD
ATOM     57  H30 89M d   1      34.869  -2.764  45.571  0.00  0.00     0.274 HD
ATOM     58  H31 89M d   1      34.168  -2.866  44.085  0.00  0.00     0.274 HD
ENDBRANCH  52  55
ENDBRANCH  41  52
ENDBRANCH  33  36
ENDBRANCH   1  32
BRANCH   1  59
ATOM     59  CB  89M d   1      27.788 -10.377  45.472  0.00  0.00    -0.014 C 
ATOM     60  H36 89M d   1      28.555 -11.157  45.588  0.00  0.00     0.043 H 
ATOM     61  H37 89M d   1      27.718 -10.086  44.414  0.00  0.00     0.043 H 
BRANCH  59  62
ATOM     62  CG  89M d   1      26.519 -10.908  45.892  0.00  0.00    -0.056 A 
ATOM     63  CD2 89M d   1      25.369 -10.106  45.797  0.00  0.00    -0.074 A 
ATOM     64  CE2 89M d   1      24.113 -10.604  46.157  0.00  0.00    -0.050 A 
ATOM     65  H38 89M d   1      25.457  -9.086  45.439  0.00  0.00     0.084 H 
ATOM     66  CZ  89M d   1      23.988 -11.914  46.630  0.00  0.00     0.069 A 
ATOM     67  H39 89M d   1      23.235  -9.974  46.069  0.00  0.00     0.087 H 
ATOM     68  CE1 89M d   1      25.127 -12.721  46.765  0.00  0.00    -0.050 A 
ATOM     69  CD1 89M d   1      26.386 -12.232  46.375  0.00  0.00    -0.074 A 
ATOM     70  H41 89M d   1      25.037 -13.722  47.170  0.00  0.00     0.087 H 
ATOM     71  H40 89M d   1      27.259 -12.871  46.444  0.00  0.00     0.084 H 
BRANCH  66  72
ATOM     72  OH  89M d   1      22.714 -12.291  46.995  0.00  0.00    -0.345 OA
BRANCH  72  73
ATOM     73  CBA 89M d   1      22.396 -13.646  47.449  0.00  0.00     0.066 C 
ATOM     74  H42 89M d   1      22.791 -13.795  48.465  0.00  0.00     0.084 H 
ATOM     75  H43 89M d   1      22.853 -14.378  46.767  0.00  0.00     0.084 H 
BRANCH  73  76
ATOM     76  CBK 89M d   1      20.992 -13.821  47.458  0.00  0.00     0.059 A 
ATOM     77  NBC 89M d   1      20.476 -15.068  47.602  0.00  0.00    -0.251 NA
ATOM     78  CBM 89M d   1      19.144 -15.328  47.528  0.00  0.00     0.067 A 
ATOM     79  CAM 89M d   1      18.660 -16.630  47.721  0.00  0.00    -0.054 A 
ATOM     80  CBL 89M d   1      18.229 -14.287  47.307  0.00  0.00    -0.007 A 
ATOM     81  CAF 89M d   1      17.292 -16.905  47.620  0.00  0.00    -0.081 A 
ATOM     82  H44 89M d   1      19.353 -17.431  47.951  0.00  0.00     0.087 H 
ATOM     83  CAE 89M d   1      16.377 -15.862  47.415  0.00  0.00    -0.082 A 
ATOM     84  H45 89M d   1      16.938 -17.927  47.700  0.00  0.00     0.083 H 
ATOM     85  CAL 89M d   1      16.845 -14.545  47.276  0.00  0.00    -0.071 A 
ATOM     86  H46 89M d   1      15.315 -16.071  47.364  0.00  0.00     0.083 H 
ATOM     87  H47 89M d   1      16.143 -13.730  47.145  0.00  0.00     0.084 H 
ATOM     88  CAN 89M d   1      18.731 -12.983  47.226  0.00  0.00    -0.069 A 
ATOM     89  CAK 89M d   1      20.111 -12.762  47.234  0.00  0.00    -0.056 A 
ATOM     90  H48 89M d   1      18.049 -12.143  47.157  0.00  0.00     0.085 H 
ATOM     91  H49 89M d   1      20.499 -11.764  47.066  0.00  0.00     0.086 H 
ENDBRANCH  73  76
ENDBRANCH  72  73
ENDBRANCH  66  72
ENDBRANCH  59  62
ENDBRANCH   1  59
TORSDOF 18
