REMARK  6 active torsions:
REMARK  status: ('A' for Active; 'I' for Inactive)
REMARK    1  A    between atoms: N_19  and  C17_4 
REMARK    2  A    between atoms: C07_14  and  C03_8 
REMARK    3  A    between atoms: C11_17  and  C07_14 
REMARK    4  A    between atoms: C08_15  and  C12_18 
REMARK    5  A    between atoms: C11_17  and  N_19 
REMARK    6  A    between atoms: N_19  and  C16_22 
ROOT
ATOM      1  C10 8AJ d   1       2.012   7.420  18.132  0.00  0.00    -0.060 A 
ATOM      2  C13 8AJ d   1       3.381   7.066  18.477  0.00  0.00     0.035 A 
ATOM      3  N01 8AJ d   1       2.055   6.705  14.393  0.00  0.00    -0.280 N 
ATOM      4  C01 8AJ d   1       2.466   6.837  15.768  0.00  0.00     0.053 A 
ATOM      5  C02 8AJ d   1       2.913   6.265  13.426  0.00  0.00     0.159 A 
ATOM      6  C03 8AJ d   1       0.780   6.959  13.684  0.00  0.00     0.136 A 
ATOM      7  C04 8AJ d   1       3.789   6.504  16.130  0.00  0.00     0.004 A 
ATOM      8  C05 8AJ d   1       1.574   7.303  16.801  0.00  0.00    -0.054 A 
ATOM      9  C06 8AJ d   1       4.272   5.913  13.749  0.00  0.00    -0.025 A 
ATOM     10  N02 8AJ d   1       2.215   6.242  12.169  0.00  0.00    -0.130 NA
ATOM     11  N03 8AJ d   1       0.951   6.659  12.365  0.00  0.00    -0.134 NA
ATOM     12  C08 8AJ d   1       4.716   6.039  15.106  0.00  0.00    -0.010 A 
ATOM     13  C09 8AJ d   1       4.237   6.624  17.501  0.00  0.00    -0.049 A 
ATOM     14 CL   8AJ d   1       3.939   7.191  20.080  0.00  0.00    -0.084 Cl
ATOM     15  H1  8AJ d   1       1.332   7.773  18.899  0.00  0.00     0.086 H 
ATOM     16  H6  8AJ d   1       0.553   7.566  16.548  0.00  0.00     0.087 H 
ATOM     17  H7  8AJ d   1       4.951   5.557  12.975  0.00  0.00     0.090 H 
ATOM     18  H10 8AJ d   1       5.257   6.362  17.758  0.00  0.00     0.087 H 
ENDROOT
BRANCH   6  19
ATOM     19  C07 8AJ d   1      -0.544   7.453  14.231  0.00  0.00     0.015 C 
ATOM     20  H8  8AJ d   1      -0.433   8.524  14.457  0.00  0.00     0.047 H 
ATOM     21  H9  8AJ d   1      -0.748   6.902  15.161  0.00  0.00     0.047 H 
BRANCH  19  22
ATOM     22  C11 8AJ d   1      -1.735   7.298  13.342  0.00  0.00     0.089 C 
ATOM     23  H11 8AJ d   1      -1.759   6.253  12.999  0.00  0.00     0.076 H 
ATOM     24  H12 8AJ d   1      -1.593   7.964  12.478  0.00  0.00     0.076 H 
BRANCH  22  25
ATOM     25  N   8AJ d   1      -3.013   7.594  13.908  0.00  0.00    -0.078 N 
ATOM     26  H13 8AJ d   1      -3.189   6.987  14.693  0.00  0.00     0.278 HD
BRANCH  25  27
ATOM     27  C17 8AJ d   1      -3.017   8.984  14.351  0.00  0.00     0.066 C 
ATOM     28  H3  8AJ d   1      -3.996   9.226  14.790  0.00  0.00     0.068 H 
ATOM     29  H4  8AJ d   1      -2.827   9.643  13.491  0.00  0.00     0.068 H 
ATOM     30  H5  8AJ d   1      -2.231   9.130  15.106  0.00  0.00     0.068 H 
ENDBRANCH  25  27
BRANCH  25  31
ATOM     31  C16 8AJ d   1      -4.038   7.392  12.896  0.00  0.00     0.066 C 
ATOM     32  H15 8AJ d   1      -5.026   7.618  13.324  0.00  0.00     0.068 H 
ATOM     33  H16 8AJ d   1      -4.016   6.346  12.556  0.00  0.00     0.068 H 
ATOM     34  H17 8AJ d   1      -3.847   8.059  12.043  0.00  0.00     0.068 H 
ENDBRANCH  25  31
ENDBRANCH  22  25
ENDBRANCH  19  22
ENDBRANCH   6  19
BRANCH  12  35
ATOM     35  C12 8AJ d   1       6.154   5.648  15.458  0.00  0.00    -0.025 A 
ATOM     36  C15 8AJ d   1       6.440   4.319  15.712  0.00  0.00    -0.072 A 
ATOM     37  C19 8AJ d   1       7.745   3.926  16.040  0.00  0.00    -0.082 A 
ATOM     38  H2  8AJ d   1       5.651   3.578  15.657  0.00  0.00     0.084 H 
ATOM     39  C   8AJ d   1       8.750   4.887  16.102  0.00  0.00    -0.083 A 
ATOM     40  H19 8AJ d   1       7.969   2.885  16.243  0.00  0.00     0.083 H 
ATOM     41  C18 8AJ d   1       8.441   6.255  15.834  0.00  0.00    -0.082 A 
ATOM     42  H20 8AJ d   1       9.764   4.598  16.353  0.00  0.00     0.083 H 
ATOM     43  C14 8AJ d   1       7.179   6.629  15.520  0.00  0.00    -0.072 A 
ATOM     44  H18 8AJ d   1       9.225   7.002  15.883  0.00  0.00     0.083 H 
ATOM     45  H14 8AJ d   1       6.952   7.670  15.317  0.00  0.00     0.084 H 
ENDBRANCH  12  35
TORSDOF 6
