REMARK  8 active torsions:
REMARK  status: ('A' for Active; 'I' for Inactive)
REMARK    1  A    between atoms: C13_2  and  C03_10 
REMARK    2  A    between atoms: C14_17  and  C13_2 
REMARK    3  A    between atoms: C25_22  and  C26_7 
REMARK    4  A    between atoms: C02_9  and  C01_8 
REMARK    5  A    between atoms: C05_11  and  C07_12 
REMARK    6  A    between atoms: O15_28  and  C14_17 
REMARK    7  A    between atoms: C16_18  and  O15_28 
REMARK    8  A    between atoms: C19_20  and  C25_22 
ROOT
ATOM      1  C14 MOL d   1      28.712  63.899 -29.053  0.00  0.00     0.031 C 
ATOM      2  H14 MOL d   1      29.197  63.035 -29.531  0.00  0.00     0.075 H 
ATOM      3  H15 MOL d   1      28.129  64.454 -29.803  0.00  0.00     0.075 H 
ENDROOT
BRANCH   1   4
ATOM      4  C13 MOL d   1      29.768  64.811 -28.439  0.00  0.00    -0.002 C 
ATOM      5  H2  MOL d   1      29.853  64.590 -27.365  0.00  0.00     0.045 H 
ATOM      6  H3  MOL d   1      30.734  64.623 -28.930  0.00  0.00     0.045 H 
BRANCH   4   7
ATOM      7  C03 MOL d   1      29.397  66.275 -28.617  0.00  0.00     0.068 A 
ATOM      8  C02 MOL d   1      28.637  67.025 -27.741  0.00  0.00     0.076 A 
ATOM      9  O06 MOL d   1      28.543  68.255 -28.260  0.00  0.00    -0.294 OA
ATOM     10  C05 MOL d   1      29.225  68.257 -29.414  0.00  0.00     0.180 A 
ATOM     11  N04 MOL d   1      29.738  67.059 -29.619  0.00  0.00    -0.226 NA
BRANCH   8  12
ATOM     12  C01 MOL d   1      28.019  66.538 -26.432  0.00  0.00    -0.029 C 
ATOM     13  H7  MOL d   1      27.471  67.364 -25.956  0.00  0.00     0.036 H 
ATOM     14  H8  MOL d   1      28.815  66.189 -25.758  0.00  0.00     0.036 H 
ATOM     15  H9  MOL d   1      27.326  65.710 -26.640  0.00  0.00     0.036 H 
ENDBRANCH   8  12
BRANCH  10  16
ATOM     16  C07 MOL d   1      29.365  69.350 -30.250  0.00  0.00     0.017 A 
ATOM     17  C08 MOL d   1      29.001  70.607 -29.803  0.00  0.00    -0.069 A 
ATOM     18  C09 MOL d   1      29.142  71.706 -30.633  0.00  0.00    -0.082 A 
ATOM     19  H10 MOL d   1      28.605  70.732 -28.802  0.00  0.00     0.085 H 
ATOM     20  C10 MOL d   1      29.645  71.545 -31.912  0.00  0.00    -0.083 A 
ATOM     21  H11 MOL d   1      28.859  72.692 -30.281  0.00  0.00     0.083 H 
ATOM     22  C11 MOL d   1      30.010  70.288 -32.359  0.00  0.00    -0.082 A 
ATOM     23  H1  MOL d   1      29.753  72.404 -32.564  0.00  0.00     0.083 H 
ATOM     24  C12 MOL d   1      29.870  69.190 -31.528  0.00  0.00    -0.069 A 
ATOM     25  H12 MOL d   1      30.406  70.163 -33.360  0.00  0.00     0.083 H 
ATOM     26  H13 MOL d   1      30.156  68.205 -31.878  0.00  0.00     0.085 H 
ENDBRANCH  10  16
ENDBRANCH   4   7
ENDBRANCH   1   4
BRANCH   1  27
ATOM     27  O15 MOL d   1      27.872  63.464 -28.026  0.00  0.00    -0.350 OA
BRANCH  27  28
ATOM     28  C16 MOL d   1      26.692  62.861 -28.469  0.00  0.00     0.080 A 
ATOM     29  C17 MOL d   1      26.608  62.351 -29.750  0.00  0.00    -0.049 A 
ATOM     30  C18 MOL d   1      25.434  61.750 -30.185  0.00  0.00    -0.073 A 
ATOM     31  H4  MOL d   1      27.460  62.420 -30.417  0.00  0.00     0.087 H 
ATOM     32  C19 MOL d   1      24.337  61.660 -29.329  0.00  0.00    -0.038 A 
ATOM     33  H16 MOL d   1      25.370  61.351 -31.191  0.00  0.00     0.084 H 
ATOM     34  C20 MOL d   1      24.421  62.163 -28.033  0.00  0.00     0.024 A 
ATOM     35  C21 MOL d   1      25.578  62.758 -27.600  0.00  0.00     0.015 A 
ATOM     36  S24 MOL d   1      23.302  62.232 -26.703  0.00  0.00    -0.101 SA
ATOM     37  C22 MOL d   1      25.544  63.236 -26.273  0.00  0.00    -0.063 A 
ATOM     38  C23 MOL d   1      24.361  63.039 -25.594  0.00  0.00    -0.043 A 
ATOM     39  H5  MOL d   1      26.399  63.730 -25.814  0.00  0.00     0.085 H 
ATOM     40  H17 MOL d   1      24.137  63.331 -24.569  0.00  0.00     0.095 H 
BRANCH  32  41
ATOM     41  C25 MOL d   1      23.043  60.995 -29.783  0.00  0.00    -0.019 C 
ATOM     42  H18 MOL d   1      23.285  60.024 -30.239  0.00  0.00     0.042 H 
ATOM     43  H19 MOL d   1      22.399  60.838 -28.905  0.00  0.00     0.042 H 
BRANCH  41  44
ATOM     44  C26 MOL d   1      22.262  61.865 -30.833  0.00  0.00     0.081 C 
ATOM     45  C27 MOL d   1      21.216  61.030 -31.414  0.00  0.00     0.239 C 
ATOM     46  N29 MOL d   1      19.709  61.633 -30.935  0.00  0.00    -0.287 N 
ATOM     47  O28 MOL d   1      21.386  60.079 -32.095  0.00  0.00    -0.272 OA
ATOM     48  C30 MOL d   1      19.939  62.895 -30.040  0.00  0.00     0.287 C 
ATOM     49  H20 MOL d   1      18.820  61.247 -31.183  0.00  0.00     0.172 HD
ATOM     50  O31 MOL d   1      19.092  63.495 -29.477  0.00  0.00    -0.260 OA
ATOM     51  S32 MOL d   1      21.455  63.224 -30.031  0.00  0.00    -0.054 SA
ATOM     52  H6  MOL d   1      22.949  62.231 -31.610  0.00  0.00     0.072 H 
ENDBRANCH  41  44
ENDBRANCH  32  41
ENDBRANCH  27  28
ENDBRANCH   1  27
TORSDOF 8
