REMARK  10 active torsions:
REMARK  status: ('A' for Active; 'I' for Inactive)
REMARK    1  A    between atoms: C14_30  and  C15_18 
REMARK    2  A    between atoms: C26_31  and  C34_19 
REMARK    3  A    between atoms: C26_31  and  C8_20 
REMARK    4  A    between atoms: C13_21  and  C14_30 
REMARK    5  A    between atoms: C18_23  and  N21_35 
REMARK    6  A    between atoms: C28_26  and  C26_31 
REMARK    7  A    between atoms: C3_27  and  O2_38 
REMARK    8  A    between atoms: N32_36  and  C33_28 
REMARK    9  A    between atoms: O2_38  and  C1_29 
REMARK   10  A    between atoms: C26_31  and  O27_37 
ROOT
ATOM      1  C7  8A4 d   1     -19.945 -34.570  15.039  0.00  0.00    -0.071 A 
ATOM      2  C6  8A4 d   1     -18.639 -34.987  15.112  0.00  0.00    -0.054 A 
ATOM      3  C9  8A4 d   1     -19.732 -34.397  12.686  0.00  0.00    -0.059 A 
ATOM      4  C10 8A4 d   1     -18.425 -34.815  12.769  0.00  0.00     0.016 A 
ATOM      5  C8  8A4 d   1     -20.501 -34.272  13.818  0.00  0.00    -0.012 A 
ATOM      6  C13 8A4 d   1     -16.347 -35.360  11.728  0.00  0.00     0.022 A 
ATOM      7  C5  8A4 d   1     -17.861 -35.117  13.987  0.00  0.00     0.071 A 
ATOM      8  C11 8A4 d   1     -17.651 -34.941  11.640  0.00  0.00     0.057 A 
ATOM      9  C3  8A4 d   1     -15.873 -35.636  12.986  0.00  0.00     0.172 A 
ATOM     10  N4  8A4 d   1     -16.595 -35.524  14.100  0.00  0.00    -0.224 NA
ATOM     11 CL12 8A4 d   1     -18.329 -34.571  10.102  0.00  0.00    -0.083 Cl
ATOM     12  H1  8A4 d   1     -20.536 -34.476  15.943  0.00  0.00     0.084 H 
ATOM     13  H6  8A4 d   1     -18.211 -35.219  16.081  0.00  0.00     0.087 H 
ATOM     14  H12 8A4 d   1     -20.160 -34.164  11.718  0.00  0.00     0.086 H 
ENDROOT
BRANCH   5  15
ATOM     15  C26 8A4 d   1     -21.915 -33.820  13.723  0.00  0.00     0.156 C 
BRANCH  15  16
ATOM     16  C34 8A4 d   1     -22.182 -32.700  14.660  0.00  0.00    -0.013 A 
ATOM     17  C35 8A4 d   1     -21.774 -31.432  14.321  0.00  0.00    -0.072 A 
ATOM     18  C36 8A4 d   1     -22.009 -30.378  15.170  0.00  0.00    -0.061 A 
ATOM     19  H4  8A4 d   1     -21.264 -31.263  13.379  0.00  0.00     0.084 H 
ATOM     20  C37 8A4 d   1     -22.653 -30.602  16.362  0.00  0.00     0.034 A 
ATOM     21  H9  8A4 d   1     -21.689 -29.378  14.901  0.00  0.00     0.086 H 
ATOM     22  C39 8A4 d   1     -23.063 -31.867  16.708  0.00  0.00    -0.061 A 
ATOM     23 CL38 8A4 d   1     -22.949 -29.285  17.430  0.00  0.00    -0.084 Cl
ATOM     24  C40 8A4 d   1     -22.827 -32.918  15.854  0.00  0.00    -0.072 A 
ATOM     25  H10 8A4 d   1     -23.571 -32.035  17.651  0.00  0.00     0.086 H 
ATOM     26  H5  8A4 d   1     -23.149 -33.918  16.122  0.00  0.00     0.084 H 
ENDBRANCH  15  16
BRANCH  15  27
ATOM     27  C28 8A4 d   1     -22.850 -34.940  13.915  0.00  0.00     0.074 A 
ATOM     28  C29 8A4 d   1     -22.671 -36.243  14.323  0.00  0.00     0.029 A 
ATOM     29  N30 8A4 d   1     -23.861 -36.921  14.348  0.00  0.00    -0.254 NA
ATOM     30  H14 8A4 d   1     -21.709 -36.678  14.591  0.00  0.00     0.118 H 
ATOM     31  C31 8A4 d   1     -24.761 -36.046  13.961  0.00  0.00     0.065 A 
ATOM     32  N32 8A4 d   1     -24.190 -34.838  13.691  0.00  0.00    -0.345 N 
ATOM     33  H16 8A4 d   1     -25.825 -36.258  13.868  0.00  0.00     0.143 H 
BRANCH  32  34
ATOM     34  C33 8A4 d   1     -24.889 -33.656  13.242  0.00  0.00    -0.013 C 
ATOM     35  H17 8A4 d   1     -25.963 -33.877  13.152  0.00  0.00     0.057 H 
ATOM     36  H18 8A4 d   1     -24.495 -33.347  12.263  0.00  0.00     0.057 H 
ATOM     37  H19 8A4 d   1     -24.742 -32.844  13.970  0.00  0.00     0.057 H 
ENDBRANCH  32  34
ENDBRANCH  15  27
BRANCH  15  38
ATOM     38  O27 8A4 d   1     -22.141 -33.331  12.409  0.00  0.00    -0.374 OA
ATOM     39  H25 8A4 d   1     -21.978 -34.025  11.781  0.00  0.00     0.212 HD
ENDBRANCH  15  38
ENDBRANCH   5  15
BRANCH   6  40
ATOM     40  C14 8A4 d   1     -15.486 -35.507  10.525  0.00  0.00    -0.011 C 
ATOM     41  H23 8A4 d   1     -14.712 -36.261  10.729  0.00  0.00     0.047 H 
ATOM     42  H24 8A4 d   1     -16.106 -35.838   9.679  0.00  0.00     0.047 H 
BRANCH  40  43
ATOM     43  C15 8A4 d   1     -14.829 -34.223  10.170  0.00  0.00    -0.054 A 
ATOM     44  C16 8A4 d   1     -14.615 -33.898   8.852  0.00  0.00    -0.074 A 
ATOM     45  C17 8A4 d   1     -14.008 -32.709   8.528  0.00  0.00    -0.055 A 
ATOM     46  H2  8A4 d   1     -14.925 -34.580   8.068  0.00  0.00     0.084 H 
ATOM     47  C18 8A4 d   1     -13.615 -31.848   9.524  0.00  0.00     0.058 A 
ATOM     48  H7  8A4 d   1     -13.839 -32.451   7.489  0.00  0.00     0.087 H 
ATOM     49  C19 8A4 d   1     -13.829 -32.172  10.842  0.00  0.00    -0.055 A 
ATOM     50  C20 8A4 d   1     -14.435 -33.361  11.164  0.00  0.00    -0.074 A 
ATOM     51  H8  8A4 d   1     -13.520 -31.490  11.626  0.00  0.00     0.087 H 
ATOM     52  H3  8A4 d   1     -14.603 -33.620  12.203  0.00  0.00     0.084 H 
BRANCH  47  53
ATOM     53  N21 8A4 d   1     -13.010 -30.642   9.210  0.00  0.00    -0.245 N 
ATOM     54  C22 8A4 d   1     -13.567 -29.683   8.416  0.00  0.00     0.006 A 
ATOM     55  C23 8A4 d   1     -12.859 -28.528   8.662  0.00  0.00    -0.048 A 
ATOM     56  H15 8A4 d   1     -14.402 -29.806   7.728  0.00  0.00     0.114 H 
ATOM     57  C24 8A4 d   1     -11.892 -28.913   9.624  0.00  0.00     0.023 A 
ATOM     58  H11 8A4 d   1     -13.008 -27.544   8.219  0.00  0.00     0.087 H 
ATOM     59  N25 8A4 d   1     -11.988 -30.202   9.955  0.00  0.00    -0.180 NA
ATOM     60  H13 8A4 d   1     -11.153 -28.233  10.046  0.00  0.00     0.117 H 
ENDBRANCH  47  53
ENDBRANCH  40  43
ENDBRANCH   6  40
BRANCH   9  61
ATOM     61  O2  8A4 d   1     -14.570 -36.058  13.109  0.00  0.00    -0.339 OA
BRANCH  61  62
ATOM     62  C1  8A4 d   1     -14.207 -35.573  14.391  0.00  0.00     0.012 C 
ATOM     63  H20 8A4 d   1     -13.166 -35.853  14.608  0.00  0.00     0.067 H 
ATOM     64  H21 8A4 d   1     -14.870 -36.012  15.151  0.00  0.00     0.067 H 
ATOM     65  H22 8A4 d   1     -14.303 -34.477  14.409  0.00  0.00     0.067 H 
ENDBRANCH  61  62
ENDBRANCH   9  61
TORSDOF 10
