REMARK  9 active torsions:
REMARK  status: ('A' for Active; 'I' for Inactive)
REMARK    1  A    between atoms: C13_2  and  C11_1 
REMARK    2  A    between atoms: C11_1  and  N10_20 
REMARK    3  A    between atoms: N15_23  and  C16_3 
REMARK    4  A    between atoms: C20_7  and  C21_8 
REMARK    5  A    between atoms: C24_10  and  N25_25 
REMARK    6  A    between atoms: O02_12  and  C01_11 
REMARK    7  A    between atoms: C03_13  and  O02_12 
REMARK    8  A    between atoms: C09_19  and  C08_18 
REMARK    9  A    between atoms: N10_20  and  C09_19 
ROOT
ATOM      1  C11 8D1 d   1     145.749  37.234  17.054  0.00  0.00     0.130 C 
ATOM      2  N12 8D1 d   1     145.463  36.765  15.826  0.00  0.00    -0.384 N 
ATOM      3  H18 8D1 d   1     145.507  35.753  15.638  0.00  0.00     0.157 HD
ATOM      4  H19 8D1 d   1     145.200  37.418  15.074  0.00  0.00     0.157 HD
ENDROOT
BRANCH   1   5
ATOM      5  C13 8D1 d   1     146.163  36.276  18.074  0.00  0.00     0.169 A 
ATOM      6  C24 8D1 d   1     145.951  36.409  19.475  0.00  0.00     0.178 A 
ATOM      7  N23 8D1 d   1     146.438  35.367  20.099  0.00  0.00    -0.129 NA
ATOM      8  N15 8D1 d   1     146.919  34.597  19.080  0.00  0.00    -0.148 N 
ATOM      9  N14 8D1 d   1     146.769  35.142  17.843  0.00  0.00    -0.142 NA
BRANCH   6  10
ATOM     10  N25 8D1 d   1     145.311  37.457  20.150  0.00  0.00    -0.381 N 
ATOM     11  H20 8D1 d   1     145.223  37.431  21.176  0.00  0.00     0.157 HD
ATOM     12  H21 8D1 d   1     144.928  38.253  19.620  0.00  0.00     0.157 HD
ENDBRANCH   6  10
BRANCH   8  13
ATOM     13  C16 8D1 d   1     147.538  33.334  19.273  0.00  0.00     0.079 A 
ATOM     14  C17 8D1 d   1     147.878  32.894  20.569  0.00  0.00    -0.053 A 
ATOM     15  C18 8D1 d   1     148.534  31.666  20.763  0.00  0.00    -0.080 A 
ATOM     16  H1  8D1 d   1     147.631  33.510  21.426  0.00  0.00     0.087 H 
ATOM     17  C19 8D1 d   1     148.845  30.851  19.662  0.00  0.00    -0.077 A 
ATOM     18  H2  8D1 d   1     148.800  31.347  21.764  0.00  0.00     0.083 H 
ATOM     19  C20 8D1 d   1     148.515  31.279  18.362  0.00  0.00    -0.060 A 
ATOM     20  H3  8D1 d   1     149.337  29.897  19.813  0.00  0.00     0.084 H 
ATOM     21  C22 8D1 d   1     147.857  32.511  18.169  0.00  0.00    -0.048 A 
ATOM     22  H7  8D1 d   1     147.594  32.829  17.167  0.00  0.00     0.087 H 
BRANCH  19  23
ATOM     23  C21 8D1 d   1     148.895  30.443  17.162  0.00  0.00    -0.051 C 
ATOM     24  H4  8D1 d   1     148.552  30.942  16.244  0.00  0.00     0.033 H 
ATOM     25  H5  8D1 d   1     148.421  29.453  17.240  0.00  0.00     0.033 H 
ATOM     26  H6  8D1 d   1     149.988  30.325  17.129  0.00  0.00     0.033 H 
ENDBRANCH  19  23
ENDBRANCH   8  13
ENDBRANCH   1   5
BRANCH   1  27
ATOM     27  N10 8D1 d   1     145.690  38.557  17.296  0.00  0.00    -0.370 N 
ATOM     28  H17 8D1 d   1     145.831  38.866  18.268  0.00  0.00     0.161 HD
BRANCH  27  29
ATOM     29  C09 8D1 d   1     145.442  39.595  16.289  0.00  0.00     0.020 C 
ATOM     30  H15 8D1 d   1     144.724  39.215  15.548  0.00  0.00     0.071 H 
ATOM     31  H16 8D1 d   1     145.023  40.484  16.783  0.00  0.00     0.071 H 
BRANCH  29  32
ATOM     32  C08 8D1 d   1     146.731  39.978  15.583  0.00  0.00    -0.007 A 
ATOM     33  C03 8D1 d   1     147.605  40.954  16.119  0.00  0.00     0.076 A 
ATOM     34  C04 8D1 d   1     148.841  41.198  15.493  0.00  0.00    -0.050 A 
ATOM     35  C05 8D1 d   1     149.218  40.498  14.339  0.00  0.00    -0.080 A 
ATOM     36  H11 8D1 d   1     149.513  41.940  15.910  0.00  0.00     0.087 H 
ATOM     37  C06 8D1 d   1     148.354  39.530  13.807  0.00  0.00    -0.082 A 
ATOM     38  H12 8D1 d   1     150.169  40.703  13.862  0.00  0.00     0.083 H 
ATOM     39  C07 8D1 d   1     147.114  39.276  14.419  0.00  0.00    -0.073 A 
ATOM     40  H13 8D1 d   1     148.643  38.976  12.921  0.00  0.00     0.083 H 
ATOM     41  H14 8D1 d   1     146.446  38.535  13.994  0.00  0.00     0.084 H 
BRANCH  33  42
ATOM     42  O02 8D1 d   1     147.336  41.626  17.283  0.00  0.00    -0.355 OA
BRANCH  42  43
ATOM     43  C01 8D1 d   1     146.307  42.597  17.210  0.00  0.00     0.010 C 
ATOM     44  H8  8D1 d   1     146.178  43.070  18.195  0.00  0.00     0.066 H 
ATOM     45  H9  8D1 d   1     145.366  42.112  16.910  0.00  0.00     0.066 H 
ATOM     46  H10 8D1 d   1     146.577  43.363  16.468  0.00  0.00     0.066 H 
ENDBRANCH  42  43
ENDBRANCH  33  42
ENDBRANCH  29  32
ENDBRANCH  27  29
ENDBRANCH   1  27
TORSDOF 9
