REMARK  5 active torsions:
REMARK  status: ('A' for Active; 'I' for Inactive)
REMARK    1  A    between atoms: C7_4  and  C10_6 
REMARK    2  A    between atoms: O13_13  and  C8_5 
REMARK       I    between atoms: C10_6  and  N11_11 
REMARK    3  A    between atoms: C9_10  and  C1_7 
REMARK    4  A    between atoms: C9_10  and  C2_8 
REMARK    5  A    between atoms: C9_10  and  O13_13 
ROOT
ATOM      1  C4  8BV d   1      29.294  10.616  -7.886  0.00  0.00    -0.080 A 
ATOM      2  C5  8BV d   1      29.594   8.314  -7.373  0.00  0.00    -0.065 A 
ATOM      3  C6  8BV d   1      30.062  10.465  -9.021  0.00  0.00    -0.050 A 
ATOM      4  C7  8BV d   1      30.358   8.144  -8.515  0.00  0.00     0.065 A 
ATOM      5  C8  8BV d   1      30.606   9.232  -9.347  0.00  0.00     0.085 A 
ATOM      6  C3  8BV d   1      29.063   9.544  -7.053  0.00  0.00    -0.082 A 
ATOM      7  H1  8BV d   1      28.869  11.585  -7.648  0.00  0.00     0.083 H 
ATOM      8  H2  8BV d   1      29.411   7.467  -6.721  0.00  0.00     0.085 H 
ATOM      9  H3  8BV d   1      30.242  11.318  -9.665  0.00  0.00     0.087 H 
ATOM     10  H10 8BV d   1      28.469   9.667  -6.154  0.00  0.00     0.083 H 
ENDROOT
BRANCH   5  11
ATOM     11  O13 8BV d   1      31.381   9.069 -10.491  0.00  0.00    -0.346 OA
BRANCH  11  12
ATOM     12  C9  8BV d   1      31.781  10.307 -11.102  0.00  0.00     0.038 C 
ATOM     13  H11 8BV d   1      31.748  11.123 -10.365  0.00  0.00     0.082 H 
BRANCH  12  14
ATOM     14  C1  8BV d   1      33.192  10.105 -11.607  0.00  0.00    -0.052 C 
ATOM     15  H4  8BV d   1      33.546  11.030 -12.086  0.00  0.00     0.030 H 
ATOM     16  H5  8BV d   1      33.205   9.284 -12.339  0.00  0.00     0.030 H 
ATOM     17  H6  8BV d   1      33.851   9.854 -10.763  0.00  0.00     0.030 H 
ENDBRANCH  12  14
BRANCH  12  18
ATOM     18  C2  8BV d   1      30.876  10.640 -12.276  0.00  0.00    -0.052 C 
ATOM     19  H7  8BV d   1      29.847  10.788 -11.915  0.00  0.00     0.030 H 
ATOM     20  H8  8BV d   1      30.895   9.812 -13.000  0.00  0.00     0.030 H 
ATOM     21  H9  8BV d   1      31.230  11.561 -12.762  0.00  0.00     0.030 H 
ENDBRANCH  12  18
ENDBRANCH  11  12
ENDBRANCH   5  11
BRANCH   4  22
ATOM     22  C10 8BV d   1      30.851   6.761  -8.736  0.00  0.00     0.252 C 
ATOM     23  N11 8BV d   1      31.851   6.570  -9.662  0.00  0.00    -0.366 N 
ATOM     24  H12 8BV d   1      32.205   5.651  -9.834  0.00  0.00     0.159 HD
ATOM     25  H13 8BV d   1      32.224   7.351 -10.163  0.00  0.00     0.159 HD
ATOM     26  O12 8BV d   1      30.345   5.848  -8.097  0.00  0.00    -0.268 OA
ENDBRANCH   4  22
TORSDOF 5
