REMARK  6 active torsions:
REMARK  status: ('A' for Active; 'I' for Inactive)
REMARK    1  A    between atoms: C12_17  and  C13_4 
REMARK    2  A    between atoms: C2_11  and  C1_10 
REMARK    3  A    between atoms: C2_11  and  C3_12 
REMARK    4  A    between atoms: O4_13  and  C2_11 
REMARK    5  A    between atoms: O4_13  and  C5_14 
REMARK    6  A    between atoms: C22_22  and  C23_23 
REMARK       I    between atoms: C23_23  and  N25_25 
ROOT
ATOM      1  C13 8BY d   1      -8.355  17.621  13.706  0.00  0.00    -0.025 A 
ATOM      2  C18 8BY d   1      -8.125  16.709  14.730  0.00  0.00    -0.071 A 
ATOM      3  C16 8BY d   1      -9.325  18.081  16.293  0.00  0.00     0.044 A 
ATOM      4  C19 8BY d   1      -9.791  18.323  17.636  0.00  0.00     0.099 C 
ATOM      5  C14 8BY d   1      -9.136  18.744  13.995  0.00  0.00    -0.071 A 
ATOM      6  C15 8BY d   1      -9.616  18.976  15.270  0.00  0.00    -0.062 A 
ATOM      7  C17 8BY d   1      -8.594  16.936  16.008  0.00  0.00    -0.062 A 
ATOM      8  N20 8BY d   1     -10.150  18.479  18.709  0.00  0.00    -0.191 NA
ATOM      9  H4  8BY d   1      -7.567  15.803  14.521  0.00  0.00     0.084 H 
ATOM     10  H14 8BY d   1      -9.370  19.447  13.203  0.00  0.00     0.084 H 
ATOM     11  H15 8BY d   1     -10.218  19.854  15.472  0.00  0.00     0.085 H 
ATOM     12  H16 8BY d   1      -8.390  16.217  16.793  0.00  0.00     0.085 H 
ENDROOT
BRANCH   1  13
ATOM     13  C12 8BY d   1      -7.639  17.498  12.406  0.00  0.00    -0.015 A 
ATOM     14  C7  8BY d   1      -8.324  17.451  11.146  0.00  0.00    -0.012 A 
ATOM     15  C6  8BY d   1      -9.726  17.211  11.020  0.00  0.00    -0.038 A 
ATOM     16  C8  8BY d   1      -7.564  17.635   9.952  0.00  0.00    -0.024 A 
ATOM     17  C5  8BY d   1     -10.326  17.192   9.797  0.00  0.00     0.085 A 
ATOM     18  H1  8BY d   1     -10.321  17.041  11.910  0.00  0.00     0.089 H 
ATOM     19  C22 8BY d   1      -9.577  17.371   8.620  0.00  0.00     0.066 A 
ATOM     20  C21 8BY d   1      -8.227  17.601   8.710  0.00  0.00    -0.054 A 
ATOM     21  H3  8BY d   1      -7.657  17.761   7.802  0.00  0.00     0.086 H 
ATOM     22  C9  8BY d   1      -6.162  17.820  10.044  0.00  0.00    -0.072 A 
ATOM     23  C10 8BY d   1      -5.538  17.802  11.254  0.00  0.00    -0.081 A 
ATOM     24  H2  8BY d   1      -5.581  17.977   9.143  0.00  0.00     0.084 H 
ATOM     25  C11 8BY d   1      -6.269  17.631  12.421  0.00  0.00    -0.071 A 
ATOM     26  H12 8BY d   1      -4.462  17.922  11.306  0.00  0.00     0.083 H 
ATOM     27  H13 8BY d   1      -5.747  17.601  13.370  0.00  0.00     0.084 H 
BRANCH  17  28
ATOM     28  O4  8BY d   1     -11.680  17.037   9.615  0.00  0.00    -0.346 OA
BRANCH  28  29
ATOM     29  C2  8BY d   1     -12.631  16.928  10.706  0.00  0.00     0.038 C 
ATOM     30  H8  8BY d   1     -12.344  17.563  11.557  0.00  0.00     0.082 H 
BRANCH  29  31
ATOM     31  C1  8BY d   1     -13.924  17.406  10.098  0.00  0.00    -0.052 C 
ATOM     32  H5  8BY d   1     -14.723  17.363  10.853  0.00  0.00     0.030 H 
ATOM     33  H6  8BY d   1     -14.189  16.762   9.247  0.00  0.00     0.030 H 
ATOM     34  H7  8BY d   1     -13.805  18.443   9.750  0.00  0.00     0.030 H 
ENDBRANCH  29  31
BRANCH  29  35
ATOM     35  C3  8BY d   1     -12.690  15.503  11.140  0.00  0.00    -0.052 C 
ATOM     36  H9  8BY d   1     -11.722  15.211  11.574  0.00  0.00     0.030 H 
ATOM     37  H10 8BY d   1     -12.910  14.864  10.272  0.00  0.00     0.030 H 
ATOM     38  H11 8BY d   1     -13.481  15.382  11.894  0.00  0.00     0.030 H 
ENDBRANCH  29  35
ENDBRANCH  28  29
ENDBRANCH  17  28
BRANCH  19  39
ATOM     39  C23 8BY d   1     -10.117  17.323   7.218  0.00  0.00     0.252 C 
ATOM     40  O24 8BY d   1      -9.326  17.326   6.257  0.00  0.00    -0.268 OA
ATOM     41  N25 8BY d   1     -11.433  17.199   7.043  0.00  0.00    -0.366 N 
ATOM     42  H17 8BY d   1     -11.813  17.165   6.119  0.00  0.00     0.159 HD
ATOM     43  H18 8BY d   1     -12.040  17.140   7.836  0.00  0.00     0.159 HD
ENDBRANCH  19  39
ENDBRANCH   1  13
TORSDOF 6
