REMARK  7 active torsions:
REMARK  status: ('A' for Active; 'I' for Inactive)
REMARK    1  A    between atoms: C8_7  and  O18_21 
REMARK    2  A    between atoms: O18_21  and  C19_8 
REMARK    3  A    between atoms: C2_10  and  C1_9 
REMARK    4  A    between atoms: C2_10  and  C3_11 
REMARK    5  A    between atoms: O4_12  and  C2_10 
REMARK    6  A    between atoms: O4_12  and  C5_13 
REMARK    7  A    between atoms: C14_17  and  C15_18 
REMARK       I    between atoms: C15_18  and  N17_20 
ROOT
ATOM      1  C7  8C1 d   1      18.880   5.642   3.752  0.00  0.00     0.029 A 
ATOM      2  C6  8C1 d   1      19.387   5.486   2.434  0.00  0.00    -0.035 A 
ATOM      3  C9  8C1 d   1      18.078   6.951   5.628  0.00  0.00    -0.033 A 
ATOM      4  C13 8C1 d   1      18.946   3.219   4.002  0.00  0.00    -0.036 A 
ATOM      5  C8  8C1 d   1      18.571   6.899   4.344  0.00  0.00     0.083 A 
ATOM      6  C5  8C1 d   1      19.718   4.244   1.972  0.00  0.00     0.086 A 
ATOM      7  C10 8C1 d   1      17.923   5.759   6.317  0.00  0.00     0.005 A 
ATOM      8  N11 8C1 d   1      18.198   4.558   5.834  0.00  0.00    -0.260 NA
ATOM      9  C12 8C1 d   1      18.672   4.492   4.548  0.00  0.00     0.070 A 
ATOM     10  C14 8C1 d   1      19.447   3.088   2.728  0.00  0.00     0.067 A 
ATOM     11  H1  8C1 d   1      19.511   6.353   1.795  0.00  0.00     0.089 H 
ATOM     12  H2  8C1 d   1      17.818   7.898   6.087  0.00  0.00     0.090 H 
ATOM     13  H3  8C1 d   1      18.759   2.332   4.596  0.00  0.00     0.088 H 
ATOM     14  H16 8C1 d   1      17.547   5.815   7.332  0.00  0.00     0.114 H 
ENDROOT
BRANCH   5  15
ATOM     15  O18 8C1 d   1      18.790   7.967   3.504  0.00  0.00    -0.343 OA
BRANCH  15  16
ATOM     16  C19 8C1 d   1      18.574   9.348   3.892  0.00  0.00     0.068 C 
ATOM     17  C20 8C1 d   1      18.339  10.120   2.610  0.00  0.00    -0.037 C 
ATOM     18  C21 8C1 d   1      19.563  10.105   1.698  0.00  0.00    -0.040 C 
ATOM     19  H4  8C1 d   1      17.492   9.668   2.074  0.00  0.00     0.036 H 
ATOM     20  H5  8C1 d   1      18.098  11.163   2.863  0.00  0.00     0.036 H 
ATOM     21  C22 8C1 d   1      20.751  10.612   2.462  0.00  0.00     0.082 C 
ATOM     22  H6  8C1 d   1      19.381  10.752   0.827  0.00  0.00     0.035 H 
ATOM     23  H7  8C1 d   1      19.756   9.077   1.357  0.00  0.00     0.035 H 
ATOM     24  N23 8C1 d   1      20.959   9.744   3.630  0.00  0.00    -0.073 N 
ATOM     25  H19 8C1 d   1      20.565  11.644   2.795  0.00  0.00     0.075 H 
ATOM     26  H20 8C1 d   1      21.643  10.589   1.819  0.00  0.00     0.075 H 
ATOM     27  C24 8C1 d   1      19.845   9.822   4.576  0.00  0.00     0.106 C 
ATOM     28  H21 8C1 d   1      21.805  10.027   4.099  0.00  0.00     0.277 HD
ATOM     29  H22 8C1 d   1      21.052   8.791   3.315  0.00  0.00     0.277 HD
ATOM     30  H23 8C1 d   1      20.055   9.182   5.446  0.00  0.00     0.079 H 
ATOM     31  H24 8C1 d   1      19.717  10.863   4.909  0.00  0.00     0.079 H 
ATOM     32  H8  8C1 d   1      17.712   9.445   4.568  0.00  0.00     0.086 H 
ENDBRANCH  15  16
ENDBRANCH   5  15
BRANCH   6  33
ATOM     33  O4  8C1 d   1      20.444   4.033   0.821  0.00  0.00    -0.346 OA
BRANCH  33  34
ATOM     34  C2  8C1 d   1      20.908   5.106  -0.029  0.00  0.00     0.038 C 
ATOM     35  H12 8C1 d   1      21.118   6.031   0.528  0.00  0.00     0.082 H 
BRANCH  34  36
ATOM     36  C1  8C1 d   1      22.155   4.552  -0.638  0.00  0.00    -0.052 C 
ATOM     37  H9  8C1 d   1      22.596   5.300  -1.313  0.00  0.00     0.030 H 
ATOM     38  H10 8C1 d   1      21.913   3.642  -1.206  0.00  0.00     0.030 H 
ATOM     39  H11 8C1 d   1      22.874   4.307   0.158  0.00  0.00     0.030 H 
ENDBRANCH  34  36
BRANCH  34  40
ATOM     40  C3  8C1 d   1      19.808   5.322  -1.018  0.00  0.00    -0.052 C 
ATOM     41  H13 8C1 d   1      18.926   5.729  -0.502  0.00  0.00     0.030 H 
ATOM     42  H14 8C1 d   1      19.547   4.364  -1.491  0.00  0.00     0.030 H 
ATOM     43  H15 8C1 d   1      20.142   6.032  -1.789  0.00  0.00     0.030 H 
ENDBRANCH  34  40
ENDBRANCH  33  34
ENDBRANCH   6  33
BRANCH  10  44
ATOM     44  C15 8C1 d   1      19.716   1.677   2.290  0.00  0.00     0.252 C 
ATOM     45  O16 8C1 d   1      19.190   0.740   2.901  0.00  0.00    -0.268 OA
ATOM     46  N17 8C1 d   1      20.435   1.475   1.180  0.00  0.00    -0.366 N 
ATOM     47  H17 8C1 d   1      20.626   0.543   0.871  0.00  0.00     0.159 HD
ATOM     48  H18 8C1 d   1      20.782   2.256   0.660  0.00  0.00     0.159 HD
ENDBRANCH  10  44
TORSDOF 7
