REMARK  8 active torsions:
REMARK  status: ('A' for Active; 'I' for Inactive)
REMARK       I    between atoms: C18_9  and  N3_1 
REMARK    1  A    between atoms: C4_2  and  O1_13 
REMARK    2  A    between atoms: C17_12  and  C18_9 
REMARK    3  A    between atoms: O1_13  and  C2_14 
REMARK    4  A    between atoms: C2_14  and  C3_15 
REMARK    5  A    between atoms: C2_14  and  C1_16 
REMARK    6  A    between atoms: O2_20  and  C10_18 
REMARK    7  A    between atoms: C11_21  and  O2_20 
REMARK    8  A    between atoms: C11_21  and  C12_22 
ROOT
ATOM      1  C4  8CD d   1     -25.612 -39.423   8.423  0.00  0.00     0.086 A 
ATOM      2  C7  8CD d   1     -22.872 -39.036   8.809  0.00  0.00    -0.019 A 
ATOM      3  C6  8CD d   1     -23.736 -39.163   9.904  0.00  0.00     0.030 A 
ATOM      4  C9  8CD d   1     -21.041 -38.683  10.339  0.00  0.00     0.006 A 
ATOM      5  C8  8CD d   1     -21.490 -38.789   9.046  0.00  0.00    -0.055 A 
ATOM      6  C16 8CD d   1     -23.406 -39.125   7.498  0.00  0.00    -0.054 A 
ATOM      7  C17 8CD d   1     -24.758 -39.288   7.289  0.00  0.00     0.066 A 
ATOM      8  N1  8CD d   1     -21.855 -38.774  11.453  0.00  0.00    -0.236 NA
ATOM      9  C10 8CD d   1     -23.148 -39.004  11.208  0.00  0.00     0.175 A 
ATOM     10  C5  8CD d   1     -25.113 -39.381   9.706  0.00  0.00    -0.035 A 
ATOM     11  H4  8CD d   1     -19.981 -38.517  10.497  0.00  0.00     0.114 H 
ATOM     12  H7  8CD d   1     -20.801 -38.686   8.216  0.00  0.00     0.087 H 
ATOM     13  H8  8CD d   1     -22.739 -39.064   6.646  0.00  0.00     0.086 H 
ATOM     14  H16 8CD d   1     -25.774 -39.514  10.555  0.00  0.00     0.089 H 
ENDROOT
BRANCH   9  15
ATOM     15  O2  8CD d   1     -24.041 -39.105  12.226  0.00  0.00    -0.332 OA
BRANCH  15  16
ATOM     16  C11 8CD d   1     -23.653 -38.682  13.516  0.00  0.00     0.046 C 
ATOM     17  H17 8CD d   1     -23.341 -37.627  13.505  0.00  0.00     0.078 H 
ATOM     18  H18 8CD d   1     -22.831 -39.304  13.901  0.00  0.00     0.078 H 
BRANCH  16  19
ATOM     19  C12 8CD d   1     -24.933 -38.869  14.371  0.00  0.00     0.033 C 
ATOM     20  N2  8CD d   1     -26.061 -38.093  13.849  0.00  0.00    -0.354 N 
ATOM     21  C15 8CD d   1     -27.059 -38.888  13.300  0.00  0.00     0.218 C 
ATOM     22  H3  8CD d   1     -26.108 -37.095  13.884  0.00  0.00     0.162 HD
ATOM     23  O3  8CD d   1     -28.029 -38.434  12.705  0.00  0.00    -0.274 OA
ATOM     24  C14 8CD d   1     -26.748 -40.341  13.574  0.00  0.00     0.011 C 
ATOM     25  C13 8CD d   1     -25.438 -40.336  14.378  0.00  0.00    -0.036 C 
ATOM     26  H20 8CD d   1     -27.556 -40.803  14.159  0.00  0.00     0.047 H 
ATOM     27  H21 8CD d   1     -26.618 -40.891  12.630  0.00  0.00     0.047 H 
ATOM     28  H5  8CD d   1     -25.622 -40.671  15.409  0.00  0.00     0.036 H 
ATOM     29  H6  8CD d   1     -24.697 -40.997  13.904  0.00  0.00     0.036 H 
ATOM     30  H19 8CD d   1     -24.708 -38.551  15.400  0.00  0.00     0.075 H 
ENDBRANCH  16  19
ENDBRANCH  15  16
ENDBRANCH   9  15
BRANCH   1  31
ATOM     31  O1  8CD d   1     -26.937 -39.548   8.149  0.00  0.00    -0.346 OA
BRANCH  31  32
ATOM     32  C2  8CD d   1     -27.838 -39.745   9.230  0.00  0.00     0.038 C 
ATOM     33  H9  8CD d   1     -27.530 -39.182  10.123  0.00  0.00     0.082 H 
BRANCH  32  34
ATOM     34  C3  8CD d   1     -29.189 -39.248   8.708  0.00  0.00    -0.052 C 
ATOM     35  H10 8CD d   1     -29.951 -39.367   9.492  0.00  0.00     0.030 H 
ATOM     36  H11 8CD d   1     -29.479 -39.834   7.824  0.00  0.00     0.030 H 
ATOM     37  H12 8CD d   1     -29.108 -38.186   8.433  0.00  0.00     0.030 H 
ENDBRANCH  32  34
BRANCH  32  38
ATOM     38  C1  8CD d   1     -27.883 -41.245   9.535  0.00  0.00    -0.052 C 
ATOM     39  H13 8CD d   1     -28.575 -41.429  10.370  0.00  0.00     0.030 H 
ATOM     40  H14 8CD d   1     -26.876 -41.594   9.809  0.00  0.00     0.030 H 
ATOM     41  H15 8CD d   1     -28.230 -41.790   8.645  0.00  0.00     0.030 H 
ENDBRANCH  32  38
ENDBRANCH  31  32
ENDBRANCH   1  31
BRANCH   7  42
ATOM     42  C18 8CD d   1     -25.222 -39.307   5.874  0.00  0.00     0.252 C 
ATOM     43  N3  8CD d   1     -26.553 -39.136   5.585  0.00  0.00    -0.366 N 
ATOM     44  H1  8CD d   1     -27.216 -39.028   6.326  0.00  0.00     0.159 HD
ATOM     45  H2  8CD d   1     -26.860 -39.119   4.633  0.00  0.00     0.159 HD
ATOM     46  O4  8CD d   1     -24.424 -39.438   4.941  0.00  0.00    -0.268 OA
ENDBRANCH   7  42
TORSDOF 8
