REMARK  8 active torsions:
REMARK  status: ('A' for Active; 'I' for Inactive)
REMARK       I    between atoms: C17_24  and  N3_1 
REMARK    1  A    between atoms: C7_4  and  C4_2 
REMARK    2  A    between atoms: O2_18  and  C7_4 
REMARK    3  A    between atoms: C8_8  and  O2_18 
REMARK    4  A    between atoms: O4_26  and  C18_9 
REMARK    5  A    between atoms: C2_12  and  C1_11 
REMARK    6  A    between atoms: C3_13  and  C2_12 
REMARK    7  A    between atoms: C11_20  and  O4_26 
REMARK    8  A    between atoms: C12_21  and  C17_24 
ROOT
ATOM      1  N2  8CG d   1     -22.765 -38.562  10.711  0.00  0.00    -0.236 NA
ATOM      2  C9  8CG d   1     -24.598 -38.961   9.114  0.00  0.00     0.030 A 
ATOM      3  C13 8CG d   1     -24.181 -38.908   6.722  0.00  0.00    -0.054 A 
ATOM      4  C8  8CG d   1     -24.048 -38.801  10.437  0.00  0.00     0.175 A 
ATOM      5  C16 8CG d   1     -21.915 -38.480   9.626  0.00  0.00     0.006 A 
ATOM      6  C10 8CG d   1     -25.959 -39.221   8.869  0.00  0.00    -0.035 A 
ATOM      7  C11 8CG d   1     -26.403 -39.288   7.567  0.00  0.00     0.085 A 
ATOM      8  C12 8CG d   1     -25.516 -39.105   6.465  0.00  0.00     0.066 A 
ATOM      9  C14 8CG d   1     -23.697 -38.831   8.050  0.00  0.00    -0.019 A 
ATOM     10  C15 8CG d   1     -22.320 -38.597   8.322  0.00  0.00    -0.055 A 
ATOM     11  H7  8CG d   1     -23.487 -38.810   5.895  0.00  0.00     0.086 H 
ATOM     12  H11 8CG d   1     -20.861 -38.313   9.818  0.00  0.00     0.114 H 
ATOM     13  H19 8CG d   1     -26.648 -39.367   9.693  0.00  0.00     0.089 H 
ATOM     14  H20 8CG d   1     -21.604 -38.513   7.512  0.00  0.00     0.087 H 
ENDROOT
BRANCH   4  15
ATOM     15  O2  8CG d   1     -24.949 -38.920  11.447  0.00  0.00    -0.332 OA
BRANCH  15  16
ATOM     16  C7  8CG d   1     -24.534 -38.547  12.747  0.00  0.00     0.047 C 
ATOM     17  H4  8CG d   1     -23.788 -39.258  13.131  0.00  0.00     0.078 H 
ATOM     18  H5  8CG d   1     -24.105 -37.534  12.738  0.00  0.00     0.078 H 
BRANCH  16  19
ATOM     19  C4  8CG d   1     -25.813 -38.584  13.616  0.00  0.00     0.040 C 
ATOM     20  C3  8CG d   1     -26.498 -39.970  13.784  0.00  0.00     0.005 C 
ATOM     21  C6  8CG d   1     -27.769 -39.920  12.887  0.00  0.00     0.160 C 
ATOM     22  H17 8CG d   1     -26.825 -40.059  14.831  0.00  0.00     0.048 H 
ATOM     23  C5  8CG d   1     -27.898 -38.439  12.482  0.00  0.00     0.252 C 
ATOM     24  F1  8CG d   1     -27.677 -40.658  11.766  0.00  0.00    -0.239 F 
ATOM     25  H6  8CG d   1     -28.646 -40.249  13.464  0.00  0.00     0.107 H 
ATOM     26  N1  8CG d   1     -26.857 -37.723  13.045  0.00  0.00    -0.351 N 
ATOM     27  O1  8CG d   1     -28.793 -37.962  11.806  0.00  0.00    -0.270 OA
ATOM     28  H18 8CG d   1     -26.819 -36.724  13.062  0.00  0.00     0.163 HD
ATOM     29  H3  8CG d   1     -25.537 -38.212  14.614  0.00  0.00     0.076 H 
BRANCH  20  30
ATOM     30  C2  8CG d   1     -25.593 -41.168  13.518  0.00  0.00    -0.060 C 
ATOM     31  H15 8CG d   1     -25.321 -41.182  12.452  0.00  0.00     0.033 H 
ATOM     32  H16 8CG d   1     -24.683 -41.072  14.128  0.00  0.00     0.033 H 
BRANCH  30  33
ATOM     33  C1  8CG d   1     -26.290 -42.475  13.869  0.00  0.00    -0.076 C 
ATOM     34  H12 8CG d   1     -25.613 -43.318  13.666  0.00  0.00     0.027 H 
ATOM     35  H13 8CG d   1     -27.199 -42.581  13.259  0.00  0.00     0.027 H 
ATOM     36  H14 8CG d   1     -26.561 -42.471  14.935  0.00  0.00     0.027 H 
ENDBRANCH  30  33
ENDBRANCH  20  30
ENDBRANCH  16  19
ENDBRANCH  15  16
ENDBRANCH   4  15
BRANCH   7  37
ATOM     37  O4  8CG d   1     -27.700 -39.533   7.229  0.00  0.00    -0.355 OA
BRANCH  37  38
ATOM     38  C18 8CG d   1     -28.654 -39.588   8.266  0.00  0.00     0.010 C 
ATOM     39  H8  8CG d   1     -29.647 -39.792   7.840  0.00  0.00     0.066 H 
ATOM     40  H9  8CG d   1     -28.674 -38.625   8.798  0.00  0.00     0.066 H 
ATOM     41  H10 8CG d   1     -28.385 -40.390   8.969  0.00  0.00     0.066 H 
ENDBRANCH  37  38
ENDBRANCH   7  37
BRANCH   8  42
ATOM     42  C17 8CG d   1     -25.927 -39.084   5.032  0.00  0.00     0.252 C 
ATOM     43  N3  8CG d   1     -27.253 -38.922   4.711  0.00  0.00    -0.366 N 
ATOM     44  H1  8CG d   1     -27.537 -38.907   3.752  0.00  0.00     0.159 HD
ATOM     45  H2  8CG d   1     -27.934 -38.819   5.436  0.00  0.00     0.159 HD
ATOM     46  O3  8CG d   1     -25.091 -39.163   4.126  0.00  0.00    -0.268 OA
ENDBRANCH   8  42
TORSDOF 8
