REMARK  2 active torsions:
REMARK  status: ('A' for Active; 'I' for Inactive)
REMARK    1  A    between atoms: C15_5  and  C14_4 
REMARK    2  A    between atoms: C20_10  and  C19_9 
ROOT
ATOM      1  C11 LSI d   1      -2.093  -9.810 -25.213  0.00  0.00    -0.041 A 
ATOM      2  C12 LSI d   1      -1.711  -9.567 -26.485  0.00  0.00    -0.041 A 
ATOM      3  C13 LSI d   1      -1.130 -10.705 -26.979  0.00  0.00    -0.041 A 
ATOM      4  C14 LSI d   1      -1.142 -11.659 -25.993  0.00  0.00    -0.041 A 
ATOM      5  C15 LSI d   1      -1.734 -11.103 -24.875  0.00  0.00    -0.041 A 
ATOM      6  C16 LSI d   1       2.171  -9.655 -25.795  0.00  0.00    -0.041 A 
ATOM      7  C17 LSI d   1       1.550  -8.427 -25.619  0.00  0.00    -0.041 A 
ATOM      8  C18 LSI d   1       1.112  -8.370 -24.283  0.00  0.00    -0.041 A 
ATOM      9  C19 LSI d   1       1.433  -9.527 -23.659  0.00  0.00    -0.041 A 
ATOM     10  C20 LSI d   1       2.103 -10.330 -24.577  0.00  0.00    -0.041 A 
ATOM     11 RU   LSI d   1       0.100 -10.027 -25.306  0.00  0.00     0.000 Ru
ATOM     12  H1  LSI d   1      -2.599  -9.106 -24.562  0.00  0.00     0.041 H 
ATOM     13  H2  LSI d   1      -1.841  -8.634 -27.022  0.00  0.00     0.041 H 
ATOM     14  H3  LSI d   1      -0.729 -10.830 -27.978  0.00  0.00     0.041 H 
ATOM     15  H4  LSI d   1      -0.756 -12.668 -26.076  0.00  0.00     0.041 H 
ATOM     16  H5  LSI d   1      -1.888 -11.587 -23.917  0.00  0.00     0.041 H 
ATOM     17  H6  LSI d   1       2.624 -10.021 -26.709  0.00  0.00     0.041 H 
ATOM     18  H7  LSI d   1       1.425  -7.656 -26.370  0.00  0.00     0.041 H 
ATOM     19  H8  LSI d   1       0.599  -7.532 -23.826  0.00  0.00     0.041 H 
ATOM     20  H9  LSI d   1       1.209  -9.782 -22.630  0.00  0.00     0.041 H 
ATOM     21  H10 LSI d   1       2.505 -11.317 -24.378  0.00  0.00     0.041 H 
ENDROOT
TORSDOF 2
