REMARK  9 active torsions:
REMARK  status: ('A' for Active; 'I' for Inactive)
REMARK    1  A    between atoms: C1_1  and  C2_2 
REMARK    2  A    between atoms: C2_2  and  C3_3 
REMARK    3  A    between atoms: C3_3  and  C4_4 
REMARK    4  A    between atoms: C3_3  and  C6_6 
REMARK    5  A    between atoms: C5_5  and  C7_7 
REMARK    6  A    between atoms: C7_7  and  O7_8 
REMARK    7  A    between atoms: C8_9  and  C13_17 
REMARK    8  A    between atoms: C12_15  and  C14_18 
REMARK    9  A    between atoms: C12_15  and  C15_19 
ROOT
ATOM      1  C7  A8S d   1     -26.067 149.476  -0.039  0.00  0.00     0.106 C 
ATOM      2  C8  A8S d   1     -27.015 148.422  -0.622  0.00  0.00    -0.042 C 
ATOM      3  C9  A8S d   1     -28.378 148.364  -0.233  0.00  0.00    -0.034 C 
ATOM      4  C10 A8S d   1     -28.903 149.389   0.776  0.00  0.00     0.150 C 
ATOM      5  O10 A8S d   1     -30.059 149.362   1.120  0.00  0.00    -0.293 OA
ATOM      6  C11 A8S d   1     -27.974 150.437   1.351  0.00  0.00     0.004 C 
ATOM      7  C12 A8S d   1     -26.808 150.766   0.433  0.00  0.00    -0.002 C 
ATOM      8  H10 A8S d   1     -29.040 147.603  -0.645  0.00  0.00     0.089 H 
ATOM      9  H11 A8S d   1     -27.574 150.065   2.306  0.00  0.00     0.046 H 
ATOM     10  H12 A8S d   1     -28.550 151.357   1.528  0.00  0.00     0.046 H 
ENDROOT
BRANCH   1  11
ATOM     11  C5  A8S d   1     -25.287 148.831   1.150  0.00  0.00    -0.069 C 
ATOM     12  C4  A8S d   1     -23.886 148.722   1.110  0.00  0.00    -0.099 C 
ATOM     13  H4  A8S d   1     -23.343 149.092   0.241  0.00  0.00     0.077 H 
ATOM     14  H5  A8S d   1     -25.833 148.463   2.017  0.00  0.00     0.081 H 
BRANCH  12  15
ATOM     15  C3  A8S d   1     -23.118 148.095   2.262  0.00  0.00    -0.032 C 
ATOM     16  H3  A8S d   1     -23.027 149.085   2.733  0.00  0.00     0.046 H 
BRANCH  15  17
ATOM     17  C2  A8S d   1     -21.606 147.964   2.253  0.00  0.00     0.022 C 
ATOM     18  H1  A8S d   1     -21.260 148.500   3.149  0.00  0.00     0.050 H 
ATOM     19  H2  A8S d   1     -21.404 146.889   2.369  0.00  0.00     0.050 H 
BRANCH  17  20
ATOM     20  C1  A8S d   1     -20.691 148.430   1.121  0.00  0.00     0.173 C 
ATOM     21  O11 A8S d   1     -19.468 148.630   1.369  0.00  0.00    -0.648 OA
ATOM     22  O12 A8S d   1     -21.116 148.598  -0.050  0.00  0.00    -0.648 OA
ENDBRANCH  17  20
ENDBRANCH  15  17
BRANCH  15  23
ATOM     23  C6  A8S d   1     -23.874 147.582   3.456  0.00  0.00    -0.069 C 
ATOM     24  H6  A8S d   1     -24.951 147.750   3.308  0.00  0.00     0.028 H 
ATOM     25  H7  A8S d   1     -23.540 148.115   4.358  0.00  0.00     0.028 H 
ATOM     26  H8  A8S d   1     -23.684 146.505   3.575  0.00  0.00     0.028 H 
ENDBRANCH  15  23
ENDBRANCH  12  15
ENDBRANCH   1  11
BRANCH   1  27
ATOM     27  O7  A8S d   1     -25.145 149.838  -1.033  0.00  0.00    -0.380 OA
ATOM     28  H9  A8S d   1     -25.607 150.232  -1.763  0.00  0.00     0.211 HD
ENDBRANCH   1  27
BRANCH   2  29
ATOM     29  C13 A8S d   1     -26.484 147.420  -1.614  0.00  0.00    -0.051 C 
ATOM     30  H13 A8S d   1     -27.296 146.746  -1.924  0.00  0.00     0.033 H 
ATOM     31  H14 A8S d   1     -25.678 146.834  -1.148  0.00  0.00     0.033 H 
ATOM     32  H15 A8S d   1     -26.090 147.949  -2.494  0.00  0.00     0.033 H 
ENDBRANCH   2  29
BRANCH   7  33
ATOM     33  C14 A8S d   1     -25.847 151.646   1.220  0.00  0.00    -0.066 C 
ATOM     34  H16 A8S d   1     -24.986 151.906   0.587  0.00  0.00     0.028 H 
ATOM     35  H17 A8S d   1     -25.497 151.102   2.110  0.00  0.00     0.028 H 
ATOM     36  H18 A8S d   1     -26.364 152.565   1.532  0.00  0.00     0.028 H 
ENDBRANCH   7  33
BRANCH   7  37
ATOM     37  C15 A8S d   1     -27.241 151.586  -0.781  0.00  0.00    -0.066 C 
ATOM     38  H19 A8S d   1     -27.941 150.996  -1.391  0.00  0.00     0.028 H 
ATOM     39  H20 A8S d   1     -26.358 151.844  -1.383  0.00  0.00     0.028 H 
ATOM     40  H21 A8S d   1     -27.736 152.508  -0.443  0.00  0.00     0.028 H 
ENDBRANCH   7  37
TORSDOF 9
