REMARK  7 active torsions:
REMARK  status: ('A' for Active; 'I' for Inactive)
REMARK    1  A    between atoms: C1_1  and  C_29 
REMARK    2  A    between atoms: N2_18  and  C11_5 
REMARK    3  A    between atoms: N2_18  and  C12_6 
REMARK    4  A    between atoms: N3_28  and  C15_9 
REMARK    5  A    between atoms: S_16  and  N2_18 
REMARK    6  A    between atoms: C8_19  and  S_16 
REMARK    7  A    between atoms: C5_24  and  C4_25 
ROOT
ATOM      1  C1  3K6 d   1       2.788 -12.576 -19.169  0.00  0.00     0.026 C 
ATOM      2  C2  3K6 d   1       3.363 -12.832 -17.788  0.00  0.00     0.035 C 
ATOM      3  C3  3K6 d   1       1.857 -11.155 -15.076  0.00  0.00     0.034 A 
ATOM      4  C13 3K6 d   1       2.245 -10.661 -17.187  0.00  0.00     0.061 A 
ATOM      5  C14 3K6 d   1       2.362 -10.130 -18.579  0.00  0.00     0.036 C 
ATOM      6  C4  3K6 d   1       1.715 -10.139 -16.030  0.00  0.00     0.019 A 
ATOM      7  N1  3K6 d   1       2.459 -12.219 -15.562  0.00  0.00    -0.184 NA
ATOM      8  N   3K6 d   1       2.698 -11.909 -16.871  0.00  0.00    -0.270 N 
ATOM      9  N3  3K6 d   1       2.846 -11.141 -19.521  0.00  0.00    -0.368 N 
ATOM     10  H1  3K6 d   1       3.427 -13.109 -19.889  0.00  0.00     0.074 H 
ATOM     11  H2  3K6 d   1       4.447 -12.647 -17.790  0.00  0.00     0.070 H 
ATOM     12  H3  3K6 d   1       3.169 -13.871 -17.485  0.00  0.00     0.070 H 
ATOM     13  H4  3K6 d   1       1.508 -11.073 -14.048  0.00  0.00     0.118 H 
ATOM     14  H11 3K6 d   1       3.065  -9.284 -18.577  0.00  0.00     0.073 H 
ATOM     15  H12 3K6 d   1       1.372  -9.784 -18.910  0.00  0.00     0.073 H 
ENDROOT
BRANCH   6  16
ATOM     16  C5  3K6 d   1       1.281  -8.760 -15.705  0.00  0.00    -0.022 A 
ATOM     17  C6  3K6 d   1       1.490  -8.253 -14.426  0.00  0.00    -0.071 A 
ATOM     18  C7  3K6 d   1       1.155  -6.950 -14.114  0.00  0.00    -0.059 A 
ATOM     19  H18 3K6 d   1       1.922  -8.890 -13.663  0.00  0.00     0.084 H 
ATOM     20  C8  3K6 d   1       0.566  -6.148 -15.078  0.00  0.00     0.079 A 
ATOM     21  H17 3K6 d   1       1.351  -6.558 -13.123  0.00  0.00     0.085 H 
ATOM     22  C9  3K6 d   1       0.346  -6.630 -16.362  0.00  0.00    -0.059 A 
ATOM     23  C10 3K6 d   1       0.705  -7.932 -16.669  0.00  0.00    -0.071 A 
ATOM     24  H19 3K6 d   1      -0.102  -5.993 -17.116  0.00  0.00     0.085 H 
ATOM     25  H20 3K6 d   1       0.536  -8.312 -17.670  0.00  0.00     0.084 H 
BRANCH  20  26
ATOM     26  S   3K6 d   1      -0.008  -4.545 -14.633  0.00  0.00     0.260 S 
ATOM     27  O1  3K6 d   1      -0.073  -3.759 -15.828  0.00  0.00    -0.200 OA
ATOM     28  O   3K6 d   1       0.780  -4.090 -13.531  0.00  0.00    -0.200 OA
BRANCH  26  29
ATOM     29  N2  3K6 d   1      -1.535  -4.720 -14.091  0.00  0.00    -0.315 N 
BRANCH  29  30
ATOM     30  C11 3K6 d   1      -2.489  -3.624 -14.301  0.00  0.00    -0.009 C 
ATOM     31  H5  3K6 d   1      -3.466  -3.902 -13.879  0.00  0.00     0.057 H 
ATOM     32  H6  3K6 d   1      -2.597  -3.433 -15.379  0.00  0.00     0.057 H 
ATOM     33  H7  3K6 d   1      -2.119  -2.716 -13.803  0.00  0.00     0.057 H 
ENDBRANCH  29  30
BRANCH  29  34
ATOM     34  C12 3K6 d   1      -1.754  -5.491 -12.860  0.00  0.00    -0.009 C 
ATOM     35  H8  3K6 d   1      -2.829  -5.516 -12.630  0.00  0.00     0.057 H 
ATOM     36  H9  3K6 d   1      -1.212  -5.016 -12.029  0.00  0.00     0.057 H 
ATOM     37  H10 3K6 d   1      -1.385  -6.518 -13.000  0.00  0.00     0.057 H 
ENDBRANCH  29  34
ENDBRANCH  26  29
ENDBRANCH  20  26
ENDBRANCH   6  16
BRANCH   9  38
ATOM     38  C15 3K6 d   1       2.967 -10.755 -20.889  0.00  0.00     0.046 A 
ATOM     39  C16 3K6 d   1       2.054  -9.875 -21.477  0.00  0.00    -0.039 A 
ATOM     40  C17 3K6 d   1       2.122  -9.645 -22.841  0.00  0.00     0.007 A 
ATOM     41  H13 3K6 d   1       1.303  -9.379 -20.873  0.00  0.00     0.089 H 
ATOM     42  N4  3K6 d   1       3.022 -10.220 -23.655  0.00  0.00    -0.242 NA
ATOM     43  H14 3K6 d   1       1.405  -8.959 -23.278  0.00  0.00     0.114 H 
ATOM     44  C18 3K6 d   1       3.915 -11.046 -23.072  0.00  0.00     0.139 A 
ATOM     45  C21 3K6 d   1       3.955 -11.344 -21.695  0.00  0.00     0.038 A 
ATOM     46  N5  3K6 d   1       4.941 -11.722 -23.669  0.00  0.00    -0.350 N 
ATOM     47  C20 3K6 d   1       5.070 -12.224 -21.491  0.00  0.00    -0.052 A 
ATOM     48  C19 3K6 d   1       5.628 -12.426 -22.712  0.00  0.00    -0.020 A 
ATOM     49  H16 3K6 d   1       5.403 -12.646 -20.544  0.00  0.00     0.087 H 
ATOM     50  H15 3K6 d   1       6.495 -13.056 -22.904  0.00  0.00     0.111 H 
ATOM     51  H24 3K6 d   1       5.163 -11.706 -24.675  0.00  0.00     0.166 HD
ENDBRANCH   9  38
BRANCH   1  52
ATOM     52  C   3K6 d   1       1.383 -13.154 -19.310  0.00  0.00    -0.056 C 
ATOM     53  H21 3K6 d   1       1.002 -12.949 -20.321  0.00  0.00     0.030 H 
ATOM     54  H22 3K6 d   1       0.719 -12.689 -18.567  0.00  0.00     0.030 H 
ATOM     55  H23 3K6 d   1       1.415 -14.241 -19.144  0.00  0.00     0.030 H 
ENDBRANCH   1  52
TORSDOF 7
