REMARK  7 active torsions:
REMARK  status: ('A' for Active; 'I' for Inactive)
REMARK       I    between atoms: C6_2  and  N_3 
REMARK    1  A    between atoms: C6_2  and  C5_11 
REMARK    2  A    between atoms: N_3  and  C7_4 
REMARK    3  A    between atoms: C7_4  and  C8_5 
REMARK    4  A    between atoms: C3_15  and  C13_18 
REMARK    5  A    between atoms: C17_19  and  C18_24 
REMARK    6  A    between atoms: C18_24  and  O1_25 
REMARK    7  A    between atoms: O1_25  and  C19_26 
ROOT
ATOM      1  C13 8DJ d   1     113.012  36.319  78.386  0.00  0.00    -0.020 C 
ATOM      2  C17 8DJ d   1     114.344  36.928  77.921  0.00  0.00    -0.002 C 
ATOM      3  C16 8DJ d   1     114.933  37.723  79.067  0.00  0.00     0.087 C 
ATOM      4  N2  8DJ d   1     114.016  38.833  79.351  0.00  0.00    -0.075 N 
ATOM      5  C15 8DJ d   1     112.712  38.368  79.838  0.00  0.00     0.082 C 
ATOM      6  C14 8DJ d   1     112.069  37.450  78.821  0.00  0.00    -0.035 C 
ATOM      7  H11 8DJ d   1     113.219  35.690  79.264  0.00  0.00     0.048 H 
ATOM      8  H12 8DJ d   1     114.119  37.609  77.087  0.00  0.00     0.046 H 
ATOM      9  H13 8DJ d   1     115.921  38.115  78.784  0.00  0.00     0.076 H 
ATOM     10  H14 8DJ d   1     115.034  37.083  79.956  0.00  0.00     0.076 H 
ATOM     11  H15 8DJ d   1     113.876  39.362  78.505  0.00  0.00     0.277 HD
ATOM     12  H16 8DJ d   1     114.432  39.425  80.053  0.00  0.00     0.277 HD
ATOM     13  H17 8DJ d   1     112.058  39.236  80.008  0.00  0.00     0.075 H 
ATOM     14  H18 8DJ d   1     112.851  37.822  80.783  0.00  0.00     0.075 H 
ATOM     15  H19 8DJ d   1     111.165  37.007  79.264  0.00  0.00     0.036 H 
ATOM     16  H20 8DJ d   1     111.791  38.041  77.936  0.00  0.00     0.036 H 
ENDROOT
BRANCH   1  17
ATOM     17  C3  8DJ d   1     112.373  35.446  77.353  0.00  0.00    -0.052 A 
ATOM     18  C4  8DJ d   1     111.730  35.988  76.239  0.00  0.00    -0.058 A 
ATOM     19  C5  8DJ d   1     111.152  35.181  75.265  0.00  0.00     0.071 A 
ATOM     20  H8  8DJ d   1     111.680  37.065  76.130  0.00  0.00     0.086 H 
ATOM     21  C   8DJ d   1     111.189  33.810  75.390  0.00  0.00     0.132 A 
ATOM     22  F   8DJ d   1     110.616  33.042  74.449  0.00  0.00    -0.205 F 
ATOM     23  C1  8DJ d   1     111.821  33.243  76.498  0.00  0.00    -0.044 A 
ATOM     24  C2  8DJ d   1     112.414  34.055  77.472  0.00  0.00    -0.073 A 
ATOM     25  H10 8DJ d   1     111.853  32.165  76.605  0.00  0.00     0.088 H 
ATOM     26  H9  8DJ d   1     112.908  33.602  78.324  0.00  0.00     0.084 H 
BRANCH  19  27
ATOM     27  C6  8DJ d   1     110.460  35.846  74.117  0.00  0.00     0.255 C 
ATOM     28  O   8DJ d   1     109.302  35.525  73.856  0.00  0.00    -0.268 OA
ATOM     29  N   8DJ d   1     111.115  36.830  73.500  0.00  0.00    -0.351 N 
ATOM     30  H1  8DJ d   1     112.084  36.963  73.707  0.00  0.00     0.163 HD
BRANCH  29  31
ATOM     31  C7  8DJ d   1     110.485  37.712  72.546  0.00  0.00     0.035 C 
ATOM     32  H2  8DJ d   1     111.057  38.650  72.495  0.00  0.00     0.073 H 
ATOM     33  H3  8DJ d   1     109.459  37.926  72.880  0.00  0.00     0.073 H 
BRANCH  31  34
ATOM     34  C8  8DJ d   1     110.433  37.095  71.172  0.00  0.00     0.051 A 
ATOM     35  N1  8DJ d   1     109.443  37.518  70.336  0.00  0.00    -0.264 NA
ATOM     36  C12 8DJ d   1     109.316  37.040  69.091  0.00  0.00     0.003 A 
ATOM     37  C11 8DJ d   1     110.226  36.097  68.630  0.00  0.00    -0.066 A 
ATOM     38  H4  8DJ d   1     108.512  37.385  68.451  0.00  0.00     0.114 H 
ATOM     39  C10 8DJ d   1     111.258  35.647  69.454  0.00  0.00    -0.080 A 
ATOM     40  H5  8DJ d   1     110.134  35.708  67.623  0.00  0.00     0.085 H 
ATOM     41  C9  8DJ d   1     111.371  36.145  70.745  0.00  0.00    -0.058 A 
ATOM     42  H6  8DJ d   1     111.967  34.913  69.088  0.00  0.00     0.083 H 
ATOM     43  H7  8DJ d   1     112.163  35.809  71.404  0.00  0.00     0.086 H 
ENDBRANCH  31  34
ENDBRANCH  29  31
ENDBRANCH  19  27
ENDBRANCH   1  17
BRANCH   2  44
ATOM     44  C18 8DJ d   1     115.411  35.952  77.440  0.00  0.00     0.032 C 
ATOM     45  H21 8DJ d   1     116.329  36.507  77.195  0.00  0.00     0.075 H 
ATOM     46  H22 8DJ d   1     115.048  35.428  76.543  0.00  0.00     0.075 H 
BRANCH  44  47
ATOM     47  O1  8DJ d   1     115.691  35.010  78.450  0.00  0.00    -0.351 OA
BRANCH  47  48
ATOM     48  C19 8DJ d   1     116.838  34.266  78.584  0.00  0.00     0.071 A 
ATOM     49  C25 8DJ d   1     117.861  34.214  77.634  0.00  0.00    -0.016 A 
ATOM     50  C24 8DJ d   1     118.957  33.412  77.918  0.00  0.00     0.107 A 
ATOM     51  H23 8DJ d   1     117.801  34.779  76.710  0.00  0.00     0.092 H 
ATOM     52  O3  8DJ d   1     120.067  33.202  77.167  0.00  0.00    -0.323 OA
ATOM     53  C22 8DJ d   1     119.057  32.678  79.054  0.00  0.00     0.105 A 
ATOM     54  C23 8DJ d   1     120.962  32.338  77.883  0.00  0.00     0.115 A 
ATOM     55  O2  8DJ d   1     120.224  31.978  79.059  0.00  0.00    -0.323 OA
ATOM     56  H24 8DJ d   1     121.889  32.868  78.149  0.00  0.00     0.118 H 
ATOM     57  H25 8DJ d   1     121.207  31.447  77.287  0.00  0.00     0.118 H 
ATOM     58  C21 8DJ d   1     118.061  32.711  80.009  0.00  0.00    -0.045 A 
ATOM     59  C20 8DJ d   1     116.945  33.512  79.760  0.00  0.00    -0.048 A 
ATOM     60  H26 8DJ d   1     118.143  32.134  80.923  0.00  0.00     0.088 H 
ATOM     61  H27 8DJ d   1     116.145  33.551  80.491  0.00  0.00     0.087 H 
ENDBRANCH  47  48
ENDBRANCH  44  47
ENDBRANCH   2  44
TORSDOF 7
