REMARK  9 active torsions:
REMARK  status: ('A' for Active; 'I' for Inactive)
REMARK       I    between atoms: C7_2  and  N_3 
REMARK    1  A    between atoms: C7_2  and  C6_11 
REMARK    2  A    between atoms: N_3  and  C8_4 
REMARK    3  A    between atoms: C8_4  and  C9_5 
REMARK    4  A    between atoms: C9_5  and  C10_6 
REMARK    5  A    between atoms: C6_11  and  C5_12 
REMARK    6  A    between atoms: C3_16  and  C13_19 
REMARK    7  A    between atoms: C17_20  and  C18_25 
REMARK    8  A    between atoms: C18_25  and  O1_26 
REMARK    9  A    between atoms: O1_26  and  C19_27 
ROOT
ATOM      1  C13 SIX d   1      15.997  -0.462  52.943  0.00  0.00    -0.020 C 
ATOM      2  C17 SIX d   1      14.871   0.127  53.826  0.00  0.00    -0.002 C 
ATOM      3  C16 SIX d   1      15.188  -0.081  55.304  0.00  0.00     0.087 C 
ATOM      4  N3  SIX d   1      15.366  -1.540  55.553  0.00  0.00    -0.075 N 
ATOM      5  C15 SIX d   1      16.502  -2.061  54.769  0.00  0.00     0.082 C 
ATOM      6  C14 SIX d   1      16.135  -1.950  53.289  0.00  0.00    -0.035 C 
ATOM      7  H14 SIX d   1      16.938   0.058  53.178  0.00  0.00     0.048 H 
ATOM      8  H15 SIX d   1      13.952  -0.428  53.588  0.00  0.00     0.046 H 
ATOM      9  H16 SIX d   1      14.359   0.301  55.918  0.00  0.00     0.076 H 
ATOM     10  H17 SIX d   1      16.113   0.454  55.563  0.00  0.00     0.076 H 
ATOM     11  H18 SIX d   1      14.526  -2.028  55.284  0.00  0.00     0.277 HD
ATOM     12  H19 SIX d   1      15.543  -1.690  56.534  0.00  0.00     0.277 HD
ATOM     13  H20 SIX d   1      16.687  -3.113  55.031  0.00  0.00     0.075 H 
ATOM     14  H21 SIX d   1      17.404  -1.467  54.977  0.00  0.00     0.075 H 
ATOM     15  H22 SIX d   1      16.926  -2.404  52.674  0.00  0.00     0.036 H 
ATOM     16  H23 SIX d   1      15.182  -2.466  53.101  0.00  0.00     0.036 H 
ENDROOT
BRANCH   1  17
ATOM     17  C3  SIX d   1      15.734  -0.322  51.495  0.00  0.00    -0.053 A 
ATOM     18  C4  SIX d   1      14.572  -0.890  50.939  0.00  0.00    -0.067 A 
ATOM     19  C5  SIX d   1      14.294  -0.793  49.577  0.00  0.00    -0.010 A 
ATOM     20  H11 SIX d   1      13.878  -1.415  51.585  0.00  0.00     0.085 H 
ATOM     21  C   SIX d   1      15.204  -0.107  48.759  0.00  0.00     0.123 A 
ATOM     22  F   SIX d   1      14.942   0.001  47.458  0.00  0.00    -0.206 F 
ATOM     23  C1  SIX d   1      16.358   0.467  49.291  0.00  0.00    -0.045 A 
ATOM     24  C2  SIX d   1      16.629   0.358  50.669  0.00  0.00    -0.074 A 
ATOM     25  H13 SIX d   1      17.047   0.998  48.644  0.00  0.00     0.088 H 
ATOM     26  H12 SIX d   1      17.527   0.800  51.085  0.00  0.00     0.084 H 
BRANCH  19  27
ATOM     27  C6  SIX d   1      13.007  -1.417  49.016  0.00  0.00     0.036 C 
ATOM     28  H9  SIX d   1      12.242  -1.434  49.807  0.00  0.00     0.054 H 
ATOM     29  H10 SIX d   1      12.650  -0.806  48.174  0.00  0.00     0.054 H 
BRANCH  27  30
ATOM     30  C7  SIX d   1      13.250  -2.831  48.533  0.00  0.00     0.221 C 
ATOM     31  O   SIX d   1      14.298  -3.133  47.962  0.00  0.00    -0.273 OA
ATOM     32  N   SIX d   1      12.271  -3.697  48.805  0.00  0.00    -0.360 N 
ATOM     33  H1  SIX d   1      11.435  -3.349  49.229  0.00  0.00     0.162 HD
BRANCH  32  34
ATOM     34  C8  SIX d   1      12.359  -5.135  48.513  0.00  0.00    -0.001 C 
ATOM     35  H2  SIX d   1      13.217  -5.545  49.066  0.00  0.00     0.064 H 
ATOM     36  H3  SIX d   1      12.527  -5.256  47.433  0.00  0.00     0.064 H 
BRANCH  34  37
ATOM     37  C9  SIX d   1      11.106  -5.949  48.898  0.00  0.00    -0.024 C 
ATOM     38  H4  SIX d   1      10.213  -5.474  48.465  0.00  0.00     0.042 H 
ATOM     39  H5  SIX d   1      11.011  -5.978  49.993  0.00  0.00     0.042 H 
BRANCH  37  40
ATOM     40  C10 SIX d   1      11.233  -7.355  48.368  0.00  0.00    -0.021 A 
ATOM     41  C12 SIX d   1      10.310  -8.020  47.553  0.00  0.00     0.029 A 
ATOM     42  N2  SIX d   1      10.835  -9.227  47.288  0.00  0.00    -0.187 NA
ATOM     43  H6  SIX d   1       9.354  -7.634  47.203  0.00  0.00     0.118 H 
ATOM     44  N1  SIX d   1      12.076  -9.373  47.939  0.00  0.00    -0.289 N 
ATOM     45  C11 SIX d   1      12.318  -8.213  48.590  0.00  0.00     0.003 A 
ATOM     46  H7  SIX d   1      12.683 -10.205  47.922  0.00  0.00     0.188 HD
ATOM     47  H8  SIX d   1      13.202  -7.985  49.184  0.00  0.00     0.114 H 
ENDBRANCH  37  40
ENDBRANCH  34  37
ENDBRANCH  32  34
ENDBRANCH  27  30
ENDBRANCH  19  27
ENDBRANCH   1  17
BRANCH   2  48
ATOM     48  C18 SIX d   1      14.585   1.585  53.606  0.00  0.00     0.032 C 
ATOM     49  H24 SIX d   1      13.997   1.967  54.453  0.00  0.00     0.075 H 
ATOM     50  H25 SIX d   1      14.008   1.701  52.677  0.00  0.00     0.075 H 
BRANCH  48  51
ATOM     51  O1  SIX d   1      15.797   2.341  53.500  0.00  0.00    -0.351 OA
BRANCH  51  52
ATOM     52  C19 SIX d   1      15.731   3.735  53.506  0.00  0.00     0.071 A 
ATOM     53  C25 SIX d   1      14.538   4.442  53.264  0.00  0.00    -0.016 A 
ATOM     54  C24 SIX d   1      14.551   5.822  53.288  0.00  0.00     0.107 A 
ATOM     55  H26 SIX d   1      13.617   3.907  53.061  0.00  0.00     0.092 H 
ATOM     56  O3  SIX d   1      13.499   6.677  53.074  0.00  0.00    -0.323 OA
ATOM     57  C22 SIX d   1      15.683   6.528  53.559  0.00  0.00     0.105 A 
ATOM     58  C23 SIX d   1      13.984   7.972  53.415  0.00  0.00     0.115 C 
ATOM     59  O2  SIX d   1      15.410   7.862  53.556  0.00  0.00    -0.323 OA
ATOM     60  H27 SIX d   1      13.535   8.306  54.362  0.00  0.00     0.118 H 
ATOM     61  H28 SIX d   1      13.737   8.690  52.619  0.00  0.00     0.118 H 
ATOM     62  C21 SIX d   1      16.879   5.881  53.841  0.00  0.00    -0.045 A 
ATOM     63  C20 SIX d   1      16.885   4.475  53.793  0.00  0.00    -0.048 A 
ATOM     64  H29 SIX d   1      17.775   6.439  54.089  0.00  0.00     0.088 H 
ATOM     65  H30 SIX d   1      17.812   3.947  53.984  0.00  0.00     0.087 H 
ENDBRANCH  51  52
ENDBRANCH  48  51
ENDBRANCH   2  48
TORSDOF 9
