REMARK  7 active torsions:
REMARK  status: ('A' for Active; 'I' for Inactive)
REMARK       I    between atoms: C6_2  and  N_3 
REMARK    1  A    between atoms: C6_2  and  C5_10 
REMARK    2  A    between atoms: N_3  and  C7_4 
REMARK    3  A    between atoms: C7_4  and  C8_5 
REMARK    4  A    between atoms: C3_14  and  C11_17 
REMARK    5  A    between atoms: C15_18  and  C16_23 
REMARK    6  A    between atoms: C16_23  and  O1_24 
REMARK    7  A    between atoms: O1_24  and  C17_25 
ROOT
ATOM      1  C11 T0E d   1     -31.317 -43.790  -6.050  0.00  0.00    -0.020 C 
ATOM      2  C15 T0E d   1     -30.166 -42.952  -6.615  0.00  0.00    -0.002 C 
ATOM      3  C14 T0E d   1     -30.115 -42.947  -8.139  0.00  0.00     0.087 C 
ATOM      4  N3  T0E d   1     -30.091 -44.321  -8.637  0.00  0.00    -0.075 N 
ATOM      5  C13 T0E d   1     -31.303 -45.034  -8.208  0.00  0.00     0.082 C 
ATOM      6  C12 T0E d   1     -31.295 -45.171  -6.690  0.00  0.00    -0.035 C 
ATOM      7  H10 T0E d   1     -32.267 -43.304  -6.316  0.00  0.00     0.048 H 
ATOM      8  H11 T0E d   1     -29.234 -43.406  -6.248  0.00  0.00     0.046 H 
ATOM      9  H12 T0E d   1     -29.208 -42.422  -8.473  0.00  0.00     0.076 H 
ATOM     10  H13 T0E d   1     -31.003 -42.431  -8.533  0.00  0.00     0.076 H 
ATOM     11  H14 T0E d   1     -29.279 -44.794  -8.272  0.00  0.00     0.277 HD
ATOM     12  H15 T0E d   1     -30.049 -44.310  -9.644  0.00  0.00     0.277 HD
ATOM     13  H16 T0E d   1     -31.323 -46.033  -8.667  0.00  0.00     0.075 H 
ATOM     14  H17 T0E d   1     -32.193 -44.468  -8.521  0.00  0.00     0.075 H 
ATOM     15  H18 T0E d   1     -32.182 -45.737  -6.369  0.00  0.00     0.036 H 
ATOM     16  H19 T0E d   1     -30.386 -45.705  -6.376  0.00  0.00     0.036 H 
ENDROOT
BRANCH   1  17
ATOM     17  C3  T0E d   1     -31.234 -43.854  -4.554  0.00  0.00    -0.052 A 
ATOM     18  C4  T0E d   1     -30.243 -44.598  -3.896  0.00  0.00    -0.058 A 
ATOM     19  C5  T0E d   1     -30.157 -44.635  -2.497  0.00  0.00     0.071 A 
ATOM     20  H7  T0E d   1     -29.526 -45.158  -4.484  0.00  0.00     0.086 H 
ATOM     21  C   T0E d   1     -31.082 -43.925  -1.724  0.00  0.00     0.132 A 
ATOM     22  F   T0E d   1     -31.035 -43.940  -0.373  0.00  0.00    -0.205 F 
ATOM     23  C1  T0E d   1     -32.071 -43.173  -2.373  0.00  0.00    -0.044 A 
ATOM     24  C2  T0E d   1     -32.146 -43.135  -3.771  0.00  0.00    -0.073 A 
ATOM     25  H9  T0E d   1     -32.788 -42.613  -1.784  0.00  0.00     0.088 H 
ATOM     26  H8  T0E d   1     -32.917 -42.544  -4.252  0.00  0.00     0.084 H 
BRANCH  19  27
ATOM     27  C6  T0E d   1     -29.078 -45.491  -1.883  0.00  0.00     0.255 C 
ATOM     28  O   T0E d   1     -29.416 -46.283  -1.016  0.00  0.00    -0.268 OA
ATOM     29  N   T0E d   1     -27.822 -45.412  -2.345  0.00  0.00    -0.351 N 
ATOM     30  H1  T0E d   1     -27.612 -44.705  -3.020  0.00  0.00     0.163 HD
BRANCH  29  31
ATOM     31  C7  T0E d   1     -26.748 -46.295  -1.922  0.00  0.00     0.037 C 
ATOM     32  H2  T0E d   1     -26.074 -46.492  -2.769  0.00  0.00     0.073 H 
ATOM     33  H3  T0E d   1     -27.169 -47.244  -1.560  0.00  0.00     0.073 H 
BRANCH  31  34
ATOM     34  C8  T0E d   1     -25.989 -45.625  -0.818  0.00  0.00     0.073 A 
ATOM     35  N2  T0E d   1     -25.362 -44.455  -0.901  0.00  0.00    -0.178 NA
ATOM     36  N1  T0E d   1     -24.759 -44.142   0.322  0.00  0.00    -0.289 N 
ATOM     37  C10 T0E d   1     -25.048 -45.157   1.166  0.00  0.00    -0.002 A 
ATOM     38  H4  T0E d   1     -24.203 -43.302   0.537  0.00  0.00     0.188 HD
ATOM     39  C9  T0E d   1     -25.806 -46.085   0.482  0.00  0.00    -0.040 A 
ATOM     40  H5  T0E d   1     -24.736 -45.230   2.207  0.00  0.00     0.113 H 
ATOM     41  H6  T0E d   1     -26.194 -47.017   0.890  0.00  0.00     0.088 H 
ENDBRANCH  31  34
ENDBRANCH  29  31
ENDBRANCH  19  27
ENDBRANCH   1  17
BRANCH   2  42
ATOM     42  C16 T0E d   1     -30.194 -41.500  -6.150  0.00  0.00     0.032 C 
ATOM     43  H20 T0E d   1     -29.532 -40.922  -6.812  0.00  0.00     0.075 H 
ATOM     44  H21 T0E d   1     -29.804 -41.468  -5.122  0.00  0.00     0.075 H 
BRANCH  42  45
ATOM     45  O1  T0E d   1     -31.479 -40.865  -6.151  0.00  0.00    -0.351 OA
BRANCH  45  46
ATOM     46  C17 T0E d   1     -31.583 -39.489  -6.030  0.00  0.00     0.071 A 
ATOM     47  C23 T0E d   1     -30.511 -38.685  -5.588  0.00  0.00    -0.016 A 
ATOM     48  C22 T0E d   1     -30.680 -37.310  -5.495  0.00  0.00     0.107 A 
ATOM     49  H22 T0E d   1     -29.562 -39.138  -5.323  0.00  0.00     0.092 H 
ATOM     50  O3  T0E d   1     -29.778 -36.371  -5.088  0.00  0.00    -0.323 OA
ATOM     51  C20 T0E d   1     -31.861 -36.720  -5.837  0.00  0.00     0.105 A 
ATOM     52  C21 T0E d   1     -30.387 -35.093  -5.294  0.00  0.00     0.115 C 
ATOM     53  O2  T0E d   1     -31.751 -35.377  -5.658  0.00  0.00    -0.323 OA
ATOM     54  H23 T0E d   1     -29.878 -34.549  -6.103  0.00  0.00     0.118 H 
ATOM     55  H24 T0E d   1     -30.351 -34.496  -4.371  0.00  0.00     0.118 H 
ATOM     56  C19 T0E d   1     -32.939 -37.465  -6.286  0.00  0.00    -0.045 A 
ATOM     57  C18 T0E d   1     -32.790 -38.857  -6.374  0.00  0.00    -0.048 A 
ATOM     58  H25 T0E d   1     -33.871 -36.986  -6.562  0.00  0.00     0.088 H 
ATOM     59  H26 T0E d   1     -33.625 -39.459  -6.715  0.00  0.00     0.087 H 
ENDBRANCH  45  46
ENDBRANCH  42  45
ENDBRANCH   2  42
TORSDOF 7
