REMARK  11 active torsions:
REMARK  status: ('A' for Active; 'I' for Inactive)
REMARK    1  A    between atoms: C1_1  and  C2_2 
REMARK    2  A    between atoms: C1_1  and  C_18 
REMARK    3  A    between atoms: S_31  and  C1_1 
REMARK    4  A    between atoms: C2_2  and  N_17 
REMARK    5  A    between atoms: N_17  and  C3_3 
REMARK    6  A    between atoms: C8_25  and  C11_6 
REMARK    7  A    between atoms: C13_8  and  N2_28 
REMARK    8  A    between atoms: C14_9  and  C15_10 
REMARK       I    between atoms: C15_10  and  N4_30 
REMARK    9  A    between atoms: N4_30  and  C16_11 
REMARK   10  A    between atoms: N_17  and  C4_21 
REMARK   11  A    between atoms: C5_22  and  S_31 
ROOT
ATOM      1  C10 8DY d   1       0.759  -6.080 -16.648  0.00  0.00    -0.061 A 
ATOM      2  C5  8DY d   1       0.751  -5.829 -15.282  0.00  0.00     0.059 A 
ATOM      3  C6  8DY d   1       1.092  -6.821 -14.379  0.00  0.00    -0.061 A 
ATOM      4  C7  8DY d   1       1.442  -8.074 -14.848  0.00  0.00    -0.069 A 
ATOM      5  C8  8DY d   1       1.466  -8.357 -16.215  0.00  0.00    -0.006 A 
ATOM      6  C9  8DY d   1       1.116  -7.338 -17.102  0.00  0.00    -0.069 A 
ATOM      7  H17 8DY d   1       0.489  -5.300 -17.350  0.00  0.00     0.085 H 
ATOM      8  H21 8DY d   1       1.085  -6.618 -13.314  0.00  0.00     0.085 H 
ATOM      9  H22 8DY d   1       1.703  -8.852 -14.140  0.00  0.00     0.085 H 
ATOM     10  H23 8DY d   1       1.124  -7.536 -18.168  0.00  0.00     0.085 H 
ENDROOT
BRANCH   5  11
ATOM     11  C11 8DY d   1       1.871  -9.696 -16.706  0.00  0.00     0.085 A 
ATOM     12  C12 8DY d   1       1.839 -10.837 -15.902  0.00  0.00     0.033 A 
ATOM     13  N1  8DY d   1       2.308 -12.014 -16.314  0.00  0.00    -0.239 NA
ATOM     14  H7  8DY d   1       1.417 -10.762 -14.906  0.00  0.00     0.118 H 
ATOM     15  C13 8DY d   1       2.829 -12.101 -17.558  0.00  0.00     0.155 A 
ATOM     16  C14 8DY d   1       2.858 -10.944 -18.391  0.00  0.00     0.170 A 
ATOM     17  N3  8DY d   1       2.372  -9.766 -17.957  0.00  0.00    -0.237 NA
BRANCH  15  18
ATOM     18  N2  8DY d   1       3.298 -13.288 -17.950  0.00  0.00    -0.382 N 
ATOM     19  H24 8DY d   1       3.255 -14.095 -17.312  0.00  0.00     0.157 HD
ATOM     20  H25 8DY d   1       3.703 -13.397 -18.891  0.00  0.00     0.157 HD
ENDBRANCH  15  18
BRANCH  16  21
ATOM     21  C15 8DY d   1       3.477 -10.918 -19.765  0.00  0.00     0.278 C 
ATOM     22  O2  8DY d   1       4.370 -11.709 -20.062  0.00  0.00    -0.265 OA
ATOM     23  N4  8DY d   1       2.990  -9.997 -20.629  0.00  0.00    -0.322 N 
ATOM     24  H26 8DY d   1       2.248  -9.417 -20.294  0.00  0.00     0.169 HD
BRANCH  23  25
ATOM     25  C16 8DY d   1       3.423  -9.770 -21.958  0.00  0.00     0.035 A 
ATOM     26  C17 8DY d   1       3.055  -8.592 -22.599  0.00  0.00    -0.057 A 
ATOM     27  C18 8DY d   1       3.519  -8.326 -23.878  0.00  0.00    -0.081 A 
ATOM     28  H8  8DY d   1       2.406  -7.882 -22.099  0.00  0.00     0.086 H 
ATOM     29  C19 8DY d   1       4.344  -9.228 -24.525  0.00  0.00    -0.083 A 
ATOM     30  H9  8DY d   1       3.233  -7.405 -24.374  0.00  0.00     0.083 H 
ATOM     31  C20 8DY d   1       4.704 -10.405 -23.895  0.00  0.00    -0.081 A 
ATOM     32  H10 8DY d   1       4.707  -9.013 -25.523  0.00  0.00     0.083 H 
ATOM     33  C21 8DY d   1       4.246 -10.682 -22.617  0.00  0.00    -0.057 A 
ATOM     34  H11 8DY d   1       5.347 -11.114 -24.403  0.00  0.00     0.083 H 
ATOM     35  H12 8DY d   1       4.528 -11.608 -22.129  0.00  0.00     0.086 H 
ENDBRANCH  23  25
ENDBRANCH  16  21
ENDBRANCH   5  11
BRANCH   2  36
ATOM     36  S   8DY d   1       0.332  -4.216 -14.699  0.00  0.00     0.180 S 
ATOM     37  O1  8DY d   1       0.035  -3.387 -15.827  0.00  0.00    -0.222 OA
ATOM     38  O   8DY d   1       1.369  -3.796 -13.784  0.00  0.00    -0.222 OA
BRANCH  36  39
ATOM     39  C1  8DY d   1      -1.184  -4.454 -13.747  0.00  0.00     0.069 C 
ATOM     40  H1  8DY d   1      -1.588  -5.430 -14.053  0.00  0.00     0.066 H 
BRANCH  39  41
ATOM     41  C2  8DY d   1      -2.302  -3.400 -14.041  0.00  0.00     0.098 C 
ATOM     42  H2  8DY d   1      -2.317  -3.192 -15.121  0.00  0.00     0.078 H 
ATOM     43  H3  8DY d   1      -2.070  -2.475 -13.492  0.00  0.00     0.078 H 
BRANCH  41  44
ATOM     44  N   8DY d   1      -3.639  -3.875 -13.629  0.00  0.00    -0.077 N 
ATOM     45  H13 8DY d   1      -3.511  -4.788 -13.221  0.00  0.00     0.279 HD
BRANCH  44  46
ATOM     46  C3  8DY d   1      -4.252  -3.028 -12.610  0.00  0.00     0.066 C 
ATOM     47  H4  8DY d   1      -5.241  -3.430 -12.345  0.00  0.00     0.068 H 
ATOM     48  H5  8DY d   1      -4.365  -2.006 -13.002  0.00  0.00     0.068 H 
ATOM     49  H6  8DY d   1      -3.612  -3.009 -11.715  0.00  0.00     0.068 H 
ENDBRANCH  44  46
BRANCH  44  50
ATOM     50  C4  8DY d   1      -4.546  -4.029 -14.764  0.00  0.00     0.066 C 
ATOM     51  H18 8DY d   1      -4.075  -4.668 -15.525  0.00  0.00     0.068 H 
ATOM     52  H19 8DY d   1      -4.762  -3.041 -15.197  0.00  0.00     0.068 H 
ATOM     53  H20 8DY d   1      -5.483  -4.494 -14.424  0.00  0.00     0.068 H 
ENDBRANCH  44  50
ENDBRANCH  41  44
ENDBRANCH  39  41
BRANCH  39  54
ATOM     54  C   8DY d   1      -0.907  -4.539 -12.253  0.00  0.00    -0.058 C 
ATOM     55  H14 8DY d   1      -1.854  -4.684 -11.712  0.00  0.00     0.029 H 
ATOM     56  H15 8DY d   1      -0.430  -3.607 -11.915  0.00  0.00     0.029 H 
ATOM     57  H16 8DY d   1      -0.237  -5.388 -12.052  0.00  0.00     0.029 H 
ENDBRANCH  39  54
ENDBRANCH  36  39
ENDBRANCH   2  36
TORSDOF 11
