REMARK WARNING: 32 MAX_TORS EXCEEDED!!!
REMARK  56 active torsions:
REMARK  status: ('A' for Active; 'I' for Inactive)
REMARK    1  A    between atoms: C_1  and  CH3_3 
REMARK       I    between atoms: C_1  and  N_4 
REMARK    2  A    between atoms: N_4  and  CA_5 
REMARK    3  A    between atoms: CA_5  and  C_6 
REMARK    4  A    between atoms: CA_5  and  CB_8 
REMARK       I    between atoms: C_6  and  N_16 
REMARK    5  A    between atoms: CB_8  and  CG_9 
REMARK    6  A    between atoms: CZ_14  and  OH_15 
REMARK    7  A    between atoms: N_16  and  CA_17 
REMARK    8  A    between atoms: CA_17  and  C_18 
REMARK       I    between atoms: C_18  and  N_20 
REMARK    9  A    between atoms: N_20  and  CA_21 
REMARK   10  A    between atoms: CA_21  and  C_22 
REMARK   11  A    between atoms: CA_21  and  CB_24 
REMARK       I    between atoms: C_22  and  N_31 
REMARK   12  A    between atoms: CB_24  and  CG_25 
REMARK   13  A    between atoms: CG_25  and  CD_26 
REMARK   14  A    between atoms: CD_26  and  NE_27 
REMARK       I    between atoms: NE_27  and  CZ_28 
REMARK       I    between atoms: CZ_28  and  NH1_29 
REMARK       I    between atoms: CZ_28  and  NH2_30 
REMARK   15  A    between atoms: CA_32  and  C_33 
REMARK       I    between atoms: C_33  and  N_38 
REMARK   16  A    between atoms: CA_39  and  C_40 
REMARK       I    between atoms: C_40  and  N_45 
REMARK   17  A    between atoms: N_45  and  CA_46 
REMARK   18  A    between atoms: CA_46  and  C_47 
REMARK   19  A    between atoms: CA_46  and  CB_49 
REMARK       I    between atoms: C_47  and  N_53 
REMARK   20  A    between atoms: CB_49  and  CG_50 
REMARK   21  A    between atoms: CG_50  and  CD1_51 
REMARK   22  A    between atoms: CG_50  and  CD2_52 
REMARK   23  A    between atoms: CA_54  and  C_55 
REMARK       I    between atoms: C_55  and  N_60 
REMARK   24  A    between atoms: CA_61  and  C_62 
REMARK       I    between atoms: C_62  and  N_67 
REMARK   25  A    between atoms: N_67  and  CA_68 
REMARK   26  A    between atoms: CA_68  and  C_69 
REMARK   27  A    between atoms: CA_68  and  CB_71 
REMARK       I    between atoms: C_69  and  N_76 
REMARK   28  A    between atoms: CB_71  and  CG_72 
REMARK   29  A    between atoms: CG_72  and  CD_73 
REMARK   30  A    between atoms: CD_73  and  CE_74 
REMARK   31  A    between atoms: CE_74  and  NZ_75 
REMARK   32  A    between atoms: N_76  and  CA_77 
REMARK   33  A    between atoms: CA_77  and  C_78 
REMARK   34  A    between atoms: CA_77  and  CB_80 
REMARK       I    between atoms: C_78  and  N_85 
REMARK   35  A    between atoms: CB_80  and  CG_81 
REMARK   36  A    between atoms: CG_81  and  CD_82 
REMARK       I    between atoms: CD_82  and  NE2_84 
REMARK   37  A    between atoms: N_85  and  CA_86 
REMARK   38  A    between atoms: CA_86  and  C_87 
REMARK   39  A    between atoms: CA_86  and  CB_89 
REMARK       I    between atoms: C_87  and  N_94 
REMARK   40  A    between atoms: CB_89  and  CG_90 
REMARK   41  A    between atoms: CG_90  and  CD_91 
REMARK   42  A    between atoms: CD_91  and  CE_92 
REMARK   43  A    between atoms: CE_92  and  NZ_93 
REMARK   44  A    between atoms: N_94  and  CA_95 
REMARK   45  A    between atoms: CA_95  and  C_96 
REMARK   46  A    between atoms: CA_95  and  CB_98 
REMARK       I    between atoms: C_96  and  N_105 
REMARK   47  A    between atoms: CB_98  and  CG_99 
REMARK   48  A    between atoms: CG_99  and  CD_100 
REMARK   49  A    between atoms: CD_100  and  NE_101 
REMARK       I    between atoms: NE_101  and  CZ_102 
REMARK       I    between atoms: CZ_102  and  NH1_103 
REMARK       I    between atoms: CZ_102  and  NH2_104 
REMARK   50  A    between atoms: N_105  and  CA_106 
REMARK   51  A    between atoms: CA_106  and  C_107 
REMARK   52  A    between atoms: CA_106  and  CB_109 
REMARK       I    between atoms: C_107  and  N_114 
REMARK   53  A    between atoms: CB_109  and  CG_110 
REMARK   54  A    between atoms: CG_110  and  CD_111 
REMARK   55  A    between atoms: CD_111  and  CE_112 
REMARK   56  A    between atoms: CE_112  and  NZ_113 
ROOT
ATOM      1  C   PRO d   1      37.867  -5.015   3.483  0.00  0.00     0.243 C 
ATOM      2  O   PRO d   1      37.564  -4.008   2.820  0.00  0.00    -0.271 OA
ATOM      3  N   PRO d   1      37.536  -6.236   3.070  0.00  0.00    -0.337 N 
ATOM      4  CA  PRO d   1      36.623  -6.400   1.934  0.00  0.00     0.091 C 
ATOM      5  CB  PRO d   1      36.422  -7.918   1.858  0.00  0.00    -0.036 C 
ATOM      6  CG  PRO d   1      37.601  -8.510   2.566  0.00  0.00    -0.048 C 
ATOM      7  CD  PRO d   1      38.012  -7.523   3.616  0.00  0.00    -0.001 C 
ATOM      8  H61 PRO d   1      37.069  -6.011   1.007  0.00  0.00     0.087 H 
ATOM      9  H62 PRO d   1      36.395  -8.251   0.810  0.00  0.00     0.036 H 
ATOM     10  H63 PRO d   1      35.487  -8.208   2.359  0.00  0.00     0.036 H 
ATOM     11  H64 PRO d   1      38.426  -8.675   1.857  0.00  0.00     0.035 H 
ATOM     12  H65 PRO d   1      37.322  -9.466   3.033  0.00  0.00     0.035 H 
ATOM     13  H66 PRO d   1      37.529  -7.747   4.579  0.00  0.00     0.064 H 
ATOM     14  H67 PRO d   1      39.104  -7.517   3.746  0.00  0.00     0.064 H 
ENDROOT
BRANCH   1  15
ATOM     15  CA  PRO d   1      38.615  -4.887   4.796  0.00  0.00     0.092 C 
ATOM     16  N   PRO d   1      39.542  -3.758   4.768  0.00  0.00    -0.337 N 
ATOM     17  C   LEU d   1      40.669  -3.846   4.063  0.00  0.00     0.243 C 
ATOM     18  CD  PRO d   1      39.144  -2.678   5.688  0.00  0.00    -0.001 C 
ATOM     19  O   LEU d   1      40.906  -4.828   3.345  0.00  0.00    -0.271 OA
ATOM     20  CG  PRO d   1      37.727  -3.032   6.007  0.00  0.00    -0.048 C 
ATOM     21  H59 PRO d   1      39.208  -1.695   5.199  0.00  0.00     0.064 H 
ATOM     22  H60 PRO d   1      39.767  -2.678   6.594  0.00  0.00     0.064 H 
ATOM     23  CB  PRO d   1      37.653  -4.521   5.941  0.00  0.00    -0.036 C 
ATOM     24  H57 PRO d   1      37.462  -2.680   7.015  0.00  0.00     0.035 H 
ATOM     25  H58 PRO d   1      37.045  -2.582   5.271  0.00  0.00     0.035 H 
ATOM     26  H55 PRO d   1      37.982  -4.972   6.889  0.00  0.00     0.036 H 
ATOM     27  H56 PRO d   1      36.629  -4.853   5.713  0.00  0.00     0.036 H 
ATOM     28  H54 PRO d   1      39.145  -5.827   5.010  0.00  0.00     0.087 H 
BRANCH  17  29
ATOM     29  CA  LEU d   1      41.651  -2.684   4.110  0.00  0.00     0.090 C 
ATOM     30  H44 LEU d   1      41.408  -2.033   4.963  0.00  0.00     0.087 H 
BRANCH  29  31
ATOM     31  N   LEU d   1      43.008  -3.193   4.269  0.00  0.00    -0.346 N 
ATOM     32  C   PRO d   1      43.362  -3.851   5.366  0.00  0.00     0.241 C 
ATOM     33  O   PRO d   1      42.612  -4.002   6.333  0.00  0.00    -0.271 OA
ATOM     34  H43 LEU d   1      43.680  -3.045   3.543  0.00  0.00     0.163 HD
BRANCH  32  35
ATOM     35  CA  PRO d   1      44.795  -4.361   5.372  0.00  0.00     0.091 C 
ATOM     36  N   PRO d   1      45.269  -4.564   6.744  0.00  0.00    -0.337 N 
ATOM     37  C   PRO d   1      45.431  -3.516   7.546  0.00  0.00     0.243 C 
ATOM     38  CD  PRO d   1      45.611  -5.968   7.033  0.00  0.00    -0.001 C 
ATOM     39  O   PRO d   1      45.219  -2.361   7.142  0.00  0.00    -0.271 OA
ATOM     40  CG  PRO d   1      45.020  -6.709   5.867  0.00  0.00    -0.048 C 
ATOM     41  H41 PRO d   1      45.159  -6.298   7.980  0.00  0.00     0.064 H 
ATOM     42  H42 PRO d   1      46.701  -6.108   7.078  0.00  0.00     0.064 H 
ATOM     43  CB  PRO d   1      44.903  -5.752   4.728  0.00  0.00    -0.036 C 
ATOM     44  H39 PRO d   1      45.675  -7.547   5.586  0.00  0.00     0.035 H 
ATOM     45  H40 PRO d   1      44.025  -7.095   6.135  0.00  0.00     0.035 H 
ATOM     46  H37 PRO d   1      45.793  -5.810   4.084  0.00  0.00     0.036 H 
ATOM     47  H38 PRO d   1      44.005  -5.971   4.132  0.00  0.00     0.036 H 
ATOM     48  H36 PRO d   1      45.437  -3.641   4.843  0.00  0.00     0.087 H 
BRANCH  37  49
ATOM     49  CA  PRO d   1      45.882  -3.768   8.973  0.00  0.00     0.092 C 
ATOM     50  N   PRO d   1      46.581  -2.604   9.509  0.00  0.00    -0.337 N 
ATOM     51  C   ARG d   1      47.775  -2.265   9.024  0.00  0.00     0.243 C 
ATOM     52  CD  PRO d   1      45.864  -1.983  10.638  0.00  0.00    -0.001 C 
ATOM     53  O   ARG d   1      48.303  -2.904   8.099  0.00  0.00    -0.271 OA
ATOM     54  CG  PRO d   1      44.505  -2.596  10.556  0.00  0.00    -0.048 C 
ATOM     55  H34 PRO d   1      45.812  -0.891  10.520  0.00  0.00     0.064 H 
ATOM     56  H35 PRO d   1      46.349  -2.225  11.595  0.00  0.00     0.064 H 
ATOM     57  CB  PRO d   1      44.677  -3.923   9.916  0.00  0.00    -0.036 C 
ATOM     58  H32 PRO d   1      44.080  -2.713  11.564  0.00  0.00     0.035 H 
ATOM     59  H33 PRO d   1      43.840  -1.965   9.948  0.00  0.00     0.035 H 
ATOM     60  H30 PRO d   1      44.879  -4.693  10.675  0.00  0.00     0.036 H 
ATOM     61  H31 PRO d   1      43.776  -4.196   9.347  0.00  0.00     0.036 H 
ATOM     62  H29 PRO d   1      46.523  -4.662   9.003  0.00  0.00     0.087 H 
BRANCH  51  63
ATOM     63  CA  ARG d   1      48.508  -1.079   9.626  0.00  0.00     0.089 C 
ATOM     64  H17 ARG d   1      47.827  -0.522  10.287  0.00  0.00     0.087 H 
BRANCH  63  65
ATOM     65  N   ARG d   1      49.631  -1.584  10.401  0.00  0.00    -0.346 N 
ATOM     66  C   GLY d   1      49.658  -1.521  11.725  0.00  0.00     0.236 C 
ATOM     67  O   GLY d   1      48.744  -1.032  12.392  0.00  0.00    -0.272 OA
ATOM     68  H16 ARG d   1      50.407  -1.992   9.920  0.00  0.00     0.163 HD
BRANCH  66  69
ATOM     69  CA  GLY d   1      50.906  -2.091  12.360  0.00  0.00     0.069 C 
ATOM     70  H14 GLY d   1      51.131  -3.062  11.895  0.00  0.00     0.078 H 
ATOM     71  H15 GLY d   1      51.743  -1.398  12.186  0.00  0.00     0.078 H 
BRANCH  69  72
ATOM     72  N   GLY d   1      50.743  -2.279  13.775  0.00  0.00    -0.351 N 
ATOM     73  C   TYR d   1      50.124  -3.356  14.252  0.00  0.00     0.241 C 
ATOM     74  O   TYR d   1      49.623  -4.211  13.532  0.00  0.00    -0.271 OA
ATOM     75  H13 GLY d   1      51.099  -1.592  14.409  0.00  0.00     0.163 HD
BRANCH  73  76
ATOM     76  CA  TYR d   1      50.069  -3.484  15.769  0.00  0.00     0.093 C 
ATOM     77  H5  TYR d   1      49.874  -4.535  16.030  0.00  0.00     0.088 H 
BRANCH  76  78
ATOM     78  N   TYR d   1      51.340  -3.080  16.357  0.00  0.00    -0.348 N 
ATOM     79  C   ACE d   1      52.456  -3.762  16.124  0.00  0.00     0.214 C 
ATOM     80  O   ACE d   1      52.468  -4.766  15.422  0.00  0.00    -0.274 OA
ATOM     81  H4  TYR d   1      51.373  -2.274  16.947  0.00  0.00     0.163 HD
BRANCH  79  82
ATOM     82  CH3 ACE d   1      53.697  -3.236  16.779  0.00  0.00    -0.003 C 
ATOM     83  H1  ACE d   1      53.452  -2.333  17.357  0.00  0.00     0.040 H 
ATOM     84  H2  ACE d   1      54.441  -2.987  16.008  0.00  0.00     0.040 H 
ATOM     85  H3  ACE d   1      54.109  -4.002  17.453  0.00  0.00     0.040 H 
ENDBRANCH  79  82
ENDBRANCH  76  78
BRANCH  76  86
ATOM     86  CB  TYR d   1      48.943  -2.619  16.327  0.00  0.00    -0.014 C 
ATOM     87  H6  TYR d   1      49.160  -1.571  16.073  0.00  0.00     0.043 H 
ATOM     88  H7  TYR d   1      48.933  -2.736  17.421  0.00  0.00     0.043 H 
BRANCH  86  89
ATOM     89  CG  TYR d   1      47.565  -2.950  15.809  0.00  0.00    -0.056 A 
ATOM     90  CD1 TYR d   1      46.938  -4.136  16.155  0.00  0.00    -0.074 A 
ATOM     91  CE1 TYR d   1      45.654  -4.420  15.697  0.00  0.00    -0.051 A 
ATOM     92  H8  TYR d   1      47.452  -4.850  16.788  0.00  0.00     0.084 H 
ATOM     93  CZ  TYR d   1      44.999  -3.506  14.895  0.00  0.00     0.065 A 
ATOM     94  H10 TYR d   1      45.172  -5.352  15.968  0.00  0.00     0.087 H 
ATOM     95  CE2 TYR d   1      45.605  -2.328  14.545  0.00  0.00    -0.051 A 
ATOM     96  CD2 TYR d   1      46.877  -2.053  15.013  0.00  0.00    -0.074 A 
ATOM     97  H11 TYR d   1      45.092  -1.618  13.907  0.00  0.00     0.087 H 
ATOM     98  H9  TYR d   1      47.346  -1.112  14.749  0.00  0.00     0.084 H 
BRANCH  93  99
ATOM     99  OH  TYR d   1      43.726  -3.772  14.434  0.00  0.00    -0.361 OA
ATOM    100  H12 TYR d   1      43.131  -3.099  14.743  0.00  0.00     0.217 HD
ENDBRANCH  93  99
ENDBRANCH  86  89
ENDBRANCH  76  86
ENDBRANCH  73  76
ENDBRANCH  69  72
ENDBRANCH  66  69
ENDBRANCH  63  65
BRANCH  63 101
ATOM    101  CB  ARG d   1      49.001  -0.151   8.521  0.00  0.00    -0.036 C 
ATOM    102  H18 ARG d   1      49.621  -0.736   7.825  0.00  0.00     0.036 H 
ATOM    103  H19 ARG d   1      49.611   0.642   8.978  0.00  0.00     0.036 H 
BRANCH 101 104
ATOM    104  CG  ARG d   1      47.874   0.503   7.730  0.00  0.00    -0.048 C 
ATOM    105  H20 ARG d   1      47.141   0.925   8.433  0.00  0.00     0.035 H 
ATOM    106  H21 ARG d   1      47.386  -0.259   7.104  0.00  0.00     0.035 H 
BRANCH 104 107
ATOM    107  CD  ARG d   1      48.401   1.614   6.837  0.00  0.00     0.009 C 
ATOM    108  H22 ARG d   1      49.255   1.231   6.259  0.00  0.00     0.064 H 
ATOM    109  H23 ARG d   1      48.732   2.451   7.469  0.00  0.00     0.064 H 
BRANCH 107 110
ATOM    110  NE  ARG d   1      47.384   2.097   5.910  0.00  0.00    -0.227 N 
ATOM    111  CZ  ARG d   1      47.310   3.347   5.460  0.00  0.00     0.665 C 
ATOM    112  NH1 ARG d   1      48.189   4.258   5.864  0.00  0.00    -0.235 N 
ATOM    113  NH2 ARG d   1      46.346   3.691   4.614  0.00  0.00    -0.235 N 
ATOM    114  H25 ARG d   1      48.127   5.224   5.513  0.00  0.00     0.174 HD
ATOM    115  H26 ARG d   1      48.932   3.998   6.528  0.00  0.00     0.174 HD
ATOM    116  H27 ARG d   1      45.663   2.988   4.298  0.00  0.00     0.174 HD
ATOM    117  H28 ARG d   1      46.282   4.661   4.273  0.00  0.00     0.174 HD
ATOM    118  H24 ARG d   1      46.675   1.425   5.582  0.00  0.00     0.177 HD
ENDBRANCH 107 110
ENDBRANCH 104 107
ENDBRANCH 101 104
ENDBRANCH  63 101
ENDBRANCH  51  63
ENDBRANCH  37  49
ENDBRANCH  32  35
ENDBRANCH  29  31
BRANCH  29 119
ATOM    119  CB  LEU d   1      41.525  -1.886   2.811  0.00  0.00    -0.035 C 
ATOM    120  H45 LEU d   1      40.504  -2.056   2.438  0.00  0.00     0.037 H 
ATOM    121  H46 LEU d   1      42.249  -2.320   2.106  0.00  0.00     0.037 H 
BRANCH 119 122
ATOM    122  CG  LEU d   1      41.750  -0.372   2.787  0.00  0.00    -0.059 C 
ATOM    123  H47 LEU d   1      42.794  -0.174   3.070  0.00  0.00     0.038 H 
BRANCH 122 124
ATOM    124  CD1 LEU d   1      41.520   0.141   1.379  0.00  0.00    -0.073 C 
ATOM    125  H48 LEU d   1      41.680   1.229   1.355  0.00  0.00     0.028 H 
ATOM    126  H49 LEU d   1      40.489  -0.085   1.070  0.00  0.00     0.028 H 
ATOM    127  H50 LEU d   1      42.224  -0.349   0.691  0.00  0.00     0.028 H 
ENDBRANCH 122 124
BRANCH 122 128
ATOM    128  CD2 LEU d   1      40.851   0.366   3.761  0.00  0.00    -0.073 C 
ATOM    129  H51 LEU d   1      41.025  -0.013   4.779  0.00  0.00     0.028 H 
ATOM    130  H52 LEU d   1      39.799   0.204   3.484  0.00  0.00     0.028 H 
ATOM    131  H53 LEU d   1      41.078   1.442   3.726  0.00  0.00     0.028 H 
ENDBRANCH 122 128
ENDBRANCH 119 122
ENDBRANCH  29 119
ENDBRANCH  17  29
ENDBRANCH   1  15
BRANCH   4 132
ATOM    132  C   PRO d   1      35.301  -5.697   2.201  0.00  0.00     0.241 C 
ATOM    133  O   PRO d   1      34.848  -5.594   3.344  0.00  0.00    -0.271 OA
ATOM    134  N   LYS d   1      34.687  -5.197   1.130  0.00  0.00    -0.346 N 
ATOM    135  H68 LYS d   1      35.164  -5.198   0.251  0.00  0.00     0.163 HD
BRANCH 134 136
ATOM    136  CA  LYS d   1      33.336  -4.647   1.203  0.00  0.00     0.089 C 
ATOM    137  H69 LYS d   1      33.144  -4.287   2.224  0.00  0.00     0.087 H 
BRANCH 136 138
ATOM    138  C   LYS d   1      32.345  -5.745   0.854  0.00  0.00     0.241 C 
ATOM    139  O   LYS d   1      32.461  -6.380  -0.196  0.00  0.00    -0.271 OA
ATOM    140  N   GLN d   1      31.374  -5.974   1.738  0.00  0.00    -0.346 N 
ATOM    141  H81 GLN d   1      31.284  -5.403   2.554  0.00  0.00     0.163 HD
BRANCH 140 142
ATOM    142  CA  GLN d   1      30.448  -7.070   1.495  0.00  0.00     0.090 C 
ATOM    143  H82 GLN d   1      31.014  -7.894   1.037  0.00  0.00     0.087 H 
BRANCH 142 144
ATOM    144  C   GLN d   1      29.339  -6.675   0.532  0.00  0.00     0.241 C 
ATOM    145  O   GLN d   1      28.779  -7.547  -0.143  0.00  0.00    -0.271 OA
ATOM    146  N   LYS d   1      28.991  -5.387   0.481  0.00  0.00    -0.346 N 
ATOM    147  H89 LYS d   1      29.397  -4.759   1.145  0.00  0.00     0.163 HD
BRANCH 146 148
ATOM    148  CA  LYS d   1      28.043  -4.845  -0.499  0.00  0.00     0.089 C 
ATOM    149  H90 LYS d   1      27.870  -3.797  -0.212  0.00  0.00     0.087 H 
BRANCH 148 150
ATOM    150  C   LYS d   1      26.674  -5.529  -0.465  0.00  0.00     0.241 C 
ATOM    151  O   LYS d   1      26.007  -5.657  -1.493  0.00  0.00    -0.271 OA
ATOM    152  N   ARG d   1      26.217  -5.969   0.700  0.00  0.00    -0.346 N 
ATOM    153 2H10 ARG d   1      26.780  -5.891   1.522  0.00  0.00     0.163 HD
BRANCH 152 154
ATOM    154  CA  ARG d   1      24.891  -6.567   0.776  0.00  0.00     0.089 C 
ATOM    155 3H10 ARG d   1      24.766  -7.259  -0.070  0.00  0.00     0.087 H 
BRANCH 154 156
ATOM    156  C   ARG d   1      23.810  -5.496   0.707  0.00  0.00     0.241 C 
ATOM    157  O   ARG d   1      23.977  -4.384   1.208  0.00  0.00    -0.271 OA
ATOM    158  N   LYS d   1      22.678  -5.851   0.101  0.00  0.00    -0.346 N 
ATOM    159 5H11 LYS d   1      22.621  -6.733  -0.367  0.00  0.00     0.163 HD
BRANCH 158 160
ATOM    160  CA  LYS d   1      21.527  -4.967   0.115  0.00  0.00     0.089 C 
ATOM    161 6H11 LYS d   1      21.841  -3.960  -0.197  0.00  0.00     0.087 H 
BRANCH 160 162
ATOM    162  C   LYS d   1      21.001  -4.910   1.540  0.00  0.00     0.238 C 
ATOM    163  O   LYS d   1      20.903  -5.934   2.212  0.00  0.00    -0.271 OA
ATOM    164  N   NH2 d   1      20.692  -3.706   2.008  0.00  0.00    -0.368 N 
ATOM    165 8H12 NH2 d   1      20.341  -3.606   2.939  0.00  0.00     0.159 HD
ATOM    166 9H12 NH2 d   1      20.810  -2.899   1.429  0.00  0.00     0.159 HD
ENDBRANCH 160 162
BRANCH 160 167
ATOM    167  CB  LYS d   1      20.440  -5.459  -0.843  0.00  0.00    -0.038 C 
ATOM    168 7H11 LYS d   1      19.844  -6.229  -0.331  0.00  0.00     0.036 H 
ATOM    169 8H11 LYS d   1      20.925  -5.899  -1.727  0.00  0.00     0.036 H 
BRANCH 167 170
ATOM    170  CG  LYS d   1      19.502  -4.348  -1.307  0.00  0.00    -0.061 C 
ATOM    171 9H11 LYS d   1      20.109  -3.504  -1.667  0.00  0.00     0.033 H 
ATOM    172 0H12 LYS d   1      18.892  -4.023  -0.451  0.00  0.00     0.033 H 
BRANCH 170 173
ATOM    173  CD  LYS d   1      18.567  -4.790  -2.431  0.00  0.00    -0.043 C 
ATOM    174 1H12 LYS d   1      17.763  -5.409  -2.006  0.00  0.00     0.035 H 
ATOM    175 2H12 LYS d   1      19.138  -5.382  -3.161  0.00  0.00     0.035 H 
BRANCH 173 176
ATOM    176  CE  LYS d   1      17.945  -3.581  -3.144  0.00  0.00     0.080 C 
ATOM    177 3H12 LYS d   1      17.412  -2.971  -2.400  0.00  0.00     0.075 H 
ATOM    178 4H12 LYS d   1      17.232  -3.947  -3.898  0.00  0.00     0.075 H 
BRANCH 176 179
ATOM    179  NZ  LYS d   1      18.966  -2.717  -3.829  0.00  0.00    -0.079 N 
ATOM    180 5H12 LYS d   1      18.503  -1.942  -4.278  0.00  0.00     0.274 HD
ATOM    181 6H12 LYS d   1      19.457  -3.261  -4.520  0.00  0.00     0.274 HD
ATOM    182 7H12 LYS d   1      19.622  -2.368  -3.148  0.00  0.00     0.274 HD
ENDBRANCH 176 179
ENDBRANCH 173 176
ENDBRANCH 170 173
ENDBRANCH 167 170
ENDBRANCH 160 167
ENDBRANCH 158 160
ENDBRANCH 154 156
BRANCH 154 183
ATOM    183  CB  ARG d   1      24.730  -7.338   2.082  0.00  0.00    -0.036 C 
ATOM    184 4H10 ARG d   1      23.758  -7.852   2.062  0.00  0.00     0.036 H 
ATOM    185 5H10 ARG d   1      24.747  -6.617   2.913  0.00  0.00     0.036 H 
BRANCH 183 186
ATOM    186  CG  ARG d   1      25.802  -8.366   2.328  0.00  0.00    -0.048 C 
ATOM    187 6H10 ARG d   1      25.552  -8.935   3.235  0.00  0.00     0.035 H 
ATOM    188 7H10 ARG d   1      26.765  -7.854   2.470  0.00  0.00     0.035 H 
BRANCH 186 189
ATOM    189  CD  ARG d   1      25.920  -9.327   1.156  0.00  0.00     0.009 C 
ATOM    190 8H10 ARG d   1      26.263  -8.773   0.270  0.00  0.00     0.064 H 
ATOM    191 9H10 ARG d   1      24.934  -9.770   0.953  0.00  0.00     0.064 H 
BRANCH 189 192
ATOM    192  NE  ARG d   1      26.873 -10.397   1.451  0.00  0.00    -0.227 N 
ATOM    193  CZ  ARG d   1      27.368 -11.244   0.553  0.00  0.00     0.665 C 
ATOM    194  NH1 ARG d   1      28.233 -12.179   0.934  0.00  0.00    -0.235 N 
ATOM    195  NH2 ARG d   1      27.010 -11.157  -0.724  0.00  0.00    -0.235 N 
ATOM    196 1H11 ARG d   1      28.619 -12.837   0.241  0.00  0.00     0.174 HD
ATOM    197 2H11 ARG d   1      28.518 -12.246   1.922  0.00  0.00     0.174 HD
ATOM    198 3H11 ARG d   1      26.340 -10.434  -1.023  0.00  0.00     0.174 HD
ATOM    199 4H11 ARG d   1      27.402 -11.813  -1.415  0.00  0.00     0.174 HD
ATOM    200 0H11 ARG d   1      27.184 -10.502   2.427  0.00  0.00     0.177 HD
ENDBRANCH 189 192
ENDBRANCH 186 189
ENDBRANCH 183 186
ENDBRANCH 154 183
ENDBRANCH 152 154
ENDBRANCH 148 150
BRANCH 148 201
ATOM    201  CB  LYS d   1      28.631  -4.817  -1.914  0.00  0.00    -0.038 C 
ATOM    202  H91 LYS d   1      27.872  -4.418  -2.603  0.00  0.00     0.036 H 
ATOM    203  H92 LYS d   1      28.890  -5.845  -2.209  0.00  0.00     0.036 H 
BRANCH 201 204
ATOM    204  CG  LYS d   1      29.875  -3.956  -2.010  0.00  0.00    -0.061 C 
ATOM    205  H93 LYS d   1      30.654  -4.390  -1.367  0.00  0.00     0.033 H 
ATOM    206  H94 LYS d   1      29.630  -2.943  -1.657  0.00  0.00     0.033 H 
BRANCH 204 207
ATOM    207  CD  LYS d   1      30.412  -3.860  -3.425  0.00  0.00    -0.043 C 
ATOM    208  H95 LYS d   1      29.598  -3.568  -4.105  0.00  0.00     0.035 H 
ATOM    209  H96 LYS d   1      30.812  -4.838  -3.731  0.00  0.00     0.035 H 
BRANCH 207 210
ATOM    210  CE  LYS d   1      31.524  -2.816  -3.489  0.00  0.00     0.080 C 
ATOM    211  H97 LYS d   1      32.274  -3.058  -2.721  0.00  0.00     0.075 H 
ATOM    212  H98 LYS d   1      31.088  -1.829  -3.277  0.00  0.00     0.075 H 
BRANCH 210 213
ATOM    213  NZ  LYS d   1      32.205  -2.757  -4.812  0.00  0.00    -0.079 N 
ATOM    214  H99 LYS d   1      32.925  -2.052  -4.788  0.00  0.00     0.274 HD
ATOM    215 0H10 LYS d   1      31.532  -2.526  -5.526  0.00  0.00     0.274 HD
ATOM    216 1H10 LYS d   1      32.619  -3.653  -5.017  0.00  0.00     0.274 HD
ENDBRANCH 210 213
ENDBRANCH 207 210
ENDBRANCH 204 207
ENDBRANCH 201 204
ENDBRANCH 148 201
ENDBRANCH 146 148
ENDBRANCH 142 144
BRANCH 142 217
ATOM    217  CB  GLN d   1      29.860  -7.571   2.811  0.00  0.00    -0.030 C 
ATOM    218  H83 GLN d   1      29.215  -8.436   2.597  0.00  0.00     0.037 H 
ATOM    219  H84 GLN d   1      29.256  -6.764   3.252  0.00  0.00     0.037 H 
BRANCH 217 220
ATOM    220  CG  GLN d   1      30.907  -7.993   3.823  0.00  0.00     0.011 C 
ATOM    221  H85 GLN d   1      30.402  -8.242   4.768  0.00  0.00     0.047 H 
ATOM    222  H86 GLN d   1      31.597  -7.152   3.986  0.00  0.00     0.047 H 
BRANCH 220 223
ATOM    223  CD  GLN d   1      31.705  -9.192   3.372  0.00  0.00     0.215 C 
ATOM    224  OE1 GLN d   1      31.178 -10.076   2.686  0.00  0.00    -0.274 OA
ATOM    225  NE2 GLN d   1      32.983  -9.236   3.751  0.00  0.00    -0.370 N 
ATOM    226  H87 GLN d   1      33.559 -10.008   3.480  0.00  0.00     0.159 HD
ATOM    227  H88 GLN d   1      33.366  -8.497   4.306  0.00  0.00     0.159 HD
ENDBRANCH 220 223
ENDBRANCH 217 220
ENDBRANCH 142 217
ENDBRANCH 140 142
ENDBRANCH 136 138
BRANCH 136 228
ATOM    228  CB  LYS d   1      33.168  -3.487   0.220  0.00  0.00    -0.038 C 
ATOM    229  H70 LYS d   1      32.100  -3.229   0.170  0.00  0.00     0.036 H 
ATOM    230  H71 LYS d   1      33.511  -3.822  -0.770  0.00  0.00     0.036 H 
BRANCH 228 231
ATOM    231  CG  LYS d   1      33.941  -2.239   0.593  0.00  0.00    -0.061 C 
ATOM    232  H72 LYS d   1      35.017  -2.467   0.593  0.00  0.00     0.033 H 
ATOM    233  H73 LYS d   1      33.635  -1.911   1.597  0.00  0.00     0.033 H 
BRANCH 231 234
ATOM    234  CD  LYS d   1      33.668  -1.127  -0.398  0.00  0.00    -0.043 C 
ATOM    235  H74 LYS d   1      32.583  -0.959  -0.470  0.00  0.00     0.035 H 
ATOM    236  H75 LYS d   1      34.061  -1.411  -1.385  0.00  0.00     0.035 H 
BRANCH 234 237
ATOM    237  CE  LYS d   1      34.348   0.148   0.069  0.00  0.00     0.080 C 
ATOM    238  H76 LYS d   1      35.439   0.031  -0.006  0.00  0.00     0.075 H 
ATOM    239  H77 LYS d   1      34.072   0.350   1.114  0.00  0.00     0.075 H 
BRANCH 237 240
ATOM    240  NZ  LYS d   1      33.911   1.276  -0.786  0.00  0.00    -0.079 N 
ATOM    241  H78 LYS d   1      34.361   2.124  -0.479  0.00  0.00     0.274 HD
ATOM    242  H79 LYS d   1      32.911   1.382  -0.717  0.00  0.00     0.274 HD
ATOM    243  H80 LYS d   1      34.164   1.089  -1.744  0.00  0.00     0.274 HD
ENDBRANCH 237 240
ENDBRANCH 234 237
ENDBRANCH 231 234
ENDBRANCH 228 231
ENDBRANCH 136 228
ENDBRANCH 134 136
ENDBRANCH   4 132
TORSDOF 56
