REMARK  14 active torsions:
REMARK  status: ('A' for Active; 'I' for Inactive)
REMARK    1  A    between atoms: C8_9  and  C9_1 
REMARK    2  A    between atoms: C9_1  and  C10_10 
REMARK    3  A    between atoms: C7_2  and  C11_8 
REMARK    4  A    between atoms: C7_2  and  C8_9 
REMARK    5  A    between atoms: C6_11  and  C7_2 
REMARK    6  A    between atoms: C5_3  and  O1_12 
REMARK    7  A    between atoms: C2_17  and  C1_4 
REMARK    8  A    between atoms: C1_4  and  C_19 
REMARK    9  A    between atoms: C12_7  and  O2_6 
REMARK   10  A    between atoms: C11_8  and  C12_7 
REMARK   11  A    between atoms: O1_12  and  C6_11 
REMARK   12  A    between atoms: C3_16  and  C2_17 
REMARK   13  A    between atoms: C2_17  and  O_18 
REMARK   14  A    between atoms: C_19  and  N_20 
ROOT
ATOM      1  C5  8E4 d   1     -39.380 135.402   9.891  0.00  0.00     0.069 A 
ATOM      2  C15 8E4 d   1     -37.809 133.768  11.477  0.00  0.00    -0.074 A 
ATOM      3  C4  8E4 d   1     -38.470 134.510   9.302  0.00  0.00    -0.042 A 
ATOM      4  C13 8E4 d   1     -39.495 135.474  11.268  0.00  0.00    -0.051 A 
ATOM      5  C14 8E4 d   1     -38.699 134.661  12.053  0.00  0.00    -0.080 A 
ATOM      6  C3  8E4 d   1     -37.697 133.659  10.100  0.00  0.00    -0.027 A 
ATOM      7  H6  8E4 d   1     -37.191 133.145  12.114  0.00  0.00     0.084 H 
ATOM      8  H19 8E4 d   1     -38.365 134.480   8.223  0.00  0.00     0.088 H 
ATOM      9  H20 8E4 d   1     -40.200 136.159  11.725  0.00  0.00     0.087 H 
ATOM     10  H21 8E4 d   1     -38.772 134.723  13.133  0.00  0.00     0.083 H 
ENDROOT
BRANCH   1  11
ATOM     11  O1  8E4 d   1     -40.149 136.253   9.122  0.00  0.00    -0.351 OA
BRANCH  11  12
ATOM     12  C6  8E4 d   1     -40.110 136.212   7.686  0.00  0.00     0.029 C 
ATOM     13  H17 8E4 d   1     -39.097 136.460   7.337  0.00  0.00     0.075 H 
ATOM     14  H18 8E4 d   1     -40.382 135.204   7.338  0.00  0.00     0.075 H 
BRANCH  12  15
ATOM     15  C7  8E4 d   1     -41.099 137.224   7.137  0.00  0.00    -0.031 C 
ATOM     16  H3  8E4 d   1     -41.273 136.978   6.079  0.00  0.00     0.043 H 
BRANCH  15  17
ATOM     17  C11 8E4 d   1     -40.442 138.605   7.214  0.00  0.00    -0.040 C 
ATOM     18  H10 8E4 d   1     -39.369 138.494   7.000  0.00  0.00     0.036 H 
ATOM     19  H11 8E4 d   1     -40.574 138.999   8.232  0.00  0.00     0.036 H 
BRANCH  17  20
ATOM     20  C12 8E4 d   1     -41.028 139.596   6.235  0.00  0.00     0.017 C 
ATOM     21  H8  8E4 d   1     -40.539 139.460   5.259  0.00  0.00     0.073 H 
ATOM     22  H9  8E4 d   1     -42.105 139.399   6.136  0.00  0.00     0.073 H 
BRANCH  20  23
ATOM     23  O2  8E4 d   1     -40.847 140.948   6.653  0.00  0.00    -0.401 OA
ATOM     24  H7  8E4 d   1     -41.230 141.531   6.009  0.00  0.00     0.209 HD
ENDBRANCH  20  23
ENDBRANCH  17  20
ENDBRANCH  15  17
BRANCH  15  25
ATOM     25  C8  8E4 d   1     -42.478 137.241   7.829  0.00  0.00    -0.060 C 
ATOM     26  H12 8E4 d   1     -42.314 137.377   8.908  0.00  0.00     0.033 H 
ATOM     27  H13 8E4 d   1     -43.045 138.097   7.434  0.00  0.00     0.033 H 
BRANCH  25  28
ATOM     28  C9  8E4 d   1     -43.319 135.994   7.637  0.00  0.00    -0.068 C 
ATOM     29  H1  8E4 d   1     -42.835 135.160   8.167  0.00  0.00     0.032 H 
ATOM     30  H2  8E4 d   1     -43.368 135.767   6.562  0.00  0.00     0.032 H 
BRANCH  28  31
ATOM     31  C10 8E4 d   1     -44.749 136.146   8.169  0.00  0.00    -0.077 C 
ATOM     32  H14 8E4 d   1     -45.304 135.212   8.000  0.00  0.00     0.027 H 
ATOM     33  H15 8E4 d   1     -45.251 136.971   7.642  0.00  0.00     0.027 H 
ATOM     34  H16 8E4 d   1     -44.718 136.365   9.247  0.00  0.00     0.027 H 
ENDBRANCH  28  31
ENDBRANCH  25  28
ENDBRANCH  15  25
ENDBRANCH  12  15
ENDBRANCH  11  12
ENDBRANCH   1  11
BRANCH   6  35
ATOM     35  C2  8E4 d   1     -36.691 132.669   9.527  0.00  0.00     0.062 C 
ATOM     36  H22 8E4 d   1     -36.459 131.918  10.296  0.00  0.00     0.090 H 
BRANCH  35  37
ATOM     37  C1  8E4 d   1     -37.234 131.999   8.278  0.00  0.00    -0.015 C 
ATOM     38  H4  8E4 d   1     -37.320 132.751   7.480  0.00  0.00     0.039 H 
ATOM     39  H5  8E4 d   1     -38.229 131.585   8.500  0.00  0.00     0.039 H 
BRANCH  37  40
ATOM     40  C   8E4 d   1     -36.326 130.870   7.797  0.00  0.00     0.082 C 
ATOM     41  H24 8E4 d   1     -36.761 130.443   6.881  0.00  0.00     0.075 H 
ATOM     42  H25 8E4 d   1     -36.289 130.099   8.580  0.00  0.00     0.075 H 
BRANCH  40  43
ATOM     43  N   8E4 d   1     -34.976 131.284   7.506  0.00  0.00    -0.079 N 
ATOM     44  H26 8E4 d   1     -34.440 130.489   7.196  0.00  0.00     0.274 HD
ATOM     45  H27 8E4 d   1     -34.556 131.669   8.338  0.00  0.00     0.274 HD
ATOM     46  H28 8E4 d   1     -34.988 131.984   6.781  0.00  0.00     0.274 HD
ENDBRANCH  40  43
ENDBRANCH  37  40
ENDBRANCH  35  37
BRANCH  35  47
ATOM     47  O   8E4 d   1     -35.496 133.295   9.081  0.00  0.00    -0.391 OA
ATOM     48  H23 8E4 d   1     -35.082 133.741   9.811  0.00  0.00     0.210 HD
ENDBRANCH  35  47
ENDBRANCH   6  35
TORSDOF 14
