REMARK  11 active torsions:
REMARK  status: ('A' for Active; 'I' for Inactive)
REMARK    1  A    between atoms: C7_11  and  C7M_12 
REMARK    2  A    between atoms: C8_13  and  C8M_14 
REMARK    3  A    between atoms: N10_17  and  C1'_19 
REMARK    4  A    between atoms: C1'_19  and  C2'_20 
REMARK    5  A    between atoms: C2'_20  and  O2'_21 
REMARK    6  A    between atoms: C2'_20  and  C3'_22 
REMARK    7  A    between atoms: C3'_22  and  O3'_23 
REMARK    8  A    between atoms: C3'_22  and  C4'_24 
REMARK    9  A    between atoms: C4'_24  and  O4'_25 
REMARK   10  A    between atoms: C4'_24  and  C5'_26 
REMARK   11  A    between atoms: C5'_26  and  O5'_27 
ROOT
ATOM      1  N1  RBF d   1      44.369   1.736 115.889  0.00  0.00    -0.173 NA
ATOM      2  C2  RBF d   1      44.106   3.072 115.845  0.00  0.00     0.350 A 
ATOM      3  O2  RBF d   1      43.735   3.561 116.946  0.00  0.00    -0.244 OA
ATOM      4  N3  RBF d   1      44.237   3.804 114.698  0.00  0.00    -0.272 N 
ATOM      5  C4  RBF d   1      44.651   3.188 113.568  0.00  0.00     0.282 A 
ATOM      6  O4  RBF d   1      44.815   3.800 112.506  0.00  0.00    -0.265 OA
ATOM      7  C4A RBF d   1      44.946   1.729 113.565  0.00  0.00     0.171 A 
ATOM      8  N5  RBF d   1      45.349   1.127 112.442  0.00  0.00    -0.237 NA
ATOM      9  C5A RBF d   1      45.626  -0.180 112.498  0.00  0.00     0.085 A 
ATOM     10  C6  RBF d   1      46.045  -0.728 111.312  0.00  0.00    -0.047 A 
ATOM     11  C7  RBF d   1      46.336  -2.089 111.285  0.00  0.00    -0.054 A 
ATOM     12  C8  RBF d   1      46.205  -2.983 112.499  0.00  0.00    -0.054 A 
ATOM     13  C9  RBF d   1      45.776  -2.404 113.695  0.00  0.00    -0.048 A 
ATOM     14  C9A RBF d   1      45.478  -1.031 113.752  0.00  0.00     0.065 A 
ATOM     15  N10 RBF d   1      45.039  -0.430 114.958  0.00  0.00    -0.325 N 
ATOM     16  C10 RBF d   1      44.785   0.980 114.845  0.00  0.00     0.170 A 
ATOM     17  H1  RBF d   1      44.029   4.782 114.695  0.00  0.00     0.174 HD
ATOM     18  H2  RBF d   1      46.147  -0.118 110.421  0.00  0.00     0.088 H 
ATOM     19  H9  RBF d   1      45.672  -3.016 114.584  0.00  0.00     0.087 H 
ENDROOT
BRANCH  15  20
ATOM     20  C1' RBF d   1      44.921  -1.299 116.192  0.00  0.00     0.028 C 
ATOM     21  H10 RBF d   1      45.937  -1.680 116.376  0.00  0.00     0.069 H 
ATOM     22  H11 RBF d   1      44.265  -2.131 115.898  0.00  0.00     0.069 H 
BRANCH  20  23
ATOM     23  C2' RBF d   1      44.396  -0.836 117.591  0.00  0.00     0.078 C 
ATOM     24  H12 RBF d   1      43.326  -1.089 117.615  0.00  0.00     0.089 H 
BRANCH  23  25
ATOM     25  O2' RBF d   1      44.513   0.561 117.905  0.00  0.00    -0.391 OA
ATOM     26  H13 RBF d   1      44.025   1.069 117.268  0.00  0.00     0.210 HD
ENDBRANCH  23  25
BRANCH  23  27
ATOM     27  C3' RBF d   1      45.102  -1.582 118.751  0.00  0.00     0.088 C 
ATOM     28  H14 RBF d   1      46.137  -1.213 118.809  0.00  0.00     0.091 H 
BRANCH  27  29
ATOM     29  O3' RBF d   1      45.136  -2.996 118.466  0.00  0.00    -0.390 OA
ATOM     30  H15 RBF d   1      45.569  -3.451 119.178  0.00  0.00     0.210 HD
ENDBRANCH  27  29
BRANCH  27  31
ATOM     31  C4' RBF d   1      44.436  -1.337 120.122  0.00  0.00     0.083 C 
ATOM     32  H16 RBF d   1      43.498  -1.911 120.128  0.00  0.00     0.090 H 
BRANCH  31  33
ATOM     33  O4' RBF d   1      44.096   0.047 120.394  0.00  0.00    -0.391 OA
ATOM     34  H17 RBF d   1      43.488   0.358 119.734  0.00  0.00     0.210 HD
ENDBRANCH  31  33
BRANCH  31  35
ATOM     35  C5' RBF d   1      45.320  -1.860 121.259  0.00  0.00     0.043 C 
ATOM     36  H18 RBF d   1      45.986  -1.059 121.613  0.00  0.00     0.078 H 
ATOM     37  H19 RBF d   1      45.924  -2.708 120.903  0.00  0.00     0.078 H 
BRANCH  35  38
ATOM     38  O5' RBF d   1      44.463  -2.288 122.327  0.00  0.00    -0.398 OA
ATOM     39  H20 RBF d   1      44.992  -2.617 123.044  0.00  0.00     0.209 HD
ENDBRANCH  35  38
ENDBRANCH  31  35
ENDBRANCH  27  31
ENDBRANCH  23  27
ENDBRANCH  20  23
ENDBRANCH  15  20
BRANCH  12  40
ATOM     40  C8M RBF d   1      46.514  -4.473 112.515  0.00  0.00    -0.051 C 
ATOM     41  H6  RBF d   1      46.333  -4.874 113.523  0.00  0.00     0.033 H 
ATOM     42  H7  RBF d   1      47.567  -4.632 112.240  0.00  0.00     0.033 H 
ATOM     43  H8  RBF d   1      45.865  -4.990 111.793  0.00  0.00     0.033 H 
ENDBRANCH  12  40
BRANCH  11  44
ATOM     44  C7M RBF d   1      46.858  -2.535 109.969  0.00  0.00    -0.051 C 
ATOM     45  H3  RBF d   1      46.846  -1.690 109.265  0.00  0.00     0.033 H 
ATOM     46  H4  RBF d   1      46.225  -3.346 109.579  0.00  0.00     0.033 H 
ATOM     47  H5  RBF d   1      47.889  -2.899 110.088  0.00  0.00     0.033 H 
ENDBRANCH  11  44
TORSDOF 11
