REMARK WARNING: 32 MAX_TORS EXCEEDED!!!
REMARK  43 active torsions:
REMARK  status: ('A' for Active; 'I' for Inactive)
REMARK    1  A    between atoms: N_1  and  CA_2 
REMARK    2  A    between atoms: CA_2  and  C_3 
REMARK       I    between atoms: C_3  and  N_5 
REMARK    3  A    between atoms: N_5  and  CA_6 
REMARK    4  A    between atoms: CA_6  and  C_7 
REMARK    5  A    between atoms: CA_6  and  CB_9 
REMARK       I    between atoms: C_7  and  N_12 
REMARK    6  A    between atoms: CB_9  and  CG_10 
REMARK    7  A    between atoms: CG_10  and  CD_11 
REMARK    8  A    between atoms: N_12  and  CA_13 
REMARK    9  A    between atoms: CA_13  and  C_14 
REMARK   10  A    between atoms: CA_13  and  CB_16 
REMARK       I    between atoms: C_14  and  N_21 
REMARK   11  A    between atoms: CB_16  and  CG_17 
REMARK   12  A    between atoms: CG_17  and  CD_18 
REMARK   13  A    between atoms: CD_18  and  CE_19 
REMARK   14  A    between atoms: CE_19  and  NZ_20 
REMARK   15  A    between atoms: N_21  and  CA_22 
REMARK   16  A    between atoms: CA_22  and  C_23 
REMARK   17  A    between atoms: CA_22  and  CB_25 
REMARK       I    between atoms: C_23  and  N_32 
REMARK   18  A    between atoms: CB_25  and  CG_26 
REMARK   19  A    between atoms: CG_26  and  CD_27 
REMARK   20  A    between atoms: CD_27  and  NE_28 
REMARK       I    between atoms: NE_28  and  CZ_29 
REMARK       I    between atoms: CZ_29  and  NH1_30 
REMARK       I    between atoms: CZ_29  and  NH2_31 
REMARK   21  A    between atoms: N_32  and  CA_33 
REMARK   22  A    between atoms: CA_33  and  C_34 
REMARK   23  A    between atoms: CA_33  and  CB_36 
REMARK       I    between atoms: C_34  and  N_43 
REMARK   24  A    between atoms: CB_36  and  CG_37 
REMARK   25  A    between atoms: CG_37  and  CD_38 
REMARK   26  A    between atoms: CD_38  and  NE_39 
REMARK       I    between atoms: NE_39  and  CZ_40 
REMARK       I    between atoms: CZ_40  and  NH1_41 
REMARK       I    between atoms: CZ_40  and  NH2_42 
REMARK   27  A    between atoms: N_43  and  CA_44 
REMARK   28  A    between atoms: CA_44  and  C_45 
REMARK   29  A    between atoms: CA_44  and  CB_47 
REMARK       I    between atoms: C_45  and  N_54 
REMARK   30  A    between atoms: CB_47  and  CG_48 
REMARK   31  A    between atoms: CG_48  and  CD_49 
REMARK   32  A    between atoms: CD_49  and  NE_50 
REMARK       I    between atoms: NE_50  and  CZ_51 
REMARK       I    between atoms: CZ_51  and  NH1_52 
REMARK       I    between atoms: CZ_51  and  NH2_53 
REMARK   33  A    between atoms: N_54  and  CA_55 
REMARK   34  A    between atoms: CA_55  and  C_56 
REMARK   35  A    between atoms: CA_55  and  CB_58 
REMARK       I    between atoms: C_56  and  N_63 
REMARK   36  A    between atoms: CB_58  and  CG_59 
REMARK   37  A    between atoms: CG_59  and  CD_60 
REMARK   38  A    between atoms: N_63  and  CA_64 
REMARK   39  A    between atoms: CA_64  and  C_65 
REMARK   40  A    between atoms: CA_64  and  CB_67 
REMARK   41  A    between atoms: CB_67  and  CG_68 
REMARK   42  A    between atoms: CG_68  and  CD_69 
REMARK   43  A    between atoms: CD_69  and  NE_70 
REMARK       I    between atoms: NE_70  and  CZ_71 
REMARK       I    between atoms: CZ_71  and  NH1_72 
ROOT
ATOM      1  CA  ARG d   1      38.002  88.046  58.577  0.00  0.00     0.089 C 
ATOM      2  H42 ARG d   1      38.982  88.128  59.071  0.00  0.00     0.087 H 
ENDROOT
BRANCH   1   3
ATOM      3  N   ARG d   1      37.842  86.706  58.019  0.00  0.00    -0.346 N 
ATOM      4  C   ARG d   1      38.583  85.686  58.421  0.00  0.00     0.241 C 
ATOM      5  O   ARG d   1      39.435  85.768  59.303  0.00  0.00    -0.271 OA
ATOM      6  H41 ARG d   1      37.151  86.555  57.312  0.00  0.00     0.163 HD
BRANCH   4   7
ATOM      7  CA  ARG d   1      38.294  84.331  57.802  0.00  0.00     0.089 C 
ATOM      8  H29 ARG d   1      37.657  84.447  56.912  0.00  0.00     0.087 H 
BRANCH   7   9
ATOM      9  N   ARG d   1      39.579  83.741  57.402  0.00  0.00    -0.346 N 
ATOM     10  C   LYS d   1      39.720  83.106  56.230  0.00  0.00     0.241 C 
ATOM     11  O   LYS d   1      38.807  83.016  55.407  0.00  0.00    -0.271 OA
ATOM     12  H28 ARG d   1      40.364  83.815  58.017  0.00  0.00     0.163 HD
BRANCH  10  13
ATOM     13  CA  LYS d   1      41.083  82.494  55.943  0.00  0.00     0.089 C 
ATOM     14  H16 LYS d   1      41.518  82.134  56.887  0.00  0.00     0.087 H 
BRANCH  13  15
ATOM     15  N   LYS d   1      40.912  81.346  55.043  0.00  0.00    -0.346 N 
ATOM     16  C   LYS d   1      41.436  80.144  55.311  0.00  0.00     0.241 C 
ATOM     17  O   LYS d   1      42.112  79.939  56.327  0.00  0.00    -0.271 OA
ATOM     18  H15 LYS d   1      40.386  81.467  54.201  0.00  0.00     0.163 HD
BRANCH  16  19
ATOM     19  CA  LYS d   1      41.287  79.047  54.248  0.00  0.00     0.089 C 
ATOM     20  H7  LYS d   1      41.337  78.068  54.748  0.00  0.00     0.087 H 
BRANCH  19  21
ATOM     21  N   LYS d   1      40.004  79.140  53.537  0.00  0.00    -0.346 N 
ATOM     22  C   GLY d   1      38.826  78.881  54.143  0.00  0.00     0.243 C 
ATOM     23  O   GLY d   1      38.700  78.518  55.324  0.00  0.00    -0.272 OA
ATOM     24  H6  LYS d   1      40.004  79.404  52.572  0.00  0.00     0.163 HD
BRANCH  22  25
ATOM     25  CA  GLY d   1      37.600  79.056  53.273  0.00  0.00     0.152 C 
ATOM     26  H4  GLY d   1      37.112  80.011  53.517  0.00  0.00     0.090 H 
ATOM     27  H5  GLY d   1      37.901  79.058  52.215  0.00  0.00     0.090 H 
BRANCH  25  28
ATOM     28  N   GLY d   1      36.670  77.967  53.507  0.00  0.00    -0.071 N 
ATOM     29  H1  GLY d   1      35.856  78.089  52.925  0.00  0.00     0.274 HD
ATOM     30  H2  GLY d   1      36.393  77.964  54.476  0.00  0.00     0.274 HD
ATOM     31  H3  GLY d   1      37.115  77.091  53.282  0.00  0.00     0.274 HD
ENDBRANCH  25  28
ENDBRANCH  22  25
ENDBRANCH  19  21
BRANCH  19  32
ATOM     32  CB  LYS d   1      42.451  79.154  53.240  0.00  0.00    -0.038 C 
ATOM     33  H8  LYS d   1      42.392  78.305  52.543  0.00  0.00     0.036 H 
ATOM     34  H9  LYS d   1      43.401  79.109  53.793  0.00  0.00     0.036 H 
BRANCH  32  35
ATOM     35  CG  LYS d   1      42.415  80.449  52.436  0.00  0.00    -0.066 C 
ATOM     36  H10 LYS d   1      42.393  81.293  53.141  0.00  0.00     0.032 H 
ATOM     37  H11 LYS d   1      41.498  80.454  51.829  0.00  0.00     0.032 H 
BRANCH  35  38
ATOM     38  CD  LYS d   1      43.619  80.636  51.495  0.00  0.00    -0.076 C 
ATOM     39  H12 LYS d   1      43.517  81.589  50.955  0.00  0.00     0.027 H 
ATOM     40  H13 LYS d   1      43.652  79.807  50.773  0.00  0.00     0.027 H 
ATOM     41  H14 LYS d   1      44.547  80.646  52.085  0.00  0.00     0.027 H 
ENDBRANCH  35  38
ENDBRANCH  32  35
ENDBRANCH  19  32
ENDBRANCH  16  19
ENDBRANCH  13  15
BRANCH  13  42
ATOM     42  CB  LYS d   1      42.040  83.581  55.346  0.00  0.00    -0.038 C 
ATOM     43  H17 LYS d   1      42.031  84.467  55.998  0.00  0.00     0.036 H 
ATOM     44  H18 LYS d   1      41.687  83.861  54.343  0.00  0.00     0.036 H 
BRANCH  42  45
ATOM     45  CG  LYS d   1      43.510  83.033  55.241  0.00  0.00    -0.061 C 
ATOM     46  H19 LYS d   1      43.507  82.108  54.646  0.00  0.00     0.033 H 
ATOM     47  H20 LYS d   1      43.886  82.817  56.252  0.00  0.00     0.033 H 
BRANCH  45  48
ATOM     48  CD  LYS d   1      44.435  84.060  54.569  0.00  0.00    -0.043 C 
ATOM     49  H21 LYS d   1      44.599  84.912  55.246  0.00  0.00     0.035 H 
ATOM     50  H22 LYS d   1      43.977  84.417  53.635  0.00  0.00     0.035 H 
BRANCH  48  51
ATOM     51  CE  LYS d   1      45.731  83.399  54.272  0.00  0.00     0.080 C 
ATOM     52  H23 LYS d   1      45.540  82.514  53.648  0.00  0.00     0.075 H 
ATOM     53  H24 LYS d   1      46.193  83.087  55.220  0.00  0.00     0.075 H 
BRANCH  51  54
ATOM     54  NZ  LYS d   1      46.697  84.313  53.538  0.00  0.00    -0.079 N 
ATOM     55  H25 LYS d   1      47.558  83.819  53.361  0.00  0.00     0.274 HD
ATOM     56  H26 LYS d   1      46.886  85.126  54.104  0.00  0.00     0.274 HD
ATOM     57  H27 LYS d   1      46.288  84.601  52.663  0.00  0.00     0.274 HD
ENDBRANCH  51  54
ENDBRANCH  48  51
ENDBRANCH  45  48
ENDBRANCH  42  45
ENDBRANCH  13  42
ENDBRANCH  10  13
ENDBRANCH   7   9
BRANCH   7  58
ATOM     58  CB  ARG d   1      37.544  83.487  58.856  0.00  0.00    -0.036 C 
ATOM     59  H30 ARG d   1      36.761  84.125  59.292  0.00  0.00     0.036 H 
ATOM     60  H31 ARG d   1      38.270  83.212  59.636  0.00  0.00     0.036 H 
BRANCH  58  61
ATOM     61  CG  ARG d   1      36.853  82.160  58.367  0.00  0.00    -0.048 C 
ATOM     62  H32 ARG d   1      37.574  81.575  57.777  0.00  0.00     0.035 H 
ATOM     63  H33 ARG d   1      35.987  82.415  57.739  0.00  0.00     0.035 H 
BRANCH  61  64
ATOM     64  CD  ARG d   1      36.366  81.297  59.589  0.00  0.00     0.009 C 
ATOM     65  H34 ARG d   1      35.611  81.871  60.146  0.00  0.00     0.064 H 
ATOM     66  H35 ARG d   1      37.227  81.094  60.242  0.00  0.00     0.064 H 
BRANCH  64  67
ATOM     67  NE  ARG d   1      35.761  79.985  59.169  0.00  0.00    -0.227 N 
ATOM     68  CZ  ARG d   1      35.119  79.109  59.967  0.00  0.00     0.665 C 
ATOM     69  NH1 ARG d   1      34.977  79.360  61.267  0.00  0.00    -0.235 N 
ATOM     70  NH2 ARG d   1      34.608  77.955  59.470  0.00  0.00    -0.235 N 
ATOM     71  H37 ARG d   1      34.485  78.686  61.871  0.00  0.00     0.174 HD
ATOM     72  H38 ARG d   1      35.359  80.228  61.669  0.00  0.00     0.174 HD
ATOM     73  H39 ARG d   1      34.705  77.738  58.468  0.00  0.00     0.174 HD
ATOM     74  H40 ARG d   1      34.123  77.295  60.095  0.00  0.00     0.174 HD
ATOM     75  H36 ARG d   1      35.846  79.731  58.174  0.00  0.00     0.177 HD
ENDBRANCH  64  67
ENDBRANCH  61  64
ENDBRANCH  58  61
ENDBRANCH   7  58
ENDBRANCH   4   7
ENDBRANCH   1   3
BRANCH   1  76
ATOM     76  C   ARG d   1      36.892  88.222  59.607  0.00  0.00     0.241 C 
ATOM     77  O   ARG d   1      35.754  87.825  59.351  0.00  0.00    -0.271 OA
ATOM     78  N   ARG d   1      37.231  88.742  60.794  0.00  0.00    -0.346 N 
ATOM     79  H54 ARG d   1      38.181  88.996  60.973  0.00  0.00     0.163 HD
BRANCH  78  80
ATOM     80  CA  ARG d   1      36.214  88.940  61.833  0.00  0.00     0.089 C 
ATOM     81  H55 ARG d   1      35.452  88.154  61.727  0.00  0.00     0.087 H 
BRANCH  80  82
ATOM     82  C   ARG d   1      35.560  90.308  61.631  0.00  0.00     0.241 C 
ATOM     83  O   ARG d   1      36.232  91.353  61.705  0.00  0.00    -0.271 OA
ATOM     84  N   GLU d   1      34.262  90.298  61.388  0.00  0.00    -0.346 N 
ATOM     85  H67 GLU d   1      33.760  89.434  61.436  0.00  0.00     0.163 HD
BRANCH  84  86
ATOM     86  CA  GLU d   1      33.548  91.523  61.051  0.00  0.00     0.090 C 
ATOM     87  H68 GLU d   1      34.303  92.268  60.759  0.00  0.00     0.087 H 
BRANCH  86  88
ATOM     88  C   GLU d   1      32.737  92.122  62.186  0.00  0.00     0.241 C 
ATOM     89  O   GLU d   1      32.363  93.298  62.101  0.00  0.00    -0.271 OA
ATOM     90  N   ARG d   1      32.472  91.385  63.245  0.00  0.00    -0.345 N 
ATOM     91  H73 ARG d   1      32.844  90.460  63.323  0.00  0.00     0.163 HD
BRANCH  90  92
ATOM     92  CA  ARG d   1      31.622  91.939  64.313  0.00  0.00     0.096 C 
ATOM     93  H74 ARG d   1      31.861  93.007  64.427  0.00  0.00     0.089 H 
BRANCH  92  94
ATOM     94  C   ARG d   1      31.909  91.238  65.628  0.00  0.00     0.196 C 
ATOM     95  O   ARG d   1      32.490  90.159  65.592  0.00  0.00    -0.646 OA
ATOM     96  OXT ARG d   1      31.574  91.717  66.715  0.00  0.00    -0.646 OA
ENDBRANCH  92  94
BRANCH  92  97
ATOM     97  CB  ARG d   1      30.124  91.811  63.956  0.00  0.00    -0.035 C 
ATOM     98  H75 ARG d   1      29.931  92.407  63.052  0.00  0.00     0.036 H 
ATOM     99  H76 ARG d   1      29.533  92.212  64.792  0.00  0.00     0.036 H 
BRANCH  97 100
ATOM    100  CG  ARG d   1      29.670  90.368  63.691  0.00  0.00    -0.047 C 
ATOM    101  H77 ARG d   1      29.555  89.846  64.652  0.00  0.00     0.035 H 
ATOM    102  H78 ARG d   1      30.433  89.857  63.085  0.00  0.00     0.035 H 
BRANCH 100 103
ATOM    103  CD  ARG d   1      28.334  90.336  62.942  0.00  0.00     0.009 C 
ATOM    104  H79 ARG d   1      27.522  90.562  63.649  0.00  0.00     0.064 H 
ATOM    105  H80 ARG d   1      28.184  89.331  62.520  0.00  0.00     0.064 H 
BRANCH 103 106
ATOM    106  NE  ARG d   1      28.307  91.317  61.856  0.00  0.00    -0.227 N 
ATOM    107  CZ  ARG d   1      28.669  91.063  60.596  0.00  0.00     0.665 C 
ATOM    108  NH1 ARG d   1      28.618  92.033  59.688  0.00  0.00    -0.235 N 
ATOM    109  NH2 ARG d   1      29.086  89.845  60.245  0.00  0.00    -0.235 N 
ATOM    110  H82 ARG d   1      28.896  91.843  58.715  0.00  0.00     0.174 HD
ATOM    111  H83 ARG d   1      28.300  92.975  59.958  0.00  0.00     0.174 HD
ATOM    112  H84 ARG d   1      29.126  89.092  60.947  0.00  0.00     0.174 HD
ATOM    113  H85 ARG d   1      29.368  89.658  59.272  0.00  0.00     0.174 HD
ATOM    114  H81 ARG d   1      27.986  92.270  62.079  0.00  0.00     0.177 HD
ENDBRANCH 103 106
ENDBRANCH 100 103
ENDBRANCH  97 100
ENDBRANCH  92  97
ENDBRANCH  90  92
ENDBRANCH  86  88
BRANCH  86 115
ATOM    115  CB  GLU d   1      32.624  91.279  59.854  0.00  0.00    -0.029 C 
ATOM    116  H69 GLU d   1      32.014  92.178  59.679  0.00  0.00     0.037 H 
ATOM    117  H70 GLU d   1      31.965  90.426  60.074  0.00  0.00     0.037 H 
BRANCH 115 118
ATOM    118  CG  GLU d   1      33.438  90.974  58.601  0.00  0.00     0.018 C 
ATOM    119  H71 GLU d   1      33.839  89.953  58.689  0.00  0.00     0.049 H 
ATOM    120  H72 GLU d   1      34.270  91.691  58.546  0.00  0.00     0.049 H 
BRANCH 118 121
ATOM    121  CD  GLU d   1      32.644  91.065  57.309  0.00  0.00     0.172 C 
ATOM    122  OE1 GLU d   1      31.874  92.047  57.152  0.00  0.00    -0.648 OA
ATOM    123  OE2 GLU d   1      32.806  90.160  56.450  0.00  0.00    -0.648 OA
ENDBRANCH 118 121
ENDBRANCH 115 118
ENDBRANCH  86 115
ENDBRANCH  84  86
ENDBRANCH  80  82
BRANCH  80 124
ATOM    124  CB  ARG d   1      36.788  88.870  63.256  0.00  0.00    -0.036 C 
ATOM    125  H56 ARG d   1      37.513  89.685  63.398  0.00  0.00     0.036 H 
ATOM    126  H57 ARG d   1      37.291  87.902  63.400  0.00  0.00     0.036 H 
BRANCH 124 127
ATOM    127  CG  ARG d   1      35.656  89.012  64.281  0.00  0.00    -0.048 C 
ATOM    128  H58 ARG d   1      34.925  88.206  64.116  0.00  0.00     0.035 H 
ATOM    129  H59 ARG d   1      35.166  89.986  64.136  0.00  0.00     0.035 H 
BRANCH 127 130
ATOM    130  CD  ARG d   1      36.161  88.928  65.704  0.00  0.00     0.009 C 
ATOM    131  H60 ARG d   1      36.926  89.701  65.869  0.00  0.00     0.064 H 
ATOM    132  H61 ARG d   1      36.599  87.935  65.881  0.00  0.00     0.064 H 
BRANCH 130 133
ATOM    133  NE  ARG d   1      35.045  89.141  66.621  0.00  0.00    -0.227 N 
ATOM    134  CZ  ARG d   1      35.042  88.810  67.911  0.00  0.00     0.665 C 
ATOM    135  NH1 ARG d   1      36.088  88.230  68.458  0.00  0.00    -0.235 N 
ATOM    136  NH2 ARG d   1      33.949  89.038  68.652  0.00  0.00    -0.235 N 
ATOM    137  H63 ARG d   1      36.074  87.979  69.457  0.00  0.00     0.174 HD
ATOM    138  H64 ARG d   1      36.921  88.027  67.888  0.00  0.00     0.174 HD
ATOM    139  H65 ARG d   1      33.126  89.492  68.230  0.00  0.00     0.174 HD
ATOM    140  H66 ARG d   1      33.932  88.759  69.644  0.00  0.00     0.174 HD
ATOM    141  H62 ARG d   1      34.195  89.581  66.241  0.00  0.00     0.177 HD
ENDBRANCH 130 133
ENDBRANCH 127 130
ENDBRANCH 124 127
ENDBRANCH  80 124
ENDBRANCH  78  80
ENDBRANCH   1  76
BRANCH   1 142
ATOM    142  CB  ARG d   1      37.911  89.118  57.469  0.00  0.00    -0.036 C 
ATOM    143  H43 ARG d   1      36.868  89.174  57.124  0.00  0.00     0.036 H 
ATOM    144  H44 ARG d   1      38.558  88.811  56.634  0.00  0.00     0.036 H 
BRANCH 142 145
ATOM    145  CG  ARG d   1      38.353  90.543  57.939  0.00  0.00    -0.048 C 
ATOM    146  H45 ARG d   1      39.285  90.447  58.516  0.00  0.00     0.035 H 
ATOM    147  H46 ARG d   1      37.564  90.959  58.583  0.00  0.00     0.035 H 
BRANCH 145 148
ATOM    148  CD  ARG d   1      38.599  91.522  56.770  0.00  0.00     0.009 C 
ATOM    149  H47 ARG d   1      39.405  91.128  56.133  0.00  0.00     0.064 H 
ATOM    150  H48 ARG d   1      38.898  92.500  57.176  0.00  0.00     0.064 H 
BRANCH 148 151
ATOM    151  NE  ARG d   1      37.393  91.687  55.966  0.00  0.00    -0.227 N 
ATOM    152  CZ  ARG d   1      36.503  92.677  56.122  0.00  0.00     0.665 C 
ATOM    153  NH1 ARG d   1      36.668  93.615  57.065  0.00  0.00    -0.235 N 
ATOM    154  NH2 ARG d   1      35.440  92.741  55.326  0.00  0.00    -0.235 N 
ATOM    155  H50 ARG d   1      35.973  94.368  57.169  0.00  0.00     0.174 HD
ATOM    156  H51 ARG d   1      37.490  93.583  57.685  0.00  0.00     0.174 HD
ATOM    157  H52 ARG d   1      35.299  92.028  54.596  0.00  0.00     0.174 HD
ATOM    158  H53 ARG d   1      34.757  93.504  55.439  0.00  0.00     0.174 HD
ATOM    159  H49 ARG d   1      37.213  90.994  55.226  0.00  0.00     0.177 HD
ENDBRANCH 148 151
ENDBRANCH 145 148
ENDBRANCH 142 145
ENDBRANCH   1 142
TORSDOF 43
