REMARK  1 active torsions:
REMARK  status: ('A' for Active; 'I' for Inactive)
REMARK    1  A    between atoms: C7_1  and  C_2 
ROOT
ATOM      1  C   BMK d   1     -51.018 -15.906  -8.903  0.00  0.00     0.178 C 
ATOM      2  C5  BMK d   1     -50.195 -14.922  -8.157  0.00  0.00    -0.012 A 
ATOM      3  C10 BMK d   1     -49.072 -14.317  -8.702  0.00  0.00    -0.074 A 
ATOM      4  C14 BMK d   1     -48.350 -13.412  -7.934  0.00  0.00    -0.082 A 
ATOM      5  C15 BMK d   1     -48.735 -13.109  -6.630  0.00  0.00    -0.082 A 
ATOM      6  C11 BMK d   1     -49.852 -13.699  -6.044  0.00  0.00    -0.076 A 
ATOM      7  C6  BMK d   1     -50.611 -14.613  -6.763  0.00  0.00    -0.047 A 
ATOM      8  C4  BMK d   1     -51.837 -15.264  -6.131  0.00  0.00    -0.010 C 
ATOM      9  C1  BMK d   1     -52.493 -16.268  -7.071  0.00  0.00     0.133 C 
ATOM     10  N   BMK d   1     -52.364 -15.712  -8.405  0.00  0.00    -0.050 N 
ATOM     11  C3  BMK d   1     -51.609 -17.438  -7.205  0.00  0.00    -0.018 A 
ATOM     12  C9  BMK d   1     -51.557 -18.600  -6.461  0.00  0.00    -0.074 A 
ATOM     13  C13 BMK d   1     -50.595 -19.536  -6.843  0.00  0.00    -0.082 A 
ATOM     14  C12 BMK d   1     -49.721 -19.334  -7.920  0.00  0.00    -0.082 A 
ATOM     15  C8  BMK d   1     -49.756 -18.173  -8.688  0.00  0.00    -0.073 A 
ATOM     16  C2  BMK d   1     -50.707 -17.236  -8.329  0.00  0.00    -0.010 A 
ATOM     17  H4  BMK d   1     -48.762 -14.547  -9.715  0.00  0.00     0.084 H 
ATOM     18  H5  BMK d   1     -47.473 -12.934  -8.356  0.00  0.00     0.083 H 
ATOM     19  H6  BMK d   1     -48.151 -12.397  -6.058  0.00  0.00     0.083 H 
ATOM     20  H7  BMK d   1     -50.129 -13.445  -5.027  0.00  0.00     0.084 H 
ATOM     21  H8  BMK d   1     -52.567 -14.480  -5.881  0.00  0.00     0.043 H 
ATOM     22  H9  BMK d   1     -51.530 -15.785  -5.212  0.00  0.00     0.043 H 
ATOM     23  H10 BMK d   1     -53.523 -16.517  -6.776  0.00  0.00     0.092 H 
ATOM     24  H11 BMK d   1     -53.016 -16.172  -9.021  0.00  0.00     0.279 HD
ATOM     25  H12 BMK d   1     -52.568 -14.725  -8.375  0.00  0.00     0.279 HD
ATOM     26  H13 BMK d   1     -52.226 -18.776  -5.627  0.00  0.00     0.084 H 
ATOM     27  H14 BMK d   1     -50.520 -20.460  -6.282  0.00  0.00     0.083 H 
ATOM     28  H15 BMK d   1     -48.997 -20.104  -8.162  0.00  0.00     0.083 H 
ATOM     29  H16 BMK d   1     -49.078 -18.013  -9.518  0.00  0.00     0.084 H 
ENDROOT
BRANCH   1  30
ATOM     30  C7  BMK d   1     -50.882 -15.826 -10.418  0.00  0.00    -0.037 C 
ATOM     31  H1  BMK d   1     -51.524 -16.588 -10.884  0.00  0.00     0.031 H 
ATOM     32  H2  BMK d   1     -49.835 -16.005 -10.702  0.00  0.00     0.031 H 
ATOM     33  H3  BMK d   1     -51.189 -14.827 -10.761  0.00  0.00     0.031 H 
ENDBRANCH   1  30
TORSDOF 1
