REMARK  11 active torsions:
REMARK  status: ('A' for Active; 'I' for Inactive)
REMARK    1  A    between atoms: C6_5  and  N1_1 
REMARK    2  A    between atoms: C3_35  and  C4_3 
REMARK    3  A    between atoms: C5_4  and  O_33 
REMARK    4  A    between atoms: C7_6  and  C6_5 
REMARK    5  A    between atoms: C11_40  and  C10_8 
REMARK    6  A    between atoms: C12_43  and  C13_9 
REMARK    7  A    between atoms: C22_14  and  N6_22 
REMARK    8  A    between atoms: C24_15  and  C25_19 
REMARK       I    between atoms: N6_22  and  C24_15 
REMARK    9  A    between atoms: N6_22  and  C29_23 
REMARK   10  A    between atoms: C29_23  and  C30_24 
REMARK   11  A    between atoms: C2_34  and  C3_35 
ROOT
ATOM      1  N1  8ES d   1      77.243  -2.606  37.295  0.00  0.00    -0.334 N 
ATOM      2  C5  8ES d   1      78.551  -2.538  37.749  0.00  0.00     0.132 A 
ATOM      3  C20 8ES d   1      79.078  -6.159  38.667  0.00  0.00    -0.052 A 
ATOM      4  C21 8ES d   1      80.422  -6.124  39.085  0.00  0.00    -0.055 A 
ATOM      5  C22 8ES d   1      81.168  -4.918  39.074  0.00  0.00     0.038 A 
ATOM      6  C1  8ES d   1      78.480  -4.987  38.230  0.00  0.00     0.069 A 
ATOM      7  C23 8ES d   1      80.529  -3.753  38.635  0.00  0.00    -0.044 A 
ATOM      8  C   8ES d   1      79.222  -3.781  38.220  0.00  0.00     0.021 A 
ATOM      9  C2  8ES d   1      76.557  -3.870  37.350  0.00  0.00     0.104 A 
ATOM     10  N   8ES d   1      77.147  -5.022  37.784  0.00  0.00    -0.235 NA
ATOM     11  H4  8ES d   1      78.199  -2.313  38.767  0.00  0.00     0.126 H 
ATOM     12  H10 8ES d   1      78.519  -7.088  38.687  0.00  0.00     0.087 H 
ATOM     13  H11 8ES d   1      80.897  -7.038  39.422  0.00  0.00     0.087 H 
ATOM     14  H22 8ES d   1      81.074  -2.816  38.623  0.00  0.00     0.088 H 
ENDROOT
BRANCH   1  15
ATOM     15  C6  8ES d   1      76.606  -1.408  36.747  0.00  0.00     0.023 C 
ATOM     16  H5  8ES d   1      76.704  -0.587  37.472  0.00  0.00     0.071 H 
ATOM     17  H6  8ES d   1      75.540  -1.617  36.572  0.00  0.00     0.071 H 
BRANCH  15  18
ATOM     18  C7  8ES d   1      77.257  -0.983  35.418  0.00  0.00    -0.040 A 
ATOM     19  C8  8ES d   1      77.275   0.301  35.115  0.00  0.00    -0.074 A 
ATOM     20  C9  8ES d   1      77.924   0.780  33.817  0.00  0.00    -0.072 A 
ATOM     21  H7  8ES d   1      76.827   1.020  35.791  0.00  0.00     0.084 H 
ATOM     22  C10 8ES d   1      78.457  -0.076  32.962  0.00  0.00    -0.025 A 
ATOM     23  H28 8ES d   1      77.948   1.840  33.593  0.00  0.00     0.084 H 
ATOM     24  C18 8ES d   1      78.425  -1.580  33.296  0.00  0.00    -0.072 A 
ATOM     25  C19 8ES d   1      77.878  -1.998  34.434  0.00  0.00    -0.074 A 
ATOM     26  H27 8ES d   1      78.849  -2.298  32.603  0.00  0.00     0.084 H 
ATOM     27  H26 8ES d   1      77.868  -3.056  34.672  0.00  0.00     0.084 H 
BRANCH  22  28
ATOM     28  C11 8ES d   1      79.094   0.474  31.672  0.00  0.00    -0.012 A 
ATOM     29  C17 8ES d   1      78.337   1.307  30.842  0.00  0.00    -0.071 A 
ATOM     30  C16 8ES d   1      78.900   1.862  29.694  0.00  0.00    -0.082 A 
ATOM     31  H9  8ES d   1      77.305   1.523  31.093  0.00  0.00     0.084 H 
ATOM     32  C15 8ES d   1      80.228   1.597  29.362  0.00  0.00    -0.082 A 
ATOM     33  H29 8ES d   1      78.302   2.503  29.056  0.00  0.00     0.083 H 
ATOM     34  C14 8ES d   1      80.993   0.786  30.190  0.00  0.00    -0.068 A 
ATOM     35  H8  8ES d   1      80.661   2.021  28.463  0.00  0.00     0.083 H 
ATOM     36  C12 8ES d   1      80.440   0.245  31.351  0.00  0.00     0.026 A 
ATOM     37  H30 8ES d   1      82.024   0.572  29.933  0.00  0.00     0.085 H 
BRANCH  36  38
ATOM     38  C13 8ES d   1      81.315  -0.654  32.217  0.00  0.00     0.198 A 
ATOM     39  N5  8ES d   1      81.611  -0.478  33.592  0.00  0.00    -0.139 NA
ATOM     40  N4  8ES d   1      82.401  -1.492  34.034  0.00  0.00    -0.200 N 
ATOM     41  N3  8ES d   1      82.588  -2.298  32.946  0.00  0.00     0.022 NA
ATOM     42  H31 8ES d   1      82.777  -1.624  34.984  0.00  0.00     0.208 HD
ATOM     43  N2  8ES d   1      81.916  -1.787  31.823  0.00  0.00    -0.136 NA
ENDBRANCH  36  38
ENDBRANCH  22  28
ENDBRANCH  15  18
ENDBRANCH   1  15
BRANCH   2  44
ATOM     44  O   8ES d   1      79.286  -1.339  37.719  0.00  0.00    -0.372 OA
ATOM     45  H23 8ES d   1      80.155  -1.493  38.070  0.00  0.00     0.212 HD
ENDBRANCH   2  44
BRANCH   9  46
ATOM     46  C3  8ES d   1      75.102  -4.009  36.881  0.00  0.00    -0.013 C 
ATOM     47  H24 8ES d   1      74.900  -3.261  36.100  0.00  0.00     0.043 H 
ATOM     48  H25 8ES d   1      74.948  -5.018  36.471  0.00  0.00     0.043 H 
BRANCH  46  49
ATOM     49  C4  8ES d   1      74.145  -3.788  38.050  0.00  0.00    -0.070 C 
ATOM     50  H1  8ES d   1      73.108  -3.891  37.699  0.00  0.00     0.028 H 
ATOM     51  H2  8ES d   1      74.295  -2.779  38.461  0.00  0.00     0.028 H 
ATOM     52  H3  8ES d   1      74.343  -4.535  38.832  0.00  0.00     0.028 H 
ENDBRANCH  46  49
ENDBRANCH   9  46
BRANCH   5  53
ATOM     53  N6  8ES d   1      82.553  -4.867  39.505  0.00  0.00    -0.309 N 
ATOM     54  C24 8ES d   1      83.645  -5.232  38.601  0.00  0.00     0.265 C 
ATOM     55  O1  8ES d   1      84.765  -5.168  38.985  0.00  0.00    -0.267 OA
BRANCH  54  56
ATOM     56  C25 8ES d   1      83.427  -5.697  37.155  0.00  0.00     0.073 A 
ATOM     57  C26 8ES d   1      82.504  -5.138  36.210  0.00  0.00    -0.060 A 
ATOM     58  C27 8ES d   1      82.595  -5.817  34.853  0.00  0.00    -0.075 A 
ATOM     59  H12 8ES d   1      81.819  -4.323  36.438  0.00  0.00     0.085 H 
ATOM     60  C28 8ES d   1      83.605  -6.832  34.857  0.00  0.00    -0.044 A 
ATOM     61  H14 8ES d   1      81.975  -5.565  33.993  0.00  0.00     0.084 H 
ATOM     62  S   8ES d   1      84.362  -6.917  36.396  0.00  0.00    -0.097 SA
ATOM     63  H13 8ES d   1      83.857  -7.461  34.005  0.00  0.00     0.095 H 
ENDBRANCH  54  56
BRANCH  53  64
ATOM     64  C29 8ES d   1      82.843  -4.417  40.863  0.00  0.00     0.027 C 
ATOM     65  H15 8ES d   1      82.351  -3.450  41.044  0.00  0.00     0.072 H 
ATOM     66  H16 8ES d   1      83.930  -4.305  40.990  0.00  0.00     0.072 H 
BRANCH  64  67
ATOM     67  C30 8ES d   1      82.316  -5.453  41.854  0.00  0.00    -0.040 A 
ATOM     68  C35 8ES d   1      82.985  -6.827  41.930  0.00  0.00    -0.075 A 
ATOM     69  C34 8ES d   1      82.536  -7.733  42.779  0.00  0.00    -0.082 A 
ATOM     70  H17 8ES d   1      83.827  -7.056  41.287  0.00  0.00     0.084 H 
ATOM     71  C33 8ES d   1      81.331  -7.418  43.673  0.00  0.00    -0.083 A 
ATOM     72  H18 8ES d   1      83.020  -8.701  42.844  0.00  0.00     0.083 H 
ATOM     73  C32 8ES d   1      80.752  -6.234  43.603  0.00  0.00    -0.082 A 
ATOM     74  H19 8ES d   1      80.955  -8.166  44.361  0.00  0.00     0.083 H 
ATOM     75  C31 8ES d   1      81.273  -5.181  42.616  0.00  0.00    -0.075 A 
ATOM     76  H20 8ES d   1      79.908  -6.005  44.243  0.00  0.00     0.083 H 
ATOM     77  H21 8ES d   1      80.785  -4.215  42.545  0.00  0.00     0.084 H 
ENDBRANCH  64  67
ENDBRANCH  53  64
ENDBRANCH   5  53
TORSDOF 11
