REMARK  11 active torsions:
REMARK  status: ('A' for Active; 'I' for Inactive)
REMARK    1  A    between atoms: C6_5  and  N1_1 
REMARK    2  A    between atoms: C3_35  and  C4_3 
REMARK    3  A    between atoms: C5_4  and  O_33 
REMARK    4  A    between atoms: C7_6  and  C6_5 
REMARK    5  A    between atoms: C11_40  and  C10_8 
REMARK    6  A    between atoms: C12_43  and  C13_9 
REMARK    7  A    between atoms: C22_14  and  N6_22 
REMARK    8  A    between atoms: C24_15  and  C25_19 
REMARK       I    between atoms: N6_22  and  C24_15 
REMARK    9  A    between atoms: N6_22  and  C29_23 
REMARK   10  A    between atoms: C29_23  and  C30_24 
REMARK   11  A    between atoms: C2_34  and  C3_35 
ROOT
ATOM      1  N1  8ES d   1       9.214   6.699 -18.180  0.00  0.00    -0.334 N 
ATOM      2  C5  8ES d   1       9.271   8.088 -18.170  0.00  0.00     0.132 A 
ATOM      3  C20 8ES d   1       5.832   8.831 -16.807  0.00  0.00    -0.052 A 
ATOM      4  C21 8ES d   1       5.861  10.239 -16.761  0.00  0.00    -0.055 A 
ATOM      5  C22 8ES d   1       6.996  10.970 -17.195  0.00  0.00     0.038 A 
ATOM      6  C1  8ES d   1       6.949   8.149 -17.264  0.00  0.00     0.069 A 
ATOM      7  C23 8ES d   1       8.109  10.247 -17.650  0.00  0.00    -0.044 A 
ATOM      8  C   8ES d   1       8.097   8.870 -17.676  0.00  0.00     0.021 A 
ATOM      9  C2  8ES d   1       8.008   6.055 -17.750  0.00  0.00     0.104 A 
ATOM     10  N   8ES d   1       6.919   6.743 -17.300  0.00  0.00    -0.235 NA
ATOM     11  H4  8ES d   1       8.876   8.115 -19.196  0.00  0.00     0.126 H 
ATOM     12  H10 8ES d   1       4.949   8.289 -16.489  0.00  0.00     0.087 H 
ATOM     13  H11 8ES d   1       4.997  10.775 -16.386  0.00  0.00     0.087 H 
ATOM     14  H22 8ES d   1       8.991  10.780 -17.986  0.00  0.00     0.088 H 
ENDROOT
BRANCH   1  15
ATOM     15  C6  8ES d   1      10.376   5.920 -18.609  0.00  0.00     0.023 C 
ATOM     16  H5  8ES d   1      10.708   6.281 -19.594  0.00  0.00     0.071 H 
ATOM     17  H6  8ES d   1      10.092   4.860 -18.683  0.00  0.00     0.071 H 
BRANCH  15  18
ATOM     18  C7  8ES d   1      11.527   6.062 -17.608  0.00  0.00    -0.040 A 
ATOM     19  C8  8ES d   1      12.760   6.109 -18.076  0.00  0.00    -0.074 A 
ATOM     20  C9  8ES d   1      13.939   6.261 -17.114  0.00  0.00    -0.072 A 
ATOM     21  H7  8ES d   1      12.937   6.040 -19.143  0.00  0.00     0.084 H 
ATOM     22  C10 8ES d   1      13.736   6.333 -15.808  0.00  0.00    -0.025 A 
ATOM     23  H28 8ES d   1      14.949   6.310 -17.505  0.00  0.00     0.084 H 
ATOM     24  C18 8ES d   1      12.302   6.270 -15.256  0.00  0.00    -0.072 A 
ATOM     25  C19 8ES d   1      11.279   6.149 -16.090  0.00  0.00    -0.074 A 
ATOM     26  H27 8ES d   1      12.128   6.324 -14.187  0.00  0.00     0.084 H 
ATOM     27  H26 8ES d   1      10.267   6.111 -15.704  0.00  0.00     0.084 H 
BRANCH  22  28
ATOM     28  C11 8ES d   1      14.945   6.508 -14.879  0.00  0.00    -0.012 A 
ATOM     29  C17 8ES d   1      15.913   5.500 -14.827  0.00  0.00    -0.071 A 
ATOM     30  C16 8ES d   1      17.033   5.638 -14.010  0.00  0.00    -0.082 A 
ATOM     31  H9  8ES d   1      15.791   4.605 -15.427  0.00  0.00     0.084 H 
ATOM     32  C15 8ES d   1      17.206   6.794 -13.253  0.00  0.00    -0.082 A 
ATOM     33  H29 8ES d   1      17.770   4.845 -13.963  0.00  0.00     0.083 H 
ATOM     34  C14 8ES d   1      16.257   7.813 -13.312  0.00  0.00    -0.068 A 
ATOM     35  H8  8ES d   1      18.078   6.901 -12.618  0.00  0.00     0.083 H 
ATOM     36  C12 8ES d   1      15.134   7.682 -14.130  0.00  0.00     0.026 A 
ATOM     37  H30 8ES d   1      16.392   8.711 -12.720  0.00  0.00     0.085 H 
BRANCH  36  38
ATOM     38  C13 8ES d   1      14.122   8.832 -14.154  0.00  0.00     0.198 A 
ATOM     39  N5  8ES d   1      13.611   9.498 -15.301  0.00  0.00    -0.139 NA
ATOM     40  N4  8ES d   1      12.719  10.465 -14.939  0.00  0.00    -0.200 N 
ATOM     41  N3  8ES d   1      12.670  10.401 -13.572  0.00  0.00     0.022 NA
ATOM     42  H31 8ES d   1      12.197  11.102 -15.557  0.00  0.00     0.208 HD
ATOM     43  N2  8ES d   1      13.533   9.398 -13.083  0.00  0.00    -0.136 NA
ENDBRANCH  36  38
ENDBRANCH  22  28
ENDBRANCH  15  18
ENDBRANCH   1  15
BRANCH   2  44
ATOM     44  O   8ES d   1      10.420   8.784 -18.586  0.00  0.00    -0.372 OA
ATOM     45  H23 8ES d   1      10.268   9.719 -18.508  0.00  0.00     0.212 HD
ENDBRANCH   2  44
BRANCH   9  46
ATOM     46  C3  8ES d   1       7.877   4.525 -17.734  0.00  0.00    -0.013 C 
ATOM     47  H24 8ES d   1       8.875   4.079 -17.609  0.00  0.00     0.043 H 
ATOM     48  H25 8ES d   1       7.234   4.227 -16.892  0.00  0.00     0.043 H 
BRANCH  46  49
ATOM     49  C4  8ES d   1       7.262   4.017 -19.037  0.00  0.00    -0.070 C 
ATOM     50  H1  8ES d   1       7.179   2.921 -19.000  0.00  0.00     0.028 H 
ATOM     51  H2  8ES d   1       7.902   4.308 -19.883  0.00  0.00     0.028 H 
ATOM     52  H3  8ES d   1       6.262   4.456 -19.166  0.00  0.00     0.028 H 
ENDBRANCH  46  49
ENDBRANCH   9  46
BRANCH   5  53
ATOM     53  N6  8ES d   1       7.026  12.424 -17.118  0.00  0.00    -0.309 N 
ATOM     54  C24 8ES d   1       7.360  13.110 -15.864  0.00  0.00     0.265 C 
ATOM     55  O1  8ES d   1       7.373  14.297 -15.829  0.00  0.00    -0.267 OA
BRANCH  54  56
ATOM     56  C25 8ES d   1       7.684  12.373 -14.555  0.00  0.00     0.073 A 
ATOM     57  C26 8ES d   1       8.414  11.143 -14.412  0.00  0.00    -0.060 A 
ATOM     58  C27 8ES d   1       8.554  10.731 -12.956  0.00  0.00    -0.075 A 
ATOM     59  H12 8ES d   1       8.819  10.574 -15.248  0.00  0.00     0.085 H 
ATOM     60  C28 8ES d   1       7.941  11.695 -12.093  0.00  0.00    -0.044 A 
ATOM     61  H14 8ES d   1       9.053   9.825 -12.615  0.00  0.00     0.084 H 
ATOM     62  S   8ES d   1       7.262  12.981 -13.007  0.00  0.00    -0.097 SA
ATOM     63  H13 8ES d   1       7.910  11.623 -11.007  0.00  0.00     0.095 H 
ENDBRANCH  54  56
BRANCH  53  64
ATOM     64  C29 8ES d   1       6.729  13.193 -18.325  0.00  0.00     0.027 C 
ATOM     65  H15 8ES d   1       7.350  12.822 -19.154  0.00  0.00     0.072 H 
ATOM     66  H16 8ES d   1       6.956  14.254 -18.144  0.00  0.00     0.072 H 
BRANCH  64  67
ATOM     67  C30 8ES d   1       5.252  13.049 -18.697  0.00  0.00    -0.040 A 
ATOM     68  C35 8ES d   1       4.166  13.472 -17.698  0.00  0.00    -0.075 A 
ATOM     69  C34 8ES d   1       2.889  13.345 -18.023  0.00  0.00    -0.082 A 
ATOM     70  H17 8ES d   1       4.444  13.873 -16.730  0.00  0.00     0.084 H 
ATOM     71  C33 8ES d   1       2.495  12.767 -19.390  0.00  0.00    -0.083 A 
ATOM     72  H18 8ES d   1       2.120  13.650 -17.323  0.00  0.00     0.083 H 
ATOM     73  C32 8ES d   1       3.432  12.402 -20.252  0.00  0.00    -0.082 A 
ATOM     74  H19 8ES d   1       1.448  12.658 -19.650  0.00  0.00     0.083 H 
ATOM     75  C31 8ES d   1       4.914  12.548 -19.876  0.00  0.00    -0.075 A 
ATOM     76  H20 8ES d   1       3.154  12.001 -21.220  0.00  0.00     0.083 H 
ATOM     77  H21 8ES d   1       5.683  12.241 -20.575  0.00  0.00     0.084 H 
ENDBRANCH  64  67
ENDBRANCH  53  64
ENDBRANCH   5  53
TORSDOF 11
