REMARK  11 active torsions:
REMARK  status: ('A' for Active; 'I' for Inactive)
REMARK    1  A    between atoms: C7_6  and  N1_1 
REMARK    2  A    between atoms: C4_3  and  C5_4 
REMARK    3  A    between atoms: C3_36  and  C4_3 
REMARK    4  A    between atoms: C8_7  and  C7_6 
REMARK    5  A    between atoms: C14_44  and  C13_9 
REMARK    6  A    between atoms: C25_19  and  C26_16 
REMARK       I    between atoms: N6_24  and  C25_19 
REMARK    7  A    between atoms: N6_24  and  C32_25 
REMARK    8  A    between atoms: C23_31  and  N6_24 
REMARK    9  A    between atoms: C32_25  and  C33_26 
REMARK   10  A    between atoms: C2_35  and  C3_36 
REMARK   11  A    between atoms: C12_41  and  C11_39 
ROOT
ATOM      1  N1  8EM d   1     107.434 -74.005   4.783  0.00  0.00    -0.297 N 
ATOM      2  C6  8EM d   1     106.120 -73.850   4.318  0.00  0.00     0.262 A 
ATOM      3  C21 8EM d   1     104.979 -77.331   5.116  0.00  0.00    -0.052 A 
ATOM      4  C22 8EM d   1     103.632 -77.250   4.803  0.00  0.00    -0.055 A 
ATOM      5  C24 8EM d   1     103.909 -74.950   4.131  0.00  0.00    -0.039 A 
ATOM      6  C23 8EM d   1     103.080 -76.056   4.323  0.00  0.00     0.039 A 
ATOM      7  C1  8EM d   1     105.807 -76.221   4.952  0.00  0.00     0.074 A 
ATOM      8  C   8EM d   1     105.266 -75.035   4.443  0.00  0.00     0.063 A 
ATOM      9  O   8EM d   1     105.760 -72.798   3.815  0.00  0.00    -0.267 OA
ATOM     10  C2  8EM d   1     107.865 -75.246   5.262  0.00  0.00     0.110 A 
ATOM     11  N   8EM d   1     107.137 -76.311   5.353  0.00  0.00    -0.234 NA
ATOM     12  H12 8EM d   1     105.391 -78.261   5.490  0.00  0.00     0.087 H 
ATOM     13  H13 8EM d   1     102.999 -78.120   4.931  0.00  0.00     0.087 H 
ATOM     14  H14 8EM d   1     103.499 -74.026   3.740  0.00  0.00     0.088 H 
ENDROOT
BRANCH   1  15
ATOM     15  C7  8EM d   1     108.292 -72.803   4.811  0.00  0.00     0.028 C 
ATOM     16  H6  8EM d   1     108.228 -72.312   3.829  0.00  0.00     0.072 H 
ATOM     17  H7  8EM d   1     109.328 -73.124   4.994  0.00  0.00     0.072 H 
BRANCH  15  18
ATOM     18  C8  8EM d   1     107.917 -71.789   5.872  0.00  0.00    -0.040 A 
ATOM     19  C20 8EM d   1     107.195 -72.145   7.012  0.00  0.00    -0.074 A 
ATOM     20  C19 8EM d   1     106.830 -71.196   7.952  0.00  0.00    -0.072 A 
ATOM     21  H11 8EM d   1     106.915 -73.181   7.164  0.00  0.00     0.084 H 
ATOM     22  C11 8EM d   1     107.168 -69.854   7.786  0.00  0.00    -0.025 A 
ATOM     23  H27 8EM d   1     106.273 -71.501   8.830  0.00  0.00     0.084 H 
ATOM     24  C10 8EM d   1     107.904 -69.509   6.653  0.00  0.00    -0.072 A 
ATOM     25  C9  8EM d   1     108.273 -70.458   5.719  0.00  0.00    -0.074 A 
ATOM     26  H8  8EM d   1     108.193 -68.475   6.502  0.00  0.00     0.084 H 
ATOM     27  H28 8EM d   1     108.850 -70.157   4.852  0.00  0.00     0.084 H 
BRANCH  22  28
ATOM     28  C12 8EM d   1     106.774 -68.819   8.785  0.00  0.00    -0.012 A 
ATOM     29  C13 8EM d   1     105.436 -68.523   9.127  0.00  0.00     0.024 A 
ATOM     30  C15 8EM d   1     105.149 -67.426   9.948  0.00  0.00    -0.068 A 
ATOM     31  C16 8EM d   1     106.176 -66.650  10.458  0.00  0.00    -0.082 A 
ATOM     32  H9  8EM d   1     104.120 -67.183  10.185  0.00  0.00     0.085 H 
ATOM     33  C17 8EM d   1     107.488 -66.949  10.156  0.00  0.00    -0.082 A 
ATOM     34  H30 8EM d   1     105.948 -65.805  11.097  0.00  0.00     0.083 H 
ATOM     35  C18 8EM d   1     107.786 -68.021   9.331  0.00  0.00    -0.071 A 
ATOM     36  H10 8EM d   1     108.288 -66.343  10.565  0.00  0.00     0.083 H 
ATOM     37  H29 8EM d   1     108.822 -68.246   9.104  0.00  0.00     0.084 H 
BRANCH  29  38
ATOM     38  C14 8EM d   1     104.256 -69.371   8.708  0.00  0.00     0.180 A 
ATOM     39  N5  8EM d   1     103.369 -69.905   9.560  0.00  0.00    -0.108 NA
ATOM     40  N4  8EM d   1     102.483 -70.557   8.776  0.00  0.00    -0.023 NA
ATOM     41  N3  8EM d   1     102.828 -70.418   7.519  0.00  0.00    -0.046 NA
ATOM     42  N2  8EM d   1     103.953 -69.668   7.440  0.00  0.00    -0.239 N 
ATOM     43  H31 8EM d   1     104.463 -69.388   6.590  0.00  0.00     0.192 HD
ENDBRANCH  29  38
ENDBRANCH  22  28
ENDBRANCH  15  18
ENDBRANCH   1  15
BRANCH  10  44
ATOM     44  C3  8EM d   1     109.272 -75.379   5.736  0.00  0.00    -0.010 C 
ATOM     45  H25 8EM d   1     109.635 -74.384   6.035  0.00  0.00     0.044 H 
ATOM     46  H26 8EM d   1     109.284 -76.050   6.607  0.00  0.00     0.044 H 
BRANCH  44  47
ATOM     47  C4  8EM d   1     110.211 -75.937   4.687  0.00  0.00    -0.062 C 
ATOM     48  H1  8EM d   1     109.681 -76.712   4.114  0.00  0.00     0.033 H 
ATOM     49  H2  8EM d   1     110.511 -75.123   4.011  0.00  0.00     0.033 H 
BRANCH  47  50
ATOM     50  C5  8EM d   1     111.452 -76.546   5.297  0.00  0.00    -0.076 C 
ATOM     51  H3  8EM d   1     112.100 -76.936   4.498  0.00  0.00     0.027 H 
ATOM     52  H4  8EM d   1     111.165 -77.368   5.970  0.00  0.00     0.027 H 
ATOM     53  H5  8EM d   1     111.995 -75.778   5.867  0.00  0.00     0.027 H 
ENDBRANCH  47  50
ENDBRANCH  44  47
ENDBRANCH  10  44
BRANCH   6  54
ATOM     54  N6  8EM d   1     101.680 -75.974   4.024  0.00  0.00    -0.308 N 
ATOM     55  C25 8EM d   1     100.690 -76.005   4.970  0.00  0.00     0.258 C 
ATOM     56  O1  8EM d   1      99.546 -76.292   4.669  0.00  0.00    -0.267 OA
BRANCH  55  57
ATOM     57  C26 8EM d   1     100.955 -75.608   6.395  0.00  0.00     0.032 A 
ATOM     58  C31 8EM d   1     102.093 -74.927   6.840  0.00  0.00    -0.068 A 
ATOM     59  C30 8EM d   1     102.295 -74.703   8.195  0.00  0.00    -0.082 A 
ATOM     60  H16 8EM d   1     102.823 -74.572   6.121  0.00  0.00     0.085 H 
ATOM     61  C29 8EM d   1     101.376 -75.166   9.125  0.00  0.00    -0.083 A 
ATOM     62  H17 8EM d   1     103.175 -74.164   8.528  0.00  0.00     0.083 H 
ATOM     63  C28 8EM d   1     100.248 -75.845   8.697  0.00  0.00    -0.082 A 
ATOM     64  H18 8EM d   1     101.540 -74.997  10.183  0.00  0.00     0.083 H 
ATOM     65  C27 8EM d   1     100.032 -76.062   7.344  0.00  0.00    -0.068 A 
ATOM     66  H15 8EM d   1      99.530 -76.209   9.423  0.00  0.00     0.083 H 
ATOM     67  H19 8EM d   1      99.141 -76.587   7.019  0.00  0.00     0.085 H 
ENDBRANCH  55  57
BRANCH  54  68
ATOM     68  C32 8EM d   1     101.284 -76.040   2.622  0.00  0.00     0.047 C 
ATOM     69  H20 8EM d   1     101.905 -75.344   2.038  0.00  0.00     0.075 H 
ATOM     70  H21 8EM d   1     100.226 -75.752   2.532  0.00  0.00     0.075 H 
BRANCH  68  71
ATOM     71  C33 8EM d   1     101.462 -77.419   2.088  0.00  0.00     0.070 A 
ATOM     72  O2  8EM d   1     100.704 -78.405   2.659  0.00  0.00    -0.325 OA
ATOM     73  C36 8EM d   1     101.054 -79.573   2.028  0.00  0.00     0.019 A 
ATOM     74  C35 8EM d   1     101.980 -79.345   1.114  0.00  0.00    -0.059 A 
ATOM     75  H22 8EM d   1     100.628 -80.550   2.250  0.00  0.00     0.123 H 
ATOM     76  C34 8EM d   1     102.250 -77.946   1.142  0.00  0.00    -0.051 A 
ATOM     77  H23 8EM d   1     102.447 -80.084   0.464  0.00  0.00     0.086 H 
ATOM     78  H24 8EM d   1     102.960 -77.409   0.515  0.00  0.00     0.087 H 
ENDBRANCH  68  71
ENDBRANCH  54  68
ENDBRANCH   6  54
TORSDOF 11
