REMARK WARNING: 32 MAX_TORS EXCEEDED!!!
REMARK  51 active torsions:
REMARK  status: ('A' for Active; 'I' for Inactive)
REMARK    1  A    between atoms: N_1  and  CA_2 
REMARK    2  A    between atoms: CA_2  and  C_3 
REMARK    3  A    between atoms: CA_2  and  CB_5 
REMARK       I    between atoms: C_3  and  N_7 
REMARK    4  A    between atoms: CB_5  and  OG_6 
REMARK    5  A    between atoms: N_7  and  CA_8 
REMARK    6  A    between atoms: CA_8  and  C_9 
REMARK    7  A    between atoms: CA_8  and  CB_11 
REMARK       I    between atoms: C_9  and  N_15 
REMARK    8  A    between atoms: CB_11  and  CG_12 
REMARK    9  A    between atoms: CG_12  and  CD1_13 
REMARK   10  A    between atoms: CG_12  and  CD2_14 
REMARK   11  A    between atoms: N_15  and  CA_16 
REMARK   12  A    between atoms: CA_16  and  C_17 
REMARK   13  A    between atoms: CA_16  and  CB_19 
REMARK       I    between atoms: C_17  and  N_23 
REMARK   14  A    between atoms: CB_19  and  CG_20 
REMARK   15  A    between atoms: CG_20  and  CD1_21 
REMARK   16  A    between atoms: CG_20  and  CD2_22 
REMARK   17  A    between atoms: N_23  and  CA_24 
REMARK   18  A    between atoms: CA_24  and  C_25 
REMARK   19  A    between atoms: CA_24  and  CB_27 
REMARK       I    between atoms: C_25  and  N_32 
REMARK   20  A    between atoms: CB_27  and  CG_28 
REMARK   21  A    between atoms: CG_28  and  CD_29 
REMARK   22  A    between atoms: CD_29  and  CE_30 
REMARK   23  A    between atoms: CE_30  and  NZ_31 
REMARK   24  A    between atoms: N_32  and  CA_33 
REMARK   25  A    between atoms: CA_33  and  C_34 
REMARK   26  A    between atoms: CA_33  and  CB_36 
REMARK       I    between atoms: C_34  and  N_41 
REMARK   27  A    between atoms: CB_36  and  CG_37 
REMARK   28  A    between atoms: CG_37  and  CD_38 
REMARK   29  A    between atoms: CD_38  and  CE_39 
REMARK   30  A    between atoms: CE_39  and  NZ_40 
REMARK   31  A    between atoms: N_41  and  CA_42 
REMARK   32  A    between atoms: CA_42  and  C_43 
REMARK   33  A    between atoms: CA_42  and  CB_45 
REMARK       I    between atoms: C_43  and  N_49 
REMARK   34  A    between atoms: CB_45  and  CG_46 
REMARK   35  A    between atoms: CG_46  and  CD1_47 
REMARK   36  A    between atoms: CG_46  and  CD2_48 
REMARK   37  A    between atoms: N_49  and  CA_50 
REMARK   38  A    between atoms: CA_50  and  C_51 
REMARK   39  A    between atoms: CA_50  and  CB_53 
REMARK       I    between atoms: C_51  and  N_57 
REMARK   40  A    between atoms: CB_53  and  CG_54 
REMARK   41  A    between atoms: CG_54  and  CD1_55 
REMARK   42  A    between atoms: CG_54  and  CD2_56 
REMARK   43  A    between atoms: N_57  and  CA_58 
REMARK   44  A    between atoms: CA_58  and  C_59 
REMARK   45  A    between atoms: CA_58  and  CB_61 
REMARK       I    between atoms: C_59  and  N_65 
REMARK   46  A    between atoms: CB_61  and  CG_62 
REMARK   47  A    between atoms: CG_62  and  CD1_63 
REMARK   48  A    between atoms: CG_62  and  CD2_64 
REMARK   49  A    between atoms: N_65  and  CA_66 
REMARK   50  A    between atoms: CA_66  and  C_67 
REMARK   51  A    between atoms: CA_66  and  CB_69 
ROOT
ATOM      1  CA  SER d   1     -18.727   1.805 -25.404  0.00  0.00     0.089 C 
ATOM      2  H44 SER d   1     -19.108   1.226 -26.258  0.00  0.00     0.087 H 
ENDROOT
BRANCH   1   3
ATOM      3  N   SER d   1     -17.280   1.636 -25.338  0.00  0.00    -0.346 N 
ATOM      4  C   SER d   1     -16.510   1.936 -26.386  0.00  0.00     0.241 C 
ATOM      5  O   SER d   1     -16.981   2.329 -27.460  0.00  0.00    -0.271 OA
ATOM      6  H43 SER d   1     -16.860   1.292 -24.498  0.00  0.00     0.163 HD
BRANCH   4   7
ATOM      7  CA  SER d   1     -15.006   1.794 -26.204  0.00  0.00     0.089 C 
ATOM      8  H31 SER d   1     -14.508   2.465 -26.919  0.00  0.00     0.087 H 
BRANCH   7   9
ATOM      9  N   SER d   1     -14.609   2.181 -24.856  0.00  0.00    -0.346 N 
ATOM     10  C   SER d   1     -14.822   3.427 -24.427  0.00  0.00     0.241 C 
ATOM     11  O   SER d   1     -15.330   4.293 -25.148  0.00  0.00    -0.271 OA
ATOM     12  H30 SER d   1     -14.176   1.512 -24.252  0.00  0.00     0.163 HD
BRANCH  10  13
ATOM     13  CA  SER d   1     -14.418   3.743 -22.994  0.00  0.00     0.089 C 
ATOM     14  H20 SER d   1     -14.886   4.696 -22.705  0.00  0.00     0.087 H 
BRANCH  13  15
ATOM     15  N   SER d   1     -14.887   2.704 -22.084  0.00  0.00    -0.346 N 
ATOM     16  C   SER d   1     -16.189   2.437 -21.975  0.00  0.00     0.241 C 
ATOM     17  O   SER d   1     -17.047   3.069 -22.603  0.00  0.00    -0.271 OA
ATOM     18  H19 SER d   1     -14.227   2.188 -21.538  0.00  0.00     0.163 HD
BRANCH  16  19
ATOM     19  CA  SER d   1     -16.595   1.311 -21.035  0.00  0.00     0.089 C 
ATOM     20  H9  SER d   1     -17.588   0.949 -21.340  0.00  0.00     0.087 H 
BRANCH  19  21
ATOM     21  N   SER d   1     -15.657   0.197 -21.112  0.00  0.00    -0.346 N 
ATOM     22  C   SER d   1     -15.584  -0.545 -22.218  0.00  0.00     0.251 C 
ATOM     23  O   SER d   1     -16.307  -0.361 -23.197  0.00  0.00    -0.271 OA
ATOM     24  H8  SER d   1     -15.066  -0.011 -20.333  0.00  0.00     0.163 HD
BRANCH  22  25
ATOM     25  CA  SER d   1     -14.542  -1.656 -22.215  0.00  0.00     0.195 C 
ATOM     26  H4  SER d   1     -14.081  -1.698 -21.217  0.00  0.00     0.102 H 
BRANCH  25  27
ATOM     27  N   SER d   1     -15.157  -2.949 -22.492  0.00  0.00    -0.064 N 
ATOM     28  H1  SER d   1     -14.449  -3.666 -22.485  0.00  0.00     0.275 HD
ATOM     29  H2  SER d   1     -15.600  -2.923 -23.397  0.00  0.00     0.275 HD
ATOM     30  H3  SER d   1     -15.847  -3.151 -21.786  0.00  0.00     0.275 HD
ENDBRANCH  25  27
BRANCH  25  31
ATOM     31  CB  SER d   1     -13.451  -1.353 -23.243  0.00  0.00     0.051 C 
ATOM     32  H5  SER d   1     -13.841  -1.559 -24.251  0.00  0.00     0.077 H 
ATOM     33  H6  SER d   1     -12.583  -2.000 -23.046  0.00  0.00     0.077 H 
BRANCH  31  34
ATOM     34  OG  SER d   1     -13.043   0.001 -23.173  0.00  0.00    -0.398 OA
ATOM     35  H7  SER d   1     -12.702   0.183 -22.305  0.00  0.00     0.209 HD
ENDBRANCH  31  34
ENDBRANCH  25  31
ENDBRANCH  22  25
ENDBRANCH  19  21
BRANCH  19  36
ATOM     36  CB  SER d   1     -16.686   1.820 -19.598  0.00  0.00    -0.035 C 
ATOM     37  H10 SER d   1     -15.665   2.046 -19.256  0.00  0.00     0.037 H 
ATOM     38  H11 SER d   1     -17.109   1.014 -18.981  0.00  0.00     0.037 H 
BRANCH  36  39
ATOM     39  CG  SER d   1     -17.540   3.071 -19.384  0.00  0.00    -0.059 C 
ATOM     40  H12 SER d   1     -17.090   3.898 -19.953  0.00  0.00     0.038 H 
BRANCH  39  41
ATOM     41  CD1 SER d   1     -18.952   2.856 -19.898  0.00  0.00    -0.073 C 
ATOM     42  H13 SER d   1     -19.545   3.768 -19.733  0.00  0.00     0.028 H 
ATOM     43  H14 SER d   1     -19.414   2.015 -19.360  0.00  0.00     0.028 H 
ATOM     44  H15 SER d   1     -18.920   2.629 -20.974  0.00  0.00     0.028 H 
ENDBRANCH  39  41
BRANCH  39  45
ATOM     45  CD2 SER d   1     -17.554   3.456 -17.911  0.00  0.00    -0.073 C 
ATOM     46  H16 SER d   1     -16.522   3.606 -17.561  0.00  0.00     0.028 H 
ATOM     47  H17 SER d   1     -18.026   2.652 -17.326  0.00  0.00     0.028 H 
ATOM     48  H18 SER d   1     -18.124   4.388 -17.781  0.00  0.00     0.028 H 
ENDBRANCH  39  45
ENDBRANCH  36  39
ENDBRANCH  19  36
ENDBRANCH  16  19
ENDBRANCH  13  15
BRANCH  13  49
ATOM     49  CB  SER d   1     -12.901   3.894 -22.878  0.00  0.00    -0.035 C 
ATOM     50  H21 SER d   1     -12.457   2.898 -23.024  0.00  0.00     0.037 H 
ATOM     51  H22 SER d   1     -12.681   4.248 -21.860  0.00  0.00     0.037 H 
BRANCH  49  52
ATOM     52  CG  SER d   1     -12.215   4.852 -23.857  0.00  0.00    -0.059 C 
ATOM     53  H23 SER d   1     -12.399   4.488 -24.879  0.00  0.00     0.038 H 
BRANCH  52  54
ATOM     54  CD1 SER d   1     -12.780   6.260 -23.747  0.00  0.00    -0.073 C 
ATOM     55  H24 SER d   1     -12.265   6.918 -24.462  0.00  0.00     0.028 H 
ATOM     56  H25 SER d   1     -12.627   6.638 -22.725  0.00  0.00     0.028 H 
ATOM     57  H26 SER d   1     -13.856   6.242 -23.974  0.00  0.00     0.028 H 
ENDBRANCH  52  54
BRANCH  52  58
ATOM     58  CD2 SER d   1     -10.716   4.864 -23.616  0.00  0.00    -0.073 C 
ATOM     59  H27 SER d   1     -10.323   3.840 -23.699  0.00  0.00     0.028 H 
ATOM     60  H28 SER d   1     -10.510   5.255 -22.609  0.00  0.00     0.028 H 
ATOM     61  H29 SER d   1     -10.229   5.505 -24.366  0.00  0.00     0.028 H 
ENDBRANCH  52  58
ENDBRANCH  49  52
ENDBRANCH  13  49
ENDBRANCH  10  13
ENDBRANCH   7   9
BRANCH   7  62
ATOM     62  CB  SER d   1     -14.555   0.361 -26.491  0.00  0.00    -0.038 C 
ATOM     63  H32 SER d   1     -15.117  -0.318 -25.833  0.00  0.00     0.036 H 
ATOM     64  H33 SER d   1     -13.481   0.284 -26.266  0.00  0.00     0.036 H 
BRANCH  62  65
ATOM     65  CG  SER d   1     -14.775  -0.077 -27.931  0.00  0.00    -0.061 C 
ATOM     66  H34 SER d   1     -14.570   0.775 -28.596  0.00  0.00     0.033 H 
ATOM     67  H35 SER d   1     -15.822  -0.391 -28.050  0.00  0.00     0.033 H 
BRANCH  65  68
ATOM     68  CD  SER d   1     -13.867  -1.236 -28.322  0.00  0.00    -0.043 C 
ATOM     69  H36 SER d   1     -13.199  -1.466 -27.479  0.00  0.00     0.035 H 
ATOM     70  H37 SER d   1     -13.267  -0.940 -29.195  0.00  0.00     0.035 H 
BRANCH  68  71
ATOM     71  CE  SER d   1     -14.664  -2.481 -28.672  0.00  0.00     0.080 C 
ATOM     72  H38 SER d   1     -15.412  -2.221 -29.436  0.00  0.00     0.075 H 
ATOM     73  H39 SER d   1     -15.174  -2.843 -27.767  0.00  0.00     0.075 H 
BRANCH  71  74
ATOM     74  NZ  SER d   1     -13.793  -3.568 -29.201  0.00  0.00    -0.079 N 
ATOM     75  H40 SER d   1     -14.357  -4.374 -29.421  0.00  0.00     0.274 HD
ATOM     76  H41 SER d   1     -13.107  -3.817 -28.506  0.00  0.00     0.274 HD
ATOM     77  H42 SER d   1     -13.325  -3.248 -30.035  0.00  0.00     0.274 HD
ENDBRANCH  71  74
ENDBRANCH  68  71
ENDBRANCH  65  68
ENDBRANCH  62  65
ENDBRANCH   7  62
ENDBRANCH   4   7
ENDBRANCH   1   3
BRANCH   1  78
ATOM     78  C   SER d   1     -19.097   3.269 -25.617  0.00  0.00     0.241 C 
ATOM     79  O   SER d   1     -20.031   3.580 -26.367  0.00  0.00    -0.271 OA
ATOM     80  N   SER d   1     -18.366   4.184 -24.974  0.00  0.00    -0.346 N 
ATOM     81  H56 SER d   1     -17.624   3.889 -24.372  0.00  0.00     0.163 HD
BRANCH  80  82
ATOM     82  CA  SER d   1     -18.636   5.610 -25.138  0.00  0.00     0.089 C 
ATOM     83  H57 SER d   1     -19.709   5.782 -24.966  0.00  0.00     0.087 H 
BRANCH  82  84
ATOM     84  C   SER d   1     -18.293   6.083 -26.543  0.00  0.00     0.241 C 
ATOM     85  O   SER d   1     -19.026   6.887 -27.131  0.00  0.00    -0.271 OA
ATOM     86  N   SER d   1     -17.175   5.607 -27.093  0.00  0.00    -0.346 N 
ATOM     87  H67 SER d   1     -16.630   4.928 -26.601  0.00  0.00     0.163 HD
BRANCH  86  88
ATOM     88  CA  SER d   1     -16.742   6.070 -28.406  0.00  0.00     0.089 C 
ATOM     89  H68 SER d   1     -16.858   7.163 -28.440  0.00  0.00     0.087 H 
BRANCH  88  90
ATOM     90  C   SER d   1     -17.586   5.472 -29.525  0.00  0.00     0.241 C 
ATOM     91  O   SER d   1     -17.689   6.066 -30.604  0.00  0.00    -0.271 OA
ATOM     92  N   SER d   1     -18.198   4.308 -29.294  0.00  0.00    -0.346 N 
ATOM     93  H78 SER d   1     -18.078   3.857 -28.410  0.00  0.00     0.163 HD
BRANCH  92  94
ATOM     94  CA  SER d   1     -19.039   3.683 -30.309  0.00  0.00     0.089 C 
ATOM     95  H79 SER d   1     -18.575   3.865 -31.290  0.00  0.00     0.087 H 
BRANCH  94  96
ATOM     96  C   SER d   1     -20.452   4.251 -30.341  0.00  0.00     0.241 C 
ATOM     97  O   SER d   1     -21.161   4.047 -31.332  0.00  0.00    -0.271 OA
ATOM     98  N   SER d   1     -20.878   4.947 -29.293  0.00  0.00    -0.345 N 
ATOM     99  H89 SER d   1     -20.248   5.128 -28.538  0.00  0.00     0.163 HD
BRANCH  98 100
ATOM    100  CA  SER d   1     -22.245   5.453 -29.219  0.00  0.00     0.093 C 
ATOM    101  H90 SER d   1     -22.933   4.609 -29.375  0.00  0.00     0.089 H 
BRANCH 100 102
ATOM    102  C   SER d   1     -22.512   6.492 -30.304  0.00  0.00     0.196 C 
ATOM    103  O   SER d   1     -21.615   7.233 -30.707  0.00  0.00    -0.646 OA
ATOM    104  OXT SER d   1     -23.631   6.615 -30.803  0.00  0.00    -0.646 OA
ENDBRANCH 100 102
BRANCH 100 105
ATOM    105  CB  SER d   1     -22.512   6.041 -27.844  0.00  0.00    -0.048 C 
ATOM    106  H91 SER d   1     -23.544   6.418 -27.801  0.00  0.00     0.030 H 
ATOM    107  H92 SER d   1     -21.811   6.868 -27.656  0.00  0.00     0.030 H 
ATOM    108  H93 SER d   1     -22.374   5.263 -27.079  0.00  0.00     0.030 H 
ENDBRANCH 100 105
ENDBRANCH  98 100
ENDBRANCH  94  96
BRANCH  94 109
ATOM    109  CB  SER d   1     -19.115   2.171 -30.076  0.00  0.00    -0.035 C 
ATOM    110  H80 SER d   1     -19.991   1.797 -30.626  0.00  0.00     0.037 H 
ATOM    111  H81 SER d   1     -19.263   2.011 -28.998  0.00  0.00     0.037 H 
BRANCH 109 112
ATOM    112  CG  SER d   1     -17.913   1.327 -30.503  0.00  0.00    -0.059 C 
ATOM    113  H82 SER d   1     -17.006   1.756 -30.052  0.00  0.00     0.038 H 
BRANCH 112 114
ATOM    114  CD1 SER d   1     -18.073  -0.103 -30.006  0.00  0.00    -0.073 C 
ATOM    115  H83 SER d   1     -17.203  -0.699 -30.319  0.00  0.00     0.028 H 
ATOM    116  H84 SER d   1     -18.989  -0.539 -30.432  0.00  0.00     0.028 H 
ATOM    117  H85 SER d   1     -18.142  -0.104 -28.908  0.00  0.00     0.028 H 
ENDBRANCH 112 114
BRANCH 112 118
ATOM    118  CD2 SER d   1     -17.756   1.345 -32.012  0.00  0.00    -0.073 C 
ATOM    119  H86 SER d   1     -17.642   2.383 -32.356  0.00  0.00     0.028 H 
ATOM    120  H87 SER d   1     -18.647   0.900 -32.479  0.00  0.00     0.028 H 
ATOM    121  H88 SER d   1     -16.866   0.765 -32.295  0.00  0.00     0.028 H 
ENDBRANCH 112 118
ENDBRANCH 109 112
ENDBRANCH  94 109
ENDBRANCH  92  94
ENDBRANCH  88  90
BRANCH  88 122
ATOM    122  CB  SER d   1     -15.263   5.735 -28.605  0.00  0.00    -0.035 C 
ATOM    123  H69 SER d   1     -14.973   6.055 -29.617  0.00  0.00     0.037 H 
ATOM    124  H70 SER d   1     -15.144   4.645 -28.517  0.00  0.00     0.037 H 
BRANCH 122 125
ATOM    125  CG  SER d   1     -14.313   6.400 -27.604  0.00  0.00    -0.059 C 
ATOM    126  H71 SER d   1     -14.695   6.210 -26.590  0.00  0.00     0.038 H 
BRANCH 125 127
ATOM    127  CD1 SER d   1     -12.924   5.798 -27.711  0.00  0.00    -0.073 C 
ATOM    128  H72 SER d   1     -12.256   6.286 -26.986  0.00  0.00     0.028 H 
ATOM    129  H73 SER d   1     -12.536   5.951 -28.729  0.00  0.00     0.028 H 
ATOM    130  H74 SER d   1     -12.974   4.721 -27.495  0.00  0.00     0.028 H 
ENDBRANCH 125 127
BRANCH 125 131
ATOM    131  CD2 SER d   1     -14.258   7.907 -27.816  0.00  0.00    -0.073 C 
ATOM    132  H75 SER d   1     -15.272   8.326 -27.735  0.00  0.00     0.028 H 
ATOM    133  H76 SER d   1     -13.851   8.122 -28.815  0.00  0.00     0.028 H 
ATOM    134  H77 SER d   1     -13.611   8.362 -27.051  0.00  0.00     0.028 H 
ENDBRANCH 125 131
ENDBRANCH 122 125
ENDBRANCH  88 122
ENDBRANCH  86  88
ENDBRANCH  82  84
BRANCH  82 135
ATOM    135  CB  SER d   1     -17.840   6.416 -24.111  0.00  0.00    -0.035 C 
ATOM    136  H58 SER d   1     -17.949   7.480 -24.368  0.00  0.00     0.037 H 
ATOM    137  H59 SER d   1     -16.784   6.122 -24.205  0.00  0.00     0.037 H 
BRANCH 135 138
ATOM    138  CG  SER d   1     -18.234   6.254 -22.643  0.00  0.00    -0.059 C 
ATOM    139  H60 SER d   1     -18.257   5.181 -22.402  0.00  0.00     0.038 H 
BRANCH 138 140
ATOM    140  CD1 SER d   1     -17.204   6.928 -21.756  0.00  0.00    -0.073 C 
ATOM    141  H61 SER d   1     -17.493   6.808 -20.702  0.00  0.00     0.028 H 
ATOM    142  H62 SER d   1     -17.152   7.999 -22.002  0.00  0.00     0.028 H 
ATOM    143  H63 SER d   1     -16.220   6.466 -21.921  0.00  0.00     0.028 H 
ENDBRANCH 138 140
BRANCH 138 144
ATOM    144  CD2 SER d   1     -19.613   6.833 -22.390  0.00  0.00    -0.073 C 
ATOM    145  H64 SER d   1     -20.346   6.333 -23.041  0.00  0.00     0.028 H 
ATOM    146  H65 SER d   1     -19.604   7.911 -22.609  0.00  0.00     0.028 H 
ATOM    147  H66 SER d   1     -19.890   6.675 -21.337  0.00  0.00     0.028 H 
ENDBRANCH 138 144
ENDBRANCH 135 138
ENDBRANCH  82 135
ENDBRANCH  80  82
ENDBRANCH   1  78
BRANCH   1 148
ATOM    148  CB  SER d   1     -19.365   1.261 -24.125  0.00  0.00    -0.038 C 
ATOM    149  H45 SER d   1     -18.994   1.857 -23.278  0.00  0.00     0.036 H 
ATOM    150  H46 SER d   1     -19.048   0.215 -24.003  0.00  0.00     0.036 H 
BRANCH 148 151
ATOM    151  CG  SER d   1     -20.882   1.300 -24.101  0.00  0.00    -0.061 C 
ATOM    152  H47 SER d   1     -21.271   0.719 -24.950  0.00  0.00     0.033 H 
ATOM    153  H48 SER d   1     -21.217   2.344 -24.188  0.00  0.00     0.033 H 
BRANCH 151 154
ATOM    154  CD  SER d   1     -21.418   0.710 -22.805  0.00  0.00    -0.043 C 
ATOM    155  H49 SER d   1     -21.017   1.286 -21.958  0.00  0.00     0.035 H 
ATOM    156  H50 SER d   1     -21.088  -0.336 -22.726  0.00  0.00     0.035 H 
BRANCH 154 157
ATOM    157  CE  SER d   1     -22.939   0.753 -22.755  0.00  0.00     0.080 C 
ATOM    158  H51 SER d   1     -23.338   0.174 -23.601  0.00  0.00     0.075 H 
ATOM    159  H52 SER d   1     -23.268   1.799 -22.839  0.00  0.00     0.075 H 
BRANCH 157 160
ATOM    160  NZ  SER d   1     -23.472   0.183 -21.488  0.00  0.00    -0.079 N 
ATOM    161  H53 SER d   1     -24.479   0.231 -21.496  0.00  0.00     0.274 HD
ATOM    162  H54 SER d   1     -23.117   0.711 -20.706  0.00  0.00     0.274 HD
ATOM    163  H55 SER d   1     -23.182  -0.779 -21.404  0.00  0.00     0.274 HD
ENDBRANCH 157 160
ENDBRANCH 154 157
ENDBRANCH 151 154
ENDBRANCH 148 151
ENDBRANCH   1 148
TORSDOF 51
