REMARK  6 active torsions:
REMARK  status: ('A' for Active; 'I' for Inactive)
REMARK    1  A    between atoms: C5_1  and  N6_15 
REMARK    2  A    between atoms: C7_2  and  C8_3 
REMARK    3  A    between atoms: N6_15  and  C7_2 
REMARK    4  A    between atoms: C15_5  and  C21_6 
REMARK    5  A    between atoms: N2_12  and  C1_11 
REMARK    6  A    between atoms: C3_13  and  N2_12 
ROOT
ATOM      1  C5  8FY d   1      -1.451 -39.409 -27.794  0.00  0.00     0.158 A 
ATOM      2  C15 8FY d   1       0.283 -39.132 -25.752  0.00  0.00     0.007 A 
ATOM      3  C3  8FY d   1      -3.505 -40.190 -27.134  0.00  0.00     0.726 A 
ATOM      4  N4  8FY d   1      -2.679 -39.785 -28.073  0.00  0.00    -0.044 NA
ATOM      5  C14 8FY d   1      -0.979 -39.450 -26.462  0.00  0.00     0.069 A 
ATOM      6  C16 8FY d   1       0.031 -39.403 -24.445  0.00  0.00    -0.009 A 
ATOM      7  N17 8FY d   1      -1.246 -39.875 -24.274  0.00  0.00    -0.349 N 
ATOM      8  C19 8FY d   1      -1.894 -39.911 -25.478  0.00  0.00     0.161 A 
ATOM      9  N20 8FY d   1      -3.136 -40.275 -25.855  0.00  0.00    -0.044 NA
ATOM     10  H14 8FY d   1       0.749 -39.264 -23.638  0.00  0.00     0.112 H 
ATOM     11  H15 8FY d   1      -1.656 -40.160 -23.373  0.00  0.00     0.167 HD
ENDROOT
BRANCH   2  12
ATOM     12  C21 8FY d   1       1.531 -38.532 -26.308  0.00  0.00    -0.023 A 
ATOM     13  C22 8FY d   1       2.836 -38.816 -25.867  0.00  0.00    -0.070 A 
ATOM     14  C23 8FY d   1       3.907 -38.175 -26.437  0.00  0.00    -0.053 A 
ATOM     15  H4  8FY d   1       2.996 -39.541 -25.077  0.00  0.00     0.084 H 
ATOM     16  C24 8FY d   1       3.740 -37.190 -27.452  0.00  0.00     0.066 A 
ATOM     17  H16 8FY d   1       4.908 -38.425 -26.105  0.00  0.00     0.087 H 
ATOM     18  N25 8FY d   1       4.775 -36.544 -28.037  0.00  0.00    -0.260 NA
ATOM     19  C29 8FY d   1       2.429 -36.871 -27.875  0.00  0.00    -0.007 A 
ATOM     20  C26 8FY d   1       4.619 -35.635 -28.991  0.00  0.00     0.003 A 
ATOM     21  C27 8FY d   1       3.340 -35.286 -29.430  0.00  0.00    -0.065 A 
ATOM     22  H5  8FY d   1       5.489 -35.161 -29.432  0.00  0.00     0.114 H 
ATOM     23  C28 8FY d   1       2.234 -35.894 -28.885  0.00  0.00    -0.069 A 
ATOM     24  H17 8FY d   1       3.219 -34.534 -30.202  0.00  0.00     0.085 H 
ATOM     25  H6  8FY d   1       1.236 -35.633 -29.219  0.00  0.00     0.085 H 
ATOM     26  C30 8FY d   1       1.355 -37.543 -27.270  0.00  0.00    -0.060 A 
ATOM     27  H18 8FY d   1       0.346 -37.280 -27.565  0.00  0.00     0.086 H 
ENDBRANCH   2  12
BRANCH   1  28
ATOM     28  N6  8FY d   1      -0.725 -39.009 -28.875  0.00  0.00    -0.366 N 
ATOM     29  H11 8FY d   1       0.304 -39.057 -28.868  0.00  0.00     0.161 HD
BRANCH  28  30
ATOM     30  C7  8FY d   1      -1.448 -38.508 -30.049  0.00  0.00     0.050 C 
ATOM     31  H1  8FY d   1      -2.131 -39.276 -30.441  0.00  0.00     0.075 H 
ATOM     32  H2  8FY d   1      -2.020 -37.603 -29.795  0.00  0.00     0.075 H 
BRANCH  30  33
ATOM     33  C8  8FY d   1      -0.377 -38.193 -31.050  0.00  0.00     0.142 A 
ATOM     34  N9  8FY d   1      -0.707 -38.029 -32.311  0.00  0.00    -0.244 NA
ATOM     35  C10 8FY d   1       0.239 -37.757 -33.209  0.00  0.00     0.006 A 
ATOM     36  C11 8FY d   1       1.572 -37.641 -32.827  0.00  0.00    -0.049 A 
ATOM     37  H3  8FY d   1      -0.033 -37.624 -34.250  0.00  0.00     0.114 H 
ATOM     38  C12 8FY d   1       1.873 -37.811 -31.480  0.00  0.00     0.006 A 
ATOM     39  H12 8FY d   1       2.348 -37.426 -33.553  0.00  0.00     0.087 H 
ATOM     40  N13 8FY d   1       0.886 -38.091 -30.637  0.00  0.00    -0.244 NA
ATOM     41  H13 8FY d   1       2.893 -37.717 -31.125  0.00  0.00     0.114 H 
ENDBRANCH  30  33
ENDBRANCH  28  30
ENDBRANCH   1  28
BRANCH   3  42
ATOM     42  N2  8FY d   1      -4.778 -40.537 -27.577  0.00  0.00    -0.227 N 
ATOM     43  H10 8FY d   1      -5.342 -41.210 -27.038  0.00  0.00     0.177 HD
BRANCH  42  44
ATOM     44  C1  8FY d   1      -5.327 -39.944 -28.818  0.00  0.00    -0.005 C 
ATOM     45  H7  8FY d   1      -6.337 -40.340 -28.998  0.00  0.00     0.057 H 
ATOM     46  H8  8FY d   1      -4.676 -40.201 -29.666  0.00  0.00     0.057 H 
ATOM     47  H9  8FY d   1      -5.376 -38.850 -28.711  0.00  0.00     0.057 H 
ENDBRANCH  42  44
ENDBRANCH   3  42
TORSDOF 6
