REMARK  7 active torsions:
REMARK  status: ('A' for Active; 'I' for Inactive)
REMARK    1  A    between atoms: C12_2  and  C14_1 
REMARK    2  A    between atoms: C12_2  and  C13_3 
REMARK    3  A    between atoms: C03_5  and  C02_4 
REMARK       I    between atoms: C02_4  and  N16_8 
REMARK    4  A    between atoms: C04_6  and  C05_7 
REMARK    5  A    between atoms: C05_7  and  O06_10 
REMARK    6  A    between atoms: N16_8  and  O17_16 
REMARK    7  A    between atoms: O06_10  and  P07_17 
ROOT
ATOM      1  C12 MOL d   1     191.480 -11.865 226.016  0.00  0.00     0.158 C 
ATOM      2  C03 MOL d   1     190.087 -10.874 227.551  0.00  0.00     0.147 C 
ATOM      3  C04 MOL d   1     190.354 -12.386 227.862  0.00  0.00     0.096 C 
ATOM      4  O11 MOL d   1     191.344 -12.826 226.909  0.00  0.00    -0.345 OA
ATOM      5  O15 MOL d   1     190.840 -10.560 226.611  0.00  0.00    -0.339 OA
ATOM      6  H7  MOL d   1     190.349 -10.282 228.440  0.00  0.00     0.102 H 
ATOM      7  H8  MOL d   1     190.757 -12.477 228.881  0.00  0.00     0.091 H 
ENDROOT
BRANCH   3   8
ATOM      8  C05 MOL d   1     189.137 -13.226 227.768  0.00  0.00     0.059 C 
ATOM      9  H9  MOL d   1     188.866 -13.366 226.711  0.00  0.00     0.079 H 
ATOM     10  H10 MOL d   1     188.308 -12.734 228.297  0.00  0.00     0.079 H 
BRANCH   8  11
ATOM     11  O06 MOL d   1     189.400 -14.499 228.368  0.00  0.00    -0.280 OA
BRANCH  11  12
ATOM     12  P07 MOL d   1     190.051 -15.667 227.449  0.00  0.00     0.422 P 
ATOM     13  O08 MOL d   1     191.443 -15.980 227.941  0.00  0.00    -0.617 OA
ATOM     14  O09 MOL d   1     190.119 -15.207 226.031  0.00  0.00    -0.617 OA
ATOM     15  O10 MOL d   1     189.194 -16.906 227.536  0.00  0.00    -0.617 OA
ENDBRANCH  11  12
ENDBRANCH   8  11
ENDBRANCH   3   8
BRANCH   2  16
ATOM     16  C02 MOL d   1     188.574 -10.552 227.177  0.00  0.00     0.272 C 
ATOM     17  N16 MOL d   1     188.205 -10.309 225.770  0.00  0.00    -0.235 N 
ATOM     18  H11 MOL d   1     188.906 -10.353 225.058  0.00  0.00     0.197 HD
ATOM     19  O01 MOL d   1     187.758 -10.484 228.015  0.00  0.00    -0.268 OA
BRANCH  17  20
ATOM     20  O17 MOL d   1     186.859 -10.012 225.418  0.00  0.00    -0.287 OA
ATOM     21  H12 MOL d   1     186.799  -9.885 224.478  0.00  0.00     0.244 HD
ENDBRANCH  17  20
ENDBRANCH   2  16
BRANCH   1  22
ATOM     22  C14 MOL d   1     192.964 -11.636 225.707  0.00  0.00    -0.025 C 
ATOM     23  H1  MOL d   1     193.398 -12.557 225.292  0.00  0.00     0.035 H 
ATOM     24  H2  MOL d   1     193.494 -11.366 226.632  0.00  0.00     0.035 H 
ATOM     25  H3  MOL d   1     193.065 -10.821 224.975  0.00  0.00     0.035 H 
ENDBRANCH   1  22
BRANCH   1  26
ATOM     26  C13 MOL d   1     190.790 -12.252 224.706  0.00  0.00    -0.025 C 
ATOM     27  H4  MOL d   1     189.720 -12.424 224.892  0.00  0.00     0.035 H 
ATOM     28  H5  MOL d   1     191.246 -13.171 224.309  0.00  0.00     0.035 H 
ATOM     29  H6  MOL d   1     190.909 -11.439 223.975  0.00  0.00     0.035 H 
ENDBRANCH   1  26
TORSDOF 7
