REMARK  6 active torsions:
REMARK  status: ('A' for Active; 'I' for Inactive)
REMARK    1  A    between atoms: C7_1  and  N16_16 
REMARK    2  A    between atoms: C8_10  and  C9_2 
REMARK    3  A    between atoms: C2_3  and  C1_6 
REMARK    4  A    between atoms: C3_7  and  C2_3 
REMARK    5  A    between atoms: C4_5  and  C17_17 
REMARK    6  A    between atoms: C12_12  and  O15_15 
ROOT
ATOM      1  C7  8JM d   1      40.211   4.218 -77.486  0.00  0.00     0.132 A 
ATOM      2  C4  8JM d   1      39.069   2.357 -79.176  0.00  0.00    -0.001 A 
ATOM      3  C3  8JM d   1      38.299   3.500 -78.811  0.00  0.00    -0.031 A 
ATOM      4  C5  8JM d   1      40.381   2.244 -78.710  0.00  0.00     0.016 A 
ATOM      5  N6  8JM d   1      40.886   3.146 -77.886  0.00  0.00    -0.242 NA
ATOM      6  C8  8JM d   1      38.884   4.456 -77.933  0.00  0.00     0.027 A 
ATOM      7  H7  8JM d   1      40.992   1.407 -79.028  0.00  0.00     0.116 H 
ENDROOT
BRANCH   2   8
ATOM      8  C17 8JM d   1      38.554   1.317 -80.115  0.00  0.00    -0.023 A 
ATOM      9  C18 8JM d   1      37.554   0.405 -79.712  0.00  0.00    -0.070 A 
ATOM     10  C19 8JM d   1      37.036  -0.497 -80.607  0.00  0.00    -0.054 A 
ATOM     11  H14 8JM d   1      37.194   0.417 -78.690  0.00  0.00     0.084 H 
ATOM     12  C20 8JM d   1      37.510  -0.536 -81.928  0.00  0.00     0.061 A 
ATOM     13  H15 8JM d   1      36.257  -1.183 -80.293  0.00  0.00     0.087 H 
ATOM     14  C21 8JM d   1      38.517   0.370 -82.346  0.00  0.00     0.012 A 
ATOM     15  N25 8JM d   1      37.213  -1.308 -83.020  0.00  0.00    -0.278 N 
ATOM     16  C22 8JM d   1      39.025   1.303 -81.427  0.00  0.00    -0.059 A 
ATOM     17  C23 8JM d   1      38.786   0.078 -83.755  0.00  0.00     0.034 A 
ATOM     18  H16 8JM d   1      39.783   2.012 -81.738  0.00  0.00     0.086 H 
ATOM     19  N24 8JM d   1      37.995  -0.893 -84.112  0.00  0.00    -0.186 NA
ATOM     20  H17 8JM d   1      39.515   0.581 -84.389  0.00  0.00     0.118 H 
ATOM     21  H18 8JM d   1      36.524  -2.073 -83.038  0.00  0.00     0.189 HD
ENDBRANCH   2   8
BRANCH   3  22
ATOM     22  C2  8JM d   1      36.880   3.674 -79.339  0.00  0.00    -0.043 C 
ATOM     23  H1  8JM d   1      36.379   2.695 -79.351  0.00  0.00     0.039 H 
ATOM     24  H2  8JM d   1      36.332   4.358 -78.675  0.00  0.00     0.039 H 
BRANCH  22  25
ATOM     25  C1  8JM d   1      36.883   4.253 -80.763  0.00  0.00    -0.073 C 
ATOM     26  H4  8JM d   1      35.847   4.366 -81.115  0.00  0.00     0.028 H 
ATOM     27  H5  8JM d   1      37.426   3.572 -81.435  0.00  0.00     0.028 H 
ATOM     28  H6  8JM d   1      37.378   5.235 -80.758  0.00  0.00     0.028 H 
ENDBRANCH  22  25
ENDBRANCH   3  22
BRANCH   6  29
ATOM     29  C9  8JM d   1      38.137   5.669 -77.464  0.00  0.00    -0.021 A 
ATOM     30  C10 8JM d   1      37.754   6.679 -78.372  0.00  0.00    -0.070 A 
ATOM     31  C11 8JM d   1      37.026   7.777 -77.939  0.00  0.00    -0.050 A 
ATOM     32  H3  8JM d   1      38.031   6.596 -79.417  0.00  0.00     0.085 H 
ATOM     33  C12 8JM d   1      36.711   7.893 -76.584  0.00  0.00     0.065 A 
ATOM     34  H8  8JM d   1      36.706   8.536 -78.644  0.00  0.00     0.087 H 
ATOM     35  C13 8JM d   1      37.110   6.913 -75.670  0.00  0.00    -0.050 A 
ATOM     36  C14 8JM d   1      37.810   5.800 -76.103  0.00  0.00    -0.070 A 
ATOM     37  H9  8JM d   1      36.870   7.025 -74.619  0.00  0.00     0.087 H 
ATOM     38  H10 8JM d   1      38.105   5.033 -75.396  0.00  0.00     0.085 H 
BRANCH  33  39
ATOM     39  O15 8JM d   1      36.002   8.961 -76.150  0.00  0.00    -0.361 OA
ATOM     40  H11 8JM d   1      35.809   9.531 -76.885  0.00  0.00     0.217 HD
ENDBRANCH  33  39
ENDBRANCH   6  29
BRANCH   1  41
ATOM     41  N16 8JM d   1      40.858   5.097 -76.630  0.00  0.00    -0.383 N 
ATOM     42  H12 8JM d   1      40.372   5.941 -76.295  0.00  0.00     0.157 HD
ATOM     43  H13 8JM d   1      41.824   4.906 -76.329  0.00  0.00     0.157 HD
ENDBRANCH   1  41
TORSDOF 6
