REMARK  8 active torsions:
REMARK  status: ('A' for Active; 'I' for Inactive)
REMARK    1  A    between atoms: C4_1  and  C17_17 
REMARK    2  A    between atoms: C7_5  and  N16_16 
REMARK    3  A    between atoms: C9_7  and  C8_6 
REMARK    4  A    between atoms: C12_9  and  O15_15 
REMARK    5  A    between atoms: C3_11  and  C2_13 
REMARK    6  A    between atoms: C2_13  and  C1_12 
REMARK    7  A    between atoms: C20_20  and  C23_23 
REMARK       I    between atoms: C23_23  and  N25_25 
REMARK    8  A    between atoms: N25_25  and  C26_26 
ROOT
ATOM      1  C4  8JP d   1      32.244   3.601  -0.341  0.00  0.00     0.000 A 
ATOM      2  C5  8JP d   1      33.511   3.568   0.262  0.00  0.00     0.016 A 
ATOM      3  C7  8JP d   1      33.207   5.620   1.266  0.00  0.00     0.132 A 
ATOM      4  C8  8JP d   1      31.916   5.740   0.701  0.00  0.00     0.027 A 
ATOM      5  C3  8JP d   1      31.416   4.713  -0.132  0.00  0.00    -0.031 A 
ATOM      6  N6  8JP d   1      33.951   4.554   1.029  0.00  0.00    -0.242 NA
ATOM      7  H2  8JP d   1      34.150   2.708   0.095  0.00  0.00     0.116 H 
ENDROOT
BRANCH   1   8
ATOM      8  C17 8JP d   1      31.843   2.451  -1.200  0.00  0.00    -0.006 A 
ATOM      9  C18 8JP d   1      32.467   2.275  -2.448  0.00  0.00    -0.068 A 
ATOM     10  C19 8JP d   1      32.084   1.202  -3.231  0.00  0.00    -0.049 A 
ATOM     11  H14 8JP d   1      33.231   2.965  -2.788  0.00  0.00     0.085 H 
ATOM     12  C20 8JP d   1      31.106   0.316  -2.775  0.00  0.00     0.124 A 
ATOM     13  H15 8JP d   1      32.544   1.048  -4.201  0.00  0.00     0.087 H 
ATOM     14  N21 8JP d   1      30.539   0.514  -1.601  0.00  0.00    -0.255 NA
ATOM     15  C22 8JP d   1      30.860   1.525  -0.820  0.00  0.00     0.014 A 
ATOM     16  H16 8JP d   1      30.356   1.643   0.132  0.00  0.00     0.116 H 
BRANCH  12  17
ATOM     17  C23 8JP d   1      30.724  -0.860  -3.612  0.00  0.00     0.269 C 
ATOM     18  O24 8JP d   1      30.963  -0.882  -4.801  0.00  0.00    -0.266 OA
ATOM     19  N25 8JP d   1      30.174  -1.929  -3.001  0.00  0.00    -0.360 N 
ATOM     20  H17 8JP d   1      30.034  -1.875  -2.012  0.00  0.00     0.162 HD
BRANCH  19  21
ATOM     21  C26 8JP d   1      29.764  -3.171  -3.682  0.00  0.00    -0.018 C 
ATOM     22  H18 8JP d   1      29.348  -3.873  -2.945  0.00  0.00     0.056 H 
ATOM     23  H19 8JP d   1      30.638  -3.627  -4.170  0.00  0.00     0.056 H 
ATOM     24  H20 8JP d   1      29.001  -2.939  -4.439  0.00  0.00     0.056 H 
ENDBRANCH  19  21
ENDBRANCH  12  17
ENDBRANCH   1   8
BRANCH   5  25
ATOM     25  C2  8JP d   1      30.042   4.752  -0.774  0.00  0.00    -0.043 C 
ATOM     26  H9  8JP d   1      29.430   5.507  -0.258  0.00  0.00     0.039 H 
ATOM     27  H10 8JP d   1      29.572   3.763  -0.667  0.00  0.00     0.039 H 
BRANCH  25  28
ATOM     28  C1  8JP d   1      30.114   5.110  -2.276  0.00  0.00    -0.073 C 
ATOM     29  H6  8JP d   1      29.098   5.127  -2.698  0.00  0.00     0.028 H 
ATOM     30  H7  8JP d   1      30.718   4.357  -2.804  0.00  0.00     0.028 H 
ATOM     31  H8  8JP d   1      30.577   6.101  -2.395  0.00  0.00     0.028 H 
ENDBRANCH  25  28
ENDBRANCH   5  25
BRANCH   4  32
ATOM     32  C9  8JP d   1      31.129   6.967   0.991  0.00  0.00    -0.021 A 
ATOM     33  C14 8JP d   1      30.757   7.817  -0.051  0.00  0.00    -0.070 A 
ATOM     34  C13 8JP d   1      30.028   8.966   0.188  0.00  0.00    -0.050 A 
ATOM     35  H1  8JP d   1      31.045   7.571  -1.067  0.00  0.00     0.085 H 
ATOM     36  C12 8JP d   1      29.687   9.292   1.515  0.00  0.00     0.065 A 
ATOM     37  H5  8JP d   1      29.724   9.606  -0.632  0.00  0.00     0.087 H 
ATOM     38  C11 8JP d   1      30.069   8.455   2.564  0.00  0.00    -0.050 A 
ATOM     39  C10 8JP d   1      30.786   7.291   2.310  0.00  0.00    -0.070 A 
ATOM     40  H3  8JP d   1      29.805   8.714   3.583  0.00  0.00     0.087 H 
ATOM     41  H4  8JP d   1      31.077   6.640   3.126  0.00  0.00     0.085 H 
BRANCH  36  42
ATOM     42  O15 8JP d   1      28.958  10.419   1.787  0.00  0.00    -0.361 OA
ATOM     43  H11 8JP d   1      28.119  10.367   1.344  0.00  0.00     0.217 HD
ENDBRANCH  36  42
ENDBRANCH   4  32
BRANCH   3  44
ATOM     44  N16 8JP d   1      33.712   6.620   2.087  0.00  0.00    -0.383 N 
ATOM     45  H12 8JP d   1      34.653   6.525   2.495  0.00  0.00     0.157 HD
ATOM     46  H13 8JP d   1      33.145   7.456   2.288  0.00  0.00     0.157 HD
ENDBRANCH   3  44
TORSDOF 8
