REMARK  9 active torsions:
REMARK  status: ('A' for Active; 'I' for Inactive)
REMARK    1  A    between atoms: CAI_1  and  OAH_2 
REMARK    2  A    between atoms: OAH_2  and  CAE_3 
REMARK    3  A    between atoms: CAA_7  and  OAG_8 
REMARK    4  A    between atoms: OAG_8  and  CAJ_9 
REMARK    5  A    between atoms: CAC_12  and  NAM_13 
REMARK    6  A    between atoms: C2_20  and  NAX_21 
REMARK    7  A    between atoms: NAX_21  and  CAY_22 
REMARK    8  A    between atoms: NAQ_30  and  CBE_31 
REMARK       I    between atoms: NBH_36  and  CBK_37 
REMARK    9  A    between atoms: CBK_37  and  CBM_39 
ROOT
ATOM      1  NAM YY9 d   1     -14.966 -14.119  11.346  0.00  0.00    -0.291 N 
ATOM      2  CAR YY9 d   1     -15.770 -15.190  11.449  0.00  0.00     0.331 C 
ATOM      3  OAW YY9 d   1     -15.497 -16.178  10.797  0.00  0.00    -0.246 OA
ATOM      4  CAN YY9 d   1     -14.830 -13.241  12.549  0.00  0.00     0.033 C 
ATOM      5  C5  YY9 d   1     -16.165 -12.984  13.093  0.00  0.00     0.025 A 
ATOM      6  C6  YY9 d   1     -16.437 -11.802  13.746  0.00  0.00     0.032 A 
ATOM      7  N1  YY9 d   1     -17.711 -11.598  14.227  0.00  0.00    -0.074 NA
ATOM      8  C2  YY9 d   1     -18.651 -12.540  14.062  0.00  0.00     0.728 A 
ATOM      9  N3  YY9 d   1     -18.371 -13.690  13.443  0.00  0.00    -0.044 NA
ATOM     10  C4  YY9 d   1     -17.154 -13.925  12.942  0.00  0.00     0.162 A 
ATOM     11  NAQ YY9 d   1     -16.845 -15.220  12.277  0.00  0.00    -0.278 N 
ATOM     12  H8  YY9 d   1     -14.357 -12.290  12.262  0.00  0.00     0.072 H 
ATOM     13  H9  YY9 d   1     -14.211 -13.744  13.307  0.00  0.00     0.072 H 
ATOM     14  H10 YY9 d   1     -15.667 -11.051  13.878  0.00  0.00     0.116 H 
ENDROOT
BRANCH  11  15
ATOM     15  CBE YY9 d   1     -18.125 -15.877  11.836  0.00  0.00     0.026 C 
ATOM     16  CBJ YY9 d   1     -18.048 -17.393  11.786  0.00  0.00    -0.030 C 
ATOM     17  CBI YY9 d   1     -19.463 -17.915  12.017  0.00  0.00    -0.001 C 
ATOM     18  H18 YY9 d   1     -17.375 -17.764  12.573  0.00  0.00     0.038 H 
ATOM     19  H19 YY9 d   1     -17.679 -17.721  10.803  0.00  0.00     0.038 H 
ATOM     20  NBH YY9 d   1     -20.450 -17.190  11.161  0.00  0.00    -0.352 N 
ATOM     21  H20 YY9 d   1     -19.731 -17.772  13.074  0.00  0.00     0.064 H 
ATOM     22  H21 YY9 d   1     -19.495 -18.987  11.773  0.00  0.00     0.064 H 
ATOM     23  CBG YY9 d   1     -19.985 -16.117  10.189  0.00  0.00    -0.001 C 
ATOM     24  CBK YY9 d   1     -21.755 -17.544  11.280  0.00  0.00     0.215 C 
ATOM     25  CBF YY9 d   1     -18.683 -15.395  10.512  0.00  0.00    -0.030 C 
ATOM     26  H24 YY9 d   1     -19.863 -16.594   9.205  0.00  0.00     0.064 H 
ATOM     27  H25 YY9 d   1     -20.778 -15.357  10.132  0.00  0.00     0.064 H 
ATOM     28  H22 YY9 d   1     -17.951 -15.595   9.716  0.00  0.00     0.038 H 
ATOM     29  H23 YY9 d   1     -18.874 -14.313  10.572  0.00  0.00     0.038 H 
ATOM     30  OBL YY9 d   1     -22.143 -18.412  12.062  0.00  0.00    -0.274 OA
ATOM     31  H17 YY9 d   1     -18.869 -15.618  12.604  0.00  0.00     0.073 H 
BRANCH  24  32
ATOM     32  CBM YY9 d   1     -22.809 -16.824  10.415  0.00  0.00    -0.003 C 
ATOM     33  H26 YY9 d   1     -23.806 -17.232  10.637  0.00  0.00     0.040 H 
ATOM     34  H27 YY9 d   1     -22.578 -16.979   9.351  0.00  0.00     0.040 H 
ATOM     35  H28 YY9 d   1     -22.795 -15.747  10.640  0.00  0.00     0.040 H 
ENDBRANCH  24  32
ENDBRANCH  11  15
BRANCH   1  36
ATOM     36  CAC YY9 d   1     -13.624 -14.193  10.712  0.00  0.00     0.088 A 
ATOM     37  CAD YY9 d   1     -13.492 -13.475   9.543  0.00  0.00     0.096 A 
ATOM     38  CAE YY9 d   1     -12.310 -13.393   8.868  0.00  0.00     0.095 A 
ATOM     39 CLL  YY9 d   1     -14.849 -12.736   9.013  0.00  0.00    -0.079 Cl
ATOM     40  CAF YY9 d   1     -11.189 -14.050   9.382  0.00  0.00    -0.015 A 
ATOM     41  CAA YY9 d   1     -11.304 -14.775  10.581  0.00  0.00     0.095 A 
ATOM     42  H4  YY9 d   1     -10.240 -14.001   8.861  0.00  0.00     0.092 H 
ATOM     43  CAB YY9 d   1     -12.515 -14.842  11.261  0.00  0.00     0.096 A 
ATOM     44 CLK  YY9 d   1     -12.512 -15.733  12.727  0.00  0.00    -0.079 Cl
BRANCH  38  45
ATOM     45  OAH YY9 d   1     -12.359 -12.653   7.729  0.00  0.00    -0.354 OA
BRANCH  45  46
ATOM     46  CAI YY9 d   1     -11.132 -12.636   6.972  0.00  0.00     0.010 C 
ATOM     47  H1  YY9 d   1     -11.264 -12.016   6.073  0.00  0.00     0.066 H 
ATOM     48  H2  YY9 d   1     -10.870 -13.662   6.675  0.00  0.00     0.066 H 
ATOM     49  H3  YY9 d   1     -10.325 -12.216   7.591  0.00  0.00     0.066 H 
ENDBRANCH  45  46
ENDBRANCH  38  45
BRANCH  41  50
ATOM     50  OAG YY9 d   1     -10.273 -15.459  11.176  0.00  0.00    -0.354 OA
BRANCH  50  51
ATOM     51  CAJ YY9 d   1      -9.022 -15.463  10.459  0.00  0.00     0.010 C 
ATOM     52  H5  YY9 d   1      -8.275 -16.037  11.027  0.00  0.00     0.066 H 
ATOM     53  H6  YY9 d   1      -8.669 -14.429  10.331  0.00  0.00     0.066 H 
ATOM     54  H7  YY9 d   1      -9.167 -15.926   9.472  0.00  0.00     0.066 H 
ENDBRANCH  50  51
ENDBRANCH  41  50
ENDBRANCH   1  36
BRANCH   8  55
ATOM     55  NAX YY9 d   1     -19.957 -12.223  14.628  0.00  0.00    -0.188 N 
ATOM     56  H11 YY9 d   1     -20.064 -11.323  15.117  0.00  0.00     0.184 HD
BRANCH  55  57
ATOM     57  CAY YY9 d   1     -21.127 -13.102  14.546  0.00  0.00     0.049 A 
ATOM     58  CAZ YY9 d   1     -21.380 -13.961  13.478  0.00  0.00    -0.057 A 
ATOM     59  CBA YY9 d   1     -22.545 -14.730  13.483  0.00  0.00    -0.081 A 
ATOM     60  H12 YY9 d   1     -20.680 -14.031  12.653  0.00  0.00     0.086 H 
ATOM     61  CBB YY9 d   1     -23.465 -14.615  14.524  0.00  0.00    -0.083 A 
ATOM     62  H13 YY9 d   1     -22.736 -15.422  12.671  0.00  0.00     0.083 H 
ATOM     63  CBC YY9 d   1     -23.224 -13.736  15.577  0.00  0.00    -0.081 A 
ATOM     64  H14 YY9 d   1     -24.370 -15.211  14.514  0.00  0.00     0.083 H 
ATOM     65  CBD YY9 d   1     -22.062 -12.975  15.581  0.00  0.00    -0.057 A 
ATOM     66  H15 YY9 d   1     -23.938 -13.646  16.388  0.00  0.00     0.083 H 
ATOM     67  H16 YY9 d   1     -21.878 -12.278  16.391  0.00  0.00     0.086 H 
ENDBRANCH  55  57
ENDBRANCH   8  55
TORSDOF 9
