REMARK  6 active torsions:
REMARK  status: ('A' for Active; 'I' for Inactive)
REMARK    1  A    between atoms: CAG_3  and  CAA_4 
REMARK    2  A    between atoms: CAC_11  and  NAL_12 
REMARK    3  A    between atoms: NAL_12  and  SAM_13 
REMARK    4  A    between atoms: SAM_13  and  CAN_16 
REMARK    5  A    between atoms: CAN_16  and  CAO_17 
REMARK    6  A    between atoms: CAR_20  and  CAU_21 
ROOT
ATOM      1  CAA 8KM d   1      81.436  10.566  21.099  0.00  0.00    -0.031 A 
ATOM      2  CAB 8KM d   1      81.381  11.351  19.944  0.00  0.00    -0.049 A 
ATOM      3  CAF 8KM d   1      81.670  11.166  22.332  0.00  0.00     0.051 A 
ATOM      4  CAJ 8KM d   1      81.727  10.353  23.498  0.00  0.00     0.100 C 
ATOM      5  NAK 8KM d   1      81.768   9.713  24.405  0.00  0.00    -0.191 NA
ATOM      6  CAE 8KM d   1      81.841  12.541  22.437  0.00  0.00    -0.060 A 
ATOM      7  CAD 8KM d   1      81.784  13.307  21.279  0.00  0.00    -0.055 A 
ATOM      8  CAC 8KM d   1      81.564  12.733  20.027  0.00  0.00     0.043 A 
ATOM      9  H6  8KM d   1      81.196  10.886  18.982  0.00  0.00     0.087 H 
ATOM     10  H7  8KM d   1      82.015  13.006  23.401  0.00  0.00     0.086 H 
ATOM     11  H8  8KM d   1      81.914  14.381  21.351  0.00  0.00     0.087 H 
ENDROOT
BRANCH   1  12
ATOM     12  CAG 8KM d   1      81.257   9.051  21.069  0.00  0.00    -0.027 A 
ATOM     13  CAH 8KM d   1      81.747   8.221  19.896  0.00  0.00    -0.057 A 
ATOM     14  CAI 8KM d   1      80.261   8.405  20.123  0.00  0.00    -0.057 A 
ATOM     15  H1  8KM d   1      82.238   8.711  19.042  0.00  0.00     0.034 H 
ATOM     16  H2  8KM d   1      82.213   7.240  20.073  0.00  0.00     0.034 H 
ATOM     17  H3  8KM d   1      79.648   7.558  20.465  0.00  0.00     0.034 H 
ATOM     18  H4  8KM d   1      79.673   9.029  19.434  0.00  0.00     0.034 H 
ATOM     19  H5  8KM d   1      81.368   8.660  22.091  0.00  0.00     0.047 H 
ENDBRANCH   1  12
BRANCH   8  20
ATOM     20  NAL 8KM d   1      81.508  13.629  18.889  0.00  0.00    -0.284 N 
ATOM     21  H9  8KM d   1      81.002  14.486  18.985  0.00  0.00     0.178 HD
BRANCH  20  22
ATOM     22  SAM 8KM d   1      82.235  13.308  17.442  0.00  0.00     0.234 S 
ATOM     23  OAW 8KM d   1      81.711  14.228  16.480  0.00  0.00    -0.205 OA
ATOM     24  OAV 8KM d   1      82.120  11.920  17.149  0.00  0.00    -0.205 OA
BRANCH  22  25
ATOM     25  CAN 8KM d   1      83.992  13.674  17.575  0.00  0.00     0.070 C 
ATOM     26  H10 8KM d   1      84.125  14.701  17.945  0.00  0.00     0.066 H 
ATOM     27  H11 8KM d   1      84.462  13.577  16.585  0.00  0.00     0.066 H 
BRANCH  25  28
ATOM     28  CAO 8KM d   1      84.639  12.709  18.533  0.00  0.00    -0.043 A 
ATOM     29  CAT 8KM d   1      85.134  11.500  18.063  0.00  0.00    -0.075 A 
ATOM     30  CAS 8KM d   1      85.733  10.609  18.938  0.00  0.00    -0.077 A 
ATOM     31  H12 8KM d   1      85.052  11.253  17.011  0.00  0.00     0.084 H 
ATOM     32  CAR 8KM d   1      85.857  10.906  20.285  0.00  0.00    -0.062 A 
ATOM     33  H13 8KM d   1      86.111   9.665  18.563  0.00  0.00     0.084 H 
ATOM     34  CAQ 8KM d   1      85.365  12.118  20.761  0.00  0.00    -0.077 A 
ATOM     35  CAP 8KM d   1      84.772  13.018  19.883  0.00  0.00    -0.075 A 
ATOM     36  H17 8KM d   1      85.444  12.360  21.815  0.00  0.00     0.084 H 
ATOM     37  H18 8KM d   1      84.410  13.970  20.254  0.00  0.00     0.084 H 
BRANCH  32  38
ATOM     38  CAU 8KM d   1      86.521   9.898  21.215  0.00  0.00    -0.051 C 
ATOM     39  H14 8KM d   1      86.533  10.297  22.240  0.00  0.00     0.033 H 
ATOM     40  H15 8KM d   1      87.553   9.715  20.881  0.00  0.00     0.033 H 
ATOM     41  H16 8KM d   1      85.957   8.954  21.196  0.00  0.00     0.033 H 
ENDBRANCH  32  38
ENDBRANCH  25  28
ENDBRANCH  22  25
ENDBRANCH  20  22
ENDBRANCH   8  20
TORSDOF 6
