REMARK  6 active torsions:
REMARK  status: ('A' for Active; 'I' for Inactive)
REMARK    1  A    between atoms: C12_1  and  C13_15 
REMARK    2  A    between atoms: O15_4  and  C16_5 
REMARK    3  A    between atoms: C13_15  and  O15_4 
REMARK    4  A    between atoms: C04_9  and  C02_7 
REMARK    5  A    between atoms: C05_10  and  C06_11 
REMARK    6  A    between atoms: C26_26  and  C27_27 
ROOT
ATOM      1  C12 8KS d   1      10.502   4.596  -8.156  0.00  0.00     0.047 C 
ATOM      2  C04 8KS d   1       9.391   4.929  -9.967  0.00  0.00     0.047 C 
ATOM      3  C05 8KS d   1      10.836   5.328  -9.537  0.00  0.00    -0.002 C 
ATOM      4  C26 8KS d   1       8.984   4.847  -8.446  0.00  0.00    -0.002 C 
ATOM      5  H1  8KS d   1      10.860   5.156  -7.280  0.00  0.00     0.057 H 
ATOM      6  H4  8KS d   1       9.327   3.969 -10.500  0.00  0.00     0.058 H 
ATOM      7  H5  8KS d   1      10.980   6.412  -9.417  0.00  0.00     0.050 H 
ATOM      8  H16 8KS d   1       8.325   3.998  -8.212  0.00  0.00     0.050 H 
ENDROOT
BRANCH   1   9
ATOM      9  C13 8KS d   1      10.962   3.226  -8.004  0.00  0.00     0.269 C 
ATOM     10  O14 8KS d   1      10.485   2.273  -8.628  0.00  0.00    -0.264 OA
BRANCH   9  11
ATOM     11  O15 8KS d   1      12.182   3.007  -7.368  0.00  0.00    -0.278 OA
BRANCH  11  12
ATOM     12  C16 8KS d   1      12.669   1.726  -7.274  0.00  0.00     0.090 A 
ATOM     13  C17 8KS d   1      12.062   0.765  -6.470  0.00  0.00    -0.049 A 
ATOM     14  C18 8KS d   1      12.593  -0.537  -6.373  0.00  0.00    -0.080 A 
ATOM     15  H9  8KS d   1      11.169   1.022  -5.911  0.00  0.00     0.087 H 
ATOM     16  C19 8KS d   1      13.715  -0.888  -7.065  0.00  0.00    -0.072 A 
ATOM     17  H10 8KS d   1      12.104  -1.269  -5.740  0.00  0.00     0.083 H 
ATOM     18  C20 8KS d   1      14.375   0.084  -7.912  0.00  0.00    -0.023 A 
ATOM     19  H11 8KS d   1      14.112  -1.893  -6.981  0.00  0.00     0.084 H 
ATOM     20  C21 8KS d   1      15.545  -0.262  -8.637  0.00  0.00    -0.072 A 
ATOM     21  C25 8KS d   1      13.863   1.390  -8.019  0.00  0.00     0.008 A 
ATOM     22  C22 8KS d   1      16.185   0.619  -9.449  0.00  0.00    -0.082 A 
ATOM     23  H12 8KS d   1      15.942  -1.266  -8.539  0.00  0.00     0.084 H 
ATOM     24  C23 8KS d   1      15.698   1.931  -9.562  0.00  0.00    -0.082 A 
ATOM     25  H13 8KS d   1      17.064   0.312 -10.005  0.00  0.00     0.083 H 
ATOM     26  C24 8KS d   1      14.569   2.305  -8.877  0.00  0.00    -0.070 A 
ATOM     27  H14 8KS d   1      16.214   2.648 -10.190  0.00  0.00     0.083 H 
ATOM     28  H15 8KS d   1      14.199   3.318  -8.985  0.00  0.00     0.085 H 
ENDBRANCH  11  12
ENDBRANCH   9  11
ENDBRANCH   1   9
BRANCH   3  29
ATOM     29  C06 8KS d   1      11.954   4.824 -10.429  0.00  0.00    -0.052 A 
ATOM     30  C11 8KS d   1      13.126   5.559 -10.601  0.00  0.00    -0.076 A 
ATOM     31  C10 8KS d   1      14.198   5.164 -11.397  0.00  0.00    -0.082 A 
ATOM     32  H2  8KS d   1      13.209   6.505 -10.078  0.00  0.00     0.084 H 
ATOM     33  C09 8KS d   1      14.121   3.984 -12.107  0.00  0.00    -0.083 A 
ATOM     34  H3  8KS d   1      15.088   5.780 -11.458  0.00  0.00     0.083 H 
ATOM     35  C08 8KS d   1      12.971   3.204 -11.971  0.00  0.00    -0.082 A 
ATOM     36  H8  8KS d   1      14.932   3.670 -12.754  0.00  0.00     0.083 H 
ATOM     37  C07 8KS d   1      11.894   3.616 -11.150  0.00  0.00    -0.076 A 
ATOM     38  H7  8KS d   1      12.902   2.263 -12.505  0.00  0.00     0.083 H 
ATOM     39  H6  8KS d   1      11.010   2.993 -11.075  0.00  0.00     0.084 H 
ENDBRANCH   3  29
BRANCH   4  40
ATOM     40  C27 8KS d   1       8.437   6.063  -7.789  0.00  0.00    -0.052 A 
ATOM     41  C28 8KS d   1       7.095   6.170  -7.389  0.00  0.00    -0.076 A 
ATOM     42  C29 8KS d   1       6.625   7.334  -6.769  0.00  0.00    -0.082 A 
ATOM     43  H17 8KS d   1       6.416   5.343  -7.562  0.00  0.00     0.084 H 
ATOM     44  C30 8KS d   1       7.478   8.425  -6.508  0.00  0.00    -0.083 A 
ATOM     45  H18 8KS d   1       5.581   7.397  -6.483  0.00  0.00     0.083 H 
ATOM     46  C31 8KS d   1       8.823   8.334  -6.882  0.00  0.00    -0.082 A 
ATOM     47  H19 8KS d   1       7.099   9.319  -6.026  0.00  0.00     0.083 H 
ATOM     48  C32 8KS d   1       9.264   7.165  -7.505  0.00  0.00    -0.076 A 
ATOM     49  H20 8KS d   1       9.508   9.153  -6.692  0.00  0.00     0.083 H 
ATOM     50  H21 8KS d   1      10.309   7.103  -7.787  0.00  0.00     0.084 H 
ENDBRANCH   4  40
BRANCH   2  51
ATOM     51  C02 8KS d   1       8.660   6.010 -10.776  0.00  0.00     0.178 C 
ATOM     52  O01 8KS d   1       7.511   5.760 -11.181  0.00  0.00    -0.648 OA
ATOM     53  O03 8KS d   1       9.273   7.069 -10.986  0.00  0.00    -0.648 OA
ENDBRANCH   2  51
TORSDOF 6
