REMARK  6 active torsions:
REMARK  status: ('A' for Active; 'I' for Inactive)
REMARK    1  A    between atoms: C12_1  and  C13_15 
REMARK    2  A    between atoms: O15_4  and  C16_5 
REMARK    3  A    between atoms: C13_15  and  O15_4 
REMARK    4  A    between atoms: C04_9  and  C02_7 
REMARK    5  A    between atoms: C05_10  and  C06_11 
REMARK    6  A    between atoms: C26_26  and  C27_27 
ROOT
ATOM      1  C12 8KS d   1       9.163  -9.252   2.483  0.00  0.00     0.047 C 
ATOM      2  C04 8KS d   1      10.388 -11.009   2.687  0.00  0.00     0.047 C 
ATOM      3  C05 8KS d   1      10.524  -9.672   1.873  0.00  0.00    -0.002 C 
ATOM      4  C26 8KS d   1       9.466 -10.246   3.681  0.00  0.00    -0.002 C 
ATOM      5  H1  8KS d   1       8.297  -9.570   1.885  0.00  0.00     0.057 H 
ATOM      6  H4  8KS d   1      11.328 -11.383   3.119  0.00  0.00     0.058 H 
ATOM      7  H5  8KS d   1      10.492  -9.822   0.784  0.00  0.00     0.050 H 
ATOM      8  H16 8KS d   1      10.021  -9.768   4.501  0.00  0.00     0.050 H 
ENDROOT
BRANCH   1   9
ATOM      9  C13 8KS d   1       9.012  -7.803   2.741  0.00  0.00     0.269 C 
ATOM     10  O14 8KS d   1       8.671  -6.981   1.896  0.00  0.00    -0.264 OA
BRANCH   9  11
ATOM     11  O15 8KS d   1       9.664  -7.237   3.825  0.00  0.00    -0.278 OA
BRANCH  11  12
ATOM     12  C16 8KS d   1       9.438  -5.923   4.076  0.00  0.00     0.090 A 
ATOM     13  C17 8KS d   1      10.253  -4.955   3.535  0.00  0.00    -0.049 A 
ATOM     14  C18 8KS d   1      10.019  -3.593   3.792  0.00  0.00    -0.080 A 
ATOM     15  H9  8KS d   1      11.085  -5.246   2.904  0.00  0.00     0.087 H 
ATOM     16  C19 8KS d   1       8.976  -3.211   4.584  0.00  0.00    -0.072 A 
ATOM     17  H10 8KS d   1      10.670  -2.843   3.359  0.00  0.00     0.083 H 
ATOM     18  C20 8KS d   1       8.111  -4.189   5.161  0.00  0.00    -0.023 A 
ATOM     19  H11 8KS d   1       8.803  -2.158   4.776  0.00  0.00     0.084 H 
ATOM     20  C21 8KS d   1       7.018  -3.792   5.991  0.00  0.00    -0.072 A 
ATOM     21  C25 8KS d   1       8.334  -5.550   4.910  0.00  0.00     0.008 A 
ATOM     22  C22 8KS d   1       6.177  -4.713   6.559  0.00  0.00    -0.082 A 
ATOM     23  H12 8KS d   1       6.850  -2.737   6.176  0.00  0.00     0.084 H 
ATOM     24  C23 8KS d   1       6.400  -6.087   6.308  0.00  0.00    -0.082 A 
ATOM     25  H13 8KS d   1       5.355  -4.394   7.190  0.00  0.00     0.083 H 
ATOM     26  C24 8KS d   1       7.444  -6.480   5.511  0.00  0.00    -0.070 A 
ATOM     27  H14 8KS d   1       5.744  -6.830   6.747  0.00  0.00     0.083 H 
ATOM     28  H15 8KS d   1       7.596  -7.538   5.333  0.00  0.00     0.085 H 
ENDBRANCH  11  12
ENDBRANCH   9  11
ENDBRANCH   1   9
BRANCH   3  29
ATOM     29  C06 8KS d   1      11.690  -8.779   2.180  0.00  0.00    -0.052 A 
ATOM     30  C11 8KS d   1      12.560  -9.051   3.231  0.00  0.00    -0.076 A 
ATOM     31  C10 8KS d   1      13.654  -8.277   3.566  0.00  0.00    -0.082 A 
ATOM     32  H2  8KS d   1      12.366  -9.933   3.830  0.00  0.00     0.084 H 
ATOM     33  C09 8KS d   1      13.922  -7.142   2.826  0.00  0.00    -0.083 A 
ATOM     34  H3  8KS d   1      14.292  -8.556   4.397  0.00  0.00     0.083 H 
ATOM     35  C08 8KS d   1      13.077  -6.830   1.771  0.00  0.00    -0.082 A 
ATOM     36  H8  8KS d   1      14.771  -6.511   3.063  0.00  0.00     0.083 H 
ATOM     37  C07 8KS d   1      11.980  -7.628   1.447  0.00  0.00    -0.076 A 
ATOM     38  H7  8KS d   1      13.275  -5.942   1.182  0.00  0.00     0.083 H 
ATOM     39  H6  8KS d   1      11.344  -7.350   0.614  0.00  0.00     0.084 H 
ENDBRANCH   3  29
BRANCH   4  40
ATOM     40  C27 8KS d   1       8.321 -11.001   4.307  0.00  0.00    -0.052 A 
ATOM     41  C28 8KS d   1       8.500 -12.024   5.234  0.00  0.00    -0.076 A 
ATOM     42  C29 8KS d   1       7.415 -12.691   5.802  0.00  0.00    -0.082 A 
ATOM     43  H17 8KS d   1       9.506 -12.309   5.521  0.00  0.00     0.084 H 
ATOM     44  C30 8KS d   1       6.108 -12.352   5.470  0.00  0.00    -0.083 A 
ATOM     45  H18 8KS d   1       7.594 -13.488   6.515  0.00  0.00     0.083 H 
ATOM     46  C31 8KS d   1       5.910 -11.331   4.556  0.00  0.00    -0.082 A 
ATOM     47  H19 8KS d   1       5.267 -12.873   5.914  0.00  0.00     0.083 H 
ATOM     48  C32 8KS d   1       6.998 -10.691   4.011  0.00  0.00    -0.076 A 
ATOM     49  H20 8KS d   1       4.905 -11.039   4.272  0.00  0.00     0.083 H 
ATOM     50  H21 8KS d   1       6.812  -9.891   3.303  0.00  0.00     0.084 H 
ENDBRANCH   4  40
BRANCH   2  51
ATOM     51  C02 8KS d   1       9.668 -12.147   1.933  0.00  0.00     0.178 C 
ATOM     52  O01 8KS d   1       9.120 -11.875   0.831  0.00  0.00    -0.648 OA
ATOM     53  O03 8KS d   1       9.692 -13.284   2.477  0.00  0.00    -0.648 OA
ENDBRANCH   2  51
TORSDOF 6
