REMARK  5 active torsions:
REMARK  status: ('A' for Active; 'I' for Inactive)
REMARK    1  A    between atoms: C7_4  and  C31_31 
REMARK    2  A    between atoms: N12_6  and  C11_20 
REMARK    3  A    between atoms: C17_9  and  N16_22 
REMARK    4  A    between atoms: C18_23  and  C17_9 
REMARK    5  A    between atoms: C2_16  and  C1_15 
ROOT
ATOM      1  N12 8LS d   1     -92.013 -13.996 159.963  0.00  0.00    -0.295 N 
ATOM      2  C13 8LS d   1     -93.371 -14.271 160.461  0.00  0.00     0.032 A 
ATOM      3  C15 8LS d   1     -95.750 -14.445 159.761  0.00  0.00    -0.007 A 
ATOM      4  C24 8LS d   1     -96.484 -13.841 157.594  0.00  0.00     0.249 A 
ATOM      5  C26 8LS d   1     -95.179 -13.467 157.239  0.00  0.00     0.009 A 
ATOM      6  C14 8LS d   1     -94.486 -14.112 159.454  0.00  0.00     0.003 A 
ATOM      7  N16 8LS d   1     -96.741 -14.322 158.830  0.00  0.00    -0.320 N 
ATOM      8  O25 8LS d   1     -97.394 -13.744 156.779  0.00  0.00    -0.268 OA
ATOM      9  C27 8LS d   1     -94.163 -13.599 158.171  0.00  0.00     0.051 A 
ATOM     10  N28 8LS d   1     -92.849 -13.288 157.861  0.00  0.00    -0.308 N 
ATOM     11  C29 8LS d   1     -91.836 -13.539 158.703  0.00  0.00     0.327 A 
ATOM     12  O30 8LS d   1     -90.704 -13.314 158.320  0.00  0.00    -0.246 OA
ATOM     13  H7  8LS d   1     -93.570 -13.583 161.296  0.00  0.00     0.072 H 
ATOM     14  H8  8LS d   1     -93.392 -15.308 160.827  0.00  0.00     0.072 H 
ATOM     15  H9  8LS d   1     -95.986 -14.815 160.758  0.00  0.00     0.112 H 
ATOM     16  H15 8LS d   1     -94.968 -13.078 156.244  0.00  0.00     0.095 H 
ATOM     17  H22 8LS d   1     -92.649 -12.862 156.979  0.00  0.00     0.170 HD
ENDROOT
BRANCH   1  18
ATOM     18  C11 8LS d   1     -90.904 -14.305 160.746  0.00  0.00     0.048 A 
ATOM     19  C10 8LS d   1     -90.751 -15.665 160.881  0.00  0.00    -0.024 A 
ATOM     20  C9  8LS d   1     -89.704 -16.194 161.592  0.00  0.00     0.078 A 
ATOM     21  H6  8LS d   1     -91.470 -16.331 160.417  0.00  0.00     0.091 H 
ATOM     22  C4  8LS d   1     -88.780 -15.351 162.170  0.00  0.00    -0.024 A 
ATOM     23  O8  8LS d   1     -89.646 -17.546 161.675  0.00  0.00    -0.339 OA
ATOM     24  C5  8LS d   1     -87.633 -15.960 162.930  0.00  0.00    -0.036 C 
ATOM     25  C3  8LS d   1     -88.914 -13.972 162.035  0.00  0.00    -0.066 A 
ATOM     26  C6  8LS d   1     -87.397 -17.378 162.372  0.00  0.00    -0.031 C 
ATOM     27  H1  8LS d   1     -87.881 -16.016 164.000  0.00  0.00     0.040 H 
ATOM     28  H2  8LS d   1     -86.728 -15.349 162.794  0.00  0.00     0.040 H 
ATOM     29  C7  8LS d   1     -88.719 -18.117 162.590  0.00  0.00     0.090 C 
ATOM     30  H3  8LS d   1     -86.582 -17.877 162.917  0.00  0.00     0.037 H 
ATOM     31  H4  8LS d   1     -87.150 -17.335 161.301  0.00  0.00     0.037 H 
ATOM     32  H5  8LS d   1     -89.053 -17.937 163.622  0.00  0.00     0.094 H 
ATOM     33  C2  8LS d   1     -89.973 -13.432 161.313  0.00  0.00    -0.034 A 
ATOM     34  H19 8LS d   1     -88.187 -13.314 162.496  0.00  0.00     0.085 H 
BRANCH  29  35
ATOM     35  C31 8LS d   1     -88.675 -19.608 162.368  0.00  0.00     0.102 A 
ATOM     36  N32 8LS d   1     -88.077 -20.132 161.319  0.00  0.00    -0.260 NA
ATOM     37  C33 8LS d   1     -88.056 -21.439 161.111  0.00  0.00     0.003 A 
ATOM     38  C34 8LS d   1     -88.665 -22.316 161.985  0.00  0.00    -0.063 A 
ATOM     39  H23 8LS d   1     -87.550 -21.829 160.235  0.00  0.00     0.114 H 
ATOM     40  C35 8LS d   1     -89.311 -21.802 163.096  0.00  0.00    -0.042 A 
ATOM     41  H24 8LS d   1     -88.638 -23.385 161.805  0.00  0.00     0.085 H 
ATOM     42  C36 8LS d   1     -89.317 -20.425 163.279  0.00  0.00     0.143 A 
ATOM     43  H25 8LS d   1     -89.801 -22.458 163.806  0.00  0.00     0.088 H 
ATOM     44  F37 8LS d   1     -89.940 -19.883 164.349  0.00  0.00    -0.204 F 
ENDBRANCH  29  35
BRANCH  33  45
ATOM     45  C1  8LS d   1     -90.116 -11.937 161.164  0.00  0.00    -0.049 C 
ATOM     46  H16 8LS d   1     -89.284 -11.436 161.681  0.00  0.00     0.033 H 
ATOM     47  H17 8LS d   1     -91.070 -11.614 161.606  0.00  0.00     0.033 H 
ATOM     48  H18 8LS d   1     -90.097 -11.671 160.097  0.00  0.00     0.033 H 
ENDBRANCH  33  45
ENDBRANCH   1  18
BRANCH   7  49
ATOM     49  C17 8LS d   1     -98.105 -14.741 159.161  0.00  0.00     0.026 C 
ATOM     50  H10 8LS d   1     -98.823 -14.131 158.593  0.00  0.00     0.072 H 
ATOM     51  H11 8LS d   1     -98.278 -14.604 160.238  0.00  0.00     0.072 H 
BRANCH  49  52
ATOM     52  C18 8LS d   1     -98.292 -16.205 158.802  0.00  0.00    -0.040 A 
ATOM     53  C19 8LS d   1     -99.502 -16.652 158.306  0.00  0.00    -0.075 A 
ATOM     54  C20 8LS d   1     -99.675 -17.983 157.983  0.00  0.00    -0.082 A 
ATOM     55  H20 8LS d   1    -100.320 -15.954 158.170  0.00  0.00     0.084 H 
ATOM     56  C21 8LS d   1     -98.642 -18.882 158.155  0.00  0.00    -0.083 A 
ATOM     57  H12 8LS d   1    -100.627 -18.324 157.592  0.00  0.00     0.083 H 
ATOM     58  C22 8LS d   1     -97.430 -18.448 158.643  0.00  0.00    -0.082 A 
ATOM     59  H13 8LS d   1     -98.785 -19.927 157.906  0.00  0.00     0.083 H 
ATOM     60  C23 8LS d   1     -97.265 -17.115 158.962  0.00  0.00    -0.075 A 
ATOM     61  H14 8LS d   1     -96.612 -19.147 158.776  0.00  0.00     0.083 H 
ATOM     62  H21 8LS d   1     -96.310 -16.775 159.346  0.00  0.00     0.084 H 
ENDBRANCH  49  52
ENDBRANCH   7  49
TORSDOF 5
