REMARK  6 active torsions:
REMARK  status: ('A' for Active; 'I' for Inactive)
REMARK    1  A    between atoms: N3_2  and  C26_16 
REMARK    2  A    between atoms: C26_16  and  C15_10 
REMARK    3  A    between atoms: C17_11  and  N2_30 
REMARK    4  A    between atoms: C27_29  and  C16_24 
REMARK    5  A    between atoms: O3_33  and  C18_25 
REMARK    6  A    between atoms: C27_29  and  O3_33 
ROOT
ATOM      1  N1  8LP d   1     238.122   9.139 158.619  0.00  0.00    -0.198 NA
ATOM      2  N3  8LP d   1     241.874  10.289 159.765  0.00  0.00    -0.323 N 
ATOM      3  C20 8LP d   1     240.827  10.347 160.644  0.00  0.00    -0.007 A 
ATOM      4  C21 8LP d   1     239.604   9.976 160.272  0.00  0.00     0.001 A 
ATOM      5  C22 8LP d   1     239.389   9.508 158.947  0.00  0.00     0.058 A 
ATOM      6  C24 8LP d   1     236.978   9.450 159.306  0.00  0.00     0.349 C 
ATOM      7  C19 8LP d   1     240.400   9.438 158.081  0.00  0.00     0.050 A 
ATOM      8  C23 8LP d   1     241.754   9.848 158.485  0.00  0.00     0.229 A 
ATOM      9  C25 8LP d   1     238.437  10.024 161.178  0.00  0.00     0.031 C 
ATOM     10  N2  8LP d   1     237.122   9.936 160.575  0.00  0.00    -0.294 N 
ATOM     11  O1  8LP d   1     242.704   9.795 157.724  0.00  0.00    -0.273 OA
ATOM     12  O2  8LP d   1     235.860   9.292 158.828  0.00  0.00    -0.244 OA
ATOM     13  H8  8LP d   1     240.996  10.701 161.660  0.00  0.00     0.112 H 
ATOM     14  H18 8LP d   1     240.123  10.065 157.221  0.00  0.00     0.056 H 
ATOM     15  H19 8LP d   1     240.470   8.388 157.761  0.00  0.00     0.056 H 
ATOM     16  H20 8LP d   1     238.485  10.975 161.728  0.00  0.00     0.072 H 
ATOM     17  H21 8LP d   1     238.533   9.187 161.885  0.00  0.00     0.072 H 
ENDROOT
BRANCH  10  18
ATOM     18  C17 8LP d   1     236.030  10.057 161.428  0.00  0.00     0.042 A 
ATOM     19  C12 8LP d   1     235.431   8.881 161.813  0.00  0.00    -0.057 A 
ATOM     20  C7  8LP d   1     234.342   8.925 162.643  0.00  0.00    -0.078 A 
ATOM     21  H16 8LP d   1     235.816   7.930 161.464  0.00  0.00     0.086 H 
ATOM     22  C13 8LP d   1     233.863  10.139 163.068  0.00  0.00    -0.051 A 
ATOM     23  H4  8LP d   1     233.862   8.007 162.962  0.00  0.00     0.083 H 
ATOM     24  C18 8LP d   1     234.467  11.309 162.680  0.00  0.00     0.071 A 
ATOM     25  H7  8LP d   1     232.996  10.174 163.718  0.00  0.00     0.087 H 
ATOM     26  C14 8LP d   1     235.561  11.281 161.849  0.00  0.00    -0.025 A 
ATOM     27  H17 8LP d   1     236.042  12.199 161.533  0.00  0.00     0.091 H 
BRANCH  24  28
ATOM     28  O3  8LP d   1     233.911  12.483 163.158  0.00  0.00    -0.347 OA
BRANCH  28  29
ATOM     29  C27 8LP d   1     234.762  13.552 162.798  0.00  0.00     0.050 C 
ATOM     30  H22 8LP d   1     235.710  13.473 163.351  0.00  0.00     0.082 H 
ATOM     31  H23 8LP d   1     234.964  13.516 161.717  0.00  0.00     0.082 H 
BRANCH  29  32
ATOM     32  C16 8LP d   1     234.086  14.842 163.141  0.00  0.00    -0.034 A 
ATOM     33  C10 8LP d   1     232.758  14.868 163.493  0.00  0.00    -0.075 A 
ATOM     34  C5  8LP d   1     232.143  16.062 163.802  0.00  0.00    -0.082 A 
ATOM     35  H6  8LP d   1     232.191  13.945 163.528  0.00  0.00     0.084 H 
ATOM     36  C2  8LP d   1     232.859  17.238 163.756  0.00  0.00    -0.083 A 
ATOM     37  H2  8LP d   1     231.096  16.076 164.081  0.00  0.00     0.083 H 
ATOM     38  C6  8LP d   1     234.187  17.228 163.405  0.00  0.00    -0.082 A 
ATOM     39  H12 8LP d   1     232.372  18.176 163.998  0.00  0.00     0.083 H 
ATOM     40  C11 8LP d   1     234.787  16.028 163.102  0.00  0.00    -0.075 A 
ATOM     41  H3  8LP d   1     234.753  18.151 163.367  0.00  0.00     0.083 H 
ATOM     42  H15 8LP d   1     235.835  16.015 162.826  0.00  0.00     0.084 H 
ENDBRANCH  29  32
ENDBRANCH  28  29
ENDBRANCH  24  28
ENDBRANCH  10  18
BRANCH   2  43
ATOM     43  C26 8LP d   1     243.189  10.716 160.150  0.00  0.00     0.026 C 
ATOM     44  H9  8LP d   1     243.939  10.060 159.685  0.00  0.00     0.072 H 
ATOM     45  H10 8LP d   1     243.286  10.665 161.245  0.00  0.00     0.072 H 
BRANCH  43  46
ATOM     46  C15 8LP d   1     243.407  12.130 159.692  0.00  0.00    -0.040 A 
ATOM     47  C8  8LP d   1     244.661  12.573 159.347  0.00  0.00    -0.075 A 
ATOM     48  C3  8LP d   1     244.862  13.871 158.938  0.00  0.00    -0.082 A 
ATOM     49  H5  8LP d   1     245.502  11.891 159.398  0.00  0.00     0.084 H 
ATOM     50  C1  8LP d   1     243.812  14.752 158.864  0.00  0.00    -0.083 A 
ATOM     51  H13 8LP d   1     245.859  14.201 158.672  0.00  0.00     0.083 H 
ATOM     52  C4  8LP d   1     242.553  14.318 159.202  0.00  0.00    -0.082 A 
ATOM     53  H11 8LP d   1     243.974  15.775 158.544  0.00  0.00     0.083 H 
ATOM     54  C9  8LP d   1     242.360  13.019 159.610  0.00  0.00    -0.075 A 
ATOM     55  H1  8LP d   1     241.712  14.999 159.147  0.00  0.00     0.083 H 
ATOM     56  H14 8LP d   1     241.362  12.688 159.873  0.00  0.00     0.084 H 
ENDBRANCH  43  46
ENDBRANCH   2  43
TORSDOF 6
