REMARK  6 active torsions:
REMARK  status: ('A' for Active; 'I' for Inactive)
REMARK    1  A    between atoms: C4_1  and  C2_14 
REMARK    2  A    between atoms: C10_6  and  C8_5 
REMARK    3  A    between atoms: C14_19  and  C13_7 
REMARK    4  A    between atoms: C15_8  and  C14_19 
REMARK    5  A    between atoms: C21_9  and  C26_11 
REMARK    6  A    between atoms: C24_10  and  N25_27 
ROOT
ATOM      1  C15 8LV d   1      17.923 -12.734  37.666  0.00  0.00     0.063 A 
ATOM      2  C21 8LV d   1      21.732 -11.845  39.987  0.00  0.00     0.106 C 
ATOM      3  C24 8LV d   1      19.062 -13.246  38.153  0.00  0.00     0.137 A 
ATOM      4  C16 8LV d   1      17.736 -11.254  37.687  0.00  0.00     0.279 A 
ATOM      5  O17 8LV d   1      16.697 -10.773  37.248  0.00  0.00    -0.265 OA
ATOM      6  N18 8LV d   1      18.769 -10.485  38.216  0.00  0.00    -0.183 NA
ATOM      7  C19 8LV d   1      19.828 -11.088  38.658  0.00  0.00     0.196 A 
ATOM      8  S20 8LV d   1      21.211 -10.241  39.357  0.00  0.00    -0.060 SA
ATOM      9  N22 8LV d   1      21.121 -12.863  39.136  0.00  0.00    -0.190 NA
ATOM     10  N23 8LV d   1      20.031 -12.434  38.655  0.00  0.00    -0.196 N 
ATOM     11  H4  8LV d   1      21.331 -11.957  41.005  0.00  0.00     0.097 H 
ENDROOT
BRANCH   1  12
ATOM     12  C14 8LV d   1      16.900 -13.676  37.115  0.00  0.00     0.013 C 
ATOM     13  H11 8LV d   1      17.342 -14.018  36.168  0.00  0.00     0.050 H 
ATOM     14  H12 8LV d   1      16.892 -14.506  37.837  0.00  0.00     0.050 H 
BRANCH  12  15
ATOM     15  C13 8LV d   1      15.465 -13.478  36.786  0.00  0.00     0.058 A 
ATOM     16  C12 8LV d   1      14.641 -14.395  36.171  0.00  0.00    -0.051 A 
ATOM     17  C11 8LV d   1      13.363 -13.804  36.069  0.00  0.00    -0.047 A 
ATOM     18  H10 8LV d   1      14.923 -15.389  35.828  0.00  0.00     0.087 H 
ATOM     19  C10 8LV d   1      13.482 -12.552  36.624  0.00  0.00     0.086 A 
ATOM     20  H9  8LV d   1      12.467 -14.249  35.639  0.00  0.00     0.087 H 
ATOM     21  O32 8LV d   1      14.766 -12.333  37.059  0.00  0.00    -0.314 OA
BRANCH  19  22
ATOM     22  C8  8LV d   1      12.454 -11.550  36.810  0.00  0.00    -0.001 A 
ATOM     23  C7  8LV d   1      11.144 -11.968  36.727  0.00  0.00    -0.070 A 
ATOM     24  C6  8LV d   1      10.108 -11.077  36.890  0.00  0.00    -0.081 A 
ATOM     25  H3  8LV d   1      10.927 -13.012  36.531  0.00  0.00     0.084 H 
ATOM     26  C5  8LV d   1      10.377  -9.753  37.141  0.00  0.00    -0.066 A 
ATOM     27  H2  8LV d   1       9.082 -11.419  36.821  0.00  0.00     0.083 H 
ATOM     28  C4  8LV d   1      11.683  -9.327  37.225  0.00  0.00     0.041 A 
ATOM     29  H1  8LV d   1       9.565  -9.047  37.272  0.00  0.00     0.085 H 
ATOM     30  C9  8LV d   1      12.721 -10.221  37.061  0.00  0.00    -0.054 A 
ATOM     31  H8  8LV d   1      13.747  -9.878  37.130  0.00  0.00     0.086 H 
BRANCH  28  32
ATOM     32  C2  8LV d   1      11.945  -7.902  37.492  0.00  0.00     0.209 C 
ATOM     33  O1  8LV d   1      11.016  -7.274  38.076  0.00  0.00    -0.644 OA
ATOM     34  O3  8LV d   1      13.056  -7.447  37.097  0.00  0.00    -0.644 OA
ENDBRANCH  28  32
ENDBRANCH  19  22
ENDBRANCH  12  15
ENDBRANCH   1  12
BRANCH   3  35
ATOM     35  N25 8LV d   1      19.243 -14.606  38.140  0.00  0.00    -0.383 N 
ATOM     36  H13 8LV d   1      18.508 -15.220  37.760  0.00  0.00     0.157 HD
ATOM     37  H14 8LV d   1      20.113 -15.013  38.511  0.00  0.00     0.157 HD
ENDBRANCH   3  35
BRANCH   2  38
ATOM     38  C26 8LV d   1      23.231 -12.013  40.079  0.00  0.00    -0.022 C 
ATOM     39  C27 8LV d   1      23.570 -11.932  41.553  0.00  0.00    -0.059 C 
ATOM     40  C28 8LV d   1      24.947 -12.455  41.897  0.00  0.00    -0.065 C 
ATOM     41  H15 8LV d   1      22.827 -12.520  42.112  0.00  0.00     0.033 H 
ATOM     42  H16 8LV d   1      23.513 -10.878  41.864  0.00  0.00     0.033 H 
ATOM     43  C29 8LV d   1      25.097 -13.868  41.401  0.00  0.00    -0.065 C 
ATOM     44  H6  8LV d   1      25.082 -12.435  42.988  0.00  0.00     0.033 H 
ATOM     45  H7  8LV d   1      25.708 -11.819  41.422  0.00  0.00     0.033 H 
ATOM     46  C30 8LV d   1      24.965 -13.834  39.900  0.00  0.00    -0.065 C 
ATOM     47  H17 8LV d   1      24.311 -14.504  41.833  0.00  0.00     0.033 H 
ATOM     48  H18 8LV d   1      26.084 -14.263  41.683  0.00  0.00     0.033 H 
ATOM     49  C31 8LV d   1      23.573 -13.379  39.524  0.00  0.00    -0.059 C 
ATOM     50  H19 8LV d   1      25.143 -14.841  39.494  0.00  0.00     0.033 H 
ATOM     51  H20 8LV d   1      25.704 -13.134  39.483  0.00  0.00     0.033 H 
ATOM     52  H21 8LV d   1      23.500 -13.341  38.427  0.00  0.00     0.033 H 
ATOM     53  H22 8LV d   1      22.848 -14.108  39.914  0.00  0.00     0.033 H 
ATOM     54  H5  8LV d   1      23.757 -11.228  39.516  0.00  0.00     0.044 H 
ENDBRANCH   2  38
TORSDOF 6
