REMARK  13 active torsions:
REMARK  status: ('A' for Active; 'I' for Inactive)
REMARK    1  A    between atoms: CZ_3  and  OH_4 
REMARK    2  A    between atoms: CG_7  and  CB_8 
REMARK    3  A    between atoms: CB_8  and  CA_9 
REMARK    4  A    between atoms: CA_9  and  N_10 
REMARK    5  A    between atoms: CA_9  and  C_11 
REMARK       I    between atoms: C_11  and  NAT_13 
REMARK    6  A    between atoms: NAT_13  and  SBI_14 
REMARK    7  A    between atoms: SBI_14  and  O5'_17 
REMARK    8  A    between atoms: O5'_17  and  C5'_18 
REMARK    9  A    between atoms: C5'_18  and  C4'_19 
REMARK   10  A    between atoms: C3'_21  and  O3'_22 
REMARK   11  A    between atoms: C2'_23  and  O2'_24 
REMARK   12  A    between atoms: C1'_25  and  N9_26 
REMARK   13  A    between atoms: C6_34  and  N6_35 
ROOT
ATOM      1  C5' YSA d   1     -32.122 109.722 -25.897  0.00  0.00     0.066 C 
ATOM      2  H13 YSA d   1     -31.191 109.157 -25.744  0.00  0.00     0.080 H 
ATOM      3  H14 YSA d   1     -32.030 110.342 -26.801  0.00  0.00     0.080 H 
ENDROOT
BRANCH   1   4
ATOM      4  O5' YSA d   1     -32.359 110.568 -24.761  0.00  0.00    -0.257 OA
BRANCH   4   5
ATOM      5  SBI YSA d   1     -31.632 111.982 -24.771  0.00  0.00     0.364 S 
ATOM      6  OAD YSA d   1     -30.264 111.701 -24.931  0.00  0.00    -0.175 OA
ATOM      7  OAE YSA d   1     -32.107 112.664 -23.635  0.00  0.00    -0.175 OA
BRANCH   5   8
ATOM      8  NAT YSA d   1     -32.138 112.774 -26.049  0.00  0.00    -0.230 N 
ATOM      9  C   YSA d   1     -33.427 113.173 -26.145  0.00  0.00     0.263 C 
ATOM     10  O   YSA d   1     -34.170 113.053 -25.193  0.00  0.00    -0.270 OA
ATOM     11  H12 YSA d   1     -31.499 112.980 -26.790  0.00  0.00     0.183 HD
BRANCH   9  12
ATOM     12  CA  YSA d   1     -34.021 113.757 -27.394  0.00  0.00     0.180 C 
ATOM     13  H8  YSA d   1     -34.851 113.127 -27.746  0.00  0.00     0.099 H 
BRANCH  12  14
ATOM     14  CB  YSA d   1     -33.097 114.015 -28.578  0.00  0.00    -0.006 C 
ATOM     15  H6  YSA d   1     -32.541 114.944 -28.386  0.00  0.00     0.043 H 
ATOM     16  H7  YSA d   1     -32.391 113.175 -28.655  0.00  0.00     0.043 H 
BRANCH  14  17
ATOM     17  CG  YSA d   1     -33.812 114.155 -29.896  0.00  0.00    -0.056 A 
ATOM     18  CD1 YSA d   1     -33.727 115.316 -30.630  0.00  0.00    -0.074 A 
ATOM     19  CE1 YSA d   1     -34.376 115.446 -31.841  0.00  0.00    -0.051 A 
ATOM     20  H1  YSA d   1     -33.139 116.144 -30.250  0.00  0.00     0.084 H 
ATOM     21  CZ  YSA d   1     -35.130 114.403 -32.332  0.00  0.00     0.065 A 
ATOM     22  H2  YSA d   1     -34.292 116.368 -32.405  0.00  0.00     0.087 H 
ATOM     23  CE2 YSA d   1     -35.210 113.230 -31.616  0.00  0.00    -0.051 A 
ATOM     24  CD2 YSA d   1     -34.559 113.118 -30.405  0.00  0.00    -0.074 A 
ATOM     25  H4  YSA d   1     -35.784 112.396 -32.003  0.00  0.00     0.087 H 
ATOM     26  H5  YSA d   1     -34.638 112.194 -29.843  0.00  0.00     0.084 H 
BRANCH  21  27
ATOM     27  OH  YSA d   1     -35.853 114.551 -33.480  0.00  0.00    -0.361 OA
ATOM     28  H3  YSA d   1     -36.310 113.740 -33.672  0.00  0.00     0.217 HD
ENDBRANCH  21  27
ENDBRANCH  14  17
ENDBRANCH  12  14
BRANCH  12  29
ATOM     29  N   YSA d   1     -34.501 115.021 -26.837  0.00  0.00    -0.066 N 
ATOM     30  H9  YSA d   1     -35.110 114.834 -26.056  0.00  0.00     0.275 HD
ATOM     31  H10 YSA d   1     -35.008 115.529 -27.545  0.00  0.00     0.275 HD
ATOM     32  H11 YSA d   1     -33.716 115.571 -26.526  0.00  0.00     0.275 HD
ENDBRANCH  12  29
ENDBRANCH   9  12
ENDBRANCH   5   8
ENDBRANCH   4   5
ENDBRANCH   1   4
BRANCH   1  33
ATOM     33  C4' YSA d   1     -33.269 108.760 -26.065  0.00  0.00     0.090 C 
ATOM     34  O4' YSA d   1     -33.209 107.734 -25.064  0.00  0.00    -0.353 OA
ATOM     35  C1' YSA d   1     -34.393 107.746 -24.307  0.00  0.00     0.139 C 
ATOM     36  C2' YSA d   1     -35.005 109.105 -24.517  0.00  0.00     0.105 C 
ATOM     37  H20 YSA d   1     -35.085 106.965 -24.654  0.00  0.00     0.122 H 
ATOM     38  C3' YSA d   1     -34.663 109.336 -25.969  0.00  0.00     0.091 C 
ATOM     39  H18 YSA d   1     -34.605 109.885 -23.852  0.00  0.00     0.093 H 
ATOM     40  H16 YSA d   1     -34.729 110.390 -26.278  0.00  0.00     0.091 H 
ATOM     41  H15 YSA d   1     -33.161 108.302 -27.059  0.00  0.00     0.090 H 
BRANCH  35  42
ATOM     42  N9  YSA d   1     -34.051 107.506 -22.920  0.00  0.00    -0.294 N 
ATOM     43  C8  YSA d   1     -33.470 108.385 -22.051  0.00  0.00     0.071 A 
ATOM     44  N7  YSA d   1     -33.384 107.941 -20.824  0.00  0.00    -0.236 NA
ATOM     45  H21 YSA d   1     -33.111 109.368 -22.353  0.00  0.00     0.144 H 
ATOM     46  C5  YSA d   1     -33.939 106.675 -20.895  0.00  0.00     0.149 A 
ATOM     47  C4  YSA d   1     -34.346 106.392 -22.181  0.00  0.00     0.167 A 
ATOM     48  C6  YSA d   1     -34.167 105.688 -19.927  0.00  0.00     0.155 A 
ATOM     49  N3  YSA d   1     -34.932 105.276 -22.605  0.00  0.00    -0.222 NA
ATOM     50  C2  YSA d   1     -35.091 104.417 -21.605  0.00  0.00     0.091 A 
ATOM     51  N1  YSA d   1     -34.752 104.550 -20.328  0.00  0.00    -0.222 NA
ATOM     52  H22 YSA d   1     -35.563 103.477 -21.867  0.00  0.00     0.146 H 
BRANCH  48  53
ATOM     53  N6  YSA d   1     -33.870 105.827 -18.641  0.00  0.00    -0.382 N 
ATOM     54  H23 YSA d   1     -34.065 105.060 -17.982  0.00  0.00     0.157 HD
ATOM     55  H24 YSA d   1     -33.445 106.702 -18.302  0.00  0.00     0.157 HD
ENDBRANCH  48  53
ENDBRANCH  35  42
BRANCH  36  56
ATOM     56  O2' YSA d   1     -36.396 108.933 -24.348  0.00  0.00    -0.388 OA
ATOM     57  H19 YSA d   1     -36.685 108.182 -24.853  0.00  0.00     0.210 HD
ENDBRANCH  36  56
BRANCH  38  58
ATOM     58  O3' YSA d   1     -35.509 108.491 -26.719  0.00  0.00    -0.390 OA
ATOM     59  H17 YSA d   1     -35.215 108.471 -27.622  0.00  0.00     0.210 HD
ENDBRANCH  38  58
ENDBRANCH   1  33
TORSDOF 13
