REMARK  5 active torsions:
REMARK  status: ('A' for Active; 'I' for Inactive)
REMARK    1  A    between atoms: C9_19  and  C8_4 
REMARK    2  A    between atoms: C13_7  and  N12_6 
REMARK    3  A    between atoms: N12_6  and  C11_20 
REMARK    4  A    between atoms: C20_10  and  C21_11 
REMARK    5  A    between atoms: N19_24  and  C20_10 
ROOT
ATOM      1  C13 8LY d   1      17.451  70.721   4.208  0.00  0.00     0.067 A 
ATOM      2  C15 8LY d   1      16.493  71.420   2.094  0.00  0.00     0.005 A 
ATOM      3  C17 8LY d   1      18.786  71.821   2.370  0.00  0.00     0.106 A 
ATOM      4  C28 8LY d   1      18.730  71.227   3.715  0.00  0.00     0.134 A 
ATOM      5  C14 8LY d   1      16.352  70.842   3.356  0.00  0.00    -0.038 A 
ATOM      6  N16 8LY d   1      17.645  71.874   1.642  0.00  0.00    -0.257 NA
ATOM      7  C18 8LY d   1      20.103  72.204   2.183  0.00  0.00     0.029 A 
ATOM      8  N19 8LY d   1      20.794  71.883   3.294  0.00  0.00    -0.278 N 
ATOM      9  N27 8LY d   1      19.934  71.284   4.221  0.00  0.00    -0.168 NA
ATOM     10  H5  8LY d   1      15.618  71.499   1.458  0.00  0.00     0.114 H 
ATOM     11  H14 8LY d   1      15.381  70.484   3.678  0.00  0.00     0.089 H 
ATOM     12  H15 8LY d   1      20.510  72.682   1.293  0.00  0.00     0.117 H 
ENDROOT
BRANCH   1  13
ATOM     13  N12 8LY d   1      17.433  70.168   5.491  0.00  0.00    -0.354 N 
ATOM     14  H4  8LY d   1      18.311  70.218   6.027  0.00  0.00     0.166 HD
BRANCH  13  15
ATOM     15  C11 8LY d   1      16.350  69.555   6.122  0.00  0.00     0.036 A 
ATOM     16  C10 8LY d   1      15.531  68.665   5.425  0.00  0.00    -0.029 A 
ATOM     17  C9  8LY d   1      14.461  68.048   6.067  0.00  0.00     0.072 A 
ATOM     18  H3  8LY d   1      15.729  68.454   4.380  0.00  0.00     0.090 H 
ATOM     19  N31 8LY d   1      14.226  68.325   7.356  0.00  0.00    -0.260 NA
ATOM     20  C30 8LY d   1      14.984  69.163   8.062  0.00  0.00     0.005 A 
ATOM     21  C29 8LY d   1      16.070  69.803   7.477  0.00  0.00    -0.040 A 
ATOM     22  H23 8LY d   1      14.751  69.348   9.104  0.00  0.00     0.114 H 
ATOM     23  H22 8LY d   1      16.689  70.480   8.054  0.00  0.00     0.089 H 
BRANCH  17  24
ATOM     24  C8  8LY d   1      13.580  67.126   5.300  0.00  0.00     0.033 A 
ATOM     25  C7  8LY d   1      12.217  67.115   5.618  0.00  0.00    -0.047 A 
ATOM     26  C5  8LY d   1      11.354  66.290   4.923  0.00  0.00     0.035 A 
ATOM     27  H2  8LY d   1      11.839  67.753   6.409  0.00  0.00     0.087 H 
ATOM     28  C4  8LY d   1      11.819  65.471   3.896  0.00  0.00    -0.059 A 
ATOM     29 CL6  8LY d   1       9.680  66.289   5.354  0.00  0.00    -0.084 Cl
ATOM     30  C3  8LY d   1      13.163  65.475   3.554  0.00  0.00    -0.043 A 
ATOM     31  H1  8LY d   1      11.128  64.829   3.362  0.00  0.00     0.086 H 
ATOM     32  C2  8LY d   1      14.044  66.299   4.248  0.00  0.00     0.129 A 
ATOM     33  H13 8LY d   1      13.524  64.841   2.752  0.00  0.00     0.088 H 
ATOM     34  F1  8LY d   1      15.344  66.272   3.895  0.00  0.00    -0.205 F 
ENDBRANCH  17  24
ENDBRANCH  13  15
ENDBRANCH   1  13
BRANCH   8  35
ATOM     35  C20 8LY d   1      22.227  72.127   3.512  0.00  0.00     0.020 C 
ATOM     36  H6  8LY d   1      22.802  71.338   3.005  0.00  0.00     0.068 H 
ATOM     37  H7  8LY d   1      22.489  73.105   3.083  0.00  0.00     0.068 H 
BRANCH  35  38
ATOM     38  C21 8LY d   1      22.597  72.126   5.010  0.00  0.00    -0.034 C 
ATOM     39  C22 8LY d   1      24.127  72.208   5.171  0.00  0.00    -0.038 C 
ATOM     40  C23 8LY d   1      24.519  72.214   6.659  0.00  0.00     0.082 C 
ATOM     41  H9  8LY d   1      24.491  73.132   4.698  0.00  0.00     0.036 H 
ATOM     42  H10 8LY d   1      24.589  71.339   4.680  0.00  0.00     0.036 H 
ATOM     43  N24 8LY d   1      23.766  73.237   7.422  0.00  0.00    -0.075 N 
ATOM     44  H16 8LY d   1      25.595  72.427   6.743  0.00  0.00     0.075 H 
ATOM     45  H17 8LY d   1      24.307  71.223   7.087  0.00  0.00     0.075 H 
ATOM     46  C25 8LY d   1      22.297  73.119   7.285  0.00  0.00     0.082 C 
ATOM     47  H18 8LY d   1      24.044  74.148   7.093  0.00  0.00     0.277 HD
ATOM     48  H19 8LY d   1      24.003  73.145   8.397  0.00  0.00     0.277 HD
ATOM     49  C26 8LY d   1      21.902  73.252   5.804  0.00  0.00    -0.038 C 
ATOM     50  H20 8LY d   1      21.972  72.139   7.663  0.00  0.00     0.075 H 
ATOM     51  H21 8LY d   1      21.810  73.916   7.866  0.00  0.00     0.075 H 
ATOM     52  H11 8LY d   1      20.811  73.160   5.701  0.00  0.00     0.036 H 
ATOM     53  H12 8LY d   1      22.225  74.231   5.420  0.00  0.00     0.036 H 
ATOM     54  H8  8LY d   1      22.261  71.168   5.435  0.00  0.00     0.042 H 
ENDBRANCH  35  38
ENDBRANCH   8  35
TORSDOF 5
