REMARK  6 active torsions:
REMARK  status: ('A' for Active; 'I' for Inactive)
REMARK    1  A    between atoms: S_1  and  N4_14 
REMARK    2  A    between atoms: C6_17  and  S_1 
REMARK    3  A    between atoms: C1_2  and  N1_4 
REMARK    4  A    between atoms: C2_6  and  N3_11 
REMARK    5  A    between atoms: N3_11  and  C3_10 
REMARK       I    between atoms: C9_21  and  N6_18 
REMARK    6  A    between atoms: C10_22  and  C9_21 
ROOT
ATOM      1  C1  SKE d   1     -17.506  24.799  97.003  0.00  0.00     0.740 A 
ATOM      2  C2  SKE d   1     -16.239  23.739  98.379  0.00  0.00     0.760 A 
ATOM      3  N2  SKE d   1     -16.757  24.937  98.108  0.00  0.00     0.131 NA
ATOM      4  O3  SKE d   1     -18.725  23.533  94.743  0.00  0.00    -0.264 OA
ATOM      5  N5  SKE d   1     -16.651  22.864  97.491  0.00  0.00     0.045 NA
ATOM      6  N6  SKE d   1     -17.422  23.540  96.627  0.00  0.00    -0.006 N 
ATOM      7  C9  SKE d   1     -18.019  22.911  95.466  0.00  0.00     0.301 C 
ENDROOT
BRANCH   2   8
ATOM      8  N3  SKE d   1     -15.442  23.471  99.516  0.00  0.00    -0.186 N 
ATOM      9  H3  SKE d   1     -15.448  24.151 100.289  0.00  0.00     0.184 HD
BRANCH   8  10
ATOM     10  C3  SKE d   1     -14.625  22.299  99.646  0.00  0.00     0.049 A 
ATOM     11  C4  SKE d   1     -14.638  21.296  98.689  0.00  0.00    -0.055 A 
ATOM     12  C5  SKE d   1     -13.824  20.201  98.864  0.00  0.00    -0.058 A 
ATOM     13  H4  SKE d   1     -15.278  21.373  97.818  0.00  0.00     0.087 H 
ATOM     14  C6  SKE d   1     -13.041  20.149  99.991  0.00  0.00     0.079 A 
ATOM     15  H7  SKE d   1     -13.801  19.401  98.133  0.00  0.00     0.086 H 
ATOM     16  C7  SKE d   1     -13.032  21.139 100.940  0.00  0.00    -0.058 A 
ATOM     17  C8  SKE d   1     -13.831  22.250 100.761  0.00  0.00    -0.055 A 
ATOM     18  H8  SKE d   1     -12.405  21.050 101.820  0.00  0.00     0.086 H 
ATOM     19  H9  SKE d   1     -13.830  23.060 101.481  0.00  0.00     0.087 H 
BRANCH  14  20
ATOM     20  S   SKE d   1     -11.962  18.723 100.249  0.00  0.00     0.256 S 
ATOM     21  O1  SKE d   1     -11.042  19.080 101.339  0.00  0.00    -0.201 OA
ATOM     22  O2  SKE d   1     -12.750  17.656 100.805  0.00  0.00    -0.201 OA
BRANCH  20  23
ATOM     23  N4  SKE d   1     -11.133  18.420  98.799  0.00  0.00    -0.324 N 
ATOM     24  H5  SKE d   1     -10.575  19.138  98.383  0.00  0.00     0.169 HD
ATOM     25  H6  SKE d   1     -11.203  17.524  98.361  0.00  0.00     0.169 HD
ENDBRANCH  20  23
ENDBRANCH  14  20
ENDBRANCH   8  10
ENDBRANCH   2   8
BRANCH   1  26
ATOM     26  N1  SKE d   1     -18.238  25.884  96.374  0.00  0.00    -0.230 N 
ATOM     27  H1  SKE d   1     -18.212  26.828  96.784  0.00  0.00     0.174 HD
ATOM     28  H2  SKE d   1     -18.783  25.709  95.518  0.00  0.00     0.174 HD
ENDBRANCH   1  26
BRANCH   7  29
ATOM     29  C10 SKE d   1     -17.755  21.431  95.230  0.00  0.00     0.111 A 
ATOM     30  C11 SKE d   1     -18.786  20.558  95.052  0.00  0.00     0.135 A 
ATOM     31  F1  SKE d   1     -20.035  21.043  95.148  0.00  0.00    -0.205 F 
ATOM     32  C12 SKE d   1     -18.565  19.217  94.827  0.00  0.00    -0.044 A 
ATOM     33  C13 SKE d   1     -17.273  18.749  94.722  0.00  0.00    -0.077 A 
ATOM     34  H10 SKE d   1     -19.402  18.534  94.733  0.00  0.00     0.088 H 
ATOM     35  C14 SKE d   1     -16.209  19.626  94.877  0.00  0.00    -0.044 A 
ATOM     36  H11 SKE d   1     -17.089  17.700  94.519  0.00  0.00     0.083 H 
ATOM     37  C15 SKE d   1     -16.465  20.967  95.117  0.00  0.00     0.135 A 
ATOM     38  H12 SKE d   1     -15.188  19.266  94.811  0.00  0.00     0.088 H 
ATOM     39  F2  SKE d   1     -15.419  21.822  95.266  0.00  0.00    -0.205 F 
ENDBRANCH   7  29
TORSDOF 6
