REMARK  6 active torsions:
REMARK  status: ('A' for Active; 'I' for Inactive)
REMARK    1  A    between atoms: S_1  and  N4_14 
REMARK    2  A    between atoms: C6_17  and  S_1 
REMARK    3  A    between atoms: C1_2  and  N1_4 
REMARK    4  A    between atoms: C2_6  and  N3_11 
REMARK    5  A    between atoms: N3_11  and  C3_10 
REMARK       I    between atoms: C9_21  and  N6_18 
REMARK    6  A    between atoms: C10_22  and  C9_21 
ROOT
ATOM      1  C1  SKE d   1      -7.461  16.236  18.632  0.00  0.00     0.740 A 
ATOM      2  C2  SKE d   1      -9.560  15.945  19.100  0.00  0.00     0.760 A 
ATOM      3  N2  SKE d   1      -8.674  16.790  18.547  0.00  0.00     0.131 NA
ATOM      4  O3  SKE d   1      -5.399  14.455  19.190  0.00  0.00    -0.264 OA
ATOM      5  N5  SKE d   1      -8.888  14.884  19.517  0.00  0.00     0.045 NA
ATOM      6  N6  SKE d   1      -7.593  15.075  19.225  0.00  0.00    -0.006 N 
ATOM      7  C9  SKE d   1      -6.507  14.163  19.509  0.00  0.00     0.301 C 
ENDROOT
BRANCH   2   8
ATOM      8  N3  SKE d   1     -10.985  16.216  19.188  0.00  0.00    -0.186 N 
ATOM      9  H3  SKE d   1     -11.328  17.076  18.737  0.00  0.00     0.184 HD
BRANCH   8  10
ATOM     10  C3  SKE d   1     -11.969  15.380  19.857  0.00  0.00     0.049 A 
ATOM     11  C4  SKE d   1     -11.603  14.295  20.637  0.00  0.00    -0.055 A 
ATOM     12  C5  SKE d   1     -12.572  13.526  21.257  0.00  0.00    -0.058 A 
ATOM     13  H4  SKE d   1     -10.555  14.048  20.762  0.00  0.00     0.087 H 
ATOM     14  C6  SKE d   1     -13.909  13.842  21.102  0.00  0.00     0.079 A 
ATOM     15  H7  SKE d   1     -12.283  12.676  21.864  0.00  0.00     0.086 H 
ATOM     16  C7  SKE d   1     -14.282  14.924  20.326  0.00  0.00    -0.058 A 
ATOM     17  C8  SKE d   1     -13.311  15.693  19.708  0.00  0.00    -0.055 A 
ATOM     18  H8  SKE d   1     -15.331  15.169  20.202  0.00  0.00     0.086 H 
ATOM     19  H9  SKE d   1     -13.602  16.545  19.104  0.00  0.00     0.087 H 
BRANCH  14  20
ATOM     20  S   SKE d   1     -15.184  12.837  21.917  0.00  0.00     0.256 S 
ATOM     21  O1  SKE d   1     -15.725  11.831  20.997  0.00  0.00    -0.201 OA
ATOM     22  O2  SKE d   1     -14.595  11.994  22.961  0.00  0.00    -0.201 OA
BRANCH  20  23
ATOM     23  N4  SKE d   1     -16.416  13.840  22.539  0.00  0.00    -0.324 N 
ATOM     24  H5  SKE d   1     -16.904  14.468  21.932  0.00  0.00     0.169 HD
ATOM     25  H6  SKE d   1     -16.651  13.800  23.510  0.00  0.00     0.169 HD
ENDBRANCH  20  23
ENDBRANCH  14  20
ENDBRANCH   8  10
ENDBRANCH   2   8
BRANCH   1  26
ATOM     26  N1  SKE d   1      -6.223  16.822  18.159  0.00  0.00    -0.230 N 
ATOM     27  H1  SKE d   1      -6.231  17.746  17.704  0.00  0.00     0.174 HD
ATOM     28  H2  SKE d   1      -5.335  16.315  18.278  0.00  0.00     0.174 HD
ENDBRANCH   1  26
BRANCH   7  29
ATOM     29  C10 SKE d   1      -6.769  12.829  20.205  0.00  0.00     0.111 A 
ATOM     30  C11 SKE d   1      -6.293  11.660  19.631  0.00  0.00     0.135 A 
ATOM     31  F1  SKE d   1      -5.600  11.725  18.458  0.00  0.00    -0.205 F 
ATOM     32  C12 SKE d   1      -6.518  10.438  20.245  0.00  0.00    -0.044 A 
ATOM     33  C13 SKE d   1      -7.223  10.383  21.436  0.00  0.00    -0.077 A 
ATOM     34  H10 SKE d   1      -6.143   9.527  19.794  0.00  0.00     0.088 H 
ATOM     35  C14 SKE d   1      -7.698  11.552  22.009  0.00  0.00    -0.044 A 
ATOM     36  H11 SKE d   1      -7.403   9.429  21.918  0.00  0.00     0.083 H 
ATOM     37  C15 SKE d   1      -7.471  12.775  21.396  0.00  0.00     0.135 A 
ATOM     38  H12 SKE d   1      -8.250  11.510  22.941  0.00  0.00     0.088 H 
ATOM     39  F2  SKE d   1      -7.945  13.920  21.969  0.00  0.00    -0.205 F 
ENDBRANCH   7  29
TORSDOF 6
