REMARK  5 active torsions:
REMARK  status: ('A' for Active; 'I' for Inactive)
REMARK       I    between atoms: C2_2  and  N3_3 
REMARK       I    between atoms: C2_2  and  N7_7 
REMARK    1  A    between atoms: N3_3  and  C4_4 
REMARK    2  A    between atoms: N7_7  and  C8_8 
REMARK    3  A    between atoms: C13_12  and  C14_13 
REMARK    4  A    between atoms: C19_18  and  C20_19 
REMARK    5  A    between atoms: C20_19  and  N21_20 
ROOT
ATOM      1  C14 35R d   1     -10.450  15.223  20.159  0.00  0.00     0.159 A 
ATOM      2  N15 35R d   1     -10.694  14.194  20.983  0.00  0.00    -0.337 N 
ATOM      3  C16 35R d   1     -12.026  14.184  21.274  0.00  0.00     0.062 A 
ATOM      4  C17 35R d   1     -12.831  13.329  22.093  0.00  0.00    -0.054 A 
ATOM      5  C18 35R d   1     -14.204  13.567  22.206  0.00  0.00    -0.073 A 
ATOM      6  C19 35R d   1     -14.791  14.636  21.520  0.00  0.00    -0.030 A 
ATOM      7  C28 35R d   1     -14.008  15.481  20.722  0.00  0.00    -0.045 A 
ATOM      8  C29 35R d   1     -12.601  15.233  20.606  0.00  0.00     0.086 A 
ATOM      9  N30 35R d   1     -11.602  15.864  19.919  0.00  0.00    -0.227 NA
ATOM     10  H10 35R d   1      -9.995  13.525  21.336  0.00  0.00     0.167 HD
ATOM     11  H11 35R d   1     -12.377  12.500  22.624  0.00  0.00     0.087 H 
ATOM     12  H12 35R d   1     -14.815  12.922  22.827  0.00  0.00     0.084 H 
ATOM     13  H24 35R d   1     -14.462  16.314  20.198  0.00  0.00     0.088 H 
ENDROOT
BRANCH   1  14
ATOM     14  C13 35R d   1      -9.079  15.597  19.590  0.00  0.00     0.124 A 
ATOM     15  C8  35R d   1      -7.950  14.786  19.678  0.00  0.00     0.087 A 
ATOM     16  C9  35R d   1      -6.920  15.453  19.053  0.00  0.00     0.050 A 
ATOM     17  N10 35R d   1      -7.408  16.601  18.615  0.00  0.00    -0.184 NA
ATOM     18  H8  35R d   1      -5.896  15.101  18.941  0.00  0.00     0.121 H 
ATOM     19  N12 35R d   1      -8.743  16.721  18.933  0.00  0.00    -0.272 N 
ATOM     20  H9  35R d   1      -9.361  17.515  18.711  0.00  0.00     0.189 HD
BRANCH  15  21
ATOM     21  N7  35R d   1      -7.940  13.472  20.333  0.00  0.00    -0.305 N 
ATOM     22  C2  35R d   1      -6.765  12.602  20.393  0.00  0.00     0.321 C 
ATOM     23  O1  35R d   1      -5.728  12.927  19.908  0.00  0.00    -0.247 OA
ATOM     24  N3  35R d   1      -6.909  11.314  21.079  0.00  0.00    -0.338 N 
ATOM     25  H1  35R d   1      -6.136  10.684  21.156  0.00  0.00     0.164 HD
ATOM     26  H7  35R d   1      -8.785  13.153  20.763  0.00  0.00     0.171 HD
BRANCH  24  27
ATOM     27  C4  35R d   1      -8.221  10.972  21.652  0.00  0.00     0.014 A 
ATOM     28  C5  35R d   1      -8.551  11.560  23.027  0.00  0.00    -0.044 A 
ATOM     29  C6  35R d   1      -8.224  10.071  22.894  0.00  0.00    -0.044 A 
ATOM     30  H3  35R d   1      -9.579  11.879  23.256  0.00  0.00     0.036 H 
ATOM     31  H4  35R d   1      -7.838  12.237  23.520  0.00  0.00     0.036 H 
ATOM     32  H5  35R d   1      -7.276   9.678  23.291  0.00  0.00     0.036 H 
ATOM     33  H6  35R d   1      -9.017   9.320  23.027  0.00  0.00     0.036 H 
ATOM     34  H2  35R d   1      -8.987  10.874  20.869  0.00  0.00     0.072 H 
ENDBRANCH  24  27
ENDBRANCH  15  21
ENDBRANCH   1  14
BRANCH   6  35
ATOM     35  C20 35R d   1     -16.321  14.879  21.656  0.00  0.00     0.107 C 
ATOM     36  H13 35R d   1     -16.584  15.829  21.168  0.00  0.00     0.083 H 
ATOM     37  H14 35R d   1     -16.590  14.927  22.722  0.00  0.00     0.083 H 
BRANCH  35  38
ATOM     38  N21 35R d   1     -16.965  13.921  21.098  0.00  0.00    -0.063 N 
ATOM     39  C23 35R d   1     -18.310  14.028  21.426  0.00  0.00     0.103 C 
ATOM     40  C24 35R d   1     -19.189  13.020  20.672  0.00  0.00     0.042 C 
ATOM     41  H16 35R d   1     -18.652  15.044  21.181  0.00  0.00     0.079 H 
ATOM     42  H17 35R d   1     -18.423  13.854  22.506  0.00  0.00     0.079 H 
ATOM     43  O25 35R d   1     -18.985  13.082  19.303  0.00  0.00    -0.388 OA
ATOM     44  H18 35R d   1     -20.246  13.240  20.885  0.00  0.00     0.076 H 
ATOM     45  H19 35R d   1     -18.948  12.005  21.022  0.00  0.00     0.076 H 
ATOM     46  C26 35R d   1     -17.650  12.912  18.973  0.00  0.00     0.042 C 
ATOM     47  C27 35R d   1     -16.747  13.907  19.721  0.00  0.00     0.103 C 
ATOM     48  H20 35R d   1     -17.528  13.065  17.890  0.00  0.00     0.076 H 
ATOM     49  H21 35R d   1     -17.346  11.888  19.235  0.00  0.00     0.076 H 
ATOM     50  H22 35R d   1     -15.698  13.633  19.536  0.00  0.00     0.079 H 
ATOM     51  H23 35R d   1     -16.938  14.916  19.327  0.00  0.00     0.079 H 
ATOM     52  H15 35R d   1     -16.622  13.049  21.470  0.00  0.00     0.280 HD
ENDBRANCH  35  38
ENDBRANCH   6  35
TORSDOF 5
