REMARK  5 active torsions:
REMARK  status: ('A' for Active; 'I' for Inactive)
REMARK    1  A    between atoms: C3_3  and  C48_30 
REMARK    2  A    between atoms: C7_6  and  C10_8 
REMARK    3  A    between atoms: C13_11  and  C24_18 
REMARK    4  A    between atoms: N27_20  and  C31_23 
REMARK    5  A    between atoms: C48_30  and  N51_31 
ROOT
ATOM      1  C10 DQX d   1      -6.782  14.024  19.938  0.00  0.00     0.005 A 
ATOM      2  C11 DQX d   1      -7.889  14.900  19.712  0.00  0.00     0.097 A 
ATOM      3  N12 DQX d   1      -9.145  14.599  20.199  0.00  0.00    -0.243 NA
ATOM      4  C13 DQX d   1     -10.166  15.418  19.987  0.00  0.00     0.088 A 
ATOM      5  C14 DQX d   1      -9.969  16.600  19.234  0.00  0.00     0.032 A 
ATOM      6  N16 DQX d   1      -8.751  16.895  18.759  0.00  0.00    -0.256 NA
ATOM      7  C17 DQX d   1      -7.706  16.063  18.982  0.00  0.00     0.086 A 
ATOM      8  C18 DQX d   1      -6.386  16.397  18.452  0.00  0.00    -0.053 A 
ATOM      9  C20 DQX d   1      -5.304  15.549  18.679  0.00  0.00    -0.080 A 
ATOM     10  C22 DQX d   1      -5.492  14.361  19.429  0.00  0.00    -0.070 A 
ATOM     11  H3  DQX d   1     -10.802  17.266  19.042  0.00  0.00     0.118 H 
ATOM     12  H4  DQX d   1      -6.248  17.308  17.880  0.00  0.00     0.087 H 
ATOM     13  H5  DQX d   1      -4.325  15.796  18.285  0.00  0.00     0.083 H 
ATOM     14  H6  DQX d   1      -4.650  13.704  19.617  0.00  0.00     0.084 H 
ENDROOT
BRANCH   1  15
ATOM     15  C7  DQX d   1      -6.950  12.720  20.778  0.00  0.00    -0.018 A 
ATOM     16  C5  DQX d   1      -6.482  11.478  20.335  0.00  0.00    -0.034 A 
ATOM     17  C4  DQX d   1      -6.638  10.329  21.143  0.00  0.00     0.128 A 
ATOM     18  H1  DQX d   1      -5.998  11.397  19.369  0.00  0.00     0.089 H 
ATOM     19  C3  DQX d   1      -7.268  10.411  22.394  0.00  0.00     0.045 A 
ATOM     20  F47 DQX d   1      -6.192   9.147  20.698  0.00  0.00    -0.205 F 
ATOM     21  C2  DQX d   1      -7.725  11.676  22.845  0.00  0.00     0.128 A 
ATOM     22  F1  DQX d   1      -8.333  11.796  24.067  0.00  0.00    -0.205 F 
ATOM     23  C8  DQX d   1      -7.561  12.805  22.044  0.00  0.00    -0.034 A 
ATOM     24  H2  DQX d   1      -7.910  13.767  22.402  0.00  0.00     0.089 H 
BRANCH  19  25
ATOM     25  C48 DQX d   1      -7.442   9.148  23.304  0.00  0.00     0.113 C 
ATOM     26  H20 DQX d   1      -7.410   9.480  24.352  0.00  0.00     0.083 H 
ATOM     27  H21 DQX d   1      -6.597   8.472  23.107  0.00  0.00     0.083 H 
BRANCH  25  28
ATOM     28  N51 DQX d   1      -8.551   8.467  23.132  0.00  0.00    -0.063 N 
ATOM     29  C52 DQX d   1      -8.793   8.049  21.827  0.00  0.00     0.103 C 
ATOM     30  C55 DQX d   1     -10.066   7.204  21.695  0.00  0.00     0.042 C 
ATOM     31  H23 DQX d   1      -7.937   7.448  21.487  0.00  0.00     0.079 H 
ATOM     32  H24 DQX d   1      -8.895   8.938  21.187  0.00  0.00     0.079 H 
ATOM     33  O58 DQX d   1     -11.144   7.816  22.292  0.00  0.00    -0.388 OA
ATOM     34  H25 DQX d   1      -9.898   6.229  22.175  0.00  0.00     0.076 H 
ATOM     35  H26 DQX d   1     -10.286   7.055  20.628  0.00  0.00     0.076 H 
ATOM     36  C59 DQX d   1     -10.890   8.144  23.625  0.00  0.00     0.042 C 
ATOM     37  C62 DQX d   1      -9.643   9.017  23.772  0.00  0.00     0.103 C 
ATOM     38  H27 DQX d   1     -10.743   7.216  24.198  0.00  0.00     0.076 H 
ATOM     39  H28 DQX d   1     -11.756   8.691  24.027  0.00  0.00     0.076 H 
ATOM     40  H29 DQX d   1      -9.848  10.007  23.338  0.00  0.00     0.079 H 
ATOM     41  H30 DQX d   1      -9.410   9.127  24.841  0.00  0.00     0.079 H 
ATOM     42  H22 DQX d   1      -8.385   7.607  23.630  0.00  0.00     0.280 HD
ENDBRANCH  25  28
ENDBRANCH  19  25
ENDBRANCH   1  15
BRANCH   4  43
ATOM     43  C24 DQX d   1     -11.599  15.069  20.520  0.00  0.00     0.030 A 
ATOM     44  C25 DQX d   1     -12.790  15.615  20.022  0.00  0.00     0.013 A 
ATOM     45  N27 DQX d   1     -13.800  15.055  20.702  0.00  0.00    -0.276 N 
ATOM     46  H7  DQX d   1     -12.878  16.357  19.230  0.00  0.00     0.115 H 
ATOM     47  N28 DQX d   1     -13.309  14.147  21.646  0.00  0.00    -0.184 NA
ATOM     48  C29 DQX d   1     -11.946  14.144  21.542  0.00  0.00     0.035 A 
ATOM     49  H8  DQX d   1     -11.255  13.544  22.132  0.00  0.00     0.118 H 
BRANCH  45  50
ATOM     50  C31 DQX d   1     -15.222  15.379  20.452  0.00  0.00     0.037 C 
ATOM     51  C33 DQX d   1     -16.109  14.308  19.889  0.00  0.00    -0.022 C 
ATOM     52  C36 DQX d   1     -17.419  13.988  20.625  0.00  0.00     0.084 C 
ATOM     53  H10 DQX d   1     -15.519  13.380  19.855  0.00  0.00     0.038 H 
ATOM     54  H11 DQX d   1     -16.376  14.610  18.866  0.00  0.00     0.038 H 
ATOM     55  N39 DQX d   1     -17.842  15.076  21.523  0.00  0.00    -0.075 N 
ATOM     56  H12 DQX d   1     -17.275  13.075  21.221  0.00  0.00     0.075 H 
ATOM     57  H13 DQX d   1     -18.210  13.818  19.880  0.00  0.00     0.075 H 
ATOM     58  C41 DQX d   1     -16.759  15.367  22.495  0.00  0.00     0.084 C 
ATOM     59  H14 DQX d   1     -18.673  14.797  22.020  0.00  0.00     0.277 HD
ATOM     60  H15 DQX d   1     -18.037  15.903  20.980  0.00  0.00     0.277 HD
ATOM     61  C44 DQX d   1     -15.542  15.966  21.790  0.00  0.00    -0.022 C 
ATOM     62  H16 DQX d   1     -16.462  14.433  22.995  0.00  0.00     0.075 H 
ATOM     63  H17 DQX d   1     -17.130  16.082  23.244  0.00  0.00     0.075 H 
ATOM     64  H18 DQX d   1     -15.725  17.042  21.654  0.00  0.00     0.038 H 
ATOM     65  H19 DQX d   1     -14.668  15.822  22.442  0.00  0.00     0.038 H 
ATOM     66  H9  DQX d   1     -15.265  16.186  19.706  0.00  0.00     0.076 H 
ENDBRANCH  45  50
ENDBRANCH   4  43
TORSDOF 5
