REMARK  9 active torsions:
REMARK  status: ('A' for Active; 'I' for Inactive)
REMARK    1  A    between atoms: C1_1  and  C7_7 
REMARK    2  A    between atoms: C10_10  and  C13_13 
REMARK    3  A    between atoms: N11_11  and  C12_12 
REMARK    4  A    between atoms: C13_13  and  N14_14 
REMARK    5  A    between atoms: N14_14  and  C15_15 
REMARK    6  A    between atoms: C19_19  and  C21_21 
REMARK       I    between atoms: C21_21  and  N23_23 
REMARK    7  A    between atoms: N23_23  and  C24_24 
REMARK    8  A    between atoms: C24_24  and  C25_25 
REMARK    9  A    between atoms: C26_26  and  C31_31 
ROOT
ATOM      1  C15 QRW d   1     -58.948  33.189 -37.189  0.00  0.00     0.029 A 
ATOM      2  C16 QRW d   1     -59.415  33.535 -38.473  0.00  0.00    -0.058 A 
ATOM      3  C17 QRW d   1     -60.173  34.689 -38.666  0.00  0.00    -0.080 A 
ATOM      4  C18 QRW d   1     -60.479  35.505 -37.586  0.00  0.00    -0.068 A 
ATOM      5  C19 QRW d   1     -60.020  35.174 -36.295  0.00  0.00     0.034 A 
ATOM      6  C20 QRW d   1     -59.262  34.008 -36.100  0.00  0.00    -0.042 A 
ATOM      7  H11 QRW d   1     -59.183  32.898 -39.319  0.00  0.00     0.086 H 
ATOM      8  H12 QRW d   1     -60.523  34.949 -39.659  0.00  0.00     0.083 H 
ATOM      9  H13 QRW d   1     -61.073  36.400 -37.736  0.00  0.00     0.085 H 
ATOM     10  H14 QRW d   1     -58.920  33.743 -35.106  0.00  0.00     0.088 H 
ENDROOT
BRANCH   1  11
ATOM     11  N14 QRW d   1     -58.169  32.047 -36.946  0.00  0.00    -0.383 N 
ATOM     12  H10 QRW d   1     -57.809  31.902 -35.992  0.00  0.00     0.160 HD
BRANCH  11  13
ATOM     13  C13 QRW d   1     -57.836  31.051 -37.961  0.00  0.00     0.049 C 
ATOM     14  H8  QRW d   1     -57.377  30.179 -37.472  0.00  0.00     0.075 H 
ATOM     15  H9  QRW d   1     -58.757  30.741 -38.475  0.00  0.00     0.075 H 
BRANCH  13  16
ATOM     16  C10 QRW d   1     -56.868  31.612 -38.978  0.00  0.00     0.147 A 
ATOM     17  N9  QRW d   1     -56.128  32.681 -38.841  0.00  0.00    -0.133 NA
ATOM     18  N8  QRW d   1     -55.428  32.864 -39.900  0.00  0.00    -0.129 NA
ATOM     19  C7  QRW d   1     -55.688  31.936 -40.790  0.00  0.00     0.163 A 
ATOM     20  N11 QRW d   1     -56.619  31.095 -40.209  0.00  0.00    -0.319 N 
BRANCH  19  21
ATOM     21  C1  QRW d   1     -55.028  31.813 -42.111  0.00  0.00     0.015 A 
ATOM     22  C2  QRW d   1     -55.626  31.165 -43.214  0.00  0.00    -0.052 A 
ATOM     23  C3  QRW d   1     -54.926  31.043 -44.407  0.00  0.00     0.003 A 
ATOM     24  H1  QRW d   1     -56.629  30.764 -43.130  0.00  0.00     0.087 H 
ATOM     25  N4  QRW d   1     -53.701  31.533 -44.514  0.00  0.00    -0.273 NA
ATOM     26  H2  QRW d   1     -55.384  30.545 -45.254  0.00  0.00     0.114 H 
ATOM     27  C5  QRW d   1     -53.097  32.139 -43.500  0.00  0.00     0.003 A 
ATOM     28  C6  QRW d   1     -53.720  32.296 -42.270  0.00  0.00    -0.052 A 
ATOM     29  H3  QRW d   1     -52.092  32.521 -43.636  0.00  0.00     0.114 H 
ATOM     30  H4  QRW d   1     -53.206  32.782 -41.448  0.00  0.00     0.087 H 
ENDBRANCH  19  21
BRANCH  20  31
ATOM     31  C12 QRW d   1     -57.242  29.882 -40.762  0.00  0.00    -0.011 C 
ATOM     32  H5  QRW d   1     -56.854  29.700 -41.775  0.00  0.00     0.057 H 
ATOM     33  H6  QRW d   1     -58.333  30.017 -40.806  0.00  0.00     0.057 H 
ATOM     34  H7  QRW d   1     -57.004  29.022 -40.119  0.00  0.00     0.057 H 
ENDBRANCH  20  31
ENDBRANCH  13  16
ENDBRANCH  11  13
ENDBRANCH   1  11
BRANCH   5  35
ATOM     35  C21 QRW d   1     -60.363  36.029 -35.139  0.00  0.00     0.252 C 
ATOM     36  O22 QRW d   1     -61.345  36.758 -35.222  0.00  0.00    -0.268 OA
ATOM     37  N23 QRW d   1     -59.595  35.979 -34.021  0.00  0.00    -0.353 N 
ATOM     38  H15 QRW d   1     -58.801  35.371 -33.999  0.00  0.00     0.163 HD
BRANCH  37  39
ATOM     39  C24 QRW d   1     -59.903  36.795 -32.848  0.00  0.00     0.020 C 
ATOM     40  H16 QRW d   1     -60.987  36.787 -32.662  0.00  0.00     0.071 H 
ATOM     41  H17 QRW d   1     -59.567  37.829 -33.014  0.00  0.00     0.071 H 
BRANCH  39  42
ATOM     42  C25 QRW d   1     -59.181  36.209 -31.673  0.00  0.00    -0.025 A 
ATOM     43  C26 QRW d   1     -58.017  36.812 -31.256  0.00  0.00     0.055 A 
ATOM     44  C27 QRW d   1     -57.326  36.295 -30.176  0.00  0.00    -0.068 A 
ATOM     45  C28 QRW d   1     -57.802  35.167 -29.530  0.00  0.00    -0.082 A 
ATOM     46  H18 QRW d   1     -56.414  36.772 -29.836  0.00  0.00     0.084 H 
ATOM     47  C29 QRW d   1     -58.970  34.556 -29.957  0.00  0.00    -0.082 A 
ATOM     48  H19 QRW d   1     -57.258  34.760 -28.686  0.00  0.00     0.083 H 
ATOM     49  C30 QRW d   1     -59.663  35.079 -31.033  0.00  0.00    -0.074 A 
ATOM     50  H20 QRW d   1     -59.339  33.672 -29.450  0.00  0.00     0.083 H 
ATOM     51  H21 QRW d   1     -60.578  34.608 -31.374  0.00  0.00     0.084 H 
BRANCH  43  52
ATOM     52  C31 QRW d   1     -57.527  38.041 -31.979  0.00  0.00     0.418 C 
ATOM     53  F32 QRW d   1     -56.153  38.185 -31.784  0.00  0.00    -0.166 F 
ATOM     54  F33 QRW d   1     -57.797  37.946 -33.350  0.00  0.00    -0.166 F 
ATOM     55  F34 QRW d   1     -58.203  39.151 -31.464  0.00  0.00    -0.166 F 
ENDBRANCH  43  52
ENDBRANCH  39  42
ENDBRANCH  37  39
ENDBRANCH   5  35
TORSDOF 9
