REMARK  11 active torsions:
REMARK  status: ('A' for Active; 'I' for Inactive)
REMARK    1  A    between atoms: C1_1  and  O1_2 
REMARK    2  A    between atoms: C1_1  and  C2_3 
REMARK    3  A    between atoms: O1_2  and  PA_13 
REMARK    4  A    between atoms: C3_5  and  C4_6 
REMARK    5  A    between atoms: C3_5  and  C5_7 
REMARK    6  A    between atoms: C5_7  and  C6_8 
REMARK    7  A    between atoms: C6_8  and  C7_9 
REMARK    8  A    between atoms: C8_10  and  C9_11 
REMARK    9  A    between atoms: C8_10  and  C10_12 
REMARK   10  A    between atoms: PA_13  and  O3A_16 
REMARK   11  A    between atoms: O3A_16  and  PB_17 
ROOT
ATOM      1  C2  0FV d   1      -7.424  12.758 -19.526  0.00  0.00     0.120 C 
ATOM      2  F2  0FV d   1      -6.274  12.301 -19.075  0.00  0.00    -0.208 F 
ATOM      3  C3  0FV d   1      -7.743  14.050 -19.436  0.00  0.00    -0.047 C 
ENDROOT
BRANCH   3   4
ATOM      4  C4  0FV d   1      -9.061  14.531 -19.972  0.00  0.00    -0.052 C 
ATOM      5  H3  0FV d   1      -9.149  15.616 -19.811  0.00  0.00     0.033 H 
ATOM      6  H4  0FV d   1      -9.880  14.015 -19.449  0.00  0.00     0.033 H 
ATOM      7  H5  0FV d   1      -9.120  14.314 -21.049  0.00  0.00     0.033 H 
ENDBRANCH   3   4
BRANCH   3   8
ATOM      8  C5  0FV d   1      -6.794  15.047 -18.809  0.00  0.00    -0.039 C 
ATOM      9  H6  0FV d   1      -7.224  16.055 -18.900  0.00  0.00     0.040 H 
ATOM     10  H7  0FV d   1      -5.832  15.009 -19.342  0.00  0.00     0.040 H 
BRANCH   8  11
ATOM     11  C6  0FV d   1      -6.556  14.741 -17.335  0.00  0.00    -0.046 C 
ATOM     12  H8  0FV d   1      -5.579  15.149 -17.038  0.00  0.00     0.039 H 
ATOM     13  H9  0FV d   1      -6.557  13.650 -17.191  0.00  0.00     0.039 H 
BRANCH  11  14
ATOM     14  C7  0FV d   1      -7.629  15.352 -16.465  0.00  0.00    -0.101 C 
ATOM     15  C8  0FV d   1      -8.460  14.577 -15.754  0.00  0.00    -0.091 C 
ATOM     16  H10 0FV d   1      -7.729  16.435 -16.415  0.00  0.00     0.077 H 
BRANCH  15  17
ATOM     17  C9  0FV d   1      -9.513  15.207 -14.892  0.00  0.00    -0.055 C 
ATOM     18  H11 0FV d   1     -10.094  14.420 -14.389  0.00  0.00     0.033 H 
ATOM     19  H12 0FV d   1     -10.184  15.815 -15.517  0.00  0.00     0.033 H 
ATOM     20  H13 0FV d   1      -9.034  15.848 -14.137  0.00  0.00     0.033 H 
ENDBRANCH  15  17
BRANCH  15  21
ATOM     21  C10 0FV d   1      -8.342  13.082 -15.820  0.00  0.00    -0.055 C 
ATOM     22  H14 0FV d   1      -7.520  12.809 -16.498  0.00  0.00     0.033 H 
ATOM     23  H15 0FV d   1      -9.284  12.656 -16.196  0.00  0.00     0.033 H 
ATOM     24  H16 0FV d   1      -8.136  12.686 -14.815  0.00  0.00     0.033 H 
ENDBRANCH  15  21
ENDBRANCH  11  14
ENDBRANCH   8  11
ENDBRANCH   3   8
BRANCH   1  25
ATOM     25  C1  0FV d   1      -8.396  11.800 -20.167  0.00  0.00     0.080 C 
ATOM     26  H1  0FV d   1      -8.467  10.886 -19.560  0.00  0.00     0.086 H 
ATOM     27  H2  0FV d   1      -9.387  12.272 -20.236  0.00  0.00     0.086 H 
BRANCH  25  28
ATOM     28  O1  0FV d   1      -7.931  11.471 -21.474  0.00  0.00    -0.283 OA
BRANCH  28  29
ATOM     29  PA  0FV d   1      -9.003  11.154 -22.629  0.00  0.00     0.418 P 
ATOM     30  O1A 0FV d   1      -8.458  10.087 -23.549  0.00  0.00    -0.624 OA
ATOM     31  O2A 0FV d   1      -9.298  12.423 -23.392  0.00  0.00    -0.624 OA
BRANCH  29  32
ATOM     32  O3A 0FV d   1     -10.346  10.624 -21.915  0.00  0.00    -0.173 OA
BRANCH  32  33
ATOM     33  PB  0FV d   1     -11.474   9.816 -22.728  0.00  0.00     0.431 P 
ATOM     34  O1B 0FV d   1     -10.854   8.564 -23.302  0.00  0.00    -0.616 OA
ATOM     35  O2B 0FV d   1     -12.584   9.452 -21.771  0.00  0.00    -0.616 OA
ATOM     36  O3B 0FV d   1     -12.004  10.694 -23.838  0.00  0.00    -0.616 OA
ENDBRANCH  32  33
ENDBRANCH  29  32
ENDBRANCH  28  29
ENDBRANCH  25  28
ENDBRANCH   1  25
TORSDOF 11
