REMARK  2 active torsions:
REMARK  status: ('A' for Active; 'I' for Inactive)
REMARK    1  A    between atoms: N_1  and  O3_17 
REMARK    2  A    between atoms: C7_12  and  C10_3 
ROOT
ATOM      1  N   Y55 d   1     -30.003  77.463  -2.966  0.00  0.00    -0.152 N 
ATOM      2  C1  Y55 d   1     -29.480  76.359  -3.636  0.00  0.00     0.285 A 
ATOM      3  C2  Y55 d   1     -30.312  75.682  -4.483  0.00  0.00     0.042 A 
ATOM      4  C3  Y55 d   1     -31.600  76.052  -4.649  0.00  0.00    -0.034 A 
ATOM      5  C4  Y55 d   1     -32.229  77.223  -3.937  0.00  0.00     0.037 A 
ATOM      6  C5  Y55 d   1     -31.274  77.992  -3.058  0.00  0.00     0.255 A 
ATOM      7  C6  Y55 d   1     -29.851  74.617  -5.173  0.00  0.00    -0.054 A 
ATOM      8  C7  Y55 d   1     -30.608  73.899  -6.027  0.00  0.00    -0.001 A 
ATOM      9  C8  Y55 d   1     -31.888  74.293  -6.169  0.00  0.00    -0.070 A 
ATOM     10  C9  Y55 d   1     -32.370  75.346  -5.497  0.00  0.00    -0.074 A 
ATOM     11  O1  Y55 d   1     -28.322  76.035  -3.452  0.00  0.00    -0.265 OA
ATOM     12  O2  Y55 d   1     -31.561  79.006  -2.461  0.00  0.00    -0.270 OA
ATOM     13  H4  Y55 d   1     -33.050  76.846  -3.309  0.00  0.00     0.054 H 
ATOM     14  H5  Y55 d   1     -32.633  77.912  -4.694  0.00  0.00     0.054 H 
ATOM     15  H6  Y55 d   1     -28.817  74.323  -5.033  0.00  0.00     0.086 H 
ATOM     16  H7  Y55 d   1     -32.541  73.747  -6.840  0.00  0.00     0.085 H 
ATOM     17  H8  Y55 d   1     -33.405  75.636  -5.639  0.00  0.00     0.084 H 
ENDROOT
BRANCH   8  18
ATOM     18  C10 Y55 d   1     -30.098  72.837  -6.693  0.00  0.00     0.085 A 
ATOM     19  C11 Y55 d   1     -30.622  72.203  -7.760  0.00  0.00    -0.048 A 
ATOM     20  C12 Y55 d   1     -29.765  71.219  -8.061  0.00  0.00    -0.059 A 
ATOM     21  H1  Y55 d   1     -31.552  72.442  -8.273  0.00  0.00     0.087 H 
ATOM     22  C13 Y55 d   1     -28.802  71.350  -7.143  0.00  0.00     0.019 A 
ATOM     23  H2  Y55 d   1     -29.836  70.486  -8.863  0.00  0.00     0.086 H 
ATOM     24  O4  Y55 d   1     -29.033  72.285  -6.381  0.00  0.00    -0.322 OA
ATOM     25  H3  Y55 d   1     -27.924  70.709  -7.079  0.00  0.00     0.123 H 
ENDBRANCH   8  18
BRANCH   1  26
ATOM     26  O3  Y55 d   1     -29.238  78.155  -2.137  0.00  0.00    -0.277 OA
ATOM     27  H9  Y55 d   1     -28.374  77.761  -2.101  0.00  0.00     0.245 HD
ENDBRANCH   1  26
TORSDOF 2
