REMARK  7 active torsions:
REMARK  status: ('A' for Active; 'I' for Inactive)
REMARK    1  A    between atoms: N3_1  and  C4_2 
REMARK       I    between atoms: C2_16  and  N3_1 
REMARK    2  A    between atoms: C4_2  and  C5_3 
REMARK    3  A    between atoms: N16_21  and  C15_9 
REMARK    4  A    between atoms: C17_10  and  N16_21 
REMARK    5  A    between atoms: C18_22  and  C17_10 
REMARK    6  A    between atoms: C20_11  and  C24_12 
REMARK    7  A    between atoms: C11_18  and  C2_16 
ROOT
ATOM      1  C13 8PV d   1      12.802  42.175   1.327  0.00  0.00    -0.080 A 
ATOM      2  C15 8PV d   1      11.067  40.813   0.321  0.00  0.00     0.029 A 
ATOM      3  C11 8PV d   1      10.499  42.984   1.297  0.00  0.00     0.034 A 
ATOM      4  C12 8PV d   1      11.861  43.157   1.638  0.00  0.00    -0.068 A 
ATOM      5  C14 8PV d   1      12.416  41.010   0.672  0.00  0.00    -0.058 A 
ATOM      6  C30 8PV d   1      10.120  41.797   0.636  0.00  0.00    -0.042 A 
ATOM      7  H8  8PV d   1      13.841  42.321   1.598  0.00  0.00     0.083 H 
ATOM      8  H14 8PV d   1      12.177  44.061   2.146  0.00  0.00     0.085 H 
ATOM      9  H15 8PV d   1      13.154  40.254   0.432  0.00  0.00     0.086 H 
ATOM     10  H20 8PV d   1       9.081  41.644   0.368  0.00  0.00     0.088 H 
ENDROOT
BRANCH   2  11
ATOM     11  N16 8PV d   1      10.614  39.656  -0.343  0.00  0.00    -0.383 N 
ATOM     12  H16 8PV d   1       9.602  39.562  -0.508  0.00  0.00     0.160 HD
BRANCH  11  13
ATOM     13  C17 8PV d   1      11.492  38.570  -0.818  0.00  0.00     0.051 C 
ATOM     14  H9  8PV d   1      12.448  38.995  -1.157  0.00  0.00     0.076 H 
ATOM     15  H10 8PV d   1      11.006  38.047  -1.655  0.00  0.00     0.076 H 
BRANCH  13  16
ATOM     16  C18 8PV d   1      11.746  37.595   0.302  0.00  0.00     0.166 A 
ATOM     17  N19 8PV d   1      12.718  36.727   0.367  0.00  0.00    -0.210 NA
ATOM     18  C20 8PV d   1      12.628  36.043   1.519  0.00  0.00     0.156 A 
ATOM     19  N21 8PV d   1      11.589  36.476   2.186  0.00  0.00    -0.259 N 
ATOM     20  N22 8PV d   1      11.008  37.482   1.418  0.00  0.00    -0.156 NA
ATOM     21  H17 8PV d   1      11.263  36.138   3.103  0.00  0.00     0.191 HD
BRANCH  18  22
ATOM     22  C24 8PV d   1      13.514  34.949   1.979  0.00  0.00     0.014 A 
ATOM     23  C25 8PV d   1      14.593  34.505   1.189  0.00  0.00    -0.052 A 
ATOM     24  C26 8PV d   1      15.372  33.463   1.663  0.00  0.00     0.003 A 
ATOM     25  H18 8PV d   1      14.808  34.968   0.233  0.00  0.00     0.087 H 
ATOM     26  N27 8PV d   1      15.099  32.892   2.837  0.00  0.00    -0.273 NA
ATOM     27  H11 8PV d   1      16.211  33.108   1.075  0.00  0.00     0.114 H 
ATOM     28  C28 8PV d   1      14.086  33.271   3.608  0.00  0.00     0.003 A 
ATOM     29  C29 8PV d   1      13.258  34.305   3.210  0.00  0.00    -0.052 A 
ATOM     30  H12 8PV d   1      13.908  32.769   4.552  0.00  0.00     0.114 H 
ATOM     31  H19 8PV d   1      12.427  34.616   3.832  0.00  0.00     0.087 H 
ENDBRANCH  18  22
ENDBRANCH  13  16
ENDBRANCH  11  13
ENDBRANCH   2  11
BRANCH   3  32
ATOM     32  C2  8PV d   1       9.472  44.033   1.614  0.00  0.00     0.252 C 
ATOM     33  N3  8PV d   1       8.271  44.015   0.963  0.00  0.00    -0.353 N 
ATOM     34  H1  8PV d   1       8.116  43.293   0.289  0.00  0.00     0.163 HD
ATOM     35  O1  8PV d   1       9.714  44.901   2.441  0.00  0.00    -0.268 OA
BRANCH  33  36
ATOM     36  C4  8PV d   1       7.185  44.993   1.189  0.00  0.00     0.019 C 
ATOM     37  H2  8PV d   1       7.625  45.985   1.370  0.00  0.00     0.071 H 
ATOM     38  H3  8PV d   1       6.600  44.685   2.068  0.00  0.00     0.071 H 
BRANCH  36  39
ATOM     39  C5  8PV d   1       6.266  45.069  -0.020  0.00  0.00    -0.041 A 
ATOM     40  C6  8PV d   1       6.151  46.267  -0.738  0.00  0.00    -0.075 A 
ATOM     41  C7  8PV d   1       5.307  46.344  -1.849  0.00  0.00    -0.082 A 
ATOM     42  H4  8PV d   1       6.719  47.137  -0.430  0.00  0.00     0.084 H 
ATOM     43  C8  8PV d   1       4.573  45.227  -2.249  0.00  0.00    -0.083 A 
ATOM     44  H5  8PV d   1       5.222  47.273  -2.401  0.00  0.00     0.083 H 
ATOM     45  C9  8PV d   1       4.681  44.030  -1.539  0.00  0.00    -0.082 A 
ATOM     46  H6  8PV d   1       3.919  45.289  -3.111  0.00  0.00     0.083 H 
ATOM     47  C10 8PV d   1       5.523  43.950  -0.425  0.00  0.00    -0.075 A 
ATOM     48  H13 8PV d   1       4.112  43.162  -1.851  0.00  0.00     0.083 H 
ATOM     49  H7  8PV d   1       5.602  43.020   0.127  0.00  0.00     0.084 H 
ENDBRANCH  36  39
ENDBRANCH  33  36
ENDBRANCH   3  32
TORSDOF 7
