REMARK  20 active torsions:
REMARK  status: ('A' for Active; 'I' for Inactive)
REMARK    1  A    between atoms: N_1  and  CA_2 
REMARK    2  A    between atoms: CA_2  and  C_3 
REMARK    3  A    between atoms: CA_2  and  CB_5 
REMARK       I    between atoms: C_3  and  N_9 
REMARK    4  A    between atoms: CB_5  and  CG_6 
REMARK       I    between atoms: CG_6  and  ND2_8 
REMARK    5  A    between atoms: N_9  and  CA_10 
REMARK    6  A    between atoms: CA_10  and  C_11 
REMARK    7  A    between atoms: CA_10  and  CB_13 
REMARK       I    between atoms: C_11  and  N_14 
REMARK    8  A    between atoms: N_14  and  CA_15 
REMARK    9  A    between atoms: CA_15  and  C_16 
REMARK   10  A    between atoms: CA_15  and  CB_18 
REMARK       I    between atoms: C_16  and  N_20 
REMARK   11  A    between atoms: CB_18  and  OG_19 
REMARK   12  A    between atoms: N_20  and  CA_21 
REMARK   13  A    between atoms: CA_21  and  C_22 
REMARK   14  A    between atoms: CA_21  and  CB_24 
REMARK       I    between atoms: C_22  and  N_25 
REMARK   15  A    between atoms: CA_26  and  C_27 
REMARK       I    between atoms: C_27  and  N_32 
REMARK   16  A    between atoms: N_32  and  CA_33 
REMARK   17  A    between atoms: CA_33  and  C_34 
REMARK   18  A    between atoms: CA_33  and  CB_36 
REMARK   19  A    between atoms: CB_36  and  CG1_37 
REMARK   20  A    between atoms: CB_36  and  CG2_38 
ROOT
ATOM      1  N   ALA d   1      80.925   2.835 161.857  0.00  0.00    -0.346 N 
ATOM      2  H19 ALA d   1      81.617   3.365 162.347  0.00  0.00     0.163 HD
ATOM      3  C   SER d   1      81.303   2.019 160.882  0.00  0.00     0.243 C 
ATOM      4  O   SER d   1      80.507   1.444 160.148  0.00  0.00    -0.271 OA
ENDROOT
BRANCH   1   5
ATOM      5  CA  ALA d   1      79.516   2.977 162.231  0.00  0.00     0.086 C 
ATOM      6  H20 ALA d   1      78.922   3.127 161.317  0.00  0.00     0.086 H 
BRANCH   5   7
ATOM      7  C   ALA d   1      79.312   4.185 163.148  0.00  0.00     0.243 C 
ATOM      8  O   ALA d   1      80.121   4.422 164.042  0.00  0.00    -0.271 OA
ATOM      9  N   PRO d   1      78.232   4.950 162.941  0.00  0.00    -0.337 N 
ATOM     10  CA  PRO d   1      77.945   6.094 163.788  0.00  0.00     0.091 C 
ATOM     11  CD  PRO d   1      77.173   4.740 161.944  0.00  0.00    -0.001 C 
ATOM     12  CB  PRO d   1      76.916   6.858 162.980  0.00  0.00    -0.036 C 
ATOM     13  H24 PRO d   1      78.849   6.696 163.962  0.00  0.00     0.087 H 
ATOM     14  CG  PRO d   1      76.149   5.789 162.298  0.00  0.00    -0.048 C 
ATOM     15  H25 PRO d   1      77.403   7.520 162.249  0.00  0.00     0.036 H 
ATOM     16  H26 PRO d   1      76.263   7.453 163.636  0.00  0.00     0.036 H 
ATOM     17  H27 PRO d   1      75.665   6.179 161.390  0.00  0.00     0.035 H 
ATOM     18  H28 PRO d   1      75.385   5.372 162.970  0.00  0.00     0.035 H 
ATOM     19  H29 PRO d   1      76.747   3.729 162.029  0.00  0.00     0.064 H 
ATOM     20  H30 PRO d   1      77.556   4.892 160.924  0.00  0.00     0.064 H 
BRANCH  10  21
ATOM     21  C   PRO d   1      77.346   5.667 165.121  0.00  0.00     0.241 C 
ATOM     22  O   PRO d   1      76.163   5.803 165.354  0.00  0.00    -0.271 OA
ATOM     23  N   VAL d   1      78.190   5.149 165.989  0.00  0.00    -0.344 N 
ATOM     24  H31 VAL d   1      79.139   5.001 165.711  0.00  0.00     0.163 HD
BRANCH  23  25
ATOM     25  CA  VAL d   1      77.792   4.790 167.322  0.00  0.00     0.099 C 
ATOM     26  H32 VAL d   1      76.830   4.259 167.282  0.00  0.00     0.090 H 
BRANCH  25  27
ATOM     27  C   VAL d   1      77.634   6.057 168.165  0.00  0.00     0.197 C 
ATOM     28  O   VAL d   1      76.824   6.069 169.088  0.00  0.00    -0.646 OA
ATOM     29  OXT VAL d   1      78.320   7.042 167.906  0.00  0.00    -0.646 OA
ENDBRANCH  25  27
BRANCH  25  30
ATOM     30  CB  VAL d   1      78.850   3.870 167.957  0.00  0.00    -0.032 C 
ATOM     31  H33 VAL d   1      79.795   4.427 168.037  0.00  0.00     0.042 H 
BRANCH  30  32
ATOM     32  CG1 VAL d   1      78.424   3.430 169.352  0.00  0.00    -0.071 C 
ATOM     33  H34 VAL d   1      79.196   2.775 169.782  0.00  0.00     0.028 H 
ATOM     34  H35 VAL d   1      77.472   2.882 169.289  0.00  0.00     0.028 H 
ATOM     35  H36 VAL d   1      78.296   4.315 169.993  0.00  0.00     0.028 H 
ENDBRANCH  30  32
BRANCH  30  36
ATOM     36  CG2 VAL d   1      79.073   2.651 167.082  0.00  0.00    -0.071 C 
ATOM     37  H37 VAL d   1      79.380   2.973 166.076  0.00  0.00     0.028 H 
ATOM     38  H38 VAL d   1      78.139   2.074 167.013  0.00  0.00     0.028 H 
ATOM     39  H39 VAL d   1      79.861   2.023 167.523  0.00  0.00     0.028 H 
ENDBRANCH  30  36
ENDBRANCH  25  30
ENDBRANCH  23  25
ENDBRANCH  10  21
ENDBRANCH   5   7
BRANCH   5  40
ATOM     40  CB  ALA d   1      79.040   1.705 162.925  0.00  0.00    -0.049 C 
ATOM     41  H21 ALA d   1      77.982   1.814 163.205  0.00  0.00     0.030 H 
ATOM     42  H22 ALA d   1      79.642   1.533 163.829  0.00  0.00     0.030 H 
ATOM     43  H23 ALA d   1      79.152   0.850 162.242  0.00  0.00     0.030 H 
ENDBRANCH   5  40
ENDBRANCH   1   5
BRANCH   3  44
ATOM     44  CA  SER d   1      82.798   1.799 160.739  0.00  0.00     0.109 C 
ATOM     45  H15 SER d   1      83.023   1.596 159.682  0.00  0.00     0.090 H 
BRANCH  44  46
ATOM     46  N   SER d   1      83.567   2.964 161.167  0.00  0.00    -0.344 N 
ATOM     47  C   ALA d   1      83.559   4.106 160.502  0.00  0.00     0.240 C 
ATOM     48  O   ALA d   1      82.865   4.303 159.523  0.00  0.00    -0.271 OA
ATOM     49  H14 SER d   1      84.122   2.895 161.996  0.00  0.00     0.163 HD
BRANCH  47  50
ATOM     50  CA  ALA d   1      84.534   5.158 160.993  0.00  0.00     0.086 C 
ATOM     51  H10 ALA d   1      85.386   4.652 161.470  0.00  0.00     0.086 H 
BRANCH  50  52
ATOM     52  N   ALA d   1      85.042   5.951 159.865  0.00  0.00    -0.346 N 
ATOM     53  C   ASN d   1      85.745   5.399 158.886  0.00  0.00     0.249 C 
ATOM     54  O   ASN d   1      85.968   4.195 158.837  0.00  0.00    -0.271 OA
ATOM     55  H9  ALA d   1      84.853   6.932 159.835  0.00  0.00     0.163 HD
BRANCH  53  56
ATOM     56  CA  ASN d   1      86.205   6.335 157.765  0.00  0.00     0.183 C 
ATOM     57  H4  ASN d   1      85.320   6.590 157.163  0.00  0.00     0.099 H 
BRANCH  56  58
ATOM     58  N   ASN d   1      86.777   7.597 158.272  0.00  0.00    -0.066 N 
ATOM     59  H1  ASN d   1      87.062   8.173 157.495  0.00  0.00     0.275 HD
ATOM     60  H2  ASN d   1      87.577   7.395 158.851  0.00  0.00     0.275 HD
ATOM     61  H3  ASN d   1      86.083   8.086 158.816  0.00  0.00     0.275 HD
ENDBRANCH  56  58
BRANCH  56  62
ATOM     62  CB  ASN d   1      87.217   5.618 156.844  0.00  0.00     0.044 C 
ATOM     63  H5  ASN d   1      88.060   5.269 157.458  0.00  0.00     0.051 H 
ATOM     64  H6  ASN d   1      87.581   6.340 156.098  0.00  0.00     0.051 H 
BRANCH  62  65
ATOM     65  CG  ASN d   1      86.622   4.408 156.102  0.00  0.00     0.217 C 
ATOM     66  OD1 ASN d   1      85.435   4.371 155.774  0.00  0.00    -0.274 OA
ATOM     67  ND2 ASN d   1      87.474   3.415 155.817  0.00  0.00    -0.370 N 
ATOM     68  H7  ASN d   1      87.150   2.600 155.336  0.00  0.00     0.159 HD
ATOM     69  H8  ASN d   1      88.435   3.488 156.085  0.00  0.00     0.159 HD
ENDBRANCH  62  65
ENDBRANCH  56  62
ENDBRANCH  53  56
ENDBRANCH  50  52
BRANCH  50  70
ATOM     70  CB  ALA d   1      83.855   6.037 162.030  0.00  0.00    -0.049 C 
ATOM     71  H11 ALA d   1      83.488   5.412 162.857  0.00  0.00     0.030 H 
ATOM     72  H12 ALA d   1      83.009   6.564 161.566  0.00  0.00     0.030 H 
ATOM     73  H13 ALA d   1      84.577   6.771 162.417  0.00  0.00     0.030 H 
ENDBRANCH  50  70
ENDBRANCH  47  50
ENDBRANCH  44  46
BRANCH  44  74
ATOM     74  CB  SER d   1      83.215   0.600 161.580  0.00  0.00     0.044 C 
ATOM     75  H16 SER d   1      84.305   0.471 161.514  0.00  0.00     0.077 H 
ATOM     76  H17 SER d   1      82.715  -0.303 161.199  0.00  0.00     0.077 H 
BRANCH  74  77
ATOM     77  OG  SER d   1      82.847   0.802 162.940  0.00  0.00    -0.398 OA
ATOM     78  H18 SER d   1      83.112   0.048 163.454  0.00  0.00     0.209 HD
ENDBRANCH  74  77
ENDBRANCH  44  74
ENDBRANCH   3  44
TORSDOF 20
