REMARK  5 active torsions:
REMARK  status: ('A' for Active; 'I' for Inactive)
REMARK    1  A    between atoms: N1_1  and  C18_23 
REMARK    2  A    between atoms: C22_9  and  O25_30 
REMARK    3  A    between atoms: O25_30  and  C26_11 
REMARK    4  A    between atoms: C27_19  and  C28_12 
REMARK    5  A    between atoms: C18_23  and  C19_16 
REMARK       I    between atoms: C27_19  and  N14_27 
ROOT
ATOM      1  N1  8Q7 d   1      54.222 110.886  33.842  0.00  0.00    -0.287 N 
ATOM      2  C4  8Q7 d   1      53.000 108.436  34.287  0.00  0.00     0.171 A 
ATOM      3  C6  8Q7 d   1      53.871 110.139  32.754  0.00  0.00     0.352 A 
ATOM      4  C8  8Q7 d   1      52.344 107.106  32.812  0.00  0.00     0.109 A 
ATOM      5  C13 8Q7 d   1      53.794 110.141  38.960  0.00  0.00     0.028 C 
ATOM      6  C15 8Q7 d   1      52.331 108.210  38.908  0.00  0.00     0.002 C 
ATOM      7  C3  8Q7 d   1      53.369 109.198  35.394  0.00  0.00     0.054 A 
ATOM      8  C12 8Q7 d   1      53.243 108.982  36.787  0.00  0.00    -0.025 A 
ATOM      9  C11 8Q7 d   1      53.767 110.046  37.495  0.00  0.00     0.010 A 
ATOM     10  C2  8Q7 d   1      53.973 110.403  35.105  0.00  0.00     0.095 A 
ATOM     11  C27 8Q7 d   1      54.429 108.099  40.163  0.00  0.00     0.230 C 
ATOM     12  C16 8Q7 d   1      52.662 107.832  37.486  0.00  0.00    -0.024 C 
ATOM     13  N7  8Q7 d   1      52.413 107.268  34.170  0.00  0.00    -0.220 NA
ATOM     14  N9  8Q7 d   1      52.854 108.104  32.083  0.00  0.00    -0.155 NA
ATOM     15  N5  8Q7 d   1      53.264 108.940  33.048  0.00  0.00    -0.162 N 
ATOM     16  N14 8Q7 d   1      53.463 108.855  39.520  0.00  0.00    -0.347 N 
ATOM     17  O17 8Q7 d   1      54.024 110.420  31.576  0.00  0.00    -0.244 OA
ATOM     18  O29 8Q7 d   1      54.409 106.899  40.396  0.00  0.00    -0.273 OA
ATOM     19  S10 8Q7 d   1      54.397 111.304  36.506  0.00  0.00    -0.073 SA
ATOM     20  H1  8Q7 d   1      51.902 106.222  32.355  0.00  0.00     0.149 H 
ATOM     21  H2  8Q7 d   1      53.060 110.889  39.295  0.00  0.00     0.072 H 
ATOM     22  H3  8Q7 d   1      54.799 110.440  39.292  0.00  0.00     0.072 H 
ATOM     23  H4  8Q7 d   1      52.077 107.303  39.477  0.00  0.00     0.064 H 
ATOM     24  H5  8Q7 d   1      51.473 108.898  38.912  0.00  0.00     0.064 H 
ATOM     25  H14 8Q7 d   1      51.744 107.517  36.969  0.00  0.00     0.042 H 
ATOM     26  H15 8Q7 d   1      53.385 107.003  37.488  0.00  0.00     0.042 H 
ENDROOT
BRANCH   1  27
ATOM     27  C18 8Q7 d   1      54.923 112.118  33.632  0.00  0.00     0.029 C 
ATOM     28  H18 8Q7 d   1      54.457 112.949  34.181  0.00  0.00     0.072 H 
ATOM     29  H19 8Q7 d   1      54.984 112.373  32.564  0.00  0.00     0.072 H 
BRANCH  27  30
ATOM     30  C19 8Q7 d   1      56.277 111.766  34.199  0.00  0.00    -0.040 A 
ATOM     31  C20 8Q7 d   1      56.865 112.573  35.147  0.00  0.00    -0.073 A 
ATOM     32  C21 8Q7 d   1      58.093 112.252  35.678  0.00  0.00    -0.050 A 
ATOM     33  H6  8Q7 d   1      56.355 113.470  35.478  0.00  0.00     0.084 H 
ATOM     34  C22 8Q7 d   1      58.743 111.108  35.270  0.00  0.00     0.068 A 
ATOM     35  H7  8Q7 d   1      58.549 112.900  36.418  0.00  0.00     0.087 H 
ATOM     36  C23 8Q7 d   1      58.177 110.275  34.330  0.00  0.00    -0.050 A 
ATOM     37  C24 8Q7 d   1      56.947 110.619  33.804  0.00  0.00    -0.073 A 
ATOM     38  H13 8Q7 d   1      58.684 109.372  34.011  0.00  0.00     0.087 H 
ATOM     39  H8  8Q7 d   1      56.493 109.973  33.061  0.00  0.00     0.084 H 
BRANCH  34  40
ATOM     40  O25 8Q7 d   1      59.973 110.823  35.832  0.00  0.00    -0.356 OA
BRANCH  40  41
ATOM     41  C26 8Q7 d   1      60.130 109.424  35.615  0.00  0.00     0.010 C 
ATOM     42  H9  8Q7 d   1      61.093 109.094  36.032  0.00  0.00     0.066 H 
ATOM     43  H10 8Q7 d   1      60.108 109.216  34.535  0.00  0.00     0.066 H 
ATOM     44  H11 8Q7 d   1      59.311 108.882  36.110  0.00  0.00     0.066 H 
ENDBRANCH  40  41
ENDBRANCH  34  40
ENDBRANCH  27  30
ENDBRANCH   1  27
BRANCH  11  45
ATOM     45  C28 8Q7 d   1      55.579 108.895  40.585  0.00  0.00     0.092 A 
ATOM     46  C31 8Q7 d   1      56.722 108.255  41.331  0.00  0.00     0.014 A 
ATOM     47  C30 8Q7 d   1      55.752 109.148  42.044  0.00  0.00     0.257 A 
ATOM     48  H16 8Q7 d   1      57.754 108.592  41.154  0.00  0.00     0.043 H 
ATOM     49  H17 8Q7 d   1      56.718 107.172  41.523  0.00  0.00     0.043 H 
ATOM     50  F32 8Q7 d   1      54.842 108.593  42.941  0.00  0.00    -0.205 F 
ATOM     51  F33 8Q7 d   1      56.097 110.436  42.451  0.00  0.00    -0.205 F 
ATOM     52  H12 8Q7 d   1      55.779 109.687  39.848  0.00  0.00     0.064 H 
ENDBRANCH  11  45
TORSDOF 5
