REMARK WARNING: 32 MAX_TORS EXCEEDED!!!
REMARK  71 active torsions:
REMARK  status: ('A' for Active; 'I' for Inactive)
REMARK    1  A    between atoms: N_1  and  CA_2 
REMARK    2  A    between atoms: CA_2  and  C_3 
REMARK    3  A    between atoms: CA_2  and  CB_5 
REMARK       I    between atoms: C_3  and  N_7 
REMARK    4  A    between atoms: CB_5  and  OG_6 
REMARK    5  A    between atoms: N_7  and  CA_8 
REMARK    6  A    between atoms: CA_8  and  C_9 
REMARK    7  A    between atoms: CA_8  and  CB_11 
REMARK       I    between atoms: C_9  and  N_19 
REMARK    8  A    between atoms: CB_11  and  CG_12 
REMARK    9  A    between atoms: CZ_17  and  OH_18 
REMARK   10  A    between atoms: N_19  and  CA_20 
REMARK   11  A    between atoms: CA_20  and  C_21 
REMARK   12  A    between atoms: CA_20  and  CB_23 
REMARK       I    between atoms: C_21  and  N_28 
REMARK   13  A    between atoms: CB_23  and  CG_24 
REMARK   14  A    between atoms: CG_24  and  CD_25 
REMARK   15  A    between atoms: N_28  and  CA_29 
REMARK   16  A    between atoms: CA_29  and  C_30 
REMARK   17  A    between atoms: CA_29  and  CB_32 
REMARK       I    between atoms: C_30  and  N_33 
REMARK   18  A    between atoms: N_33  and  CA_34 
REMARK   19  A    between atoms: CA_34  and  C_35 
REMARK   20  A    between atoms: CA_34  and  CB_37 
REMARK       I    between atoms: C_35  and  N_42 
REMARK   21  A    between atoms: CB_37  and  CG_38 
REMARK   22  A    between atoms: CG_38  and  CD_39 
REMARK   23  A    between atoms: N_42  and  CA_43 
REMARK   24  A    between atoms: CA_43  and  C_44 
REMARK   25  A    between atoms: CA_43  and  CB_46 
REMARK       I    between atoms: C_44  and  N_49 
REMARK   26  A    between atoms: CB_46  and  OG1_47 
REMARK   27  A    between atoms: CB_46  and  CG2_48 
REMARK   28  A    between atoms: N_49  and  CA_50 
REMARK   29  A    between atoms: CA_50  and  C_51 
REMARK   30  A    between atoms: CA_50  and  CB_53 
REMARK       I    between atoms: C_51  and  N_56 
REMARK   31  A    between atoms: CB_53  and  CG1_54 
REMARK   32  A    between atoms: CB_53  and  CG2_55 
REMARK   33  A    between atoms: N_56  and  CA_57 
REMARK   34  A    between atoms: CA_57  and  C_58 
REMARK   35  A    between atoms: CA_57  and  CB_60 
REMARK       I    between atoms: C_58  and  N_62 
REMARK   36  A    between atoms: CB_60  and  OG_61 
REMARK   37  A    between atoms: N_62  and  CA_63 
REMARK   38  A    between atoms: CA_63  and  C_64 
REMARK   39  A    between atoms: CA_63  and  CB_66 
REMARK       I    between atoms: C_64  and  N_67 
REMARK   40  A    between atoms: N_67  and  CA_68 
REMARK   41  A    between atoms: CA_68  and  C_69 
REMARK   42  A    between atoms: CA_68  and  CB_71 
REMARK       I    between atoms: C_69  and  N_75 
REMARK   43  A    between atoms: CB_71  and  CG_72 
REMARK   44  A    between atoms: CG_72  and  SD_73 
REMARK   45  A    between atoms: SD_73  and  CE_74 
REMARK   46  A    between atoms: N_75  and  CA_76 
REMARK   47  A    between atoms: CA_76  and  C_77 
REMARK   48  A    between atoms: CA_76  and  CB_79 
REMARK       I    between atoms: C_77  and  N_80 
REMARK   49  A    between atoms: N_80  and  CA_81 
REMARK   50  A    between atoms: CA_81  and  C_82 
REMARK   51  A    between atoms: CA_81  and  CB_84 
REMARK       I    between atoms: C_82  and  N_88 
REMARK   52  A    between atoms: CB_84  and  CG_85 
REMARK   53  A    between atoms: CG_85  and  CD1_86 
REMARK   54  A    between atoms: CG_85  and  CD2_87 
REMARK   55  A    between atoms: N_88  and  CA_89 
REMARK   56  A    between atoms: CA_89  and  C_90 
REMARK   57  A    between atoms: CA_89  and  CB_92 
REMARK       I    between atoms: C_90  and  N_96 
REMARK   58  A    between atoms: CB_92  and  CG_93 
REMARK   59  A    between atoms: CG_93  and  CD1_94 
REMARK   60  A    between atoms: CG_93  and  CD2_95 
REMARK   61  A    between atoms: N_96  and  CA_97 
REMARK   62  A    between atoms: CA_97  and  C_98 
REMARK   63  A    between atoms: CA_97  and  CB_100 
REMARK       I    between atoms: C_98  and  N_102 
REMARK   64  A    between atoms: CB_100  and  OG_101 
REMARK   65  A    between atoms: N_102  and  CA_103 
REMARK   66  A    between atoms: CA_103  and  C_104 
REMARK   67  A    between atoms: CA_103  and  CB_106 
REMARK       I    between atoms: C_104  and  N_109 
REMARK   68  A    between atoms: CB_106  and  CG1_107 
REMARK   69  A    between atoms: CB_106  and  CG2_108 
REMARK   70  A    between atoms: N_109  and  CA_110 
REMARK   71  A    between atoms: CA_110  and  C_111 
ROOT
ATOM      1  CA  SER d   1     -42.454  77.032  27.759  0.00  0.00     0.109 C 
ATOM      2  H51 SER d   1     -42.525  77.219  26.677  0.00  0.00     0.090 H 
ENDROOT
BRANCH   1   3
ATOM      3  N   SER d   1     -42.908  75.671  28.020  0.00  0.00    -0.344 N 
ATOM      4  C   SER d   1     -42.231  74.625  27.539  0.00  0.00     0.241 C 
ATOM      5  O   SER d   1     -41.195  74.763  26.877  0.00  0.00    -0.271 OA
ATOM      6  H50 SER d   1     -43.733  75.520  28.564  0.00  0.00     0.163 HD
BRANCH   4   7
ATOM      7  CA  SER d   1     -42.802  73.244  27.832  0.00  0.00     0.092 C 
ATOM      8  H42 SER d   1     -42.055  72.493  27.534  0.00  0.00     0.088 H 
BRANCH   7   9
ATOM      9  N   SER d   1     -43.062  73.096  29.262  0.00  0.00    -0.346 N 
ATOM     10  C   SER d   1     -42.101  73.296  30.167  0.00  0.00     0.243 C 
ATOM     11  O   SER d   1     -40.944  73.595  29.847  0.00  0.00    -0.271 OA
ATOM     12  H41 SER d   1     -43.978  72.840  29.569  0.00  0.00     0.163 HD
BRANCH  10  13
ATOM     13  CA  SER d   1     -42.496  73.147  31.629  0.00  0.00     0.113 C 
ATOM     14  H35 SER d   1     -41.668  73.511  32.255  0.00  0.00     0.091 H 
BRANCH  13  15
ATOM     15  N   SER d   1     -43.684  73.943  31.918  0.00  0.00    -0.344 N 
ATOM     16  C   SER d   1     -43.691  75.255  31.675  0.00  0.00     0.241 C 
ATOM     17  O   SER d   1     -42.665  75.878  31.376  0.00  0.00    -0.271 OA
ATOM     18  H34 SER d   1     -44.497  73.503  32.300  0.00  0.00     0.163 HD
BRANCH  16  19
ATOM     19  CA  SER d   1     -45.017  75.993  31.788  0.00  0.00     0.090 C 
ATOM     20  H29 SER d   1     -44.972  76.879  31.138  0.00  0.00     0.087 H 
BRANCH  19  21
ATOM     21  N   SER d   1     -46.133  75.164  31.345  0.00  0.00    -0.346 N 
ATOM     22  C   SER d   1     -46.351  74.983  30.040  0.00  0.00     0.240 C 
ATOM     23  O   SER d   1     -45.663  75.537  29.175  0.00  0.00    -0.271 OA
ATOM     24  H28 SER d   1     -46.734  74.732  32.018  0.00  0.00     0.163 HD
BRANCH  22  25
ATOM     25  CA  SER d   1     -47.492  74.072  29.609  0.00  0.00     0.086 C 
ATOM     26  H24 SER d   1     -47.143  73.478  28.752  0.00  0.00     0.086 H 
BRANCH  25  27
ATOM     27  N   SER d   1     -47.912  73.144  30.651  0.00  0.00    -0.346 N 
ATOM     28  C   SER d   1     -47.242  72.014  30.886  0.00  0.00     0.241 C 
ATOM     29  O   SER d   1     -46.173  71.734  30.341  0.00  0.00    -0.271 OA
ATOM     30  H23 SER d   1     -48.719  73.358  31.201  0.00  0.00     0.163 HD
BRANCH  28  31
ATOM     31  CA  SER d   1     -47.917  71.086  31.902  0.00  0.00     0.090 C 
ATOM     32  H18 SER d   1     -48.275  71.700  32.742  0.00  0.00     0.087 H 
BRANCH  31  33
ATOM     33  N   SER d   1     -49.071  70.421  31.298  0.00  0.00    -0.346 N 
ATOM     34  C   SER d   1     -48.999  69.810  30.118  0.00  0.00     0.241 C 
ATOM     35  O   SER d   1     -47.929  69.693  29.508  0.00  0.00    -0.271 OA
ATOM     36  H17 SER d   1     -49.943  70.426  31.788  0.00  0.00     0.163 HD
BRANCH  34  37
ATOM     37  CA  SER d   1     -50.272  69.242  29.511  0.00  0.00     0.093 C 
ATOM     38  H9  SER d   1     -49.979  68.568  28.693  0.00  0.00     0.088 H 
BRANCH  37  39
ATOM     39  N   SER d   1     -51.071  68.471  30.457  0.00  0.00    -0.346 N 
ATOM     40  C   SER d   1     -51.375  67.192  30.238  0.00  0.00     0.251 C 
ATOM     41  O   SER d   1     -50.865  66.531  29.333  0.00  0.00    -0.271 OA
ATOM     42  H8  SER d   1     -51.399  68.914  31.291  0.00  0.00     0.163 HD
BRANCH  40  43
ATOM     43  CA  SER d   1     -52.404  66.556  31.172  0.00  0.00     0.195 C 
ATOM     44  H4  SER d   1     -53.378  67.034  30.991  0.00  0.00     0.102 H 
BRANCH  43  45
ATOM     45  N   SER d   1     -52.530  65.099  30.881  0.00  0.00    -0.064 N 
ATOM     46  H1  SER d   1     -53.211  64.690  31.502  0.00  0.00     0.275 HD
ATOM     47  H2  SER d   1     -51.638  64.651  31.018  0.00  0.00     0.275 HD
ATOM     48  H3  SER d   1     -52.827  64.972  29.926  0.00  0.00     0.275 HD
ENDBRANCH  43  45
BRANCH  43  49
ATOM     49  CB  SER d   1     -52.025  66.776  32.639  0.00  0.00     0.051 C 
ATOM     50  H5  SER d   1     -51.672  67.810  32.770  0.00  0.00     0.077 H 
ATOM     51  H6  SER d   1     -51.221  66.077  32.913  0.00  0.00     0.077 H 
BRANCH  49  52
ATOM     52  OG  SER d   1     -53.143  66.555  33.482  0.00  0.00    -0.398 OA
ATOM     53  H7  SER d   1     -52.889  66.696  34.386  0.00  0.00     0.209 HD
ENDBRANCH  49  52
ENDBRANCH  43  49
ENDBRANCH  40  43
ENDBRANCH  37  39
BRANCH  37  54
ATOM     54  CB  SER d   1     -51.131  70.380  28.920  0.00  0.00    -0.014 C 
ATOM     55  H10 SER d   1     -50.454  71.135  28.495  0.00  0.00     0.043 H 
ATOM     56  H11 SER d   1     -51.715  70.829  29.737  0.00  0.00     0.043 H 
BRANCH  54  57
ATOM     57  CG  SER d   1     -52.099  69.944  27.830  0.00  0.00    -0.056 A 
ATOM     58  CD1 SER d   1     -51.804  68.874  26.992  0.00  0.00    -0.074 A 
ATOM     59  CE1 SER d   1     -52.679  68.477  26.001  0.00  0.00    -0.051 A 
ATOM     60  H12 SER d   1     -50.869  68.341  27.120  0.00  0.00     0.084 H 
ATOM     61  CZ  SER d   1     -53.868  69.150  25.831  0.00  0.00     0.065 A 
ATOM     62  H14 SER d   1     -52.431  67.639  25.360  0.00  0.00     0.087 H 
ATOM     63  CE2 SER d   1     -54.188  70.216  26.646  0.00  0.00    -0.051 A 
ATOM     64  CD2 SER d   1     -53.305  70.608  27.638  0.00  0.00    -0.074 A 
ATOM     65  H15 SER d   1     -55.125  70.744  26.511  0.00  0.00     0.087 H 
ATOM     66  H13 SER d   1     -53.559  71.447  28.276  0.00  0.00     0.084 H 
BRANCH  61  67
ATOM     67  OH  SER d   1     -54.737  68.751  24.841  0.00  0.00    -0.361 OA
ATOM     68  H16 SER d   1     -54.367  68.010  24.376  0.00  0.00     0.217 HD
ENDBRANCH  61  67
ENDBRANCH  54  57
ENDBRANCH  37  54
ENDBRANCH  34  37
ENDBRANCH  31  33
BRANCH  31  69
ATOM     69  CB  SER d   1     -46.922  70.059  32.455  0.00  0.00    -0.029 C 
ATOM     70  H19 SER d   1     -45.918  70.507  32.434  0.00  0.00     0.037 H 
ATOM     71  H20 SER d   1     -46.942  69.174  31.802  0.00  0.00     0.037 H 
BRANCH  69  72
ATOM     72  CG  SER d   1     -47.212  69.604  33.883  0.00  0.00     0.018 C 
ATOM     73  H21 SER d   1     -47.909  70.320  34.343  0.00  0.00     0.049 H 
ATOM     74  H22 SER d   1     -46.267  69.598  34.447  0.00  0.00     0.049 H 
BRANCH  72  75
ATOM     75  CD  SER d   1     -47.826  68.218  33.955  0.00  0.00     0.172 C 
ATOM     76  OE1 SER d   1     -48.400  67.759  32.944  0.00  0.00    -0.648 OA
ATOM     77  OE2 SER d   1     -47.730  67.583  35.027  0.00  0.00    -0.648 OA
ENDBRANCH  72  75
ENDBRANCH  69  72
ENDBRANCH  31  69
ENDBRANCH  28  31
ENDBRANCH  25  27
BRANCH  25  78
ATOM     78  CB  SER d   1     -48.682  74.922  29.158  0.00  0.00    -0.049 C 
ATOM     79  H25 SER d   1     -48.357  75.620  28.372  0.00  0.00     0.030 H 
ATOM     80  H26 SER d   1     -49.072  75.491  30.015  0.00  0.00     0.030 H 
ATOM     81  H27 SER d   1     -49.472  74.266  28.763  0.00  0.00     0.030 H 
ENDBRANCH  25  78
ENDBRANCH  22  25
ENDBRANCH  19  21
BRANCH  19  82
ATOM     82  CB  SER d   1     -45.232  76.463  33.227  0.00  0.00    -0.029 C 
ATOM     83  H30 SER d   1     -45.129  75.597  33.897  0.00  0.00     0.037 H 
ATOM     84  H31 SER d   1     -46.249  76.874  33.312  0.00  0.00     0.037 H 
BRANCH  82  85
ATOM     85  CG  SER d   1     -44.239  77.533  33.664  0.00  0.00     0.018 C 
ATOM     86  H32 SER d   1     -44.395  78.430  33.047  0.00  0.00     0.049 H 
ATOM     87  H33 SER d   1     -43.220  77.152  33.505  0.00  0.00     0.049 H 
BRANCH  85  88
ATOM     88  CD  SER d   1     -44.389  77.918  35.123  0.00  0.00     0.172 C 
ATOM     89  OE1 SER d   1     -45.531  77.904  35.630  0.00  0.00    -0.648 OA
ATOM     90  OE2 SER d   1     -43.360  78.230  35.762  0.00  0.00    -0.648 OA
ENDBRANCH  85  88
ENDBRANCH  82  85
ENDBRANCH  19  82
ENDBRANCH  16  19
ENDBRANCH  13  15
BRANCH  13  91
ATOM     91  CB  SER d   1     -42.753  71.677  31.966  0.00  0.00     0.060 C 
ATOM     92  H36 SER d   1     -43.525  71.286  31.287  0.00  0.00     0.086 H 
BRANCH  91  93
ATOM     93  OG1 SER d   1     -43.213  71.563  33.318  0.00  0.00    -0.393 OA
ATOM     94  H37 SER d   1     -43.371  70.649  33.522  0.00  0.00     0.210 HD
ENDBRANCH  91  93
BRANCH  91  95
ATOM     95  CG2 SER d   1     -41.481  70.852  31.797  0.00  0.00    -0.050 C 
ATOM     96  H38 SER d   1     -41.690  69.801  32.044  0.00  0.00     0.031 H 
ATOM     97  H39 SER d   1     -40.701  71.239  32.469  0.00  0.00     0.031 H 
ATOM     98  H40 SER d   1     -41.135  70.921  30.755  0.00  0.00     0.031 H 
ENDBRANCH  91  95
ENDBRANCH  13  91
ENDBRANCH  10  13
ENDBRANCH   7   9
BRANCH   7  99
ATOM     99  CB  SER d   1     -44.090  72.986  27.030  0.00  0.00    -0.033 C 
ATOM    100  H43 SER d   1     -44.871  73.666  27.401  0.00  0.00     0.042 H 
BRANCH  99 101
ATOM    101  CG1 SER d   1     -43.874  73.269  25.547  0.00  0.00    -0.071 C 
ATOM    102  H44 SER d   1     -44.807  73.077  24.997  0.00  0.00     0.028 H 
ATOM    103  H45 SER d   1     -43.080  72.614  25.160  0.00  0.00     0.028 H 
ATOM    104  H46 SER d   1     -43.579  74.320  25.413  0.00  0.00     0.028 H 
ENDBRANCH  99 101
BRANCH  99 105
ATOM    105  CG2 SER d   1     -44.561  71.552  27.240  0.00  0.00    -0.071 C 
ATOM    106  H47 SER d   1     -44.711  71.369  28.314  0.00  0.00     0.028 H 
ATOM    107  H48 SER d   1     -43.803  70.856  26.852  0.00  0.00     0.028 H 
ATOM    108  H49 SER d   1     -45.510  71.396  26.706  0.00  0.00     0.028 H 
ENDBRANCH  99 105
ENDBRANCH   7  99
ENDBRANCH   4   7
ENDBRANCH   1   3
BRANCH   1 109
ATOM    109  C   SER d   1     -41.002  77.214  28.179  0.00  0.00     0.243 C 
ATOM    110  O   SER d   1     -40.158  77.626  27.376  0.00  0.00    -0.271 OA
ATOM    111  N   SER d   1     -40.687  76.895  29.437  0.00  0.00    -0.346 N 
ATOM    112  H55 SER d   1     -41.397  76.561  30.058  0.00  0.00     0.163 HD
BRANCH 111 113
ATOM    113  CA  SER d   1     -39.314  77.030  29.912  0.00  0.00     0.086 C 
ATOM    114  H56 SER d   1     -39.004  78.076  29.772  0.00  0.00     0.086 H 
BRANCH 113 115
ATOM    115  C   SER d   1     -38.357  76.143  29.125  0.00  0.00     0.240 C 
ATOM    116  O   SER d   1     -37.192  76.509  28.929  0.00  0.00    -0.271 OA
ATOM    117  N   SER d   1     -38.822  74.977  28.669  0.00  0.00    -0.346 N 
ATOM    118  H60 SER d   1     -39.756  74.695  28.889  0.00  0.00     0.163 HD
BRANCH 117 119
ATOM    119  CA  SER d   1     -37.977  74.110  27.851  0.00  0.00     0.090 C 
ATOM    120  H61 SER d   1     -37.032  73.937  28.387  0.00  0.00     0.087 H 
BRANCH 119 121
ATOM    121  C   SER d   1     -37.655  74.767  26.515  0.00  0.00     0.241 C 
ATOM    122  O   SER d   1     -36.512  74.709  26.047  0.00  0.00    -0.271 OA
ATOM    123  N   SER d   1     -38.651  75.400  25.890  0.00  0.00    -0.346 N 
ATOM    124  H69 SER d   1     -39.559  75.424  26.309  0.00  0.00     0.163 HD
BRANCH 123 125
ATOM    125  CA  SER d   1     -38.437  76.057  24.606  0.00  0.00     0.086 C 
ATOM    126  H70 SER d   1     -38.067  75.303  23.895  0.00  0.00     0.086 H 
BRANCH 125 127
ATOM    127  C   SER d   1     -37.407  77.174  24.689  0.00  0.00     0.240 C 
ATOM    128  O   SER d   1     -36.839  77.554  23.658  0.00  0.00    -0.271 OA
ATOM    129  N   SER d   1     -37.150  77.706  25.882  0.00  0.00    -0.346 N 
ATOM    130  H74 SER d   1     -37.603  77.325  26.688  0.00  0.00     0.163 HD
BRANCH 129 131
ATOM    131  CA  SER d   1     -36.232  78.824  26.055  0.00  0.00     0.089 C 
ATOM    132  H75 SER d   1     -36.130  79.328  25.083  0.00  0.00     0.087 H 
BRANCH 131 133
ATOM    133  C   SER d   1     -34.844  78.394  26.507  0.00  0.00     0.241 C 
ATOM    134  O   SER d   1     -33.975  79.253  26.680  0.00  0.00    -0.271 OA
ATOM    135  N   SER d   1     -34.614  77.097  26.711  0.00  0.00    -0.346 N 
ATOM    136  H85 SER d   1     -35.358  76.438  26.599  0.00  0.00     0.163 HD
BRANCH 135 137
ATOM    137  CA  SER d   1     -33.288  76.632  27.095  0.00  0.00     0.089 C 
ATOM    138  H86 SER d   1     -33.054  77.022  28.097  0.00  0.00     0.087 H 
BRANCH 137 139
ATOM    139  C   SER d   1     -32.249  77.153  26.113  0.00  0.00     0.241 C 
ATOM    140  O   SER d   1     -32.428  77.068  24.895  0.00  0.00    -0.271 OA
ATOM    141  N   SER d   1     -31.161  77.696  26.651  0.00  0.00    -0.344 N 
ATOM    142  H96 SER d   1     -31.051  77.681  27.645  0.00  0.00     0.163 HD
BRANCH 141 143
ATOM    143  CA  SER d   1     -30.127  78.310  25.835  0.00  0.00     0.109 C 
ATOM    144  H97 SER d   1     -30.246  77.962  24.798  0.00  0.00     0.090 H 
BRANCH 143 145
ATOM    145  C   SER d   1     -28.757  77.889  26.341  0.00  0.00     0.243 C 
ATOM    146  O   SER d   1     -28.527  77.808  27.551  0.00  0.00    -0.271 OA
ATOM    147  N   SER d   1     -27.852  77.618  25.397  0.00  0.00    -0.346 N 
ATOM    148 1H10 SER d   1     -28.139  77.599  24.439  0.00  0.00     0.163 HD
BRANCH 147 149
ATOM    149  CA  SER d   1     -26.455  77.349  25.724  0.00  0.00     0.092 C 
ATOM    150 2H10 SER d   1     -26.419  76.868  26.713  0.00  0.00     0.088 H 
BRANCH 149 151
ATOM    151  C   SER d   1     -25.640  78.631  25.805  0.00  0.00     0.241 C 
ATOM    152  O   SER d   1     -24.492  78.598  26.273  0.00  0.00    -0.271 OA
ATOM    153  N   SER d   1     -26.205  79.763  25.395  0.00  0.00    -0.349 N 
ATOM    154 0H11 SER d   1     -27.149  79.739  25.065  0.00  0.00     0.163 HD
BRANCH 153 155
ATOM    155  CA  SER d   1     -25.501  81.031  25.409  0.00  0.00     0.075 C 
ATOM    156 1H11 SER d   1     -24.421  80.838  25.495  0.00  0.00     0.080 H 
ATOM    157 2H11 SER d   1     -25.839  81.617  26.276  0.00  0.00     0.080 H 
BRANCH 155 158
ATOM    158  C   SER d   1     -25.759  81.829  24.146  0.00  0.00     0.191 C 
ATOM    159  O   SER d   1     -26.618  82.711  24.118  0.00  0.00    -0.647 OA
ATOM    160  OXT SER d   1     -25.123  81.603  23.115  0.00  0.00    -0.647 OA
ENDBRANCH 155 158
ENDBRANCH 153 155
ENDBRANCH 149 151
BRANCH 149 161
ATOM    161  CB  SER d   1     -25.879  76.360  24.687  0.00  0.00    -0.033 C 
ATOM    162 3H10 SER d   1     -26.093  76.753  23.682  0.00  0.00     0.042 H 
BRANCH 161 163
ATOM    163  CG1 SER d   1     -24.366  76.201  24.823  0.00  0.00    -0.071 C 
ATOM    164 4H10 SER d   1     -24.003  75.490  24.067  0.00  0.00     0.028 H 
ATOM    165 5H10 SER d   1     -24.126  75.822  25.828  0.00  0.00     0.028 H 
ATOM    166 6H10 SER d   1     -23.880  77.176  24.673  0.00  0.00     0.028 H 
ENDBRANCH 161 163
BRANCH 161 167
ATOM    167  CG2 SER d   1     -26.563  75.006  24.835  0.00  0.00    -0.071 C 
ATOM    168 7H10 SER d   1     -27.651  75.132  24.735  0.00  0.00     0.028 H 
ATOM    169 8H10 SER d   1     -26.332  74.585  25.824  0.00  0.00     0.028 H 
ATOM    170 9H10 SER d   1     -26.200  74.324  24.052  0.00  0.00     0.028 H 
ENDBRANCH 161 167
ENDBRANCH 149 161
ENDBRANCH 147 149
ENDBRANCH 143 145
BRANCH 143 171
ATOM    171  CB  SER d   1     -30.239  79.839  25.852  0.00  0.00     0.044 C 
ATOM    172  H98 SER d   1     -30.133  80.196  26.887  0.00  0.00     0.077 H 
ATOM    173  H99 SER d   1     -31.225  80.132  25.463  0.00  0.00     0.077 H 
BRANCH 171 174
ATOM    174  OG  SER d   1     -29.231  80.432  25.052  0.00  0.00    -0.398 OA
ATOM    175 0H10 SER d   1     -29.322  81.377  25.079  0.00  0.00     0.209 HD
ENDBRANCH 171 174
ENDBRANCH 143 171
ENDBRANCH 141 143
ENDBRANCH 137 139
BRANCH 137 176
ATOM    176  CB  SER d   1     -33.250  75.102  27.144  0.00  0.00    -0.035 C 
ATOM    177  H87 SER d   1     -33.565  74.721  26.161  0.00  0.00     0.037 H 
ATOM    178  H88 SER d   1     -33.962  74.767  27.913  0.00  0.00     0.037 H 
BRANCH 176 179
ATOM    179  CG  SER d   1     -31.878  74.501  27.471  0.00  0.00    -0.059 C 
ATOM    180  H89 SER d   1     -31.168  74.842  26.703  0.00  0.00     0.038 H 
BRANCH 179 181
ATOM    181  CD1 SER d   1     -31.382  74.979  28.823  0.00  0.00    -0.073 C 
ATOM    182  H90 SER d   1     -30.398  74.533  29.031  0.00  0.00     0.028 H 
ATOM    183  H91 SER d   1     -32.095  74.675  29.604  0.00  0.00     0.028 H 
ATOM    184  H92 SER d   1     -31.293  76.075  28.814  0.00  0.00     0.028 H 
ENDBRANCH 179 181
BRANCH 179 185
ATOM    185  CD2 SER d   1     -31.913  72.983  27.443  0.00  0.00    -0.073 C 
ATOM    186  H93 SER d   1     -32.273  72.643  26.461  0.00  0.00     0.028 H 
ATOM    187  H94 SER d   1     -32.590  72.617  28.229  0.00  0.00     0.028 H 
ATOM    188  H95 SER d   1     -30.901  72.590  27.619  0.00  0.00     0.028 H 
ENDBRANCH 179 185
ENDBRANCH 176 179
ENDBRANCH 137 176
ENDBRANCH 135 137
ENDBRANCH 131 133
BRANCH 131 189
ATOM    189  CB  SER d   1     -36.807  79.824  27.063  0.00  0.00    -0.035 C 
ATOM    190  H76 SER d   1     -36.210  80.746  27.002  0.00  0.00     0.037 H 
ATOM    191  H77 SER d   1     -36.706  79.387  28.067  0.00  0.00     0.037 H 
BRANCH 189 192
ATOM    192  CG  SER d   1     -38.276  80.202  26.861  0.00  0.00    -0.059 C 
ATOM    193  H78 SER d   1     -38.878  79.288  26.974  0.00  0.00     0.038 H 
BRANCH 192 194
ATOM    194  CD1 SER d   1     -38.726  81.194  27.923  0.00  0.00    -0.073 C 
ATOM    195  H79 SER d   1     -39.783  81.452  27.760  0.00  0.00     0.028 H 
ATOM    196  H80 SER d   1     -38.112  82.105  27.858  0.00  0.00     0.028 H 
ATOM    197  H81 SER d   1     -38.608  80.743  28.919  0.00  0.00     0.028 H 
ENDBRANCH 192 194
BRANCH 192 198
ATOM    198  CD2 SER d   1     -38.523  80.752  25.463  0.00  0.00    -0.073 C 
ATOM    199  H82 SER d   1     -38.190  80.017  24.716  0.00  0.00     0.028 H 
ATOM    200  H83 SER d   1     -37.961  81.688  25.333  0.00  0.00     0.028 H 
ATOM    201  H84 SER d   1     -39.597  80.948  25.331  0.00  0.00     0.028 H 
ENDBRANCH 192 198
ENDBRANCH 189 192
ENDBRANCH 131 189
ENDBRANCH 129 131
ENDBRANCH 125 127
BRANCH 125 202
ATOM    202  CB  SER d   1     -39.759  76.616  24.081  0.00  0.00    -0.049 C 
ATOM    203  H71 SER d   1     -39.590  77.110  23.113  0.00  0.00     0.030 H 
ATOM    204  H72 SER d   1     -40.160  77.346  24.800  0.00  0.00     0.030 H 
ATOM    205  H73 SER d   1     -40.479  75.795  23.953  0.00  0.00     0.030 H 
ENDBRANCH 125 202
ENDBRANCH 123 125
ENDBRANCH 119 121
BRANCH 119 206
ATOM    206  CB  SER d   1     -38.669  72.763  27.637  0.00  0.00    -0.030 C 
ATOM    207  H62 SER d   1     -39.640  72.954  27.156  0.00  0.00     0.037 H 
ATOM    208  H63 SER d   1     -38.833  72.306  28.624  0.00  0.00     0.037 H 
BRANCH 206 209
ATOM    209  CG  SER d   1     -37.905  71.757  26.773  0.00  0.00    -0.021 C 
ATOM    210  H64 SER d   1     -37.540  72.279  25.876  0.00  0.00     0.049 H 
ATOM    211  H65 SER d   1     -38.601  70.959  26.475  0.00  0.00     0.049 H 
BRANCH 209 212
ATOM    212  SD  SER d   1     -36.493  70.998  27.602  0.00  0.00    -0.173 SA
BRANCH 212 213
ATOM    213  CE  SER d   1     -35.158  72.039  27.027  0.00  0.00    -0.035 C 
ATOM    214  H66 SER d   1     -34.209  71.690  27.460  0.00  0.00     0.041 H 
ATOM    215  H67 SER d   1     -35.343  73.078  27.338  0.00  0.00     0.041 H 
ATOM    216  H68 SER d   1     -35.101  71.990  25.930  0.00  0.00     0.041 H 
ENDBRANCH 212 213
ENDBRANCH 209 212
ENDBRANCH 206 209
ENDBRANCH 119 206
ENDBRANCH 117 119
ENDBRANCH 113 115
BRANCH 113 217
ATOM    217  CB  SER d   1     -39.242  76.700  31.403  0.00  0.00    -0.049 C 
ATOM    218  H57 SER d   1     -38.204  76.804  31.752  0.00  0.00     0.030 H 
ATOM    219  H58 SER d   1     -39.582  75.667  31.567  0.00  0.00     0.030 H 
ATOM    220  H59 SER d   1     -39.888  77.391  31.963  0.00  0.00     0.030 H 
ENDBRANCH 113 217
ENDBRANCH 111 113
ENDBRANCH   1 109
BRANCH   1 221
ATOM    221  CB  SER d   1     -43.356  78.035  28.482  0.00  0.00     0.044 C 
ATOM    222  H52 SER d   1     -42.952  79.048  28.341  0.00  0.00     0.077 H 
ATOM    223  H53 SER d   1     -43.375  77.793  29.555  0.00  0.00     0.077 H 
BRANCH 221 224
ATOM    224  OG  SER d   1     -44.678  77.989  27.974  0.00  0.00    -0.398 OA
ATOM    225  H54 SER d   1     -45.033  77.116  28.097  0.00  0.00     0.209 HD
ENDBRANCH 221 224
ENDBRANCH   1 221
TORSDOF 71
