REMARK WARNING: 32 MAX_TORS EXCEEDED!!!
REMARK  60 active torsions:
REMARK  status: ('A' for Active; 'I' for Inactive)
REMARK    1  A    between atoms: N_1  and  CA_2 
REMARK    2  A    between atoms: CA_2  and  C_3 
REMARK    3  A    between atoms: CA_2  and  CB_5 
REMARK       I    between atoms: C_3  and  N_8 
REMARK    4  A    between atoms: CB_5  and  CG1_6 
REMARK    5  A    between atoms: CB_5  and  CG2_7 
REMARK    6  A    between atoms: N_8  and  CA_9 
REMARK    7  A    between atoms: CA_9  and  C_10 
REMARK    8  A    between atoms: CA_9  and  CB_12 
REMARK       I    between atoms: C_10  and  N_16 
REMARK    9  A    between atoms: CB_12  and  CG_13 
REMARK   10  A    between atoms: N_16  and  CA_17 
REMARK   11  A    between atoms: CA_17  and  C_18 
REMARK   12  A    between atoms: CA_17  and  CB_20 
REMARK       I    between atoms: C_18  and  N_25 
REMARK   13  A    between atoms: CB_20  and  CG_21 
REMARK   14  A    between atoms: CG_21  and  CD_22 
REMARK       I    between atoms: CD_22  and  NE2_24 
REMARK   15  A    between atoms: N_25  and  CA_26 
REMARK   16  A    between atoms: CA_26  and  C_27 
REMARK   17  A    between atoms: CA_26  and  CB_29 
REMARK       I    between atoms: C_27  and  N_33 
REMARK   18  A    between atoms: CB_29  and  CG_30 
REMARK   19  A    between atoms: CG_30  and  CD1_31 
REMARK   20  A    between atoms: CG_30  and  CD2_32 
REMARK   21  A    between atoms: N_33  and  CA_34 
REMARK   22  A    between atoms: CA_34  and  C_35 
REMARK   23  A    between atoms: CA_34  and  CB_37 
REMARK       I    between atoms: C_35  and  N_44 
REMARK   24  A    between atoms: CB_37  and  CG_38 
REMARK   25  A    between atoms: CG_38  and  CD_39 
REMARK   26  A    between atoms: CD_39  and  NE_40 
REMARK       I    between atoms: NE_40  and  CZ_41 
REMARK       I    between atoms: CZ_41  and  NH1_42 
REMARK       I    between atoms: CZ_41  and  NH2_43 
REMARK   27  A    between atoms: N_44  and  CA_45 
REMARK   28  A    between atoms: CA_45  and  C_46 
REMARK   29  A    between atoms: CA_45  and  CB_48 
REMARK       I    between atoms: C_46  and  N_52 
REMARK   30  A    between atoms: CB_48  and  CG_49 
REMARK   31  A    between atoms: CG_49  and  CD1_50 
REMARK   32  A    between atoms: CG_49  and  CD2_51 
REMARK   33  A    between atoms: N_52  and  CA_53 
REMARK   34  A    between atoms: CA_53  and  C_54 
REMARK   35  A    between atoms: CA_53  and  CB_56 
REMARK       I    between atoms: C_54  and  N_61 
REMARK   36  A    between atoms: CB_56  and  CG_57 
REMARK   37  A    between atoms: CG_57  and  CD_58 
REMARK   38  A    between atoms: N_61  and  CA_62 
REMARK   39  A    between atoms: CA_62  and  C_63 
REMARK   40  A    between atoms: CA_62  and  CB_65 
REMARK       I    between atoms: C_63  and  N_72 
REMARK   41  A    between atoms: CB_65  and  CG_66 
REMARK   42  A    between atoms: CG_66  and  CD_67 
REMARK   43  A    between atoms: CD_67  and  NE_68 
REMARK       I    between atoms: NE_68  and  CZ_69 
REMARK       I    between atoms: CZ_69  and  NH1_70 
REMARK   44  A    between atoms: N_72  and  CA_73 
REMARK   45  A    between atoms: CA_73  and  C_74 
REMARK   46  A    between atoms: CA_73  and  CB_76 
REMARK       I    between atoms: C_74  and  N_80 
REMARK   47  A    between atoms: CB_76  and  CG_77 
REMARK   48  A    between atoms: CG_77  and  CD1_78 
REMARK   49  A    between atoms: CG_77  and  CD2_79 
REMARK   50  A    between atoms: N_80  and  CA_81 
REMARK   51  A    between atoms: CA_81  and  C_82 
REMARK   52  A    between atoms: CA_81  and  CB_84 
REMARK       I    between atoms: C_82  and  N_89 
REMARK   53  A    between atoms: CB_84  and  CG_85 
REMARK   54  A    between atoms: CG_85  and  CD_86 
REMARK       I    between atoms: CD_86  and  NE2_88 
REMARK   55  A    between atoms: N_89  and  CA_90 
REMARK   56  A    between atoms: CA_90  and  C_91 
REMARK   57  A    between atoms: CA_90  and  CB_93 
REMARK   58  A    between atoms: CB_93  and  CG1_94 
REMARK   59  A    between atoms: CB_93  and  CG2_95 
REMARK   60  A    between atoms: CG1_94  and  CD1_96 
ROOT
ATOM      1  CA  VAL d   1     -38.122  74.380  27.672  0.00  0.00     0.089 C 
ATOM      2  H49 VAL d   1     -37.353  74.559  28.438  0.00  0.00     0.087 H 
ENDROOT
BRANCH   1   3
ATOM      3  N   VAL d   1     -39.373  74.970  28.139  0.00  0.00    -0.346 N 
ATOM      4  C   VAL d   1     -39.397  76.213  28.625  0.00  0.00     0.241 C 
ATOM      5  O   VAL d   1     -38.398  76.931  28.662  0.00  0.00    -0.271 OA
ATOM      6  H48 VAL d   1     -40.219  74.439  28.094  0.00  0.00     0.163 HD
BRANCH   4   7
ATOM      7  CA  VAL d   1     -40.753  76.687  29.144  0.00  0.00     0.089 C 
ATOM      8  H36 VAL d   1     -41.513  76.483  28.375  0.00  0.00     0.087 H 
BRANCH   7   9
ATOM      9  N   VAL d   1     -41.081  75.929  30.342  0.00  0.00    -0.346 N 
ATOM     10  C   VAL d   1     -42.041  75.013  30.347  0.00  0.00     0.241 C 
ATOM     11  O   VAL d   1     -42.727  74.757  29.354  0.00  0.00    -0.271 OA
ATOM     12  H35 VAL d   1     -40.570  76.103  31.183  0.00  0.00     0.163 HD
BRANCH  10  13
ATOM     13  CA  VAL d   1     -42.273  74.285  31.662  0.00  0.00     0.089 C 
ATOM     14  H25 VAL d   1     -41.680  74.767  32.453  0.00  0.00     0.087 H 
BRANCH  13  15
ATOM     15  N   VAL d   1     -43.685  74.365  32.013  0.00  0.00    -0.346 N 
ATOM     16  C   VAL d   1     -44.322  75.537  32.016  0.00  0.00     0.241 C 
ATOM     17  O   VAL d   1     -43.717  76.614  31.968  0.00  0.00    -0.271 OA
ATOM     18  H24 VAL d   1     -44.182  73.532  32.254  0.00  0.00     0.163 HD
BRANCH  16  19
ATOM     19  CA  VAL d   1     -45.845  75.512  32.091  0.00  0.00     0.090 C 
ATOM     20  H17 VAL d   1     -46.226  76.441  31.642  0.00  0.00     0.087 H 
BRANCH  19  21
ATOM     21  N   VAL d   1     -46.384  74.385  31.339  0.00  0.00    -0.346 N 
ATOM     22  C   VAL d   1     -46.242  74.323  30.013  0.00  0.00     0.241 C 
ATOM     23  O   VAL d   1     -45.692  75.216  29.358  0.00  0.00    -0.271 OA
ATOM     24  H16 VAL d   1     -46.864  73.652  31.821  0.00  0.00     0.163 HD
BRANCH  22  25
ATOM     25  CA  VAL d   1     -46.776  73.088  29.301  0.00  0.00     0.098 C 
ATOM     26  H13 VAL d   1     -46.063  72.813  28.509  0.00  0.00     0.088 H 
BRANCH  25  27
ATOM     27  N   VAL d   1     -46.903  71.960  30.211  0.00  0.00    -0.345 N 
ATOM     28  C   VAL d   1     -45.836  71.506  30.871  0.00  0.00     0.249 C 
ATOM     29  O   VAL d   1     -44.703  71.958  30.708  0.00  0.00    -0.271 OA
ATOM     30  H12 VAL d   1     -47.793  71.523  30.342  0.00  0.00     0.163 HD
BRANCH  28  31
ATOM     31  CA  VAL d   1     -46.086  70.362  31.834  0.00  0.00     0.178 C 
ATOM     32  H4  VAL d   1     -45.208  70.256  32.488  0.00  0.00     0.099 H 
BRANCH  31  33
ATOM     33  N   VAL d   1     -47.245  70.657  32.669  0.00  0.00    -0.066 N 
ATOM     34  H1  VAL d   1     -47.092  71.522  33.163  0.00  0.00     0.275 HD
ATOM     35  H2  VAL d   1     -47.379  69.911  33.333  0.00  0.00     0.275 HD
ATOM     36  H3  VAL d   1     -48.065  70.742  32.088  0.00  0.00     0.275 HD
ENDBRANCH  31  33
BRANCH  31  37
ATOM     37  CB  VAL d   1     -46.270  69.051  31.060  0.00  0.00    -0.025 C 
ATOM     38  H5  VAL d   1     -47.072  69.192  30.320  0.00  0.00     0.042 H 
BRANCH  37  39
ATOM     39  CG1 VAL d   1     -44.986  68.687  30.312  0.00  0.00    -0.071 C 
ATOM     40  H6  VAL d   1     -45.136  67.746  29.763  0.00  0.00     0.028 H 
ATOM     41  H7  VAL d   1     -44.164  68.564  31.033  0.00  0.00     0.028 H 
ATOM     42  H8  VAL d   1     -44.735  69.489  29.602  0.00  0.00     0.028 H 
ENDBRANCH  37  39
BRANCH  37  43
ATOM     43  CG2 VAL d   1     -46.683  67.945  32.006  0.00  0.00    -0.071 C 
ATOM     44  H9  VAL d   1     -47.607  68.235  32.528  0.00  0.00     0.028 H 
ATOM     45  H10 VAL d   1     -45.884  67.775  32.742  0.00  0.00     0.028 H 
ATOM     46  H11 VAL d   1     -46.859  67.021  31.436  0.00  0.00     0.028 H 
ENDBRANCH  37  43
ENDBRANCH  31  37
ENDBRANCH  28  31
ENDBRANCH  25  27
BRANCH  25  47
ATOM     47  CB  VAL d   1     -48.127  73.392  28.653  0.00  0.00     0.043 C 
ATOM     48  H14 VAL d   1     -48.700  74.048  29.325  0.00  0.00     0.052 H 
ATOM     49  H15 VAL d   1     -48.671  72.446  28.512  0.00  0.00     0.052 H 
BRANCH  47  50
ATOM     50  CG  VAL d   1     -47.987  74.078  27.307  0.00  0.00     0.175 C 
ATOM     51  OD1 VAL d   1     -46.932  74.702  27.065  0.00  0.00    -0.648 OA
ATOM     52  OD2 VAL d   1     -48.930  73.991  26.492  0.00  0.00    -0.648 OA
ENDBRANCH  47  50
ENDBRANCH  25  47
ENDBRANCH  22  25
ENDBRANCH  19  21
BRANCH  19  53
ATOM     53  CB  VAL d   1     -46.320  75.451  33.544  0.00  0.00    -0.030 C 
ATOM     54  H18 VAL d   1     -46.035  76.392  34.037  0.00  0.00     0.037 H 
ATOM     55  H19 VAL d   1     -45.810  74.610  34.036  0.00  0.00     0.037 H 
BRANCH  53  56
ATOM     56  CG  VAL d   1     -47.832  75.260  33.717  0.00  0.00     0.011 C 
ATOM     57  H20 VAL d   1     -48.037  75.034  34.774  0.00  0.00     0.047 H 
ATOM     58  H21 VAL d   1     -48.151  74.412  33.093  0.00  0.00     0.047 H 
BRANCH  56  59
ATOM     59  CD  VAL d   1     -48.642  76.483  33.319  0.00  0.00     0.215 C 
ATOM     60  OE1 VAL d   1     -48.090  77.518  32.945  0.00  0.00    -0.274 OA
ATOM     61  NE2 VAL d   1     -49.964  76.367  33.402  0.00  0.00    -0.370 N 
ATOM     62  H22 VAL d   1     -50.550  77.138  33.154  0.00  0.00     0.159 HD
ATOM     63  H23 VAL d   1     -50.372  75.509  33.713  0.00  0.00     0.159 HD
ENDBRANCH  56  59
ENDBRANCH  53  56
ENDBRANCH  19  53
ENDBRANCH  16  19
ENDBRANCH  13  15
BRANCH  13  64
ATOM     64  CB  VAL d   1     -41.823  72.826  31.524  0.00  0.00    -0.035 C 
ATOM     65  H26 VAL d   1     -40.783  72.853  31.166  0.00  0.00     0.037 H 
ATOM     66  H27 VAL d   1     -42.465  72.374  30.753  0.00  0.00     0.037 H 
BRANCH  64  67
ATOM     67  CG  VAL d   1     -41.844  71.870  32.722  0.00  0.00    -0.059 C 
ATOM     68  H28 VAL d   1     -42.753  72.064  33.310  0.00  0.00     0.038 H 
BRANCH  67  69
ATOM     69  CD1 VAL d   1     -41.882  70.440  32.206  0.00  0.00    -0.073 C 
ATOM     70  H29 VAL d   1     -41.897  69.743  33.057  0.00  0.00     0.028 H 
ATOM     71  H30 VAL d   1     -40.990  70.248  31.591  0.00  0.00     0.028 H 
ATOM     72  H31 VAL d   1     -42.786  70.294  31.596  0.00  0.00     0.028 H 
ENDBRANCH  67  69
BRANCH  67  73
ATOM     73  CD2 VAL d   1     -40.634  72.063  33.628  0.00  0.00    -0.073 C 
ATOM     74  H32 VAL d   1     -40.614  73.099  33.997  0.00  0.00     0.028 H 
ATOM     75  H33 VAL d   1     -39.714  71.858  33.060  0.00  0.00     0.028 H 
ATOM     76  H34 VAL d   1     -40.700  71.371  34.481  0.00  0.00     0.028 H 
ENDBRANCH  67  73
ENDBRANCH  64  67
ENDBRANCH  13  64
ENDBRANCH  10  13
ENDBRANCH   7   9
BRANCH   7  77
ATOM     77  CB  VAL d   1     -40.763  78.201  29.441  0.00  0.00    -0.036 C 
ATOM     78  H37 VAL d   1     -40.654  78.736  28.486  0.00  0.00     0.036 H 
ATOM     79  H38 VAL d   1     -39.902  78.427  30.088  0.00  0.00     0.036 H 
BRANCH  77  80
ATOM     80  CG  VAL d   1     -42.033  78.725  30.138  0.00  0.00    -0.048 C 
ATOM     81  H39 VAL d   1     -41.907  79.800  30.334  0.00  0.00     0.035 H 
ATOM     82  H40 VAL d   1     -42.156  78.190  31.091  0.00  0.00     0.035 H 
BRANCH  80  83
ATOM     83  CD  VAL d   1     -43.299  78.526  29.299  0.00  0.00     0.009 C 
ATOM     84  H41 VAL d   1     -43.854  77.663  29.696  0.00  0.00     0.064 H 
ATOM     85  H42 VAL d   1     -43.005  78.326  28.258  0.00  0.00     0.064 H 
BRANCH  83  86
ATOM     86  NE  VAL d   1     -44.176  79.702  29.324  0.00  0.00    -0.227 N 
ATOM     87  CZ  VAL d   1     -45.235  79.859  30.118  0.00  0.00     0.665 C 
ATOM     88  NH1 VAL d   1     -45.954  80.974  30.046  0.00  0.00    -0.235 N 
ATOM     89  NH2 VAL d   1     -45.589  78.916  30.984  0.00  0.00    -0.235 N 
ATOM     90  H44 VAL d   1     -46.773  81.099  30.658  0.00  0.00     0.174 HD
ATOM     91  H45 VAL d   1     -45.692  81.713  29.378  0.00  0.00     0.174 HD
ATOM     92  H46 VAL d   1     -45.041  78.046  31.051  0.00  0.00     0.174 HD
ATOM     93  H47 VAL d   1     -46.411  79.054  31.588  0.00  0.00     0.174 HD
ATOM     94  H43 VAL d   1     -43.955  80.470  28.674  0.00  0.00     0.177 HD
ENDBRANCH  83  86
ENDBRANCH  80  83
ENDBRANCH  77  80
ENDBRANCH   7  77
ENDBRANCH   4   7
ENDBRANCH   1   3
BRANCH   1  95
ATOM     95  C   VAL d   1     -37.646  75.013  26.370  0.00  0.00     0.241 C 
ATOM     96  O   VAL d   1     -36.440  75.025  26.095  0.00  0.00    -0.271 OA
ATOM     97  N   VAL d   1     -38.568  75.538  25.556  0.00  0.00    -0.346 N 
ATOM     98  H59 VAL d   1     -39.537  75.460  25.790  0.00  0.00     0.163 HD
BRANCH  97  99
ATOM     99  CA  VAL d   1     -38.172  76.224  24.329  0.00  0.00     0.090 C 
ATOM    100  H60 VAL d   1     -37.633  75.502  23.698  0.00  0.00     0.087 H 
BRANCH  99 101
ATOM    101  C   VAL d   1     -37.243  77.398  24.602  0.00  0.00     0.241 C 
ATOM    102  O   VAL d   1     -36.507  77.812  23.700  0.00  0.00    -0.271 OA
ATOM    103  N   VAL d   1     -37.255  77.941  25.820  0.00  0.00    -0.346 N 
ATOM    104  H65 VAL d   1     -37.887  77.583  26.507  0.00  0.00     0.163 HD
BRANCH 103 105
ATOM    105  CA  VAL d   1     -36.370  79.043  26.174  0.00  0.00     0.089 C 
ATOM    106  H66 VAL d   1     -36.300  79.712  25.303  0.00  0.00     0.087 H 
BRANCH 105 107
ATOM    107  C   VAL d   1     -34.965  78.586  26.536  0.00  0.00     0.241 C 
ATOM    108  O   VAL d   1     -34.061  79.426  26.606  0.00  0.00    -0.271 OA
ATOM    109  N   VAL d   1     -34.763  77.294  26.790  0.00  0.00    -0.346 N 
ATOM    110  H78 VAL d   1     -35.533  76.657  26.754  0.00  0.00     0.163 HD
BRANCH 109 111
ATOM    111  CA  VAL d   1     -33.436  76.798  27.119  0.00  0.00     0.089 C 
ATOM    112  H79 VAL d   1     -33.149  77.185  28.108  0.00  0.00     0.087 H 
BRANCH 111 113
ATOM    113  C   VAL d   1     -32.426  77.285  26.091  0.00  0.00     0.241 C 
ATOM    114  O   VAL d   1     -32.634  77.147  24.883  0.00  0.00    -0.271 OA
ATOM    115  N   VAL d   1     -31.331  77.865  26.574  0.00  0.00    -0.346 N 
ATOM    116  H89 VAL d   1     -31.188  77.896  27.563  0.00  0.00     0.163 HD
BRANCH 115 117
ATOM    117  CA  VAL d   1     -30.338  78.455  25.693  0.00  0.00     0.090 C 
ATOM    118  H90 VAL d   1     -30.459  78.020  24.690  0.00  0.00     0.087 H 
BRANCH 117 119
ATOM    119  C   VAL d   1     -28.941  78.131  26.198  0.00  0.00     0.241 C 
ATOM    120  O   VAL d   1     -28.733  77.875  27.387  0.00  0.00    -0.271 OA
ATOM    121  N   VAL d   1     -27.988  78.140  25.272  0.00  0.00    -0.344 N 
ATOM    122  H97 VAL d   1     -28.242  78.328  24.323  0.00  0.00     0.163 HD
BRANCH 121 123
ATOM    123  CA  VAL d   1     -26.590  77.887  25.585  0.00  0.00     0.099 C 
ATOM    124  H98 VAL d   1     -26.492  77.745  26.671  0.00  0.00     0.090 H 
BRANCH 123 125
ATOM    125  C   VAL d   1     -25.765  79.105  25.180  0.00  0.00     0.197 C 
ATOM    126  O   VAL d   1     -25.402  79.932  26.017  0.00  0.00    -0.646 OA
ATOM    127  OXT VAL d   1     -25.451  79.295  24.003  0.00  0.00    -0.646 OA
ENDBRANCH 123 125
BRANCH 123 128
ATOM    128  CB  VAL d   1     -26.094  76.602  24.886  0.00  0.00    -0.029 C 
ATOM    129  H99 VAL d   1     -26.396  76.644  23.829  0.00  0.00     0.043 H 
BRANCH 128 130
ATOM    130  CG1 VAL d   1     -26.756  75.377  25.527  0.00  0.00    -0.063 C 
ATOM    131 0H10 VAL d   1     -27.847  75.496  25.448  0.00  0.00     0.033 H 
ATOM    132 1H10 VAL d   1     -26.466  75.346  26.588  0.00  0.00     0.033 H 
BRANCH 130 133
ATOM    133  CD1 VAL d   1     -26.377  74.049  24.894  0.00  0.00    -0.076 C 
ATOM    134 5H10 VAL d   1     -26.897  73.232  25.416  0.00  0.00     0.027 H 
ATOM    135 6H10 VAL d   1     -25.290  73.902  24.974  0.00  0.00     0.027 H 
ATOM    136 7H10 VAL d   1     -26.670  74.051  23.834  0.00  0.00     0.027 H 
ENDBRANCH 130 133
ENDBRANCH 128 130
BRANCH 128 137
ATOM    137  CG2 VAL d   1     -24.566  76.500  24.939  0.00  0.00    -0.070 C 
ATOM    138 2H10 VAL d   1     -24.123  77.392  24.472  0.00  0.00     0.028 H 
ATOM    139 3H10 VAL d   1     -24.239  75.601  24.395  0.00  0.00     0.028 H 
ATOM    140 4H10 VAL d   1     -24.239  76.434  25.987  0.00  0.00     0.028 H 
ENDBRANCH 128 137
ENDBRANCH 123 128
ENDBRANCH 121 123
ENDBRANCH 117 119
BRANCH 117 141
ATOM    141  CB  VAL d   1     -30.523  79.972  25.587  0.00  0.00    -0.030 C 
ATOM    142  H91 VAL d   1     -29.897  80.454  26.352  0.00  0.00     0.037 H 
ATOM    143  H92 VAL d   1     -31.580  80.209  25.776  0.00  0.00     0.037 H 
BRANCH 141 144
ATOM    144  CG  VAL d   1     -30.141  80.528  24.233  0.00  0.00     0.011 C 
ATOM    145  H93 VAL d   1     -30.637  79.930  23.454  0.00  0.00     0.047 H 
ATOM    146  H94 VAL d   1     -29.050  80.451  24.116  0.00  0.00     0.047 H 
BRANCH 144 147
ATOM    147  CD  VAL d   1     -30.545  81.974  24.063  0.00  0.00     0.215 C 
ATOM    148  OE1 VAL d   1     -31.085  82.593  24.981  0.00  0.00    -0.274 OA
ATOM    149  NE2 VAL d   1     -30.290  82.522  22.880  0.00  0.00    -0.370 N 
ATOM    150  H95 VAL d   1     -30.535  83.476  22.708  0.00  0.00     0.159 HD
ATOM    151  H96 VAL d   1     -29.853  81.980  22.162  0.00  0.00     0.159 HD
ENDBRANCH 144 147
ENDBRANCH 141 144
ENDBRANCH 117 141
ENDBRANCH 115 117
ENDBRANCH 111 113
BRANCH 111 152
ATOM    152  CB  VAL d   1     -33.443  75.268  27.174  0.00  0.00    -0.035 C 
ATOM    153  H80 VAL d   1     -33.758  74.894  26.189  0.00  0.00     0.037 H 
ATOM    154  H81 VAL d   1     -34.174  74.958  27.935  0.00  0.00     0.037 H 
BRANCH 152 155
ATOM    155  CG  VAL d   1     -32.098  74.622  27.518  0.00  0.00    -0.059 C 
ATOM    156  H82 VAL d   1     -31.383  74.878  26.723  0.00  0.00     0.038 H 
BRANCH 155 157
ATOM    157  CD1 VAL d   1     -31.558  75.153  28.833  0.00  0.00    -0.073 C 
ATOM    158  H83 VAL d   1     -30.593  74.672  29.054  0.00  0.00     0.028 H 
ATOM    159  H84 VAL d   1     -32.272  74.930  29.640  0.00  0.00     0.028 H 
ATOM    160  H85 VAL d   1     -31.417  76.241  28.759  0.00  0.00     0.028 H 
ENDBRANCH 155 157
BRANCH 155 161
ATOM    161  CD2 VAL d   1     -32.222  73.108  27.580  0.00  0.00    -0.073 C 
ATOM    162  H86 VAL d   1     -32.614  72.733  26.623  0.00  0.00     0.028 H 
ATOM    163  H87 VAL d   1     -32.909  72.829  28.392  0.00  0.00     0.028 H 
ATOM    164  H88 VAL d   1     -31.233  72.666  27.769  0.00  0.00     0.028 H 
ENDBRANCH 155 161
ENDBRANCH 152 155
ENDBRANCH 111 152
ENDBRANCH 109 111
ENDBRANCH 105 107
BRANCH 105 165
ATOM    165  CB  VAL d   1     -36.943  79.830  27.351  0.00  0.00    -0.036 C 
ATOM    166  H67 VAL d   1     -36.245  80.646  27.590  0.00  0.00     0.036 H 
ATOM    167  H68 VAL d   1     -37.021  79.150  28.212  0.00  0.00     0.036 H 
BRANCH 165 168
ATOM    168  CG  VAL d   1     -38.304  80.433  27.103  0.00  0.00    -0.048 C 
ATOM    169  H69 VAL d   1     -39.014  79.637  26.832  0.00  0.00     0.035 H 
ATOM    170  H70 VAL d   1     -38.238  81.161  26.281  0.00  0.00     0.035 H 
BRANCH 168 171
ATOM    171  CD  VAL d   1     -38.783  81.130  28.355  0.00  0.00     0.009 C 
ATOM    172  H71 VAL d   1     -38.132  81.996  28.547  0.00  0.00     0.064 H 
ATOM    173  H72 VAL d   1     -38.715  80.426  29.197  0.00  0.00     0.064 H 
BRANCH 171 174
ATOM    174  NE  VAL d   1     -40.159  81.597  28.249  0.00  0.00    -0.227 N 
ATOM    175  CZ  VAL d   1     -40.825  82.176  29.242  0.00  0.00     0.665 C 
ATOM    176  NH1 VAL d   1     -40.241  82.360  30.420  0.00  0.00    -0.235 N 
ATOM    177  NH2 VAL d   1     -42.078  82.572  29.060  0.00  0.00    -0.235 N 
ATOM    178  H74 VAL d   1     -40.760  82.809  31.188  0.00  0.00     0.174 HD
ATOM    179  H75 VAL d   1     -39.269  82.053  30.566  0.00  0.00     0.174 HD
ATOM    180  H76 VAL d   1     -42.535  82.431  28.148  0.00  0.00     0.174 HD
ATOM    181  H77 VAL d   1     -42.594  83.020  29.831  0.00  0.00     0.174 HD
ATOM    182  H73 VAL d   1     -40.645  81.471  27.350  0.00  0.00     0.177 HD
ENDBRANCH 171 174
ENDBRANCH 168 171
ENDBRANCH 165 168
ENDBRANCH 105 165
ENDBRANCH 103 105
ENDBRANCH  99 101
BRANCH  99 183
ATOM    183  CB  VAL d   1     -39.404  76.714  23.559  0.00  0.00    -0.029 C 
ATOM    184  H61 VAL d   1     -39.957  75.832  23.203  0.00  0.00     0.037 H 
ATOM    185  H62 VAL d   1     -39.056  77.301  22.696  0.00  0.00     0.037 H 
BRANCH 183 186
ATOM    186  CG  VAL d   1     -40.364  77.581  24.364  0.00  0.00     0.018 C 
ATOM    187  H63 VAL d   1     -40.933  78.214  23.667  0.00  0.00     0.049 H 
ATOM    188  H64 VAL d   1     -39.777  78.218  25.042  0.00  0.00     0.049 H 
BRANCH 186 189
ATOM    189  CD  VAL d   1     -41.343  76.769  25.190  0.00  0.00     0.172 C 
ATOM    190  OE1 VAL d   1     -41.791  75.702  24.716  0.00  0.00    -0.648 OA
ATOM    191  OE2 VAL d   1     -41.656  77.197  26.320  0.00  0.00    -0.648 OA
ENDBRANCH 186 189
ENDBRANCH 183 186
ENDBRANCH  99 183
ENDBRANCH  97  99
ENDBRANCH   1  95
BRANCH   1 192
ATOM    192  CB  VAL d   1     -38.288  72.870  27.498  0.00  0.00    -0.035 C 
ATOM    193  H50 VAL d   1     -39.003  72.703  26.679  0.00  0.00     0.037 H 
ATOM    194  H51 VAL d   1     -38.703  72.468  28.434  0.00  0.00     0.037 H 
BRANCH 192 195
ATOM    195  CG  VAL d   1     -37.014  72.084  27.175  0.00  0.00    -0.059 C 
ATOM    196  H52 VAL d   1     -36.148  72.704  27.451  0.00  0.00     0.038 H 
BRANCH 195 197
ATOM    197  CD1 VAL d   1     -36.957  70.795  27.980  0.00  0.00    -0.073 C 
ATOM    198  H53 VAL d   1     -36.035  70.248  27.732  0.00  0.00     0.028 H 
ATOM    199  H54 VAL d   1     -37.830  70.172  27.736  0.00  0.00     0.028 H 
ATOM    200  H55 VAL d   1     -36.965  71.033  29.054  0.00  0.00     0.028 H 
ENDBRANCH 195 197
BRANCH 195 201
ATOM    201  CD2 VAL d   1     -36.929  71.776  25.690  0.00  0.00    -0.073 C 
ATOM    202  H56 VAL d   1     -36.971  72.715  25.118  0.00  0.00     0.028 H 
ATOM    203  H57 VAL d   1     -37.772  71.132  25.400  0.00  0.00     0.028 H 
ATOM    204  H58 VAL d   1     -35.982  71.259  25.476  0.00  0.00     0.028 H 
ENDBRANCH 195 201
ENDBRANCH 192 195
ENDBRANCH   1 192
TORSDOF 60
