REMARK  11 active torsions:
REMARK  status: ('A' for Active; 'I' for Inactive)
REMARK    1  A    between atoms: C5_23  and  C8_3 
REMARK    2  A    between atoms: C8_3  and  S10_25 
REMARK    3  A    between atoms: C11_22  and  C2_7 
REMARK    4  A    between atoms: C21_11  and  C1_8 
REMARK    5  A    between atoms: C21_11  and  C22_12 
REMARK    6  A    between atoms: N18_15  and  C21_11 
REMARK    7  A    between atoms: C22_12  and  C17_13 
REMARK    8  A    between atoms: C22_12  and  C9_14 
REMARK    9  A    between atoms: S17_16  and  N18_15 
REMARK   10  A    between atoms: S17_16  and  C14_19 
REMARK   11  A    between atoms: S10_25  and  C28_26 
ROOT
ATOM      1  C7  8OM d   1      -6.202   0.597  19.130  0.00  0.00    -0.072 A 
ATOM      2  C6  8OM d   1      -5.542   0.235  20.296  0.00  0.00    -0.075 A 
ATOM      3  C4  8OM d   1      -5.656   2.514  21.065  0.00  0.00    -0.075 A 
ATOM      4  C2  8OM d   1      -6.617   1.920  18.914  0.00  0.00    -0.026 A 
ATOM      5  C5  8OM d   1      -5.264   1.193  21.260  0.00  0.00    -0.048 A 
ATOM      6  C3  8OM d   1      -6.328   2.873  19.891  0.00  0.00    -0.072 A 
ATOM      7  H5  8OM d   1      -6.400  -0.154  18.374  0.00  0.00     0.084 H 
ATOM      8  H6  8OM d   1      -5.244  -0.795  20.453  0.00  0.00     0.084 H 
ATOM      9  H7  8OM d   1      -5.442   3.262  21.820  0.00  0.00     0.084 H 
ATOM     10  H19 8OM d   1      -6.628   3.904  19.739  0.00  0.00     0.084 H 
ENDROOT
BRANCH   4  11
ATOM     11  C11 8OM d   1      -7.313   2.261  17.629  0.00  0.00    -0.026 A 
ATOM     12  C12 8OM d   1      -7.122   3.491  17.007  0.00  0.00    -0.071 A 
ATOM     13  C13 8OM d   1      -7.766   3.793  15.799  0.00  0.00    -0.059 A 
ATOM     14  H1  8OM d   1      -6.467   4.225  17.462  0.00  0.00     0.084 H 
ATOM     15  C14 8OM d   1      -8.605   2.870  15.173  0.00  0.00     0.079 A 
ATOM     16  H2  8OM d   1      -7.609   4.763  15.342  0.00  0.00     0.085 H 
ATOM     17  C15 8OM d   1      -8.790   1.632  15.796  0.00  0.00    -0.059 A 
ATOM     18  C16 8OM d   1      -8.163   1.335  17.005  0.00  0.00    -0.071 A 
ATOM     19  H17 8OM d   1      -9.431   0.891  15.332  0.00  0.00     0.085 H 
ATOM     20  H18 8OM d   1      -8.335   0.372  17.471  0.00  0.00     0.084 H 
BRANCH  15  21
ATOM     21  S17 8OM d   1      -9.315   3.211  13.756  0.00  0.00     0.259 S 
ATOM     22  O19 8OM d   1     -10.049   2.049  13.301  0.00  0.00    -0.201 OA
ATOM     23  O20 8OM d   1     -10.199   4.345  13.885  0.00  0.00    -0.201 OA
BRANCH  21  24
ATOM     24  N18 8OM d   1      -8.136   3.633  12.721  0.00  0.00    -0.300 N 
ATOM     25  H16 8OM d   1      -8.088   4.546  12.317  0.00  0.00     0.173 HD
BRANCH  24  26
ATOM     26  C21 8OM d   1      -7.132   2.581  12.410  0.00  0.00     0.106 C 
ATOM     27  H8  8OM d   1      -7.600   1.596  12.553  0.00  0.00     0.091 H 
BRANCH  26  28
ATOM     28  C1  8OM d   1      -5.907   2.675  13.298  0.00  0.00     0.197 C 
ATOM     29  O2  8OM d   1      -5.427   1.621  13.791  0.00  0.00    -0.646 OA
ATOM     30  O1  8OM d   1      -5.395   3.793  13.500  0.00  0.00    -0.646 OA
ENDBRANCH  26  28
BRANCH  26  31
ATOM     31  C22 8OM d   1      -6.681   2.725  10.949  0.00  0.00    -0.031 C 
ATOM     32  H9  8OM d   1      -6.295   3.746  10.815  0.00  0.00     0.042 H 
BRANCH  31  33
ATOM     33  C17 8OM d   1      -5.570   1.725  10.647  0.00  0.00    -0.071 C 
ATOM     34  H10 8OM d   1      -5.253   1.835   9.599  0.00  0.00     0.028 H 
ATOM     35  H11 8OM d   1      -5.942   0.703  10.813  0.00  0.00     0.028 H 
ATOM     36  H12 8OM d   1      -4.714   1.916  11.311  0.00  0.00     0.028 H 
ENDBRANCH  31  33
BRANCH  31  37
ATOM     37  C9  8OM d   1      -7.791   2.493   9.927  0.00  0.00    -0.071 C 
ATOM     38  H13 8OM d   1      -8.614   3.199  10.113  0.00  0.00     0.028 H 
ATOM     39  H14 8OM d   1      -8.164   1.462  10.018  0.00  0.00     0.028 H 
ATOM     40  H15 8OM d   1      -7.395   2.651   8.913  0.00  0.00     0.028 H 
ENDBRANCH  31  37
ENDBRANCH  26  31
ENDBRANCH  24  26
ENDBRANCH  21  24
ENDBRANCH  15  21
ENDBRANCH   4  11
BRANCH   5  41
ATOM     41  C8  8OM d   1      -4.559   0.774  22.521  0.00  0.00     0.008 C 
ATOM     42  H3  8OM d   1      -3.808   1.533  22.786  0.00  0.00     0.056 H 
ATOM     43  H4  8OM d   1      -4.060  -0.192  22.354  0.00  0.00     0.056 H 
BRANCH  41  44
ATOM     44  S10 8OM d   1      -5.716   0.610  23.848  0.00  0.00    -0.087 SA
BRANCH  44  45
ATOM     45  C28 8OM d   1      -4.810   0.127  25.214  0.00  0.00     0.169 A 
ATOM     46  N31 8OM d   1      -3.499  -0.195  25.056  0.00  0.00    -0.228 NA
ATOM     47  C34 8OM d   1      -2.764  -0.573  26.125  0.00  0.00     0.049 A 
ATOM     48  C37 8OM d   1      -1.310  -0.966  26.184  0.00  0.00    -0.024 C 
ATOM     49  C33 8OM d   1      -3.362  -0.621  27.441  0.00  0.00     0.035 A 
ATOM     50  C36 8OM d   1      -1.050  -1.146  27.688  0.00  0.00    -0.056 C 
ATOM     51  H20 8OM d   1      -0.671  -0.174  25.766  0.00  0.00     0.042 H 
ATOM     52  H21 8OM d   1      -1.134  -1.905  25.639  0.00  0.00     0.042 H 
ATOM     53  C35 8OM d   1      -2.370  -1.047  28.479  0.00  0.00    -0.034 C 
ATOM     54  H22 8OM d   1      -0.361  -0.361  28.033  0.00  0.00     0.034 H 
ATOM     55  H23 8OM d   1      -0.597  -2.133  27.862  0.00  0.00     0.034 H 
ATOM     56  H24 8OM d   1      -2.293  -0.299  29.282  0.00  0.00     0.040 H 
ATOM     57  H25 8OM d   1      -2.645  -2.021  28.911  0.00  0.00     0.040 H 
ATOM     58  C32 8OM d   1      -4.783  -0.262  27.573  0.00  0.00     0.255 A 
ATOM     59  N29 8OM d   1      -5.421   0.087  26.430  0.00  0.00    -0.302 N 
ATOM     60  O38 8OM d   1      -5.373  -0.276  28.676  0.00  0.00    -0.268 OA
ATOM     61  H26 8OM d   1      -6.390   0.328  26.482  0.00  0.00     0.171 HD
ENDBRANCH  44  45
ENDBRANCH  41  44
ENDBRANCH   5  41
TORSDOF 11
