REMARK  11 active torsions:
REMARK  status: ('A' for Active; 'I' for Inactive)
REMARK    1  A    between atoms: C1_1  and  N1_2 
REMARK       I    between atoms: N1_2  and  C2_3 
REMARK    2  A    between atoms: C2_3  and  C4_5 
REMARK    3  A    between atoms: C4_5  and  C5_6 
REMARK    4  A    between atoms: C4_5  and  N8_9 
REMARK    5  A    between atoms: C5_6  and  C6_7 
REMARK    6  A    between atoms: C5_6  and  C7_8 
REMARK       I    between atoms: N8_9  and  C9_10 
REMARK    7  A    between atoms: C9_10  and  C11_12 
REMARK    8  A    between atoms: C14_15  and  C16_17 
REMARK    9  A    between atoms: C19_20  and  C22_23 
REMARK   10  A    between atoms: C22_23  and  S23_24 
REMARK   11  A    between atoms: S23_24  and  C24_25 
ROOT
ATOM      1  C11 8OJ d   1      53.581 -23.087  13.725  0.00  0.00     0.143 A 
ATOM      2  C12 8OJ d   1      53.452 -22.126  12.751  0.00  0.00    -0.042 A 
ATOM      3  C13 8OJ d   1      52.098 -21.791  12.743  0.00  0.00    -0.047 A 
ATOM      4  C14 8OJ d   1      51.462 -22.573  13.703  0.00  0.00     0.086 A 
ATOM      5  O15 8OJ d   1      52.379 -23.388  14.276  0.00  0.00    -0.304 OA
ATOM      6  H14 8OJ d   1      54.239 -21.714  12.120  0.00  0.00     0.088 H 
ATOM      7  H15 8OJ d   1      51.623 -21.050  12.101  0.00  0.00     0.087 H 
ENDROOT
BRANCH   4   8
ATOM      8  C16 8OJ d   1      50.040 -22.631  14.086  0.00  0.00    -0.002 A 
ATOM      9  C17 8OJ d   1      49.705 -22.852  15.422  0.00  0.00    -0.070 A 
ATOM     10  C18 8OJ d   1      48.373 -22.933  15.774  0.00  0.00    -0.075 A 
ATOM     11  H16 8OJ d   1      50.480 -22.959  16.173  0.00  0.00     0.084 H 
ATOM     12  C19 8OJ d   1      47.409 -22.792  14.790  0.00  0.00    -0.048 A 
ATOM     13  H17 8OJ d   1      48.086 -23.104  16.805  0.00  0.00     0.084 H 
ATOM     14  C20 8OJ d   1      47.751 -22.570  13.460  0.00  0.00    -0.075 A 
ATOM     15  C21 8OJ d   1      49.076 -22.496  13.109  0.00  0.00    -0.070 A 
ATOM     16  H18 8OJ d   1      46.979 -22.456  12.708  0.00  0.00     0.084 H 
ATOM     17  H19 8OJ d   1      49.361 -22.333  12.076  0.00  0.00     0.084 H 
BRANCH  12  18
ATOM     18  C22 8OJ d   1      45.945 -22.881  15.142  0.00  0.00     0.008 C 
ATOM     19  H20 8OJ d   1      45.377 -22.129  14.575  0.00  0.00     0.056 H 
ATOM     20  H21 8OJ d   1      45.807 -22.709  16.220  0.00  0.00     0.056 H 
BRANCH  18  21
ATOM     21  S23 8OJ d   1      45.389 -24.502  14.716  0.00  0.00    -0.085 SA
BRANCH  21  22
ATOM     22  C24 8OJ d   1      43.710 -24.475  15.050  0.00  0.00     0.191 A 
ATOM     23  N25 8OJ d   1      43.149 -23.350  15.569  0.00  0.00    -0.231 NA
ATOM     24  C26 8OJ d   1      41.814 -23.329  15.774  0.00  0.00     0.028 A 
ATOM     25  C27 8OJ d   1      41.043 -24.423  15.490  0.00  0.00     0.064 A 
ATOM     26  C38 8OJ d   1      40.982 -22.202  16.338  0.00  0.00    -0.027 A 
ATOM     27  C28 8OJ d   1      41.625 -25.561  14.980  0.00  0.00     0.255 A 
ATOM     28  C36 8OJ d   1      39.593 -24.203  15.816  0.00  0.00    -0.048 A 
ATOM     29  H22 8OJ d   1      40.869 -24.078  14.460  0.00  0.00     0.064 H 
ATOM     30  N29 8OJ d   1      42.921 -25.544  14.779  0.00  0.00    -0.187 NA
ATOM     31  O39 8OJ d   1      41.012 -26.602  14.689  0.00  0.00    -0.270 OA
ATOM     32  C37 8OJ d   1      39.553 -22.786  16.402  0.00  0.00    -0.059 A 
ATOM     33  H23 8OJ d   1      39.242 -24.940  16.553  0.00  0.00     0.034 H 
ATOM     34  H24 8OJ d   1      38.974 -24.268  14.909  0.00  0.00     0.034 H 
ATOM     35  H25 8OJ d   1      39.212 -22.824  17.447  0.00  0.00     0.033 H 
ATOM     36  H26 8OJ d   1      38.867 -22.158  15.815  0.00  0.00     0.033 H 
ATOM     37  H27 8OJ d   1      41.016 -21.323  15.678  0.00  0.00     0.042 H 
ATOM     38  H28 8OJ d   1      41.334 -21.920  17.341  0.00  0.00     0.042 H 
ENDBRANCH  21  22
ENDBRANCH  18  21
ENDBRANCH  12  18
ENDBRANCH   4   8
BRANCH   1  39
ATOM     39  C9  8OJ d   1      54.662 -23.929  14.288  0.00  0.00     0.276 C 
ATOM     40  N8  8OJ d   1      54.344 -24.649  15.384  0.00  0.00    -0.342 N 
ATOM     41  H13 8OJ d   1      53.582 -24.328  15.947  0.00  0.00     0.163 HD
ATOM     42  O10 8OJ d   1      55.719 -23.982  13.687  0.00  0.00    -0.265 OA
BRANCH  40  43
ATOM     43  C4  8OJ d   1      55.029 -25.853  15.801  0.00  0.00     0.092 C 
ATOM     44  H5  8OJ d   1      55.978 -25.930  15.251  0.00  0.00     0.088 H 
BRANCH  43  45
ATOM     45  C2  8OJ d   1      54.172 -27.054  15.476  0.00  0.00     0.240 C 
ATOM     46  N1  8OJ d   1      54.732 -28.004  14.713  0.00  0.00    -0.364 N 
ATOM     47  H4  8OJ d   1      55.708 -27.938  14.505  0.00  0.00     0.161 HD
ATOM     48  O3  8OJ d   1      52.997 -27.106  15.861  0.00  0.00    -0.271 OA
BRANCH  46  49
ATOM     49  C1  8OJ d   1      53.975 -29.132  14.173  0.00  0.00    -0.018 C 
ATOM     50  H1  8OJ d   1      54.645 -29.774  13.582  0.00  0.00     0.056 H 
ATOM     51  H2  8OJ d   1      53.166 -28.756  13.530  0.00  0.00     0.056 H 
ATOM     52  H3  8OJ d   1      53.545 -29.715  15.001  0.00  0.00     0.056 H 
ENDBRANCH  46  49
ENDBRANCH  43  45
BRANCH  43  53
ATOM     53  C5  8OJ d   1      55.328 -25.817  17.277  0.00  0.00    -0.033 C 
ATOM     54  H6  8OJ d   1      54.384 -25.780  17.840  0.00  0.00     0.042 H 
BRANCH  53  55
ATOM     55  C6  8OJ d   1      56.140 -24.566  17.576  0.00  0.00    -0.071 C 
ATOM     56  H7  8OJ d   1      56.367 -24.525  18.651  0.00  0.00     0.028 H 
ATOM     57  H8  8OJ d   1      55.561 -23.676  17.289  0.00  0.00     0.028 H 
ATOM     58  H9  8OJ d   1      57.079 -24.593  17.004  0.00  0.00     0.028 H 
ENDBRANCH  53  55
BRANCH  53  59
ATOM     59  C7  8OJ d   1      56.093 -27.059  17.679  0.00  0.00    -0.071 C 
ATOM     60  H10 8OJ d   1      55.489 -27.950  17.455  0.00  0.00     0.028 H 
ATOM     61  H11 8OJ d   1      56.309 -27.024  18.757  0.00  0.00     0.028 H 
ATOM     62  H12 8OJ d   1      57.038 -27.105  17.117  0.00  0.00     0.028 H 
ENDBRANCH  53  59
ENDBRANCH  43  53
ENDBRANCH  40  43
ENDBRANCH   1  39
TORSDOF 11
