REMARK  11 active torsions:
REMARK  status: ('A' for Active; 'I' for Inactive)
REMARK       I    between atoms: C3_2  and  N5_3 
REMARK    1  A    between atoms: C3_2  and  C4_5 
REMARK    2  A    between atoms: N5_3  and  C6_4 
REMARK    3  A    between atoms: C4_5  and  C7_6 
REMARK    4  A    between atoms: C4_5  and  N8_9 
REMARK    5  A    between atoms: C7_6  and  C10_7 
REMARK    6  A    between atoms: C7_6  and  C8_8 
REMARK       I    between atoms: N8_9  and  C9_10 
REMARK    7  A    between atoms: C9_10  and  C11_12 
REMARK    8  A    between atoms: C14_14  and  C16_17 
REMARK    9  A    between atoms: C19_20  and  C22_23 
REMARK   10  A    between atoms: C22_23  and  S23_24 
REMARK   11  A    between atoms: S23_24  and  C24_25 
ROOT
ATOM      1  C11 8OA d   1     -44.145 132.047  -5.786  0.00  0.00     0.143 A 
ATOM      2  O15 8OA d   1     -42.964 132.721  -5.611  0.00  0.00    -0.304 OA
ATOM      3  C14 8OA d   1     -42.307 132.056  -4.609  0.00  0.00     0.086 A 
ATOM      4  C13 8OA d   1     -43.071 130.955  -4.213  0.00  0.00    -0.047 A 
ATOM      5  C12 8OA d   1     -44.239 130.947  -4.960  0.00  0.00    -0.042 A 
ATOM      6  H14 8OA d   1     -42.796 130.229  -3.450  0.00  0.00     0.087 H 
ATOM      7  H15 8OA d   1     -45.054 130.227  -4.906  0.00  0.00     0.088 H 
ENDROOT
BRANCH   3   8
ATOM      8  C16 8OA d   1     -40.970 132.474  -4.125  0.00  0.00    -0.002 A 
ATOM      9  C21 8OA d   1     -40.622 133.814  -4.193  0.00  0.00    -0.070 A 
ATOM     10  C20 8OA d   1     -39.370 134.220  -3.775  0.00  0.00    -0.075 A 
ATOM     11  H16 8OA d   1     -41.331 134.541  -4.573  0.00  0.00     0.084 H 
ATOM     12  C19 8OA d   1     -38.454 133.291  -3.314  0.00  0.00    -0.048 A 
ATOM     13  H17 8OA d   1     -39.104 135.270  -3.808  0.00  0.00     0.084 H 
ATOM     14  C18 8OA d   1     -38.788 131.948  -3.269  0.00  0.00    -0.075 A 
ATOM     15  C17 8OA d   1     -40.046 131.534  -3.686  0.00  0.00    -0.070 A 
ATOM     16  H18 8OA d   1     -38.069 131.221  -2.909  0.00  0.00     0.084 H 
ATOM     17  H19 8OA d   1     -40.306 130.482  -3.669  0.00  0.00     0.084 H 
BRANCH  12  18
ATOM     18  C22 8OA d   1     -37.085 133.758  -2.874  0.00  0.00     0.008 C 
ATOM     19  H20 8OA d   1     -36.773 133.202  -1.977  0.00  0.00     0.056 H 
ATOM     20  H21 8OA d   1     -37.115 134.834  -2.647  0.00  0.00     0.056 H 
BRANCH  18  21
ATOM     21  S23 8OA d   1     -35.941 133.457  -4.191  0.00  0.00    -0.087 SA
BRANCH  21  22
ATOM     22  C24 8OA d   1     -34.377 133.514  -3.507  0.00  0.00     0.169 A 
ATOM     23  N29 8OA d   1     -33.310 133.258  -4.266  0.00  0.00    -0.302 N 
ATOM     24  C28 8OA d   1     -32.073 133.254  -3.791  0.00  0.00     0.255 A 
ATOM     25  H28 8OA d   1     -33.450 133.060  -5.236  0.00  0.00     0.171 HD
ATOM     26  O39 8OA d   1     -31.140 132.988  -4.572  0.00  0.00    -0.268 OA
ATOM     27  C27 8OA d   1     -31.897 133.552  -2.461  0.00  0.00     0.035 A 
ATOM     28  C36 8OA d   1     -30.612 133.630  -1.689  0.00  0.00    -0.034 A 
ATOM     29  C26 8OA d   1     -32.974 133.841  -1.684  0.00  0.00     0.049 A 
ATOM     30  C37 8OA d   1     -31.061 134.014  -0.273  0.00  0.00    -0.056 A 
ATOM     31  H22 8OA d   1     -29.947 134.398  -2.111  0.00  0.00     0.040 H 
ATOM     32  H23 8OA d   1     -30.096 132.659  -1.687  0.00  0.00     0.040 H 
ATOM     33  C38 8OA d   1     -32.593 134.140  -0.259  0.00  0.00    -0.024 A 
ATOM     34  H24 8OA d   1     -30.608 134.975   0.011  0.00  0.00     0.034 H 
ATOM     35  H25 8OA d   1     -30.747 133.236   0.439  0.00  0.00     0.034 H 
ATOM     36  H26 8OA d   1     -32.903 135.156   0.028  0.00  0.00     0.042 H 
ATOM     37  H27 8OA d   1     -33.043 133.411   0.431  0.00  0.00     0.042 H 
ATOM     38  N25 8OA d   1     -34.220 133.811  -2.194  0.00  0.00    -0.228 NA
ENDBRANCH  21  22
ENDBRANCH  18  21
ENDBRANCH  12  18
ENDBRANCH   3   8
BRANCH   1  39
ATOM     39  C9  8OA d   1     -44.979 132.596  -6.875  0.00  0.00     0.276 C 
ATOM     40  N8  8OA d   1     -44.558 133.721  -7.452  0.00  0.00    -0.342 N 
ATOM     41  H13 8OA d   1     -43.824 134.251  -7.028  0.00  0.00     0.163 HD
ATOM     42  O10 8OA d   1     -45.954 131.961  -7.263  0.00  0.00    -0.265 OA
BRANCH  40  43
ATOM     43  C4  8OA d   1     -45.155 134.182  -8.689  0.00  0.00     0.092 C 
ATOM     44  H5  8OA d   1     -45.306 133.303  -9.333  0.00  0.00     0.088 H 
BRANCH  43  45
ATOM     45  C3  8OA d   1     -46.505 134.835  -8.509  0.00  0.00     0.240 C 
ATOM     46  O4  8OA d   1     -47.247 134.917  -9.468  0.00  0.00    -0.271 OA
ATOM     47  N5  8OA d   1     -46.856 135.280  -7.307  0.00  0.00    -0.364 N 
ATOM     48  H1  8OA d   1     -46.193 135.227  -6.560  0.00  0.00     0.161 HD
BRANCH  47  49
ATOM     49  C6  8OA d   1     -48.173 135.843  -7.039  0.00  0.00    -0.018 C 
ATOM     50  H2  8OA d   1     -48.236 136.142  -5.982  0.00  0.00     0.056 H 
ATOM     51  H3  8OA d   1     -48.945 135.089  -7.253  0.00  0.00     0.056 H 
ATOM     52  H4  8OA d   1     -48.333 136.723  -7.679  0.00  0.00     0.056 H 
ENDBRANCH  47  49
ENDBRANCH  43  45
BRANCH  43  53
ATOM     53  C7  8OA d   1     -44.166 135.119  -9.388  0.00  0.00    -0.033 C 
ATOM     54  H6  8OA d   1     -43.194 134.604  -9.416  0.00  0.00     0.042 H 
BRANCH  53  55
ATOM     55  C10 8OA d   1     -43.977 136.431  -8.634  0.00  0.00    -0.071 C 
ATOM     56  H7  8OA d   1     -43.260 137.065  -9.176  0.00  0.00     0.028 H 
ATOM     57  H8  8OA d   1     -43.592 136.222  -7.625  0.00  0.00     0.028 H 
ATOM     58  H9  8OA d   1     -44.943 136.952  -8.557  0.00  0.00     0.028 H 
ENDBRANCH  53  55
BRANCH  53  59
ATOM     59  C8  8OA d   1     -44.574 135.423 -10.826  0.00  0.00    -0.071 C 
ATOM     60  H10 8OA d   1     -44.712 134.480 -11.375  0.00  0.00     0.028 H 
ATOM     61  H11 8OA d   1     -43.787 136.019 -11.312  0.00  0.00     0.028 H 
ATOM     62  H12 8OA d   1     -45.517 135.989 -10.828  0.00  0.00     0.028 H 
ENDBRANCH  53  59
ENDBRANCH  43  53
ENDBRANCH  40  43
ENDBRANCH   1  39
TORSDOF 11
