REMARK  9 active torsions:
REMARK  status: ('A' for Active; 'I' for Inactive)
REMARK    1  A    between atoms: C1_1  and  N1_2 
REMARK    2  A    between atoms: C1_1  and  C2_3 
REMARK    3  A    between atoms: C2_3  and  N3_4 
REMARK    4  A    between atoms: N3_4  and  S4_5 
REMARK    5  A    between atoms: S4_5  and  C7_8 
REMARK    6  A    between atoms: C10_11  and  C13_14 
REMARK    7  A    between atoms: C16_17  and  C19_20 
REMARK    8  A    between atoms: C19_20  and  S20_21 
REMARK    9  A    between atoms: S20_21  and  C21_22 
ROOT
ATOM      1  C13 8O7 d   1       5.451 -11.205  27.527  0.00  0.00    -0.026 A 
ATOM      2  C14 8O7 d   1       6.299 -10.102  27.514  0.00  0.00    -0.072 A 
ATOM      3  C15 8O7 d   1       7.644 -10.236  27.863  0.00  0.00    -0.075 A 
ATOM      4  C16 8O7 d   1       8.194 -11.465  28.218  0.00  0.00    -0.048 A 
ATOM      5  C17 8O7 d   1       7.346 -12.570  28.234  0.00  0.00    -0.075 A 
ATOM      6  C18 8O7 d   1       5.991 -12.445  27.891  0.00  0.00    -0.072 A 
ATOM      7  H13 8O7 d   1       5.912  -9.130  27.230  0.00  0.00     0.084 H 
ATOM      8  H14 8O7 d   1       8.279  -9.357  27.858  0.00  0.00     0.084 H 
ATOM      9  H15 8O7 d   1       7.738 -13.540  28.515  0.00  0.00     0.084 H 
ATOM     10  H16 8O7 d   1       5.353 -13.321  27.908  0.00  0.00     0.084 H 
ENDROOT
BRANCH   1  11
ATOM     11  C10 8O7 d   1       4.013 -11.040  27.132  0.00  0.00    -0.026 A 
ATOM     12  C9  8O7 d   1       3.669  -9.994  26.297  0.00  0.00    -0.071 A 
ATOM     13  C8  8O7 d   1       2.360  -9.792  25.875  0.00  0.00    -0.059 A 
ATOM     14  H10 8O7 d   1       4.442  -9.312  25.962  0.00  0.00     0.084 H 
ATOM     15  C7  8O7 d   1       1.345 -10.646  26.272  0.00  0.00     0.079 A 
ATOM     16  H9  8O7 d   1       2.131  -8.954  25.226  0.00  0.00     0.085 H 
ATOM     17  C12 8O7 d   1       1.688 -11.708  27.105  0.00  0.00    -0.059 A 
ATOM     18  C11 8O7 d   1       3.007 -11.910  27.528  0.00  0.00    -0.071 A 
ATOM     19  H12 8O7 d   1       0.916 -12.394  27.433  0.00  0.00     0.085 H 
ATOM     20  H11 8O7 d   1       3.244 -12.751  28.169  0.00  0.00     0.084 H 
BRANCH  15  21
ATOM     21  S4  8O7 d   1      -0.162 -10.374  25.767  0.00  0.00     0.258 S 
ATOM     22  O5  8O7 d   1      -0.133 -10.363  24.352  0.00  0.00    -0.201 OA
ATOM     23  O6  8O7 d   1      -1.051 -11.434  26.124  0.00  0.00    -0.201 OA
BRANCH  21  24
ATOM     24  N3  8O7 d   1      -0.721  -8.931  26.268  0.00  0.00    -0.314 N 
ATOM     25  H8  8O7 d   1      -0.628  -8.082  25.748  0.00  0.00     0.172 HD
BRANCH  24  26
ATOM     26  C2  8O7 d   1      -1.383  -9.029  27.586  0.00  0.00     0.025 C 
ATOM     27  H6  8O7 d   1      -2.320  -9.594  27.477  0.00  0.00     0.067 H 
ATOM     28  H7  8O7 d   1      -0.717  -9.555  28.285  0.00  0.00     0.067 H 
BRANCH  26  29
ATOM     29  C1  8O7 d   1      -1.699  -7.635  28.145  0.00  0.00     0.095 C 
ATOM     30  H1  8O7 d   1      -0.755  -7.089  28.288  0.00  0.00     0.077 H 
ATOM     31  H2  8O7 d   1      -2.327  -7.098  27.419  0.00  0.00     0.077 H 
BRANCH  29  32
ATOM     32  N1  8O7 d   1      -2.424  -7.696  29.459  0.00  0.00    -0.078 N 
ATOM     33  H3  8O7 d   1      -2.609  -6.760  29.785  0.00  0.00     0.274 HD
ATOM     34  H4  8O7 d   1      -1.854  -8.181  30.135  0.00  0.00     0.274 HD
ATOM     35  H5  8O7 d   1      -3.296  -8.188  29.339  0.00  0.00     0.274 HD
ENDBRANCH  29  32
ENDBRANCH  26  29
ENDBRANCH  24  26
ENDBRANCH  21  24
ENDBRANCH  15  21
ENDBRANCH   1  11
BRANCH   4  36
ATOM     36  C19 8O7 d   1       9.673 -11.602  28.589  0.00  0.00     0.008 C 
ATOM     37  H17 8O7 d   1       9.887 -12.672  28.726  0.00  0.00     0.056 H 
ATOM     38  H18 8O7 d   1       9.832 -11.071  29.539  0.00  0.00     0.056 H 
BRANCH  36  39
ATOM     39  S20 8O7 d   1      10.850 -10.955  27.396  0.00  0.00    -0.085 SA
BRANCH  39  40
ATOM     40  C21 8O7 d   1      12.483 -11.285  27.813  0.00  0.00     0.191 A 
ATOM     41  N22 8O7 d   1      12.966 -10.928  29.042  0.00  0.00    -0.231 NA
ATOM     42  C23 8O7 d   1      14.247 -11.209  29.375  0.00  0.00     0.028 A 
ATOM     43  C24 8O7 d   1      15.118 -11.878  28.437  0.00  0.00     0.064 A 
ATOM     44  C30 8O7 d   1      14.981 -10.921  30.656  0.00  0.00    -0.027 C 
ATOM     45  C25 8O7 d   1      14.560 -12.237  27.124  0.00  0.00     0.255 A 
ATOM     46  C28 8O7 d   1      16.494 -12.093  28.986  0.00  0.00    -0.048 C 
ATOM     47  H19 8O7 d   1      14.823 -12.872  28.805  0.00  0.00     0.064 H 
ATOM     48  N26 8O7 d   1      13.270 -11.911  26.900  0.00  0.00    -0.187 NA
ATOM     49  O27 8O7 d   1      15.256 -12.819  26.261  0.00  0.00    -0.270 OA
ATOM     50  C29 8O7 d   1      16.343 -11.603  30.437  0.00  0.00    -0.059 C 
ATOM     51  H20 8O7 d   1      17.240 -11.497  28.439  0.00  0.00     0.034 H 
ATOM     52  H21 8O7 d   1      16.776 -13.156  28.951  0.00  0.00     0.034 H 
ATOM     53  H22 8O7 d   1      17.144 -10.883  30.657  0.00  0.00     0.033 H 
ATOM     54  H23 8O7 d   1      16.427 -12.464  31.117  0.00  0.00     0.033 H 
ATOM     55  H24 8O7 d   1      14.456 -11.356  31.519  0.00  0.00     0.042 H 
ATOM     56  H25 8O7 d   1      15.101  -9.838  30.808  0.00  0.00     0.042 H 
ENDBRANCH  39  40
ENDBRANCH  36  39
ENDBRANCH   4  36
TORSDOF 9
