REMARK WARNING: 32 MAX_TORS EXCEEDED!!!
REMARK  55 active torsions:
REMARK  status: ('A' for Active; 'I' for Inactive)
REMARK    1  A    between atoms: N_1  and  CA_2 
REMARK    2  A    between atoms: CA_2  and  C_3 
REMARK    3  A    between atoms: CA_2  and  CB_5 
REMARK       I    between atoms: C_3  and  N_8 
REMARK    4  A    between atoms: CB_5  and  CG1_6 
REMARK    5  A    between atoms: CB_5  and  CG2_7 
REMARK    6  A    between atoms: N_8  and  CA_9 
REMARK    7  A    between atoms: CA_9  and  C_10 
REMARK    8  A    between atoms: CA_9  and  CB_12 
REMARK       I    between atoms: C_10  and  N_17 
REMARK    9  A    between atoms: CB_12  and  CG_13 
REMARK   10  A    between atoms: CG_13  and  CD_14 
REMARK   11  A    between atoms: N_17  and  CA_18 
REMARK   12  A    between atoms: CA_18  and  C_19 
REMARK   13  A    between atoms: CA_18  and  CB_21 
REMARK       I    between atoms: C_19  and  N_22 
REMARK   14  A    between atoms: N_22  and  CA_23 
REMARK   15  A    between atoms: CA_23  and  C_24 
REMARK   16  A    between atoms: CA_23  and  CB_26 
REMARK       I    between atoms: C_24  and  N_30 
REMARK   17  A    between atoms: CB_26  and  CG_27 
REMARK   18  A    between atoms: CG_27  and  CD1_28 
REMARK   19  A    between atoms: CG_27  and  CD2_29 
REMARK   20  A    between atoms: N_30  and  CA_31 
REMARK   21  A    between atoms: CA_31  and  C_32 
REMARK   22  A    between atoms: CA_31  and  CB_34 
REMARK       I    between atoms: C_32  and  N_38 
REMARK   23  A    between atoms: CB_34  and  CG_35 
REMARK   24  A    between atoms: CG_35  and  CD1_36 
REMARK   25  A    between atoms: CG_35  and  CD2_37 
REMARK   26  A    between atoms: N_38  and  CA_39 
REMARK   27  A    between atoms: CA_39  and  C_40 
REMARK   28  A    between atoms: CA_39  and  CB_42 
REMARK       I    between atoms: C_40  and  N_43 
REMARK   29  A    between atoms: N_43  and  CA_44 
REMARK   30  A    between atoms: CA_44  and  C_45 
REMARK   31  A    between atoms: CA_44  and  CB_47 
REMARK       I    between atoms: C_45  and  N_54 
REMARK   32  A    between atoms: CB_47  and  CG_48 
REMARK   33  A    between atoms: CG_48  and  CD_49 
REMARK   34  A    between atoms: CD_49  and  NE_50 
REMARK       I    between atoms: NE_50  and  CZ_51 
REMARK       I    between atoms: CZ_51  and  NH1_52 
REMARK       I    between atoms: CZ_51  and  NH2_53 
REMARK   35  A    between atoms: N_54  and  CA_55 
REMARK   36  A    between atoms: CA_55  and  C_56 
REMARK   37  A    between atoms: CA_55  and  CB_58 
REMARK       I    between atoms: C_56  and  N_62 
REMARK   38  A    between atoms: CB_58  and  CG_59 
REMARK   39  A    between atoms: CG_59  and  CD1_60 
REMARK   40  A    between atoms: CG_59  and  CD2_61 
REMARK   41  A    between atoms: N_62  and  CA_63 
REMARK   42  A    between atoms: CA_63  and  C_64 
REMARK   43  A    between atoms: CA_63  and  CB_66 
REMARK       I    between atoms: C_64  and  N_73 
REMARK   44  A    between atoms: CB_66  and  CG_67 
REMARK   45  A    between atoms: CG_67  and  CD_68 
REMARK   46  A    between atoms: CD_68  and  NE_69 
REMARK       I    between atoms: NE_69  and  CZ_70 
REMARK       I    between atoms: CZ_70  and  NH1_71 
REMARK   47  A    between atoms: N_73  and  CA_74 
REMARK   48  A    between atoms: CA_74  and  C_75 
REMARK   49  A    between atoms: CA_74  and  CB_77 
REMARK       I    between atoms: C_75  and  N_78 
REMARK   50  A    between atoms: N_78  and  CA_79 
REMARK   51  A    between atoms: CA_79  and  C_80 
REMARK   52  A    between atoms: CA_79  and  CB_82 
REMARK   53  A    between atoms: CB_82  and  CG_83 
REMARK   54  A    between atoms: CG_83  and  CD1_84 
REMARK   55  A    between atoms: CG_83  and  CD2_85 
ROOT
ATOM      1  CA  VAL d   1     -38.877  77.684  29.334  0.00  0.00     0.089 C 
ATOM      2  H51 VAL d   1     -38.484  78.711  29.308  0.00  0.00     0.087 H 
ENDROOT
BRANCH   1   3
ATOM      3  N   VAL d   1     -40.212  77.684  28.744  0.00  0.00    -0.346 N 
ATOM      4  C   VAL d   1     -40.403  78.116  27.495  0.00  0.00     0.240 C 
ATOM      5  O   VAL d   1     -39.483  78.582  26.813  0.00  0.00    -0.271 OA
ATOM      6  H50 VAL d   1     -40.991  77.358  29.280  0.00  0.00     0.163 HD
BRANCH   4   7
ATOM      7  CA  VAL d   1     -41.817  78.017  26.936  0.00  0.00     0.086 C 
ATOM      8  H46 VAL d   1     -41.767  78.157  25.846  0.00  0.00     0.086 H 
BRANCH   7   9
ATOM      9  N   VAL d   1     -42.395  76.706  27.206  0.00  0.00    -0.346 N 
ATOM     10  C   VAL d   1     -41.797  75.598  26.766  0.00  0.00     0.241 C 
ATOM     11  O   VAL d   1     -40.734  75.631  26.135  0.00  0.00    -0.271 OA
ATOM     12  H45 VAL d   1     -43.247  76.637  27.725  0.00  0.00     0.163 HD
BRANCH  10  13
ATOM     13  CA  VAL d   1     -42.476  74.272  27.082  0.00  0.00     0.089 C 
ATOM     14  H35 VAL d   1     -41.790  73.459  26.802  0.00  0.00     0.087 H 
BRANCH  13  15
ATOM     15  N   VAL d   1     -42.768  74.157  28.507  0.00  0.00    -0.346 N 
ATOM     16  C   VAL d   1     -41.812  74.354  29.419  0.00  0.00     0.241 C 
ATOM     17  O   VAL d   1     -40.667  74.704  29.112  0.00  0.00    -0.271 OA
ATOM     18  H34 VAL d   1     -43.695  73.928  28.804  0.00  0.00     0.163 HD
BRANCH  16  19
ATOM     19  CA  VAL d   1     -42.180  74.120  30.878  0.00  0.00     0.089 C 
ATOM     20  H24 VAL d   1     -41.468  74.673  31.509  0.00  0.00     0.087 H 
BRANCH  19  21
ATOM     21  N   VAL d   1     -43.525  74.605  31.170  0.00  0.00    -0.346 N 
ATOM     22  C   VAL d   1     -43.776  75.916  31.222  0.00  0.00     0.240 C 
ATOM     23  O   VAL d   1     -42.888  76.765  31.087  0.00  0.00    -0.271 OA
ATOM     24  H23 VAL d   1     -44.264  73.951  31.332  0.00  0.00     0.163 HD
BRANCH  22  25
ATOM     25  CA  VAL d   1     -45.219  76.347  31.452  0.00  0.00     0.086 C 
ATOM     26  H19 VAL d   1     -45.401  77.262  30.870  0.00  0.00     0.086 H 
BRANCH  25  27
ATOM     27  N   VAL d   1     -46.154  75.324  30.999  0.00  0.00    -0.346 N 
ATOM     28  C   VAL d   1     -46.226  75.008  29.704  0.00  0.00     0.241 C 
ATOM     29  O   VAL d   1     -45.566  75.599  28.842  0.00  0.00    -0.271 OA
ATOM     30  H18 VAL d   1     -46.742  74.858  31.660  0.00  0.00     0.163 HD
BRANCH  28  31
ATOM     31  CA  VAL d   1     -47.169  73.885  29.295  0.00  0.00     0.090 C 
ATOM     32  H13 VAL d   1     -46.721  73.355  28.442  0.00  0.00     0.087 H 
BRANCH  31  33
ATOM     33  N   VAL d   1     -47.370  72.920  30.370  0.00  0.00    -0.346 N 
ATOM     34  C   VAL d   1     -46.435  72.006  30.646  0.00  0.00     0.249 C 
ATOM     35  O   VAL d   1     -45.348  71.963  30.067  0.00  0.00    -0.271 OA
ATOM     36  H12 VAL d   1     -48.215  72.942  30.905  0.00  0.00     0.163 HD
BRANCH  34  37
ATOM     37  CA  VAL d   1     -46.775  70.994  31.736  0.00  0.00     0.178 C 
ATOM     38  H4  VAL d   1     -45.837  70.541  32.089  0.00  0.00     0.099 H 
BRANCH  37  39
ATOM     39  N   VAL d   1     -47.412  71.655  32.869  0.00  0.00    -0.066 N 
ATOM     40  H1  VAL d   1     -46.807  72.383  33.217  0.00  0.00     0.275 HD
ATOM     41  H2  VAL d   1     -47.581  70.981  33.599  0.00  0.00     0.275 HD
ATOM     42  H3  VAL d   1     -48.288  72.058  32.574  0.00  0.00     0.275 HD
ENDBRANCH  37  39
BRANCH  37  43
ATOM     43  CB  VAL d   1     -47.666  69.869  31.168  0.00  0.00    -0.025 C 
ATOM     44  H5  VAL d   1     -47.223  69.523  30.222  0.00  0.00     0.042 H 
BRANCH  43  45
ATOM     45  CG1 VAL d   1     -47.716  68.693  32.130  0.00  0.00    -0.071 C 
ATOM     46  H6  VAL d   1     -48.354  67.902  31.709  0.00  0.00     0.028 H 
ATOM     47  H7  VAL d   1     -48.130  69.025  33.093  0.00  0.00     0.028 H 
ATOM     48  H8  VAL d   1     -46.700  68.301  32.283  0.00  0.00     0.028 H 
ENDBRANCH  43  45
BRANCH  43  49
ATOM     49  CG2 VAL d   1     -49.076  70.385  30.876  0.00  0.00    -0.071 C 
ATOM     50  H9  VAL d   1     -49.019  71.234  30.179  0.00  0.00     0.028 H 
ATOM     51  H10 VAL d   1     -49.548  70.712  31.814  0.00  0.00     0.028 H 
ATOM     52  H11 VAL d   1     -49.675  69.580  30.424  0.00  0.00     0.028 H 
ENDBRANCH  43  49
ENDBRANCH  37  43
ENDBRANCH  34  37
ENDBRANCH  31  33
BRANCH  31  53
ATOM     53  CB  VAL d   1     -48.508  74.473  28.851  0.00  0.00    -0.029 C 
ATOM     54  H14 VAL d   1     -48.915  75.075  29.677  0.00  0.00     0.037 H 
ATOM     55  H15 VAL d   1     -49.196  73.644  28.628  0.00  0.00     0.037 H 
BRANCH  53  56
ATOM     56  CG  VAL d   1     -48.405  75.359  27.614  0.00  0.00     0.018 C 
ATOM     57  H16 VAL d   1     -48.113  74.734  26.757  0.00  0.00     0.049 H 
ATOM     58  H17 VAL d   1     -47.633  76.122  27.791  0.00  0.00     0.049 H 
BRANCH  56  59
ATOM     59  CD  VAL d   1     -49.708  76.058  27.281  0.00  0.00     0.172 C 
ATOM     60  OE1 VAL d   1     -50.709  75.820  27.989  0.00  0.00    -0.648 OA
ATOM     61  OE2 VAL d   1     -49.729  76.850  26.314  0.00  0.00    -0.648 OA
ENDBRANCH  56  59
ENDBRANCH  53  56
ENDBRANCH  31  53
ENDBRANCH  28  31
ENDBRANCH  25  27
BRANCH  25  62
ATOM     62  CB  VAL d   1     -45.458  76.660  32.929  0.00  0.00    -0.049 C 
ATOM     63  H20 VAL d   1     -44.748  77.432  33.260  0.00  0.00     0.030 H 
ATOM     64  H21 VAL d   1     -45.312  75.748  33.526  0.00  0.00     0.030 H 
ATOM     65  H22 VAL d   1     -46.487  77.026  33.065  0.00  0.00     0.030 H 
ENDBRANCH  25  62
ENDBRANCH  22  25
ENDBRANCH  19  21
BRANCH  19  66
ATOM     66  CB  VAL d   1     -42.072  72.631  31.209  0.00  0.00    -0.035 C 
ATOM     67  H25 VAL d   1     -41.139  72.263  30.758  0.00  0.00     0.037 H 
ATOM     68  H26 VAL d   1     -42.930  72.129  30.738  0.00  0.00     0.037 H 
BRANCH  66  69
ATOM     69  CG  VAL d   1     -42.057  72.220  32.682  0.00  0.00    -0.059 C 
ATOM     70  H27 VAL d   1     -42.997  72.552  33.147  0.00  0.00     0.038 H 
BRANCH  69  71
ATOM     71  CD1 VAL d   1     -41.971  70.707  32.784  0.00  0.00    -0.073 C 
ATOM     72  H28 VAL d   1     -41.960  70.411  33.843  0.00  0.00     0.028 H 
ATOM     73  H29 VAL d   1     -41.049  70.358  32.297  0.00  0.00     0.028 H 
ATOM     74  H30 VAL d   1     -42.842  70.256  32.286  0.00  0.00     0.028 H 
ENDBRANCH  69  71
BRANCH  69  75
ATOM     75  CD2 VAL d   1     -40.900  72.868  33.427  0.00  0.00    -0.073 C 
ATOM     76  H31 VAL d   1     -40.977  73.962  33.343  0.00  0.00     0.028 H 
ATOM     77  H32 VAL d   1     -39.948  72.533  32.989  0.00  0.00     0.028 H 
ATOM     78  H33 VAL d   1     -40.938  72.578  34.487  0.00  0.00     0.028 H 
ENDBRANCH  69  75
ENDBRANCH  66  69
ENDBRANCH  19  66
ENDBRANCH  16  19
ENDBRANCH  13  15
BRANCH  13  79
ATOM     79  CB  VAL d   1     -43.764  74.120  26.271  0.00  0.00    -0.035 C 
ATOM     80  H36 VAL d   1     -43.491  74.113  25.206  0.00  0.00     0.037 H 
ATOM     81  H37 VAL d   1     -44.398  74.994  26.481  0.00  0.00     0.037 H 
BRANCH  79  82
ATOM     82  CG  VAL d   1     -44.595  72.863  26.548  0.00  0.00    -0.059 C 
ATOM     83  H38 VAL d   1     -45.030  72.959  27.554  0.00  0.00     0.038 H 
BRANCH  82  84
ATOM     84  CD1 VAL d   1     -45.737  72.753  25.545  0.00  0.00    -0.073 C 
ATOM     85  H39 VAL d   1     -46.324  71.847  25.756  0.00  0.00     0.028 H 
ATOM     86  H40 VAL d   1     -45.326  72.695  24.526  0.00  0.00     0.028 H 
ATOM     87  H41 VAL d   1     -46.385  73.638  25.629  0.00  0.00     0.028 H 
ENDBRANCH  82  84
BRANCH  82  88
ATOM     88  CD2 VAL d   1     -43.737  71.603  26.528  0.00  0.00    -0.073 C 
ATOM     89  H42 VAL d   1     -42.920  71.704  27.258  0.00  0.00     0.028 H 
ATOM     90  H43 VAL d   1     -43.314  71.463  25.522  0.00  0.00     0.028 H 
ATOM     91  H44 VAL d   1     -44.357  70.733  26.790  0.00  0.00     0.028 H 
ENDBRANCH  82  88
ENDBRANCH  79  82
ENDBRANCH  13  79
ENDBRANCH  10  13
ENDBRANCH   7   9
BRANCH   7  92
ATOM     92  CB  VAL d   1     -42.708  79.111  27.524  0.00  0.00    -0.049 C 
ATOM     93  H47 VAL d   1     -42.265  80.096  27.316  0.00  0.00     0.030 H 
ATOM     94  H48 VAL d   1     -42.793  78.970  28.611  0.00  0.00     0.030 H 
ATOM     95  H49 VAL d   1     -43.707  79.055  27.068  0.00  0.00     0.030 H 
ENDBRANCH   7  92
ENDBRANCH   4   7
ENDBRANCH   1   3
BRANCH   1  96
ATOM     96  C   VAL d   1     -37.933  76.786  28.545  0.00  0.00     0.241 C 
ATOM     97  O   VAL d   1     -36.744  77.093  28.399  0.00  0.00    -0.271 OA
ATOM     98  N   VAL d   1     -38.448  75.667  28.031  0.00  0.00    -0.346 N 
ATOM     99  H63 VAL d   1     -39.417  75.461  28.168  0.00  0.00     0.163 HD
BRANCH  98 100
ATOM    100  CA  VAL d   1     -37.614  74.741  27.272  0.00  0.00     0.089 C 
ATOM    101  H64 VAL d   1     -36.771  74.432  27.907  0.00  0.00     0.087 H 
BRANCH 100 102
ATOM    102  C   VAL d   1     -37.052  75.404  26.019  0.00  0.00     0.241 C 
ATOM    103  O   VAL d   1     -35.887  75.192  25.666  0.00  0.00    -0.271 OA
ATOM    104  N   VAL d   1     -37.861  76.224  25.344  0.00  0.00    -0.346 N 
ATOM    105  H74 VAL d   1     -38.750  76.471  25.730  0.00  0.00     0.163 HD
BRANCH 104 106
ATOM    106  CA  VAL d   1     -37.461  76.763  24.048  0.00  0.00     0.089 C 
ATOM    107  H75 VAL d   1     -37.036  75.941  23.453  0.00  0.00     0.087 H 
BRANCH 106 108
ATOM    108  C   VAL d   1     -36.401  77.851  24.175  0.00  0.00     0.241 C 
ATOM    109  O   VAL d   1     -35.620  78.058  23.239  0.00  0.00    -0.271 OA
ATOM    110  N   VAL d   1     -36.355  78.553  25.307  0.00  0.00    -0.346 N 
ATOM    111  H87 VAL d   1     -36.979  78.320  26.053  0.00  0.00     0.163 HD
BRANCH 110 112
ATOM    112  CA  VAL d   1     -35.415  79.654  25.482  0.00  0.00     0.086 C 
ATOM    113  H88 VAL d   1     -35.376  80.214  24.536  0.00  0.00     0.086 H 
BRANCH 112 114
ATOM    114  C   VAL d   1     -34.000  79.191  25.809  0.00  0.00     0.240 C 
ATOM    115  O   VAL d   1     -33.097  80.031  25.885  0.00  0.00    -0.271 OA
ATOM    116  N   VAL d   1     -33.782  77.894  26.002  0.00  0.00    -0.345 N 
ATOM    117  H92 VAL d   1     -34.550  77.257  25.942  0.00  0.00     0.163 HD
BRANCH 116 118
ATOM    118  CA  VAL d   1     -32.450  77.376  26.300  0.00  0.00     0.096 C 
ATOM    119  H93 VAL d   1     -32.117  77.809  27.255  0.00  0.00     0.089 H 
BRANCH 118 120
ATOM    120  C   VAL d   1     -31.444  77.765  25.221  0.00  0.00     0.196 C 
ATOM    121  O   VAL d   1     -31.736  77.702  24.026  0.00  0.00    -0.646 OA
ATOM    122  OXT VAL d   1     -30.311  78.145  25.520  0.00  0.00    -0.646 OA
ENDBRANCH 118 120
BRANCH 118 123
ATOM    123  CB  VAL d   1     -32.496  75.854  26.445  0.00  0.00    -0.034 C 
ATOM    124  H94 VAL d   1     -31.478  75.469  26.287  0.00  0.00     0.037 H 
ATOM    125  H95 VAL d   1     -33.162  75.461  25.663  0.00  0.00     0.037 H 
BRANCH 123 126
ATOM    126  CG  VAL d   1     -32.992  75.326  27.791  0.00  0.00    -0.059 C 
ATOM    127  H96 VAL d   1     -33.777  75.999  28.165  0.00  0.00     0.038 H 
BRANCH 126 128
ATOM    128  CD1 VAL d   1     -33.580  73.938  27.634  0.00  0.00    -0.073 C 
ATOM    129  H97 VAL d   1     -33.931  73.576  28.612  0.00  0.00     0.028 H 
ATOM    130  H98 VAL d   1     -32.810  73.255  27.245  0.00  0.00     0.028 H 
ATOM    131  H99 VAL d   1     -34.426  73.975  26.932  0.00  0.00     0.028 H 
ENDBRANCH 126 128
BRANCH 126 132
ATOM    132  CD2 VAL d   1     -31.856  75.304  28.790  0.00  0.00    -0.073 C 
ATOM    133 0H10 VAL d   1     -31.439  76.317  28.894  0.00  0.00     0.028 H 
ATOM    134 1H10 VAL d   1     -31.071  74.619  28.438  0.00  0.00     0.028 H 
ATOM    135 2H10 VAL d   1     -32.232  74.960  29.765  0.00  0.00     0.028 H 
ENDBRANCH 126 132
ENDBRANCH 123 126
ENDBRANCH 118 123
ENDBRANCH 116 118
ENDBRANCH 112 114
BRANCH 112 136
ATOM    136  CB  VAL d   1     -35.909  80.596  26.583  0.00  0.00    -0.049 C 
ATOM    137  H89 VAL d   1     -35.194  81.422  26.707  0.00  0.00     0.030 H 
ATOM    138  H90 VAL d   1     -35.996  80.041  27.529  0.00  0.00     0.030 H 
ATOM    139  H91 VAL d   1     -36.893  81.002  26.304  0.00  0.00     0.030 H 
ENDBRANCH 112 136
ENDBRANCH 110 112
ENDBRANCH 106 108
BRANCH 106 140
ATOM    140  CB  VAL d   1     -38.681  77.311  23.316  0.00  0.00    -0.036 C 
ATOM    141  H76 VAL d   1     -38.353  77.702  22.341  0.00  0.00     0.036 H 
ATOM    142  H77 VAL d   1     -39.105  78.130  23.915  0.00  0.00     0.036 H 
BRANCH 140 143
ATOM    143  CG  VAL d   1     -39.769  76.283  23.076  0.00  0.00    -0.048 C 
ATOM    144  H78 VAL d   1     -40.133  75.912  24.046  0.00  0.00     0.035 H 
ATOM    145  H79 VAL d   1     -39.351  75.446  22.497  0.00  0.00     0.035 H 
BRANCH 143 146
ATOM    146  CD  VAL d   1     -40.932  76.887  22.307  0.00  0.00     0.009 C 
ATOM    147  H80 VAL d   1     -40.555  77.302  21.361  0.00  0.00     0.064 H 
ATOM    148  H81 VAL d   1     -41.377  77.692  22.910  0.00  0.00     0.064 H 
BRANCH 146 149
ATOM    149  NE  VAL d   1     -41.964  75.893  22.010  0.00  0.00    -0.227 N 
ATOM    150  CZ  VAL d   1     -43.149  75.811  22.610  0.00  0.00     0.665 C 
ATOM    151  NH1 VAL d   1     -43.501  76.673  23.558  0.00  0.00    -0.235 N 
ATOM    152  NH2 VAL d   1     -44.000  74.859  22.249  0.00  0.00    -0.235 N 
ATOM    153  H83 VAL d   1     -44.423  76.593  24.011  0.00  0.00     0.174 HD
ATOM    154  H84 VAL d   1     -42.852  77.421  23.840  0.00  0.00     0.174 HD
ATOM    155  H85 VAL d   1     -43.738  74.185  21.515  0.00  0.00     0.174 HD
ATOM    156  H86 VAL d   1     -44.922  74.794  22.703  0.00  0.00     0.174 HD
ATOM    157  H82 VAL d   1     -41.756  75.200  21.277  0.00  0.00     0.177 HD
ENDBRANCH 146 149
ENDBRANCH 143 146
ENDBRANCH 140 143
ENDBRANCH 106 140
ENDBRANCH 104 106
ENDBRANCH 100 102
BRANCH 100 158
ATOM    158  CB  VAL d   1     -38.425  73.498  26.899  0.00  0.00    -0.035 C 
ATOM    159  H65 VAL d   1     -38.508  73.473  25.802  0.00  0.00     0.037 H 
ATOM    160  H66 VAL d   1     -39.426  73.611  27.340  0.00  0.00     0.037 H 
BRANCH 158 161
ATOM    161  CG  VAL d   1     -37.873  72.144  27.350  0.00  0.00    -0.059 C 
ATOM    162  H67 VAL d   1     -37.710  72.182  28.437  0.00  0.00     0.038 H 
BRANCH 161 163
ATOM    163  CD1 VAL d   1     -38.875  71.041  27.053  0.00  0.00    -0.073 C 
ATOM    164  H68 VAL d   1     -38.465  70.075  27.382  0.00  0.00     0.028 H 
ATOM    165  H69 VAL d   1     -39.072  71.006  25.971  0.00  0.00     0.028 H 
ATOM    166  H70 VAL d   1     -39.813  71.243  27.590  0.00  0.00     0.028 H 
ENDBRANCH 161 163
BRANCH 161 167
ATOM    167  CD2 VAL d   1     -36.543  71.848  26.678  0.00  0.00    -0.073 C 
ATOM    168  H71 VAL d   1     -35.831  72.655  26.903  0.00  0.00     0.028 H 
ATOM    169  H72 VAL d   1     -36.689  71.781  25.590  0.00  0.00     0.028 H 
ATOM    170  H73 VAL d   1     -36.146  70.894  27.054  0.00  0.00     0.028 H 
ENDBRANCH 161 167
ENDBRANCH 158 161
ENDBRANCH 100 158
ENDBRANCH  98 100
ENDBRANCH   1  96
BRANCH   1 171
ATOM    171  CB  VAL d   1     -38.950  77.226  30.791  0.00  0.00    -0.036 C 
ATOM    172  H52 VAL d   1     -37.940  77.288  31.223  0.00  0.00     0.036 H 
ATOM    173  H53 VAL d   1     -39.291  76.180  30.806  0.00  0.00     0.036 H 
BRANCH 171 174
ATOM    174  CG  VAL d   1     -39.890  78.046  31.660  0.00  0.00    -0.048 C 
ATOM    175  H54 VAL d   1     -40.548  77.362  32.217  0.00  0.00     0.035 H 
ATOM    176  H55 VAL d   1     -40.499  78.694  31.012  0.00  0.00     0.035 H 
BRANCH 174 177
ATOM    177  CD  VAL d   1     -39.132  78.914  32.651  0.00  0.00     0.009 C 
ATOM    178  H56 VAL d   1     -39.846  79.585  33.151  0.00  0.00     0.064 H 
ATOM    179  H57 VAL d   1     -38.390  79.512  32.102  0.00  0.00     0.064 H 
BRANCH 177 180
ATOM    180  NE  VAL d   1     -38.439  78.125  33.667  0.00  0.00    -0.227 N 
ATOM    181  CZ  VAL d   1     -39.038  77.538  34.700  0.00  0.00     0.665 C 
ATOM    182  NH1 VAL d   1     -40.352  77.630  34.857  0.00  0.00    -0.235 N 
ATOM    183  NH2 VAL d   1     -38.323  76.848  35.575  0.00  0.00    -0.235 N 
ATOM    184  H59 VAL d   1     -40.808  77.173  35.659  0.00  0.00     0.174 HD
ATOM    185  H60 VAL d   1     -40.916  78.159  34.176  0.00  0.00     0.174 HD
ATOM    186  H61 VAL d   1     -37.302  76.772  35.460  0.00  0.00     0.174 HD
ATOM    187  H62 VAL d   1     -38.788  76.387  36.371  0.00  0.00     0.174 HD
ATOM    188  H58 VAL d   1     -37.419  78.016  33.578  0.00  0.00     0.177 HD
ENDBRANCH 177 180
ENDBRANCH 174 177
ENDBRANCH 171 174
ENDBRANCH   1 171
TORSDOF 55
