REMARK  3 active torsions:
REMARK  status: ('A' for Active; 'I' for Inactive)
REMARK    1  A    between atoms: C20_6  and  C13_7 
REMARK    2  A    between atoms: C17_18  and  N19_20 
REMARK    3  A    between atoms: C1_26  and  C21_27 
ROOT
ATOM      1  C13 3UT d   1      22.389  -4.258  21.826  0.00  0.00     0.048 A 
ATOM      2  C14 3UT d   1      21.929  -5.378  22.509  0.00  0.00    -0.046 A 
ATOM      3  N12 3UT d   1      22.534  -4.249  20.521  0.00  0.00    -0.222 NA
ATOM      4  C11 3UT d   1      22.253  -5.299  19.767  0.00  0.00     0.244 A 
ATOM      5  F33 3UT d   1      22.401  -5.313  18.392  0.00  0.00    -0.181 F 
ATOM      6  C8  3UT d   1      21.771  -6.476  20.411  0.00  0.00     0.143 A 
ATOM      7  O7  3UT d   1      21.491  -7.572  19.513  0.00  0.00    -0.305 OA
ATOM      8  C9  3UT d   1      21.596  -6.541  21.779  0.00  0.00     0.025 A 
ATOM      9  C10 3UT d   1      21.065  -7.831  22.473  0.00  0.00     0.211 A 
ATOM     10  C15 3UT d   1      22.215  -8.438  23.249  0.00  0.00     0.064 A 
ATOM     11  O16 3UT d   1      21.891  -8.482  24.649  0.00  0.00    -0.336 OA
ATOM     12  C17 3UT d   1      20.535  -7.918  24.766  0.00  0.00     0.346 A 
ATOM     13  N18 3UT d   1      20.108  -7.559  23.397  0.00  0.00    -0.003 N 
ATOM     14  C5  3UT d   1      20.615  -8.824  21.470  0.00  0.00     0.019 A 
ATOM     15  C6  3UT d   1      19.961  -9.929  21.984  0.00  0.00    -0.060 A 
ATOM     16  C4  3UT d   1      20.815  -8.696  20.114  0.00  0.00     0.085 A 
ATOM     17  C3  3UT d   1      20.352  -9.665  19.199  0.00  0.00    -0.049 A 
ATOM     18  C2  3UT d   1      19.701 -10.750  19.718  0.00  0.00    -0.069 A 
ATOM     19  C1  3UT d   1      19.495 -10.897  21.085  0.00  0.00    -0.021 A 
ATOM     20  H8  3UT d   1      21.827  -5.359  23.588  0.00  0.00     0.087 H 
ATOM     21  H9  3UT d   1      23.117  -7.826  23.102  0.00  0.00     0.079 H 
ATOM     22  H10 3UT d   1      22.402  -9.459  22.886  0.00  0.00     0.079 H 
ATOM     23  H11 3UT d   1      20.084  -8.918  24.682  0.00  0.00     0.177 H 
ATOM     24  H12 3UT d   1      19.278  -8.083  23.168  0.00  0.00     0.284 HD
ATOM     25  H13 3UT d   1      19.901  -6.573  23.370  0.00  0.00     0.284 HD
ATOM     26  H17 3UT d   1      19.813 -10.043  23.052  0.00  0.00     0.086 H 
ATOM     27  H18 3UT d   1      20.506  -9.554  18.132  0.00  0.00     0.087 H 
ATOM     28  H19 3UT d   1      19.335 -11.517  19.045  0.00  0.00     0.085 H 
ENDROOT
BRANCH   1  29
ATOM     29  C20 3UT d   1      22.742  -2.988  22.553  0.00  0.00     0.025 C 
ATOM     30  C28 3UT d   1      23.134  -3.041  23.947  0.00  0.00     0.031 C 
ATOM     31  O29 3UT d   1      23.720  -1.677  24.492  0.00  0.00    -0.386 OA
ATOM     32  H1  3UT d   1      22.250  -3.304  24.547  0.00  0.00     0.075 H 
ATOM     33  H2  3UT d   1      23.902  -3.820  24.063  0.00  0.00     0.075 H 
ATOM     34  C30 3UT d   1      23.254  -0.662  23.837  0.00  0.00     0.034 C 
ATOM     35  C31 3UT d   1      23.582  -0.654  22.229  0.00  0.00    -0.083 C 
ATOM     36  H3  3UT d   1      23.683   0.251  24.276  0.00  0.00     0.080 H 
ATOM     37  H4  3UT d   1      22.161  -0.650  23.961  0.00  0.00     0.080 H 
ATOM     38  C32 3UT d   1      23.263  -1.864  21.668  0.00  0.00    -0.093 C 
ATOM     39  H5  3UT d   1      23.995   0.193  21.684  0.00  0.00     0.079 H 
ATOM     40  H6  3UT d   1      23.381  -2.020  20.597  0.00  0.00     0.077 H 
ATOM     41  H7  3UT d   1      21.722  -2.607  22.708  0.00  0.00     0.059 H 
ENDBRANCH   1  29
BRANCH  12  42
ATOM     42  N19 3UT d   1      19.742  -7.729  25.980  0.00  0.00    -0.027 N 
ATOM     43  H14 3UT d   1      18.852  -7.320  25.740  0.00  0.00     0.279 HD
ATOM     44  H15 3UT d   1      20.234  -7.116  26.611  0.00  0.00     0.279 HD
ATOM     45  H16 3UT d   1      19.593  -8.620  26.426  0.00  0.00     0.279 HD
ENDBRANCH  12  42
BRANCH  19  46
ATOM     46  C21 3UT d   1      18.832 -12.038  21.470  0.00  0.00     0.032 A 
ATOM     47  C26 3UT d   1      19.346 -13.246  21.051  0.00  0.00    -0.066 A 
ATOM     48  C25 3UT d   1      18.691 -14.404  21.387  0.00  0.00    -0.065 A 
ATOM     49  H20 3UT d   1      20.256 -13.281  20.463  0.00  0.00     0.085 H 
ATOM     50  C24 3UT d   1      17.530 -14.286  22.126  0.00  0.00     0.005 A 
ATOM     51  H21 3UT d   1      19.070 -15.373  21.084  0.00  0.00     0.085 H 
ATOM     52  N23 3UT d   1      17.053 -13.115  22.504  0.00  0.00    -0.232 NA
ATOM     53  H22 3UT d   1      16.993 -15.185  22.405  0.00  0.00     0.114 H 
ATOM     54  C22 3UT d   1      17.662 -11.996  22.191  0.00  0.00     0.220 A 
ATOM     55  F27 3UT d   1      17.145 -10.800  22.597  0.00  0.00    -0.183 F 
ENDBRANCH  19  46
TORSDOF 3
