REMARK  4 active torsions:
REMARK  status: ('A' for Active; 'I' for Inactive)
REMARK    1  A    between atoms: N_1  and  CA_2 
REMARK    2  A    between atoms: CA_2  and  C_3 
REMARK    3  A    between atoms: CA_2  and  CB_5 
REMARK    4  A    between atoms: CB_5  and  CG_6 
ROOT
ATOM      1  CG  TRP d   1      -2.040 -10.430 -46.981  0.00  0.00    -0.028 A 
ATOM      2  CD1 TRP d   1      -0.914  -9.980 -46.389  0.00  0.00    -0.015 A 
ATOM      3  CD2 TRP d   1      -2.491 -11.549 -46.216  0.00  0.00    -0.002 A 
ATOM      4  NE1 TRP d   1      -0.622 -10.756 -45.291  0.00  0.00    -0.365 N 
ATOM      5  CE2 TRP d   1      -1.585 -11.712 -45.140  0.00  0.00     0.042 A 
ATOM      6  CE3 TRP d   1      -3.565 -12.433 -46.336  0.00  0.00    -0.070 A 
ATOM      7  CZ2 TRP d   1      -1.718 -12.727 -44.202  0.00  0.00    -0.056 A 
ATOM      8  CZ3 TRP d   1      -3.710 -13.447 -45.382  0.00  0.00    -0.082 A 
ATOM      9  CH2 TRP d   1      -2.779 -13.591 -44.337  0.00  0.00    -0.081 A 
ATOM     10  H7  TRP d   1      -0.325  -9.130 -46.729  0.00  0.00     0.112 H 
ATOM     11  H8  TRP d   1       0.197 -10.634 -44.678  0.00  0.00     0.165 HD
ATOM     12  H9  TRP d   1      -4.272 -12.336 -47.152  0.00  0.00     0.084 H 
ATOM     13  H10 TRP d   1      -1.008 -12.835 -43.390  0.00  0.00     0.086 H 
ATOM     14  H11 TRP d   1      -4.550 -14.129 -45.449  0.00  0.00     0.083 H 
ATOM     15  H12 TRP d   1      -2.901 -14.399 -43.624  0.00  0.00     0.083 H 
ENDROOT
BRANCH   1  16
ATOM     16  CB  TRP d   1      -2.670  -9.896 -48.230  0.00  0.00    -0.003 C 
ATOM     17  H5  TRP d   1      -1.867  -9.534 -48.889  0.00  0.00     0.044 H 
ATOM     18  H6  TRP d   1      -3.204 -10.722 -48.723  0.00  0.00     0.044 H 
BRANCH  16  19
ATOM     19  CA  TRP d   1      -3.654  -8.760 -48.020  0.00  0.00     0.186 C 
ATOM     20  H4  TRP d   1      -3.994  -8.406 -49.005  0.00  0.00     0.101 H 
BRANCH  19  21
ATOM     21  N   TRP d   1      -2.988  -7.619 -47.325  0.00  0.00    -0.065 N 
ATOM     22  H1  TRP d   1      -2.192  -7.315 -47.864  0.00  0.00     0.275 HD
ATOM     23  H2  TRP d   1      -2.681  -7.915 -46.411  0.00  0.00     0.275 HD
ATOM     24  H3  TRP d   1      -3.640  -6.856 -47.230  0.00  0.00     0.275 HD
ENDBRANCH  19  21
BRANCH  19  25
ATOM     25  C   TRP d   1      -4.860  -9.265 -47.260  0.00  0.00     0.204 C 
ATOM     26  O   TRP d   1      -5.604 -10.082 -47.793  0.00  0.00    -0.646 OA
ATOM     27  OXT TRP d   1      -5.076  -8.905 -46.094  0.00  0.00    -0.646 OA
ENDBRANCH  19  25
ENDBRANCH  16  19
ENDBRANCH   1  16
TORSDOF 4
