REMARK  5 active torsions:
REMARK  status: ('A' for Active; 'I' for Inactive)
REMARK    1  A    between atoms: N_1  and  CA_2 
REMARK    2  A    between atoms: CA_2  and  C_3 
REMARK    3  A    between atoms: CA_2  and  CB_5 
REMARK    4  A    between atoms: CB_5  and  CG_6 
REMARK    5  A    between atoms: CZ_11  and  OH_12 
ROOT
ATOM      1  CG  TYR d   1      37.949   9.781  47.176  0.00  0.00    -0.056 A 
ATOM      2  CD1 TYR d   1      39.294   9.555  46.937  0.00  0.00    -0.074 A 
ATOM      3  CD2 TYR d   1      37.282  10.670  46.347  0.00  0.00    -0.074 A 
ATOM      4  CE1 TYR d   1      39.928  10.152  45.883  0.00  0.00    -0.051 A 
ATOM      5  CE2 TYR d   1      37.928  11.280  45.290  0.00  0.00    -0.051 A 
ATOM      6  CZ  TYR d   1      39.255  11.009  45.051  0.00  0.00     0.065 A 
ATOM      7  H7  TYR d   1      39.851   8.897  47.594  0.00  0.00     0.084 H 
ATOM      8  H8  TYR d   1      36.237  10.890  46.532  0.00  0.00     0.084 H 
ATOM      9  H9  TYR d   1      40.977   9.945  45.703  0.00  0.00     0.087 H 
ATOM     10  H10 TYR d   1      37.391  11.971  44.650  0.00  0.00     0.087 H 
ENDROOT
BRANCH   1  11
ATOM     11  CB  TYR d   1      37.266   9.156  48.321  0.00  0.00    -0.005 C 
ATOM     12  H5  TYR d   1      37.999   9.050  49.134  0.00  0.00     0.044 H 
ATOM     13  H6  TYR d   1      36.458   9.831  48.641  0.00  0.00     0.044 H 
BRANCH  11  14
ATOM     14  CA  TYR d   1      36.648   7.771  48.058  0.00  0.00     0.186 C 
ATOM     15  H4  TYR d   1      36.164   7.433  48.986  0.00  0.00     0.101 H 
BRANCH  14  16
ATOM     16  N   TYR d   1      37.688   6.785  47.724  0.00  0.00    -0.065 N 
ATOM     17  H1  TYR d   1      38.371   6.753  48.465  0.00  0.00     0.275 HD
ATOM     18  H2  TYR d   1      38.139   7.051  46.863  0.00  0.00     0.275 HD
ATOM     19  H3  TYR d   1      37.267   5.876  47.616  0.00  0.00     0.275 HD
ENDBRANCH  14  16
BRANCH  14  20
ATOM     20  C   TYR d   1      35.585   7.891  47.014  0.00  0.00     0.204 C 
ATOM     21  O   TYR d   1      35.741   7.404  45.888  0.00  0.00    -0.646 OA
ATOM     22  OXT TYR d   1      34.576   8.542  47.272  0.00  0.00    -0.646 OA
ENDBRANCH  14  20
ENDBRANCH  11  14
ENDBRANCH   1  11
BRANCH   6  23
ATOM     23  OH  TYR d   1      39.917  11.630  44.005  0.00  0.00    -0.361 OA
ATOM     24  H11 TYR d   1      40.819  11.332  43.981  0.00  0.00     0.217 HD
ENDBRANCH   6  23
TORSDOF 5
