REMARK  5 active torsions:
REMARK  status: ('A' for Active; 'I' for Inactive)
REMARK    1  A    between atoms: C26_6  and  C13_7 
REMARK    2  A    between atoms: C1_25  and  C8_26 
REMARK    3  A    between atoms: C22_31  and  C32_32 
REMARK    4  A    between atoms: C32_32  and  C33_33 
REMARK    5  A    between atoms: C33_33  and  C34_34 
ROOT
ATOM      1  C13 8QV d   1      66.934  51.442  10.768  0.00  0.00     0.063 A 
ATOM      2  C15 8QV d   1      67.263  50.466   9.820  0.00  0.00    -0.043 A 
ATOM      3  N12 8QV d   1      67.906  52.251  11.257  0.00  0.00    -0.258 NA
ATOM      4  C11 8QV d   1      69.164  52.123  10.894  0.00  0.00     0.036 A 
ATOM      5  C10 8QV d   1      69.539  51.156   9.951  0.00  0.00     0.102 A 
ATOM      6  O9  8QV d   1      70.858  51.078   9.622  0.00  0.00    -0.308 OA
ATOM      7  C14 8QV d   1      68.580  50.296   9.399  0.00  0.00     0.015 A 
ATOM      8  C7  8QV d   1      68.960  49.230   8.340  0.00  0.00     0.115 A 
ATOM      9  C16 8QV d   1      68.586  47.788   8.744  0.00  0.00     0.060 A 
ATOM     10  O17 8QV d   1      67.589  47.358   7.777  0.00  0.00    -0.319 OA
ATOM     11  C18 8QV d   1      67.342  48.401   6.924  0.00  0.00     0.213 A 
ATOM     12  N19 8QV d   1      68.107  49.484   7.172  0.00  0.00    -0.337 N 
ATOM     13  N20 8QV d   1      66.365  48.322   6.005  0.00  0.00    -0.365 N 
ATOM     14  C5  8QV d   1      70.466  49.281   8.030  0.00  0.00     0.012 A 
ATOM     15  C6  8QV d   1      71.010  48.406   7.090  0.00  0.00    -0.060 A 
ATOM     16  C4  8QV d   1      71.311  50.180   8.690  0.00  0.00     0.085 A 
ATOM     17  C3  8QV d   1      72.680  50.188   8.393  0.00  0.00    -0.049 A 
ATOM     18  C2  8QV d   1      73.208  49.315   7.447  0.00  0.00    -0.070 A 
ATOM     19  C1  8QV d   1      72.371  48.420   6.791  0.00  0.00    -0.024 A 
ATOM     20  H8  8QV d   1      66.484  49.835   9.409  0.00  0.00     0.088 H 
ATOM     21  H9  8QV d   1      69.917  52.771  11.328  0.00  0.00     0.119 H 
ATOM     22  H10 8QV d   1      68.167  47.770   9.761  0.00  0.00     0.080 H 
ATOM     23  H11 8QV d   1      69.470  47.135   8.700  0.00  0.00     0.080 H 
ATOM     24  H12 8QV d   1      68.095  50.357   6.625  0.00  0.00     0.164 HD
ATOM     25  H13 8QV d   1      66.190  49.114   5.370  0.00  0.00     0.159 HD
ATOM     26  H14 8QV d   1      65.791  47.470   5.936  0.00  0.00     0.159 HD
ATOM     27  H15 8QV d   1      70.362  47.701   6.582  0.00  0.00     0.086 H 
ATOM     28  H16 8QV d   1      73.335  50.882   8.906  0.00  0.00     0.087 H 
ATOM     29  H17 8QV d   1      74.268  49.333   7.222  0.00  0.00     0.085 H 
ENDROOT
BRANCH  19  30
ATOM     30  C8  8QV d   1      72.878  47.523   5.834  0.00  0.00    -0.007 A 
ATOM     31  C21 8QV d   1      72.175  47.263   4.649  0.00  0.00    -0.051 A 
ATOM     32  C22 8QV d   1      72.707  46.350   3.741  0.00  0.00     0.036 A 
ATOM     33  H18 8QV d   1      71.235  47.763   4.443  0.00  0.00     0.087 H 
ATOM     34  C23 8QV d   1      73.927  45.728   4.021  0.00  0.00     0.020 A 
ATOM     35  N24 8QV d   1      74.564  45.994   5.147  0.00  0.00    -0.271 NA
ATOM     36  H20 8QV d   1      74.351  45.026   3.312  0.00  0.00     0.117 H 
ATOM     37  C25 8QV d   1      74.073  46.845   6.052  0.00  0.00     0.013 A 
ATOM     38  H19 8QV d   1      74.617  47.011   6.975  0.00  0.00     0.116 H 
BRANCH  32  39
ATOM     39  C32 8QV d   1      72.039  46.047   2.523  0.00  0.00    -0.066 C 
BRANCH  39  40
ATOM     40  C33 8QV d   1      71.454  45.786   1.467  0.00  0.00    -0.105 C 
BRANCH  40  41
ATOM     41  C34 8QV d   1      70.786  45.471   0.208  0.00  0.00    -0.021 C 
ATOM     42  H21 8QV d   1      69.705  45.645   0.313  0.00  0.00     0.044 H 
ATOM     43  H22 8QV d   1      70.965  44.416  -0.048  0.00  0.00     0.044 H 
ATOM     44  H23 8QV d   1      71.185  46.114  -0.590  0.00  0.00     0.044 H 
ENDBRANCH  40  41
ENDBRANCH  39  40
ENDBRANCH  32  39
ENDBRANCH  19  30
BRANCH   1  45
ATOM     45  C26 8QV d   1      65.605  51.623  11.209  0.00  0.00    -0.029 C 
ATOM     46  C27 8QV d   1      65.268  52.581  12.372  0.00  0.00    -0.019 C 
ATOM     47  C28 8QV d   1      63.858  52.426  12.955  0.00  0.00     0.024 C 
ATOM     48  H1  8QV d   1      65.992  52.403  13.181  0.00  0.00     0.043 H 
ATOM     49  H2  8QV d   1      65.374  53.613  12.005  0.00  0.00     0.043 H 
ATOM     50  O29 8QV d   1      63.005  51.354  12.436  0.00  0.00    -0.387 OA
ATOM     51  H3  8QV d   1      63.329  53.375  12.784  0.00  0.00     0.074 H 
ATOM     52  H4  8QV d   1      63.969  52.258  14.036  0.00  0.00     0.074 H 
ATOM     53  C30 8QV d   1      63.239  51.148  11.019  0.00  0.00     0.035 C 
ATOM     54  C31 8QV d   1      64.552  50.929  10.588  0.00  0.00    -0.072 C 
ATOM     55  H5  8QV d   1      62.869  52.041  10.495  0.00  0.00     0.080 H 
ATOM     56  H6  8QV d   1      62.646  50.273  10.715  0.00  0.00     0.080 H 
ATOM     57  H7  8QV d   1      64.756  50.228   9.780  0.00  0.00     0.081 H 
ENDBRANCH   1  45
TORSDOF 5
