REMARK  7 active torsions:
REMARK  status: ('A' for Active; 'I' for Inactive)
REMARK    1  A    between atoms: O2_10  and  C1_1 
REMARK    2  A    between atoms: C9_4  and  C7_13 
REMARK    3  A    between atoms: C10_15  and  C9_4 
REMARK    4  A    between atoms: C13_6  and  N12_5 
REMARK       I    between atoms: N12_5  and  C10_15 
REMARK    5  A    between atoms: C22_9  and  N24_24 
REMARK    6  A    between atoms: C3_11  and  O2_10 
REMARK    7  A    between atoms: C15_18  and  C18_21 
ROOT
ATOM      1  N12 8UV d   1      51.579 104.074  31.436  0.00  0.00    -0.305 N 
ATOM      2  C10 8UV d   1      51.694 105.064  32.366  0.00  0.00     0.227 C 
ATOM      3  O11 8UV d   1      51.652 106.254  32.076  0.00  0.00    -0.273 OA
ATOM      4  H8  8UV d   1      51.630 103.135  31.777  0.00  0.00     0.171 HD
ENDROOT
BRANCH   1   5
ATOM      5  C13 8UV d   1      51.397 104.225  30.054  0.00  0.00     0.173 A 
ATOM      6  N14 8UV d   1      51.238 103.194  29.265  0.00  0.00    -0.223 NA
ATOM      7  C15 8UV d   1      51.033 103.429  27.977  0.00  0.00     0.076 A 
ATOM      8  C16 8UV d   1      51.025 104.756  27.684  0.00  0.00    -0.013 A 
ATOM      9  S17 8UV d   1      51.319 105.739  29.128  0.00  0.00    -0.061 SA
ATOM     10  H13 8UV d   1      50.859 105.163  26.688  0.00  0.00     0.098 H 
BRANCH   7  11
ATOM     11  C18 8UV d   1      50.915 102.350  26.936  0.00  0.00    -0.002 A 
ATOM     12  C19 8UV d   1      50.631 102.695  25.595  0.00  0.00    -0.054 A 
ATOM     13  C20 8UV d   1      50.568 101.726  24.606  0.00  0.00     0.005 A 
ATOM     14  H9  8UV d   1      50.460 103.734  25.336  0.00  0.00     0.087 H 
ATOM     15  N21 8UV d   1      50.814 100.458  24.891  0.00  0.00    -0.244 NA
ATOM     16  H10 8UV d   1      50.315 102.010  23.591  0.00  0.00     0.114 H 
ATOM     17  C22 8UV d   1      51.130 100.072  26.127  0.00  0.00     0.121 A 
ATOM     18  C23 8UV d   1      51.203 100.992  27.194  0.00  0.00    -0.027 A 
ATOM     19  H14 8UV d   1      51.474 100.663  28.191  0.00  0.00     0.090 H 
BRANCH  17  20
ATOM     20  N24 8UV d   1      51.362  98.715  26.331  0.00  0.00    -0.384 N 
ATOM     21  H15 8UV d   1      51.609  98.370  27.270  0.00  0.00     0.157 HD
ATOM     22  H16 8UV d   1      51.287  98.055  25.543  0.00  0.00     0.157 HD
ENDBRANCH  17  20
ENDBRANCH   7  11
ENDBRANCH   1   5
BRANCH   2  23
ATOM     23  C9  8UV d   1      51.845 104.650  33.817  0.00  0.00     0.033 C 
ATOM     24  H6  8UV d   1      51.893 103.554  33.891  0.00  0.00     0.054 H 
ATOM     25  H7  8UV d   1      52.763 105.087  34.238  0.00  0.00     0.054 H 
BRANCH  23  26
ATOM     26  C7  8UV d   1      50.635 105.166  34.568  0.00  0.00    -0.047 A 
ATOM     27  C6  8UV d   1      49.456 104.414  34.636  0.00  0.00    -0.076 A 
ATOM     28  C5  8UV d   1      48.345 104.942  35.280  0.00  0.00    -0.080 A 
ATOM     29  H5  8UV d   1      49.411 103.427  34.189  0.00  0.00     0.084 H 
ATOM     30  C4  8UV d   1      48.422 106.193  35.898  0.00  0.00    -0.051 A 
ATOM     31  H11 8UV d   1      47.416 104.383  35.303  0.00  0.00     0.083 H 
ATOM     32  C3  8UV d   1      49.592 106.968  35.822  0.00  0.00     0.068 A 
ATOM     33  H4  8UV d   1      47.566 106.572  36.445  0.00  0.00     0.087 H 
ATOM     34  C8  8UV d   1      50.699 106.435  35.153  0.00  0.00    -0.044 A 
ATOM     35  H12 8UV d   1      51.615 107.011  35.087  0.00  0.00     0.088 H 
BRANCH  32  36
ATOM     36  O2  8UV d   1      49.672 108.208  36.399  0.00  0.00    -0.356 OA
BRANCH  36  37
ATOM     37  C1  8UV d   1      49.557 109.372  35.559  0.00  0.00     0.010 C 
ATOM     38  H1  8UV d   1      49.642 110.279  36.176  0.00  0.00     0.066 H 
ATOM     39  H2  8UV d   1      48.581 109.364  35.052  0.00  0.00     0.066 H 
ATOM     40  H3  8UV d   1      50.360 109.363  34.807  0.00  0.00     0.066 H 
ENDBRANCH  36  37
ENDBRANCH  32  36
ENDBRANCH  23  26
ENDBRANCH   2  23
TORSDOF 7
