REMARK  9 active torsions:
REMARK  status: ('A' for Active; 'I' for Inactive)
REMARK    1  A    between atoms: C3_3  and  C17_17 
REMARK    2  A    between atoms: C5_5  and  O7_7 
REMARK    3  A    between atoms: O7_7  and  C8_8 
REMARK    4  A    between atoms: C8_8  and  C9_9 
REMARK    5  A    between atoms: C9_9  and  C10_10 
REMARK    6  A    between atoms: C10_10  and  C11_11 
REMARK    7  A    between atoms: C17_17  and  C18_18 
REMARK       I    between atoms: C18_18  and  N20_20 
REMARK    8  A    between atoms: N20_20  and  C21_21 
REMARK    9  A    between atoms: C23_23  and  C26_26 
ROOT
ATOM      1  C1  504 d   1      23.462  14.681  -0.092  0.00  0.00    -0.080 A 
ATOM      2  C2  504 d   1      23.930  13.485  -0.621  0.00  0.00    -0.076 A 
ATOM      3  C3  504 d   1      23.279  12.285  -0.357  0.00  0.00    -0.047 A 
ATOM      4  C4  504 d   1      22.144  12.299   0.433  0.00  0.00    -0.044 A 
ATOM      5  C5  504 d   1      21.668  13.505   0.953  0.00  0.00     0.069 A 
ATOM      6  C6  504 d   1      22.309  14.702   0.667  0.00  0.00    -0.051 A 
ATOM      7  H1  504 d   1      24.004  15.601  -0.276  0.00  0.00     0.083 H 
ATOM      8  H2  504 d   1      24.814  13.487  -1.248  0.00  0.00     0.084 H 
ATOM      9  H3  504 d   1      21.623  11.373   0.649  0.00  0.00     0.088 H 
ATOM     10  H4  504 d   1      21.910  15.640   1.034  0.00  0.00     0.087 H 
ENDROOT
BRANCH   3  11
ATOM     11  C17 504 d   1      23.816  10.972  -0.886  0.00  0.00     0.033 C 
ATOM     12  H22 504 d   1      23.965  11.036  -1.974  0.00  0.00     0.054 H 
ATOM     13  H23 504 d   1      23.112  10.158  -0.660  0.00  0.00     0.054 H 
BRANCH  11  14
ATOM     14  C18 504 d   1      25.136  10.722  -0.196  0.00  0.00     0.227 C 
ATOM     15  O19 504 d   1      25.156  10.649   1.016  0.00  0.00    -0.273 OA
ATOM     16  N20 504 d   1      26.251  10.634  -0.955  0.00  0.00    -0.305 N 
ATOM     17  H24 504 d   1      26.121  10.679  -1.946  0.00  0.00     0.171 HD
BRANCH  16  18
ATOM     18  C21 504 d   1      27.566  10.487  -0.505  0.00  0.00     0.173 A 
ATOM     19  N22 504 d   1      28.595  10.575  -1.303  0.00  0.00    -0.223 NA
ATOM     20  C23 504 d   1      29.801  10.502  -0.751  0.00  0.00     0.079 A 
ATOM     21  C24 504 d   1      29.758  10.317   0.582  0.00  0.00    -0.013 A 
ATOM     22  S25 504 d   1      28.086  10.339   1.123  0.00  0.00    -0.061 SA
ATOM     23  H25 504 d   1      30.625  10.176   1.225  0.00  0.00     0.098 H 
BRANCH  20  24
ATOM     24  C26 504 d   1      31.084  10.496  -1.510  0.00  0.00     0.023 A 
ATOM     25  C27 504 d   1      32.319  10.349  -0.975  0.00  0.00    -0.008 A 
ATOM     26  N28 504 d   1      33.271  10.347  -1.960  0.00  0.00    -0.349 N 
ATOM     27  H26 504 d   1      32.526  10.247   0.089  0.00  0.00     0.112 H 
ATOM     28  C30 504 d   1      32.686  10.468  -3.193  0.00  0.00     0.138 A 
ATOM     29  H27 504 d   1      34.285  10.266  -1.797  0.00  0.00     0.167 HD
ATOM     30  C31 504 d   1      31.276  10.567  -2.970  0.00  0.00     0.024 A 
ATOM     31  N35 504 d   1      33.189  10.512  -4.440  0.00  0.00    -0.242 NA
ATOM     32  C32 504 d   1      30.414  10.700  -4.085  0.00  0.00    -0.067 A 
ATOM     33  C33 504 d   1      31.000  10.727  -5.359  0.00  0.00    -0.065 A 
ATOM     34  H28 504 d   1      29.340  10.778  -3.959  0.00  0.00     0.085 H 
ATOM     35  C34 504 d   1      32.396  10.631  -5.499  0.00  0.00     0.004 A 
ATOM     36  H29 504 d   1      30.374  10.822  -6.239  0.00  0.00     0.085 H 
ATOM     37  H30 504 d   1      32.834  10.655  -6.490  0.00  0.00     0.114 H 
ENDBRANCH  20  24
ENDBRANCH  16  18
ENDBRANCH  11  14
ENDBRANCH   3  11
BRANCH   5  38
ATOM     38  O7  504 d   1      20.526  13.550   1.677  0.00  0.00    -0.351 OA
BRANCH  38  39
ATOM     39  C8  504 d   1      20.241  12.451   2.531  0.00  0.00     0.026 C 
ATOM     40  H5  504 d   1      20.123  12.816   3.562  0.00  0.00     0.075 H 
ATOM     41  H6  504 d   1      21.075  11.735   2.489  0.00  0.00     0.075 H 
BRANCH  39  42
ATOM     42  C9  504 d   1      18.959  11.750   2.099  0.00  0.00    -0.044 C 
ATOM     43  H7  504 d   1      19.067  11.374   1.071  0.00  0.00     0.036 H 
ATOM     44  H8  504 d   1      18.114  12.453   2.146  0.00  0.00     0.036 H 
BRANCH  42  45
ATOM     45  C10 504 d   1      18.716  10.578   3.061  0.00  0.00    -0.060 C 
ATOM     46  H9  504 d   1      17.800  10.053   2.751  0.00  0.00     0.033 H 
ATOM     47  H10 504 d   1      18.583  10.979   4.077  0.00  0.00     0.033 H 
BRANCH  45  48
ATOM     48  C11 504 d   1      19.880   9.567   3.080  0.00  0.00    -0.051 C 
ATOM     49  C12 504 d   1      20.210   9.175   4.537  0.00  0.00    -0.039 C 
ATOM     50  C13 504 d   1      21.202   8.004   4.599  0.00  0.00     0.082 C 
ATOM     51  H12 504 d   1      19.280   8.882   5.047  0.00  0.00     0.035 H 
ATOM     52  H13 504 d   1      20.651  10.043   5.049  0.00  0.00     0.035 H 
ATOM     53  N14 504 d   1      20.833   6.869   3.728  0.00  0.00    -0.075 N 
ATOM     54  H14 504 d   1      21.250   7.644   5.637  0.00  0.00     0.075 H 
ATOM     55  H15 504 d   1      22.192   8.371   4.291  0.00  0.00     0.075 H 
ATOM     56  C15 504 d   1      20.535   7.230   2.322  0.00  0.00     0.082 C 
ATOM     57  H16 504 d   1      20.014   6.429   4.118  0.00  0.00     0.277 HD
ATOM     58  H17 504 d   1      21.599   6.214   3.727  0.00  0.00     0.277 HD
ATOM     59  C16 504 d   1      19.510   8.357   2.206  0.00  0.00    -0.039 C 
ATOM     60  H18 504 d   1      20.141   6.342   1.807  0.00  0.00     0.075 H 
ATOM     61  H19 504 d   1      21.468   7.552   1.836  0.00  0.00     0.075 H 
ATOM     62  H20 504 d   1      19.456   8.681   1.156  0.00  0.00     0.035 H 
ATOM     63  H21 504 d   1      18.528   7.977   2.523  0.00  0.00     0.035 H 
ATOM     64  H11 504 d   1      20.771  10.044   2.646  0.00  0.00     0.040 H 
ENDBRANCH  45  48
ENDBRANCH  42  45
ENDBRANCH  39  42
ENDBRANCH  38  39
ENDBRANCH   5  38
TORSDOF 9
