REMARK  1 active torsions:
REMARK  status: ('A' for Active; 'I' for Inactive)
REMARK    1  A    between atoms: C9_12  and  C6_4 
ROOT
ATOM      1  N1  8UY d   1      16.056  26.189  -7.758  0.00  0.00    -0.191 NA
ATOM      2  C4  8UY d   1      13.986  26.618  -4.957  0.00  0.00    -0.062 A 
ATOM      3  C5  8UY d   1      13.401  26.358  -3.731  0.00  0.00    -0.069 A 
ATOM      4  C6  8UY d   1      13.772  25.195  -3.021  0.00  0.00    -0.007 A 
ATOM      5  C7  8UY d   1      14.732  24.313  -3.558  0.00  0.00    -0.069 A 
ATOM      6  C8  8UY d   1      15.321  24.581  -4.773  0.00  0.00    -0.062 A 
ATOM      7  C2  8UY d   1      15.571  25.982  -6.753  0.00  0.00     0.099 C 
ATOM      8  C3  8UY d   1      14.953  25.734  -5.487  0.00  0.00     0.044 A 
ATOM      9  H1  8UY d   1      13.702  27.504  -5.514  0.00  0.00     0.085 H 
ATOM     10  H2  8UY d   1      12.665  27.040  -3.320  0.00  0.00     0.085 H 
ATOM     11  H3  8UY d   1      15.008  23.419  -3.011  0.00  0.00     0.085 H 
ATOM     12  H4  8UY d   1      16.066  23.905  -5.177  0.00  0.00     0.085 H 
ENDROOT
BRANCH   4  13
ATOM     13  C9  8UY d   1      13.186  24.863  -1.703  0.00  0.00     0.070 A 
ATOM     14  C10 8UY d   1      11.810  24.839  -1.498  0.00  0.00    -0.054 A 
ATOM     15  C11 8UY d   1      11.315  24.503  -0.225  0.00  0.00    -0.077 A 
ATOM     16  H5  8UY d   1      11.126  25.077  -2.311  0.00  0.00     0.087 H 
ATOM     17  C12 8UY d   1      12.167  24.194   0.805  0.00  0.00    -0.037 A 
ATOM     18  H7  8UY d   1      10.239  24.488  -0.054  0.00  0.00     0.083 H 
ATOM     19  C13 8UY d   1      13.566  24.224   0.581  0.00  0.00     0.152 A 
ATOM     20  H8  8UY d   1      11.772  23.928   1.785  0.00  0.00     0.089 H 
ATOM     21  N14 8UY d   1      14.624  23.986   1.358  0.00  0.00    -0.221 NA
ATOM     22  N17 8UY d   1      14.046  24.561  -0.662  0.00  0.00    -0.214 N 
ATOM     23  C15 8UY d   1      15.745  24.158   0.668  0.00  0.00     0.108 A 
ATOM     24  N16 8UY d   1      15.449  24.507  -0.558  0.00  0.00    -0.159 NA
ATOM     25  H6  8UY d   1      16.753  24.029   1.060  0.00  0.00     0.149 H 
ENDBRANCH   4  13
TORSDOF 1
