REMARK  30 active torsions:
REMARK  status: ('A' for Active; 'I' for Inactive)
REMARK    1  A    between atoms: CA_2  and  C_3 
REMARK       I    between atoms: C_3  and  N_8 
REMARK    2  A    between atoms: N_8  and  CA_9 
REMARK    3  A    between atoms: CA_9  and  C_10 
REMARK    4  A    between atoms: CA_9  and  CB_12 
REMARK       I    between atoms: C_10  and  N_17 
REMARK    5  A    between atoms: CB_12  and  CG_13 
REMARK    6  A    between atoms: CG_13  and  CD_14 
REMARK       I    between atoms: CD_14  and  NE2_16 
REMARK    7  A    between atoms: CA_18  and  C_19 
REMARK       I    between atoms: C_19  and  N_24 
REMARK    8  A    between atoms: N_24  and  CA_25 
REMARK    9  A    between atoms: CA_25  and  C_26 
REMARK   10  A    between atoms: CA_25  and  CB_28 
REMARK       I    between atoms: C_26  and  N_38 
REMARK   11  A    between atoms: CB_28  and  CG_29 
REMARK   12  A    between atoms: N_38  and  CA_39 
REMARK   13  A    between atoms: CA_39  and  C_40 
REMARK   14  A    between atoms: CA_39  and  CB_42 
REMARK       I    between atoms: C_40  and  N_49 
REMARK   15  A    between atoms: CB_42  and  CG_43 
REMARK   16  A    between atoms: CG_43  and  CD_44 
REMARK   17  A    between atoms: CD_44  and  NE_45 
REMARK       I    between atoms: NE_45  and  CZ_46 
REMARK       I    between atoms: CZ_46  and  NH1_47 
REMARK   18  A    between atoms: N_49  and  CA_50 
REMARK   19  A    between atoms: CA_50  and  C_51 
REMARK   20  A    between atoms: CA_50  and  CB_53 
REMARK       I    between atoms: C_51  and  N_60 
REMARK   21  A    between atoms: CB_53  and  CG_54 
REMARK   22  A    between atoms: N_60  and  CA_61 
REMARK   23  A    between atoms: CA_61  and  C_62 
REMARK   24  A    between atoms: CA_61  and  CB_64 
REMARK       I    between atoms: C_62  and  N_72 
REMARK   25  A    between atoms: CB_64  and  CG_65 
REMARK   26  A    between atoms: CZ_70  and  OH_71 
REMARK   27  A    between atoms: N_72  and  CA_73 
REMARK   28  A    between atoms: CA_73  and  C_74 
REMARK   29  A    between atoms: CA_73  and  CB_76 
REMARK       I    between atoms: C_74  and  N_77 
REMARK   30  A    between atoms: CA_78  and  C_79 
ROOT
ATOM      1  CA  ARG d   1     -34.241  12.345  53.716  0.00  0.00     0.089 C 
ATOM      2  H36 ARG d   1     -34.589  12.194  52.684  0.00  0.00     0.087 H 
ENDROOT
BRANCH   1   3
ATOM      3  N   ARG d   1     -35.420  12.601  54.541  0.00  0.00    -0.346 N 
ATOM      4  C   TRP d   1     -36.367  13.447  54.132  0.00  0.00     0.241 C 
ATOM      5  O   TRP d   1     -36.242  14.116  53.110  0.00  0.00    -0.271 OA
ATOM      6  H35 ARG d   1     -35.518  12.137  55.421  0.00  0.00     0.163 HD
BRANCH   4   7
ATOM      7  CA  TRP d   1     -37.634  13.525  54.975  0.00  0.00     0.093 C 
ATOM      8  H26 TRP d   1     -38.161  12.566  54.868  0.00  0.00     0.088 H 
BRANCH   7   9
ATOM      9  N   TRP d   1     -37.342  13.714  56.396  0.00  0.00    -0.346 N 
ATOM     10  C   PRO d   1     -38.147  13.143  57.285  0.00  0.00     0.241 C 
ATOM     11  O   PRO d   1     -39.066  12.412  56.914  0.00  0.00    -0.271 OA
ATOM     12  H25 TRP d   1     -36.557  14.259  56.690  0.00  0.00     0.163 HD
BRANCH  10  13
ATOM     13  CA  PRO d   1     -37.928  13.349  58.776  0.00  0.00     0.091 C 
ATOM     14  N   PRO d   1     -37.072  14.493  59.099  0.00  0.00    -0.337 N 
ATOM     15  C   GLN d   1     -35.770  14.362  59.020  0.00  0.00     0.243 C 
ATOM     16  CD  PRO d   1     -37.830  15.590  59.719  0.00  0.00    -0.001 C 
ATOM     17  O   GLN d   1     -35.260  13.319  58.578  0.00  0.00    -0.271 OA
ATOM     18  CG  PRO d   1     -38.936  14.864  60.394  0.00  0.00    -0.048 C 
ATOM     19  H23 PRO d   1     -38.215  16.287  58.961  0.00  0.00     0.064 H 
ATOM     20  H24 PRO d   1     -37.213  16.141  60.444  0.00  0.00     0.064 H 
ATOM     21  CB  PRO d   1     -39.246  13.683  59.492  0.00  0.00    -0.036 C 
ATOM     22  H21 PRO d   1     -38.619  14.517  61.389  0.00  0.00     0.035 H 
ATOM     23  H22 PRO d   1     -39.818  15.513  60.496  0.00  0.00     0.035 H 
ATOM     24  H19 PRO d   1     -39.587  12.824  60.089  0.00  0.00     0.036 H 
ATOM     25  H20 PRO d   1     -40.022  13.953  58.761  0.00  0.00     0.036 H 
ATOM     26  H18 PRO d   1     -37.491  12.428  59.190  0.00  0.00     0.087 H 
BRANCH  15  27
ATOM     27  CA  GLN d   1     -34.878  15.514  59.448  0.00  0.00     0.090 C 
ATOM     28  H11 GLN d   1     -35.502  16.302  59.893  0.00  0.00     0.087 H 
BRANCH  27  29
ATOM     29  N   GLN d   1     -33.930  15.051  60.452  0.00  0.00    -0.346 N 
ATOM     30  C   PRO d   1     -33.941  15.501  61.704  0.00  0.00     0.249 C 
ATOM     31  O   PRO d   1     -34.746  16.343  62.102  0.00  0.00    -0.271 OA
ATOM     32  H10 GLN d   1     -33.246  14.370  60.191  0.00  0.00     0.163 HD
BRANCH  30  33
ATOM     33  CA  PRO d   1     -32.883  14.932  62.655  0.00  0.00     0.178 C 
ATOM     34  N   PRO d   1     -32.452  15.897  63.673  0.00  0.00    -0.062 N 
ATOM     35  CD  PRO d   1     -32.487  15.322  65.029  0.00  0.00     0.083 C 
ATOM     36  H1  PRO d   1     -33.065  16.697  63.643  0.00  0.00     0.278 HD
ATOM     37  H2  PRO d   1     -31.509  16.188  63.467  0.00  0.00     0.278 HD
ATOM     38  CG  PRO d   1     -32.684  13.856  64.772  0.00  0.00    -0.040 C 
ATOM     39  H8  PRO d   1     -33.322  15.736  65.612  0.00  0.00     0.075 H 
ATOM     40  H9  PRO d   1     -31.542  15.506  65.561  0.00  0.00     0.075 H 
ATOM     41  CB  PRO d   1     -33.451  13.784  63.490  0.00  0.00    -0.028 C 
ATOM     42  H6  PRO d   1     -31.714  13.348  64.670  0.00  0.00     0.035 H 
ATOM     43  H7  PRO d   1     -33.256  13.394  65.590  0.00  0.00     0.035 H 
ATOM     44  H4  PRO d   1     -33.287  12.818  62.990  0.00  0.00     0.036 H 
ATOM     45  H5  PRO d   1     -34.527  13.926  63.669  0.00  0.00     0.036 H 
ATOM     46  H3  PRO d   1     -32.021  14.592  62.062  0.00  0.00     0.099 H 
ENDBRANCH  30  33
ENDBRANCH  27  29
BRANCH  27  47
ATOM     47  CB  GLN d   1     -34.165  16.090  58.231  0.00  0.00    -0.030 C 
ATOM     48  H12 GLN d   1     -34.878  16.117  57.394  0.00  0.00     0.037 H 
ATOM     49  H13 GLN d   1     -33.326  15.426  57.976  0.00  0.00     0.037 H 
BRANCH  47  50
ATOM     50  CG  GLN d   1     -33.624  17.476  58.434  0.00  0.00     0.011 C 
ATOM     51  H14 GLN d   1     -32.671  17.410  58.980  0.00  0.00     0.047 H 
ATOM     52  H15 GLN d   1     -34.346  18.057  59.026  0.00  0.00     0.047 H 
BRANCH  50  53
ATOM     53  CD  GLN d   1     -33.388  18.180  57.124  0.00  0.00     0.215 C 
ATOM     54  OE1 GLN d   1     -34.141  17.999  56.168  0.00  0.00    -0.274 OA
ATOM     55  NE2 GLN d   1     -32.334  18.983  57.064  0.00  0.00    -0.370 N 
ATOM     56  H16 GLN d   1     -32.129  19.476  56.219  0.00  0.00     0.159 HD
ATOM     57  H17 GLN d   1     -31.745  19.095  57.864  0.00  0.00     0.159 HD
ENDBRANCH  50  53
ENDBRANCH  47  50
ENDBRANCH  27  47
ENDBRANCH  15  27
ENDBRANCH  10  13
ENDBRANCH   7   9
BRANCH   7  58
ATOM     58  CB  TRP d   1     -38.565  14.629  54.475  0.00  0.00    -0.012 C 
ATOM     59  H27 TRP d   1     -38.758  14.462  53.405  0.00  0.00     0.044 H 
ATOM     60  H28 TRP d   1     -38.060  15.597  54.610  0.00  0.00     0.044 H 
BRANCH  58  61
ATOM     61  CG  TRP d   1     -39.885  14.678  55.194  0.00  0.00    -0.028 A 
ATOM     62  CD1 TRP d   1     -40.328  15.658  56.037  0.00  0.00    -0.015 A 
ATOM     63  NE1 TRP d   1     -41.581  15.338  56.514  0.00  0.00    -0.365 N 
ATOM     64  H29 TRP d   1     -39.773  16.559  56.294  0.00  0.00     0.112 H 
ATOM     65  CE2 TRP d   1     -41.961  14.131  55.986  0.00  0.00     0.042 A 
ATOM     66  H30 TRP d   1     -42.140  15.912  57.161  0.00  0.00     0.165 HD
ATOM     67  CD2 TRP d   1     -40.917  13.687  55.149  0.00  0.00    -0.002 A 
ATOM     68  CZ2 TRP d   1     -43.132  13.394  56.172  0.00  0.00    -0.056 A 
ATOM     69  CE3 TRP d   1     -41.055  12.464  54.487  0.00  0.00    -0.070 A 
ATOM     70  CZ3 TRP d   1     -42.215  11.735  54.670  0.00  0.00    -0.082 A 
ATOM     71  H31 TRP d   1     -40.267  12.094  53.842  0.00  0.00     0.084 H 
ATOM     72  CH2 TRP d   1     -43.238  12.200  55.507  0.00  0.00    -0.081 A 
ATOM     73  H33 TRP d   1     -42.335  10.787  54.157  0.00  0.00     0.083 H 
ATOM     74  H34 TRP d   1     -44.133  11.602  55.632  0.00  0.00     0.083 H 
ATOM     75  H32 TRP d   1     -43.926  13.752  56.817  0.00  0.00     0.086 H 
ENDBRANCH  58  61
ENDBRANCH   7  58
ENDBRANCH   4   7
ENDBRANCH   1   3
BRANCH   1  76
ATOM     76  C   ARG d   1     -33.539  11.070  54.172  0.00  0.00     0.241 C 
ATOM     77  O   ARG d   1     -33.639  10.660  55.330  0.00  0.00    -0.271 OA
ATOM     78  N   PHE d   1     -32.805  10.456  53.241  0.00  0.00    -0.346 N 
ATOM     79  H48 PHE d   1     -32.685  10.912  52.359  0.00  0.00     0.163 HD
BRANCH  78  80
ATOM     80  CA  PHE d   1     -32.161   9.144  53.437  0.00  0.00     0.093 C 
ATOM     81  H49 PHE d   1     -32.898   8.447  53.863  0.00  0.00     0.088 H 
BRANCH  80  82
ATOM     82  C   PHE d   1     -30.985   9.263  54.409  0.00  0.00     0.241 C 
ATOM     83  O   PHE d   1     -29.851   9.538  54.005  0.00  0.00    -0.271 OA
ATOM     84  N   TYR d   1     -31.232   9.010  55.699  0.00  0.00    -0.346 N 
ATOM     85  H57 TYR d   1     -32.160   8.762  55.976  0.00  0.00     0.163 HD
BRANCH  84  86
ATOM     86  CA  TYR d   1     -30.188   9.085  56.711  0.00  0.00     0.093 C 
ATOM     87  H58 TYR d   1     -29.536   9.934  56.459  0.00  0.00     0.088 H 
BRANCH  86  88
ATOM     88  C   TYR d   1     -29.314   7.829  56.767  0.00  0.00     0.241 C 
ATOM     89  O   TYR d   1     -29.734   6.718  56.442  0.00  0.00    -0.271 OA
ATOM     90  N   ALA d   1     -28.071   8.031  57.215  0.00  0.00    -0.346 N 
ATOM     91  H66 ALA d   1     -27.806   8.951  57.503  0.00  0.00     0.163 HD
BRANCH  90  92
ATOM     92  CA  ALA d   1     -27.094   6.963  57.298  0.00  0.00     0.086 C 
ATOM     93  H67 ALA d   1     -27.614   6.001  57.179  0.00  0.00     0.086 H 
BRANCH  92  94
ATOM     94  C   ALA d   1     -26.430   6.997  58.669  0.00  0.00     0.243 C 
ATOM     95  O   ALA d   1     -26.036   8.078  59.143  0.00  0.00    -0.271 OA
ATOM     96  N   PRO d   1     -26.305   5.846  59.350  0.00  0.00    -0.336 N 
ATOM     97  CA  PRO d   1     -25.691   5.743  60.678  0.00  0.00     0.098 C 
ATOM     98  CD  PRO d   1     -26.813   4.550  58.875  0.00  0.00    -0.001 C 
ATOM     99  CB  PRO d   1     -25.742   4.240  60.972  0.00  0.00    -0.035 C 
ATOM    100  H71 PRO d   1     -26.276   6.307  61.419  0.00  0.00     0.089 H 
ATOM    101  CG  PRO d   1     -26.858   3.731  60.125  0.00  0.00    -0.048 C 
ATOM    102  H72 PRO d   1     -25.949   4.059  62.037  0.00  0.00     0.036 H 
ATOM    103  H73 PRO d   1     -24.793   3.757  60.696  0.00  0.00     0.036 H 
ATOM    104  H74 PRO d   1     -27.822   3.864  60.638  0.00  0.00     0.035 H 
ATOM    105  H75 PRO d   1     -26.710   2.666  59.893  0.00  0.00     0.035 H 
ATOM    106  H76 PRO d   1     -26.132   4.105  58.135  0.00  0.00     0.064 H 
ATOM    107  H77 PRO d   1     -27.815   4.655  58.434  0.00  0.00     0.064 H 
BRANCH  97 108
ATOM    108  C   PRO d   1     -24.255   6.251  60.687  0.00  0.00     0.196 C 
ATOM    109  O   PRO d   1     -23.884   6.956  61.624  0.00  0.00    -0.646 OA
ATOM    110  OXT PRO d   1     -23.513   5.940  59.757  0.00  0.00    -0.646 OA
ENDBRANCH  97 108
ENDBRANCH  92  94
BRANCH  92 111
ATOM    111  CB  ALA d   1     -26.033   7.082  56.188  0.00  0.00    -0.049 C 
ATOM    112  H68 ALA d   1     -25.311   6.258  56.282  0.00  0.00     0.030 H 
ATOM    113  H69 ALA d   1     -25.507   8.043  56.285  0.00  0.00     0.030 H 
ATOM    114  H70 ALA d   1     -26.523   7.030  55.205  0.00  0.00     0.030 H 
ENDBRANCH  92 111
ENDBRANCH  90  92
ENDBRANCH  86  88
BRANCH  86 115
ATOM    115  CB  TYR d   1     -30.815   9.349  58.076  0.00  0.00    -0.014 C 
ATOM    116  H59 TYR d   1     -30.175   8.891  58.844  0.00  0.00     0.043 H 
ATOM    117  H60 TYR d   1     -31.808   8.877  58.097  0.00  0.00     0.043 H 
BRANCH 115 118
ATOM    118  CG  TYR d   1     -30.980  10.821  58.409  0.00  0.00    -0.056 A 
ATOM    119  CD1 TYR d   1     -29.912  11.567  58.909  0.00  0.00    -0.074 A 
ATOM    120  CE1 TYR d   1     -30.059  12.926  59.227  0.00  0.00    -0.051 A 
ATOM    121  H61 TYR d   1     -28.951  11.088  59.054  0.00  0.00     0.084 H 
ATOM    122  CZ  TYR d   1     -31.283  13.542  59.045  0.00  0.00     0.065 A 
ATOM    123  H63 TYR d   1     -29.217  13.489  59.613  0.00  0.00     0.087 H 
ATOM    124  CE2 TYR d   1     -32.350  12.817  58.551  0.00  0.00    -0.051 A 
ATOM    125  CD2 TYR d   1     -32.198  11.468  58.231  0.00  0.00    -0.074 A 
ATOM    126  H64 TYR d   1     -33.311  13.299  58.411  0.00  0.00     0.087 H 
ATOM    127  H62 TYR d   1     -33.043  10.915  57.837  0.00  0.00     0.084 H 
BRANCH 122 128
ATOM    128  OH  TYR d   1     -31.456  14.880  59.348  0.00  0.00    -0.361 OA
ATOM    129  H65 TYR d   1     -30.639  15.238  59.674  0.00  0.00     0.217 HD
ENDBRANCH 122 128
ENDBRANCH 115 118
ENDBRANCH  86 115
ENDBRANCH  84  86
ENDBRANCH  80  82
BRANCH  80 130
ATOM    130  CB  PHE d   1     -31.696   8.603  52.096  0.00  0.00    -0.014 C 
ATOM    131  H50 PHE d   1     -30.985   7.784  52.280  0.00  0.00     0.043 H 
ATOM    132  H51 PHE d   1     -31.189   9.414  51.552  0.00  0.00     0.043 H 
BRANCH 130 133
ATOM    133  CG  PHE d   1     -32.799   8.083  51.241  0.00  0.00    -0.056 A 
ATOM    134  CD1 PHE d   1     -32.907   6.734  50.939  0.00  0.00    -0.077 A 
ATOM    135  CE1 PHE d   1     -33.941   6.262  50.120  0.00  0.00    -0.082 A 
ATOM    136  H52 PHE d   1     -32.182   6.036  51.342  0.00  0.00     0.084 H 
ATOM    137  CZ  PHE d   1     -34.873   7.144  49.608  0.00  0.00    -0.083 A 
ATOM    138  H54 PHE d   1     -34.010   5.205  49.888  0.00  0.00     0.083 H 
ATOM    139  CE2 PHE d   1     -34.776   8.484  49.907  0.00  0.00    -0.082 A 
ATOM    140  H56 PHE d   1     -35.675   6.783  48.975  0.00  0.00     0.083 H 
ATOM    141  CD2 PHE d   1     -33.744   8.949  50.715  0.00  0.00    -0.077 A 
ATOM    142  H55 PHE d   1     -35.507   9.180  49.511  0.00  0.00     0.083 H 
ATOM    143  H53 PHE d   1     -33.678  10.008  50.937  0.00  0.00     0.084 H 
ENDBRANCH 130 133
ENDBRANCH  80 130
ENDBRANCH  78  80
ENDBRANCH   1  76
BRANCH   1 144
ATOM    144  CB  ARG d   1     -33.233  13.512  53.701  0.00  0.00    -0.036 C 
ATOM    145  H37 ARG d   1     -32.218  13.097  53.783  0.00  0.00     0.036 H 
ATOM    146  H38 ARG d   1     -33.436  14.159  54.567  0.00  0.00     0.036 H 
BRANCH 144 147
ATOM    147  CG  ARG d   1     -33.307  14.370  52.423  0.00  0.00    -0.048 C 
ATOM    148  H39 ARG d   1     -32.611  15.216  52.516  0.00  0.00     0.035 H 
ATOM    149  H40 ARG d   1     -34.332  14.750  52.303  0.00  0.00     0.035 H 
BRANCH 147 150
ATOM    150  CD  ARG d   1     -32.936  13.556  51.206  0.00  0.00     0.009 C 
ATOM    151  H41 ARG d   1     -33.441  12.581  51.272  0.00  0.00     0.064 H 
ATOM    152  H42 ARG d   1     -31.846  13.405  51.206  0.00  0.00     0.064 H 
BRANCH 150 153
ATOM    153  NE  ARG d   1     -33.315  14.189  49.945  0.00  0.00    -0.227 N 
ATOM    154  CZ  ARG d   1     -34.446  13.932  49.294  0.00  0.00     0.665 C 
ATOM    155  NH1 ARG d   1     -35.321  13.067  49.799  0.00  0.00    -0.235 N 
ATOM    156  NH2 ARG d   1     -34.705  14.539  48.138  0.00  0.00    -0.235 N 
ATOM    157  H44 ARG d   1     -36.197  12.867  49.295  0.00  0.00     0.174 HD
ATOM    158  H45 ARG d   1     -35.123  12.597  50.694  0.00  0.00     0.174 HD
ATOM    159  H46 ARG d   1     -34.029  15.209  47.745  0.00  0.00     0.174 HD
ATOM    160  H47 ARG d   1     -35.582  14.338  47.636  0.00  0.00     0.174 HD
ATOM    161  H43 ARG d   1     -32.667  14.876  49.535  0.00  0.00     0.177 HD
ENDBRANCH 150 153
ENDBRANCH 147 150
ENDBRANCH 144 147
ENDBRANCH   1 144
TORSDOF 30
