REMARK WARNING: 32 MAX_TORS EXCEEDED!!!
REMARK  47 active torsions:
REMARK  status: ('A' for Active; 'I' for Inactive)
REMARK    1  A    between atoms: N_1  and  CA_2 
REMARK    2  A    between atoms: CA_2  and  C_3 
REMARK       I    between atoms: C_3  and  N_5 
REMARK    3  A    between atoms: CA_6  and  C_7 
REMARK       I    between atoms: C_7  and  N_12 
REMARK    4  A    between atoms: N_12  and  CA_13 
REMARK    5  A    between atoms: CA_13  and  C_14 
REMARK    6  A    between atoms: CA_13  and  CB_16 
REMARK       I    between atoms: C_14  and  N_21 
REMARK    7  A    between atoms: CB_16  and  CG_17 
REMARK    8  A    between atoms: CG_17  and  CD_18 
REMARK       I    between atoms: CD_18  and  NE2_20 
REMARK    9  A    between atoms: N_21  and  CA_22 
REMARK   10  A    between atoms: CA_22  and  C_23 
REMARK   11  A    between atoms: CA_22  and  CB_25 
REMARK       I    between atoms: C_23  and  N_30 
REMARK   12  A    between atoms: CB_25  and  CG_26 
REMARK   13  A    between atoms: CG_26  and  CD_27 
REMARK   14  A    between atoms: CA_31  and  C_32 
REMARK       I    between atoms: C_32  and  N_37 
REMARK   15  A    between atoms: N_37  and  CA_38 
REMARK   16  A    between atoms: CA_38  and  C_39 
REMARK   17  A    between atoms: CA_38  and  CB_41 
REMARK       I    between atoms: C_39  and  N_46 
REMARK   18  A    between atoms: CB_41  and  CG_42 
REMARK   19  A    between atoms: CG_42  and  CD_43 
REMARK   20  A    between atoms: CA_47  and  C_48 
REMARK       I    between atoms: C_48  and  N_53 
REMARK   21  A    between atoms: CA_54  and  C_55 
REMARK       I    between atoms: C_55  and  N_60 
REMARK   22  A    between atoms: N_60  and  CA_61 
REMARK   23  A    between atoms: CA_61  and  C_62 
REMARK   24  A    between atoms: CA_61  and  CB_64 
REMARK       I    between atoms: C_62  and  N_69 
REMARK   25  A    between atoms: CB_64  and  CG_65 
REMARK   26  A    between atoms: CG_65  and  CD_66 
REMARK   27  A    between atoms: CA_70  and  C_71 
REMARK       I    between atoms: C_71  and  N_76 
REMARK   28  A    between atoms: N_76  and  CA_77 
REMARK   29  A    between atoms: CA_77  and  C_78 
REMARK   30  A    between atoms: CA_77  and  CB_80 
REMARK       I    between atoms: C_78  and  N_87 
REMARK   31  A    between atoms: CB_80  and  CG_81 
REMARK   32  A    between atoms: N_87  and  CA_88 
REMARK   33  A    between atoms: CA_88  and  C_89 
REMARK   34  A    between atoms: CA_88  and  CB_91 
REMARK       I    between atoms: C_89  and  N_96 
REMARK   35  A    between atoms: CB_91  and  CG_92 
REMARK   36  A    between atoms: CG_92  and  CD_93 
REMARK   37  A    between atoms: N_96  and  CA_97 
REMARK   38  A    between atoms: CA_97  and  C_98 
REMARK   39  A    between atoms: CA_97  and  CB_100 
REMARK       I    between atoms: C_98  and  N_108 
REMARK   40  A    between atoms: CB_100  and  CG_101 
REMARK   41  A    between atoms: CZ_106  and  OH_107 
REMARK   42  A    between atoms: N_108  and  CA_109 
REMARK   43  A    between atoms: CA_109  and  C_110 
REMARK   44  A    between atoms: CA_109  and  CB_112 
REMARK   45  A    between atoms: CB_112  and  CG1_113 
REMARK   46  A    between atoms: CB_112  and  CG2_114 
REMARK   47  A    between atoms: CG1_113  and  CD1_115 
ROOT
ATOM      1  C   PRO d   1       7.490  -3.133  -5.661  0.00  0.00     0.243 C 
ATOM      2  O   PRO d   1       7.702  -2.811  -6.845  0.00  0.00    -0.271 OA
ATOM      3  N   PRO d   1       7.929  -2.392  -4.654  0.00  0.00    -0.337 N 
ATOM      4  CA  PRO d   1       8.795  -1.242  -4.918  0.00  0.00     0.091 C 
ATOM      5  CB  PRO d   1       8.885  -0.552  -3.559  0.00  0.00    -0.036 C 
ATOM      6  CG  PRO d   1       8.693  -1.655  -2.588  0.00  0.00    -0.048 C 
ATOM      7  CD  PRO d   1       7.746  -2.627  -3.213  0.00  0.00    -0.001 C 
ATOM      8  H47 PRO d   1       8.346  -0.579  -5.672  0.00  0.00     0.087 H 
ATOM      9  H48 PRO d   1       8.095   0.206  -3.452  0.00  0.00     0.036 H 
ATOM     10  H49 PRO d   1       9.869  -0.079  -3.424  0.00  0.00     0.036 H 
ATOM     11  H50 PRO d   1       8.269  -1.264  -1.651  0.00  0.00     0.035 H 
ATOM     12  H51 PRO d   1       9.655  -2.146  -2.379  0.00  0.00     0.035 H 
ATOM     13  H52 PRO d   1       8.008  -3.661  -2.945  0.00  0.00     0.064 H 
ATOM     14  H53 PRO d   1       6.710  -2.420  -2.908  0.00  0.00     0.064 H 
ENDROOT
BRANCH   4  15
ATOM     15  C   PRO d   1      10.179  -1.672  -5.381  0.00  0.00     0.241 C 
ATOM     16  O   PRO d   1      10.599  -2.817  -5.230  0.00  0.00    -0.271 OA
ATOM     17  N   GLU d   1      10.900  -0.721  -5.943  0.00  0.00    -0.346 N 
ATOM     18  H54 GLU d   1      10.485   0.166  -6.148  0.00  0.00     0.163 HD
BRANCH  17  19
ATOM     19  CA  GLU d   1      12.292  -0.960  -6.264  0.00  0.00     0.090 C 
ATOM     20  H55 GLU d   1      12.385  -1.937  -6.760  0.00  0.00     0.087 H 
BRANCH  19  21
ATOM     21  C   GLU d   1      13.127  -0.962  -4.985  0.00  0.00     0.243 C 
ATOM     22  O   GLU d   1      12.754  -0.340  -3.989  0.00  0.00    -0.271 OA
ATOM     23  N   PRO d   1      14.259  -1.653  -4.983  0.00  0.00    -0.337 N 
ATOM     24  CA  PRO d   1      15.165  -1.555  -3.836  0.00  0.00     0.091 C 
ATOM     25  CD  PRO d   1      14.806  -2.497  -6.059  0.00  0.00    -0.001 C 
ATOM     26  CB  PRO d   1      16.326  -2.481  -4.213  0.00  0.00    -0.036 C 
ATOM     27  H60 PRO d   1      14.674  -1.899  -2.914  0.00  0.00     0.087 H 
ATOM     28  CG  PRO d   1      15.805  -3.329  -5.337  0.00  0.00    -0.048 C 
ATOM     29  H61 PRO d   1      16.612  -3.109  -3.357  0.00  0.00     0.036 H 
ATOM     30  H62 PRO d   1      17.196  -1.894  -4.544  0.00  0.00     0.036 H 
ATOM     31  H63 PRO d   1      15.328  -4.237  -4.940  0.00  0.00     0.035 H 
ATOM     32  H64 PRO d   1      16.625  -3.611  -6.013  0.00  0.00     0.035 H 
ATOM     33  H65 PRO d   1      15.286  -1.887  -6.838  0.00  0.00     0.064 H 
ATOM     34  H66 PRO d   1      14.022  -3.121  -6.513  0.00  0.00     0.064 H 
BRANCH  24  35
ATOM     35  C   PRO d   1      15.632  -0.122  -3.657  0.00  0.00     0.241 C 
ATOM     36  O   PRO d   1      15.655   0.672  -4.598  0.00  0.00    -0.271 OA
ATOM     37  N   PHE d   1      16.005   0.215  -2.427  0.00  0.00    -0.346 N 
ATOM     38  H67 PHE d   1      15.991  -0.468  -1.696  0.00  0.00     0.163 HD
BRANCH  37  39
ATOM     39  CA  PHE d   1      16.433   1.573  -2.142  0.00  0.00     0.093 C 
ATOM     40  H68 PHE d   1      16.881   1.995  -3.054  0.00  0.00     0.088 H 
BRANCH  39  41
ATOM     41  C   PHE d   1      17.491   1.552  -1.052  0.00  0.00     0.241 C 
ATOM     42  O   PHE d   1      17.675   0.551  -0.351  0.00  0.00    -0.271 OA
ATOM     43  N   GLU d   1      18.187   2.678  -0.923  0.00  0.00    -0.346 N 
ATOM     44  H76 GLU d   1      17.946   3.460  -1.498  0.00  0.00     0.163 HD
BRANCH  43  45
ATOM     45  CA  GLU d   1      19.285   2.818   0.021  0.00  0.00     0.090 C 
ATOM     46  H77 GLU d   1      19.756   1.837   0.177  0.00  0.00     0.087 H 
BRANCH  45  47
ATOM     47  C   GLU d   1      18.769   3.344   1.348  0.00  0.00     0.241 C 
ATOM     48  O   GLU d   1      18.002   4.310   1.381  0.00  0.00    -0.271 OA
ATOM     49  N   TYR d   1      19.215   2.719   2.438  0.00  0.00    -0.346 N 
ATOM     50  H82 TYR d   1      19.849   1.954   2.325  0.00  0.00     0.163 HD
BRANCH  49  51
ATOM     51  CA  TYR d   1      18.819   3.103   3.790  0.00  0.00     0.093 C 
ATOM     52  H83 TYR d   1      18.354   4.099   3.761  0.00  0.00     0.088 H 
BRANCH  51  53
ATOM     53  C   TYR d   1      20.071   3.162   4.654  0.00  0.00     0.241 C 
ATOM     54  O   TYR d   1      20.668   2.125   4.967  0.00  0.00    -0.271 OA
ATOM     55  N   ILE d   1      20.464   4.368   5.033  0.00  0.00    -0.344 N 
ATOM     56  H91 ILE d   1      19.988   5.170   4.673  0.00  0.00     0.163 HD
BRANCH  55  57
ATOM     57  CA  ILE d   1      21.571   4.558   5.961  0.00  0.00     0.099 C 
ATOM     58  H92 ILE d   1      21.733   3.610   6.494  0.00  0.00     0.090 H 
BRANCH  57  59
ATOM     59  C   ILE d   1      21.198   5.620   6.975  0.00  0.00     0.197 C 
ATOM     60  O   ILE d   1      21.952   5.853   7.919  0.00  0.00    -0.646 OA
ATOM     61  OXT ILE d   1      20.144   6.242   6.847  0.00  0.00    -0.646 OA
ENDBRANCH  57  59
BRANCH  57  62
ATOM     62  CB  ILE d   1      22.896   4.932   5.249  0.00  0.00    -0.029 C 
ATOM     63  H93 ILE d   1      23.594   5.326   6.003  0.00  0.00     0.043 H 
BRANCH  62  64
ATOM     64  CG1 ILE d   1      22.658   6.017   4.205  0.00  0.00    -0.063 C 
ATOM     65  H94 ILE d   1      22.043   6.808   4.660  0.00  0.00     0.033 H 
ATOM     66  H95 ILE d   1      22.115   5.572   3.358  0.00  0.00     0.033 H 
BRANCH  64  67
ATOM     67  CD1 ILE d   1      23.941   6.649   3.675  0.00  0.00    -0.076 C 
ATOM     68  H99 ILE d   1      23.690   7.418   2.930  0.00  0.00     0.027 H 
ATOM     69 0H10 ILE d   1      24.565   5.874   3.206  0.00  0.00     0.027 H 
ATOM     70 1H10 ILE d   1      24.493   7.110   4.507  0.00  0.00     0.027 H 
ENDBRANCH  64  67
ENDBRANCH  62  64
BRANCH  62  71
ATOM     71  CG2 ILE d   1      23.521   3.710   4.617  0.00  0.00    -0.070 C 
ATOM     72  H96 ILE d   1      23.683   2.942   5.387  0.00  0.00     0.028 H 
ATOM     73  H97 ILE d   1      24.485   3.984   4.163  0.00  0.00     0.028 H 
ATOM     74  H98 ILE d   1      22.850   3.315   3.841  0.00  0.00     0.028 H 
ENDBRANCH  62  71
ENDBRANCH  57  62
ENDBRANCH  55  57
ENDBRANCH  51  53
BRANCH  51  75
ATOM     75  CB  TYR d   1      17.809   2.109   4.362  0.00  0.00    -0.014 C 
ATOM     76  H84 TYR d   1      18.300   1.127   4.425  0.00  0.00     0.043 H 
ATOM     77  H85 TYR d   1      16.960   2.050   3.665  0.00  0.00     0.043 H 
BRANCH  75  78
ATOM     78  CG  TYR d   1      17.263   2.445   5.732  0.00  0.00    -0.056 A 
ATOM     79  CD1 TYR d   1      16.147   3.259   5.878  0.00  0.00    -0.074 A 
ATOM     80  CE1 TYR d   1      15.630   3.556   7.138  0.00  0.00    -0.051 A 
ATOM     81  H86 TYR d   1      15.669   3.671   4.996  0.00  0.00     0.084 H 
ATOM     82  CZ  TYR d   1      16.234   3.033   8.260  0.00  0.00     0.065 A 
ATOM     83  H88 TYR d   1      14.759   4.194   7.234  0.00  0.00     0.087 H 
ATOM     84  CE2 TYR d   1      17.345   2.217   8.135  0.00  0.00    -0.051 A 
ATOM     85  CD2 TYR d   1      17.851   1.929   6.879  0.00  0.00    -0.074 A 
ATOM     86  H89 TYR d   1      17.818   1.804   9.019  0.00  0.00     0.087 H 
ATOM     87  H87 TYR d   1      18.722   1.289   6.790  0.00  0.00     0.084 H 
BRANCH  82  88
ATOM     88  OH  TYR d   1      15.727   3.323   9.517  0.00  0.00    -0.361 OA
ATOM     89  H90 TYR d   1      14.970   3.891   9.429  0.00  0.00     0.217 HD
ENDBRANCH  82  88
ENDBRANCH  75  78
ENDBRANCH  51  75
ENDBRANCH  49  51
ENDBRANCH  45  47
BRANCH  45  90
ATOM     90  CB  GLU d   1      20.317   3.794  -0.541  0.00  0.00    -0.029 C 
ATOM     91  H78 GLU d   1      21.052   4.021   0.245  0.00  0.00     0.037 H 
ATOM     92  H79 GLU d   1      19.802   4.719  -0.839  0.00  0.00     0.037 H 
BRANCH  90  93
ATOM     93  CG  GLU d   1      21.039   3.244  -1.728  0.00  0.00     0.018 C 
ATOM     94  H80 GLU d   1      21.779   3.981  -2.074  0.00  0.00     0.049 H 
ATOM     95  H81 GLU d   1      20.314   3.047  -2.532  0.00  0.00     0.049 H 
BRANCH  93  96
ATOM     96  CD  GLU d   1      21.747   1.961  -1.377  0.00  0.00     0.172 C 
ATOM     97  OE1 GLU d   1      22.754   2.037  -0.640  0.00  0.00    -0.648 OA
ATOM     98  OE2 GLU d   1      21.270   0.883  -1.796  0.00  0.00    -0.648 OA
ENDBRANCH  93  96
ENDBRANCH  90  93
ENDBRANCH  45  90
ENDBRANCH  43  45
ENDBRANCH  39  41
BRANCH  39  99
ATOM     99  CB  PHE d   1      15.246   2.453  -1.745  0.00  0.00    -0.014 C 
ATOM    100  H69 PHE d   1      14.480   2.377  -2.530  0.00  0.00     0.043 H 
ATOM    101  H70 PHE d   1      15.595   3.494  -1.673  0.00  0.00     0.043 H 
BRANCH  99 102
ATOM    102  CG  PHE d   1      14.619   2.072  -0.433  0.00  0.00    -0.056 A 
ATOM    103  CD1 PHE d   1      13.621   1.116  -0.366  0.00  0.00    -0.077 A 
ATOM    104  CE1 PHE d   1      13.047   0.776   0.848  0.00  0.00    -0.082 A 
ATOM    105  H71 PHE d   1      13.285   0.628  -1.274  0.00  0.00     0.084 H 
ATOM    106  CZ  PHE d   1      13.470   1.395   2.009  0.00  0.00    -0.083 A 
ATOM    107  H73 PHE d   1      12.267   0.025   0.887  0.00  0.00     0.083 H 
ATOM    108  CE2 PHE d   1      14.464   2.344   1.956  0.00  0.00    -0.082 A 
ATOM    109  H75 PHE d   1      13.019   1.133   2.959  0.00  0.00     0.083 H 
ATOM    110  CD2 PHE d   1      15.032   2.679   0.741  0.00  0.00    -0.077 A 
ATOM    111  H74 PHE d   1      14.801   2.828   2.865  0.00  0.00     0.083 H 
ATOM    112  H72 PHE d   1      15.814   3.429   0.707  0.00  0.00     0.084 H 
ENDBRANCH  99 102
ENDBRANCH  39  99
ENDBRANCH  37  39
ENDBRANCH  24  35
ENDBRANCH  19  21
BRANCH  19 113
ATOM    113  CB  GLU d   1      12.806   0.128  -7.198  0.00  0.00    -0.029 C 
ATOM    114  H56 GLU d   1      13.897   0.020  -7.287  0.00  0.00     0.037 H 
ATOM    115  H57 GLU d   1      12.569   1.106  -6.753  0.00  0.00     0.037 H 
BRANCH 113 116
ATOM    116  CG  GLU d   1      12.209   0.082  -8.589  0.00  0.00     0.018 C 
ATOM    117  H58 GLU d   1      12.524   0.980  -9.140  0.00  0.00     0.049 H 
ATOM    118  H59 GLU d   1      11.112   0.070  -8.504  0.00  0.00     0.049 H 
BRANCH 116 119
ATOM    119  CD  GLU d   1      12.652  -1.144  -9.360  0.00  0.00     0.172 C 
ATOM    120  OE1 GLU d   1      13.804  -1.587  -9.167  0.00  0.00    -0.648 OA
ATOM    121  OE2 GLU d   1      11.850  -1.677 -10.155  0.00  0.00    -0.648 OA
ENDBRANCH 116 119
ENDBRANCH 113 116
ENDBRANCH  19 113
ENDBRANCH  17  19
ENDBRANCH   4  15
BRANCH   1 122
ATOM    122  CA  PRO d   1       6.735  -4.404  -5.321  0.00  0.00     0.092 C 
ATOM    123  N   PRO d   1       5.742  -4.710  -6.345  0.00  0.00    -0.337 N 
ATOM    124  C   GLU d   1       4.747  -3.855  -6.579  0.00  0.00     0.243 C 
ATOM    125  CD  PRO d   1       5.940  -6.045  -6.938  0.00  0.00    -0.001 C 
ATOM    126  O   GLU d   1       4.623  -2.814  -5.937  0.00  0.00    -0.271 OA
ATOM    127  CG  PRO d   1       6.851  -6.718  -5.965  0.00  0.00    -0.048 C 
ATOM    128  H45 PRO d   1       6.409  -5.970  -7.930  0.00  0.00     0.064 H 
ATOM    129  H46 PRO d   1       4.985  -6.585  -7.023  0.00  0.00     0.064 H 
ATOM    130  CB  PRO d   1       7.662  -5.627  -5.350  0.00  0.00    -0.036 C 
ATOM    131  H43 PRO d   1       6.268  -7.244  -5.194  0.00  0.00     0.035 H 
ATOM    132  H44 PRO d   1       7.504  -7.435  -6.484  0.00  0.00     0.035 H 
ATOM    133  H41 PRO d   1       7.969  -5.903  -4.330  0.00  0.00     0.036 H 
ATOM    134  H42 PRO d   1       8.555  -5.420  -5.958  0.00  0.00     0.036 H 
ATOM    135  H40 PRO d   1       6.261  -4.294  -4.334  0.00  0.00     0.087 H 
BRANCH 124 136
ATOM    136  CA  GLU d   1       3.769  -4.190  -7.700  0.00  0.00     0.090 C 
ATOM    137  H35 GLU d   1       3.570  -5.272  -7.715  0.00  0.00     0.087 H 
BRANCH 136 138
ATOM    138  N   GLU d   1       2.546  -3.468  -7.493  0.00  0.00    -0.346 N 
ATOM    139  C   PRO d   1       1.692  -3.791  -6.542  0.00  0.00     0.241 C 
ATOM    140  O   PRO d   1       1.784  -4.817  -5.860  0.00  0.00    -0.271 OA
ATOM    141  H34 GLU d   1       2.335  -2.694  -8.090  0.00  0.00     0.163 HD
BRANCH 139 142
ATOM    142  CA  PRO d   1       0.592  -2.770  -6.326  0.00  0.00     0.091 C 
ATOM    143  N   PRO d   1      -0.576  -3.383  -5.700  0.00  0.00    -0.337 N 
ATOM    144  C   GLU d   1      -1.255  -4.314  -6.369  0.00  0.00     0.243 C 
ATOM    145  CD  PRO d   1      -0.848  -2.780  -4.385  0.00  0.00    -0.001 C 
ATOM    146  O   GLU d   1      -0.905  -4.687  -7.494  0.00  0.00    -0.271 OA
ATOM    147  CG  PRO d   1       0.406  -2.077  -4.081  0.00  0.00    -0.048 C 
ATOM    148  H32 PRO d   1      -1.061  -3.553  -3.632  0.00  0.00     0.064 H 
ATOM    149  H33 PRO d   1      -1.693  -2.077  -4.439  0.00  0.00     0.064 H 
ATOM    150  CB  PRO d   1       1.027  -1.700  -5.318  0.00  0.00    -0.036 C 
ATOM    151  H30 PRO d   1       0.192  -1.178  -3.484  0.00  0.00     0.035 H 
ATOM    152  H31 PRO d   1       1.077  -2.741  -3.516  0.00  0.00     0.035 H 
ATOM    153  H28 PRO d   1       0.681  -0.706  -5.637  0.00  0.00     0.036 H 
ATOM    154  H29 PRO d   1       2.122  -1.691  -5.213  0.00  0.00     0.036 H 
ATOM    155  H27 PRO d   1       0.324  -2.313  -7.290  0.00  0.00     0.087 H 
BRANCH 144 156
ATOM    156  CA  GLU d   1      -2.504  -4.887  -5.722  0.00  0.00     0.090 C 
ATOM    157  H22 GLU d   1      -3.050  -4.084  -5.206  0.00  0.00     0.087 H 
BRANCH 156 158
ATOM    158  N   GLU d   1      -3.348  -5.464  -6.749  0.00  0.00    -0.346 N 
ATOM    159  C   GLN d   1      -4.169  -4.728  -7.479  0.00  0.00     0.241 C 
ATOM    160  O   GLN d   1      -4.313  -3.512  -7.311  0.00  0.00    -0.271 OA
ATOM    161  H21 GLU d   1      -3.308  -6.450  -6.911  0.00  0.00     0.163 HD
BRANCH 159 162
ATOM    162  CA  GLN d   1      -4.936  -5.473  -8.566  0.00  0.00     0.090 C 
ATOM    163  H14 GLN d   1      -4.852  -6.553  -8.378  0.00  0.00     0.087 H 
BRANCH 162 164
ATOM    164  N   GLN d   1      -6.345  -5.108  -8.556  0.00  0.00    -0.346 N 
ATOM    165  C   PRO d   1      -7.115  -5.394  -7.511  0.00  0.00     0.241 C 
ATOM    166  O   PRO d   1      -6.680  -5.899  -6.474  0.00  0.00    -0.271 OA
ATOM    167  H13 GLN d   1      -6.739  -4.636  -9.345  0.00  0.00     0.163 HD
BRANCH 165 168
ATOM    168  CA  PRO d   1      -8.584  -5.031  -7.660  0.00  0.00     0.091 C 
ATOM    169  N   PRO d   1      -9.459  -6.062  -7.087  0.00  0.00    -0.337 N 
ATOM    170  C   GLY d   1      -9.358  -7.327  -7.501  0.00  0.00     0.246 C 
ATOM    171  CD  PRO d   1     -10.507  -5.486  -6.225  0.00  0.00    -0.001 C 
ATOM    172  O   GLY d   1      -8.610  -7.672  -8.414  0.00  0.00    -0.272 OA
ATOM    173  CG  PRO d   1     -10.366  -4.005  -6.440  0.00  0.00    -0.048 C 
ATOM    174  H11 PRO d   1     -10.336  -5.748  -5.170  0.00  0.00     0.064 H 
ATOM    175  H12 PRO d   1     -11.504  -5.834  -6.532  0.00  0.00     0.064 H 
ATOM    176  CB  PRO d   1      -8.939  -3.780  -6.849  0.00  0.00    -0.036 C 
ATOM    177  H9  PRO d   1     -11.049  -3.667  -7.234  0.00  0.00     0.035 H 
ATOM    178  H10 PRO d   1     -10.587  -3.461  -5.510  0.00  0.00     0.035 H 
ATOM    179  H7  PRO d   1      -8.848  -2.874  -7.467  0.00  0.00     0.036 H 
ATOM    180  H8  PRO d   1      -8.289  -3.689  -5.966  0.00  0.00     0.036 H 
ATOM    181  H6  PRO d   1      -8.809  -4.880  -8.726  0.00  0.00     0.087 H 
BRANCH 170 182
ATOM    182  CA  GLY d   1     -10.231  -8.353  -6.801  0.00  0.00     0.152 C 
ATOM    183  H4  GLY d   1      -9.863  -8.486  -5.773  0.00  0.00     0.090 H 
ATOM    184  H5  GLY d   1     -11.265  -7.978  -6.775  0.00  0.00     0.090 H 
BRANCH 182 185
ATOM    185  N   GLY d   1     -10.220  -9.641  -7.470  0.00  0.00    -0.071 N 
ATOM    186  H1  GLY d   1     -10.812 -10.285  -6.969  0.00  0.00     0.274 HD
ATOM    187  H2  GLY d   1      -9.278  -9.999  -7.494  0.00  0.00     0.274 HD
ATOM    188  H3  GLY d   1     -10.562  -9.533  -8.412  0.00  0.00     0.274 HD
ENDBRANCH 182 185
ENDBRANCH 170 182
ENDBRANCH 165 168
ENDBRANCH 162 164
BRANCH 162 189
ATOM    189  CB  GLN d   1      -4.330  -5.160  -9.932  0.00  0.00    -0.030 C 
ATOM    190  H15 GLN d   1      -4.304  -4.068 -10.063  0.00  0.00     0.037 H 
ATOM    191  H16 GLN d   1      -4.967  -5.607 -10.710  0.00  0.00     0.037 H 
BRANCH 189 192
ATOM    192  CG  GLN d   1      -2.923  -5.700 -10.089  0.00  0.00     0.011 C 
ATOM    193  H17 GLN d   1      -2.896  -6.728  -9.698  0.00  0.00     0.047 H 
ATOM    194  H18 GLN d   1      -2.238  -5.068  -9.505  0.00  0.00     0.047 H 
BRANCH 192 195
ATOM    195  CD  GLN d   1      -2.457  -5.719 -11.518  0.00  0.00     0.215 C 
ATOM    196  OE1 GLN d   1      -3.261  -5.624 -12.439  0.00  0.00    -0.274 OA
ATOM    197  NE2 GLN d   1      -1.148  -5.851 -11.714  0.00  0.00    -0.370 N 
ATOM    198  H19 GLN d   1      -0.781  -5.870 -12.644  0.00  0.00     0.159 HD
ATOM    199  H20 GLN d   1      -0.531  -5.931 -10.931  0.00  0.00     0.159 HD
ENDBRANCH 192 195
ENDBRANCH 189 192
ENDBRANCH 162 189
ENDBRANCH 159 162
ENDBRANCH 156 158
BRANCH 156 200
ATOM    200  CB  GLU d   1      -2.121  -5.963  -4.716  0.00  0.00    -0.029 C 
ATOM    201  H23 GLU d   1      -1.352  -5.556  -4.043  0.00  0.00     0.037 H 
ATOM    202  H24 GLU d   1      -1.711  -6.825  -5.263  0.00  0.00     0.037 H 
BRANCH 200 203
ATOM    203  CG  GLU d   1      -3.291  -6.434  -3.882  0.00  0.00     0.018 C 
ATOM    204  H25 GLU d   1      -4.055  -6.853  -4.554  0.00  0.00     0.049 H 
ATOM    205  H26 GLU d   1      -3.709  -5.570  -3.345  0.00  0.00     0.049 H 
BRANCH 203 206
ATOM    206  CD  GLU d   1      -2.907  -7.486  -2.875  0.00  0.00     0.172 C 
ATOM    207  OE1 GLU d   1      -1.688  -7.701  -2.666  0.00  0.00    -0.648 OA
ATOM    208  OE2 GLU d   1      -3.838  -8.096  -2.302  0.00  0.00    -0.648 OA
ENDBRANCH 203 206
ENDBRANCH 200 203
ENDBRANCH 156 200
ENDBRANCH 144 156
ENDBRANCH 139 142
ENDBRANCH 136 138
BRANCH 136 209
ATOM    209  CB  GLU d   1       4.378  -3.749  -9.032  0.00  0.00    -0.029 C 
ATOM    210  H36 GLU d   1       5.333  -4.276  -9.172  0.00  0.00     0.037 H 
ATOM    211  H37 GLU d   1       4.560  -2.665  -8.993  0.00  0.00     0.037 H 
BRANCH 209 212
ATOM    212  CG  GLU d   1       3.487  -4.045 -10.214  0.00  0.00     0.018 C 
ATOM    213  H38 GLU d   1       3.948  -3.626 -11.121  0.00  0.00     0.049 H 
ATOM    214  H39 GLU d   1       2.508  -3.572 -10.049  0.00  0.00     0.049 H 
BRANCH 212 215
ATOM    215  CD  GLU d   1       3.287  -5.525 -10.408  0.00  0.00     0.172 C 
ATOM    216  OE1 GLU d   1       4.238  -6.288 -10.140  0.00  0.00    -0.648 OA
ATOM    217  OE2 GLU d   1       2.179  -5.931 -10.820  0.00  0.00    -0.648 OA
ENDBRANCH 212 215
ENDBRANCH 209 212
ENDBRANCH 136 209
ENDBRANCH 124 136
ENDBRANCH   1 122
TORSDOF 47
