REMARK  11 active torsions:
REMARK  status: ('A' for Active; 'I' for Inactive)
REMARK    1  A    between atoms: O3B_8  and  PG_1 
REMARK    2  A    between atoms: PB_5  and  O3B_8 
REMARK    3  A    between atoms: O3A_12  and  PB_5 
REMARK    4  A    between atoms: PA_9  and  O3A_12 
REMARK    5  A    between atoms: PA_9  and  O5'_13 
REMARK    6  A    between atoms: O5'_13  and  C5'_14 
REMARK    7  A    between atoms: C5'_14  and  C4'_15 
REMARK    8  A    between atoms: C3'_17  and  O3'_18 
REMARK    9  A    between atoms: C2'_19  and  O2'_20 
REMARK   10  A    between atoms: C1'_21  and  N9_22 
REMARK   11  A    between atoms: C6_26  and  N6_27 
ROOT
ATOM      1  C4' ATP d   1     -16.591  18.782 -11.670  0.00  0.00     0.089 C 
ATOM      2  O4' ATP d   1     -17.992  18.887 -11.955  0.00  0.00    -0.353 OA
ATOM      3  C3' ATP d   1     -16.438  19.398 -10.267  0.00  0.00     0.091 C 
ATOM      4  C2' ATP d   1     -17.433  20.562 -10.343  0.00  0.00     0.105 C 
ATOM      5  C1' ATP d   1     -18.572  19.951 -11.190  0.00  0.00     0.139 C 
ATOM      6  H3  ATP d   1     -15.979  19.325 -12.405  0.00  0.00     0.090 H 
ATOM      7  H4  ATP d   1     -16.711  18.681  -9.479  0.00  0.00     0.091 H 
ATOM      8  H6  ATP d   1     -17.789  20.855  -9.344  0.00  0.00     0.093 H 
ATOM      9  H8  ATP d   1     -18.991  20.719 -11.857  0.00  0.00     0.122 H 
ENDROOT
BRANCH   1  10
ATOM     10  C5' ATP d   1     -16.251  17.311 -11.687  0.00  0.00     0.058 C 
ATOM     11  H1  ATP d   1     -17.176  16.724 -11.587  0.00  0.00     0.079 H 
ATOM     12  H2  ATP d   1     -15.761  17.064 -12.640  0.00  0.00     0.079 H 
BRANCH  10  13
ATOM     13  O5' ATP d   1     -15.380  16.992 -10.620  0.00  0.00    -0.287 OA
BRANCH  13  14
ATOM     14  PA  ATP d   1     -15.251  15.469 -10.161  0.00  0.00     0.417 P 
ATOM     15  O1A ATP d   1     -16.582  15.022  -9.368  0.00  0.00    -0.624 OA
ATOM     16  O2A ATP d   1     -14.013  15.249  -9.365  0.00  0.00    -0.624 OA
BRANCH  14  17
ATOM     17  O3A ATP d   1     -15.218  14.661 -11.563  0.00  0.00    -0.180 OA
BRANCH  17  18
ATOM     18  PB  ATP d   1     -14.091  14.493 -12.716  0.00  0.00     0.428 P 
ATOM     19  O1B ATP d   1     -14.611  13.648 -13.822  0.00  0.00    -0.624 OA
ATOM     20  O2B ATP d   1     -12.733  13.870 -12.107  0.00  0.00    -0.624 OA
BRANCH  18  21
ATOM     21  O3B ATP d   1     -13.844  16.012 -13.216  0.00  0.00    -0.173 OA
BRANCH  21  22
ATOM     22  PG  ATP d   1     -12.582  17.026 -13.144  0.00  0.00     0.431 P 
ATOM     23  O1G ATP d   1     -11.367  16.392 -13.863  0.00  0.00    -0.616 OA
ATOM     24  O2G ATP d   1     -12.240  17.309 -11.722  0.00  0.00    -0.616 OA
ATOM     25  O3G ATP d   1     -12.957  18.349 -13.846  0.00  0.00    -0.616 OA
ENDBRANCH  21  22
ENDBRANCH  18  21
ENDBRANCH  17  18
ENDBRANCH  14  17
ENDBRANCH  13  14
ENDBRANCH  10  13
ENDBRANCH   1  10
BRANCH   3  26
ATOM     26  O3' ATP d   1     -15.107  19.875 -10.042  0.00  0.00    -0.390 OA
ATOM     27  H5  ATP d   1     -14.897  20.541 -10.687  0.00  0.00     0.210 HD
ENDBRANCH   3  26
BRANCH   5  28
ATOM     28  N9  ATP d   1     -19.638  19.400 -10.360  0.00  0.00    -0.294 N 
ATOM     29  C8  ATP d   1     -19.549  18.512  -9.332  0.00  0.00     0.071 A 
ATOM     30  N7  ATP d   1     -20.708  18.264  -8.778  0.00  0.00    -0.236 NA
ATOM     31  H9  ATP d   1     -18.615  18.057  -9.006  0.00  0.00     0.144 H 
ATOM     32  C5  ATP d   1     -21.584  19.044  -9.467  0.00  0.00     0.149 A 
ATOM     33  C6  ATP d   1     -22.952  19.282  -9.388  0.00  0.00     0.155 A 
ATOM     34  C4  ATP d   1     -20.917  19.761 -10.457  0.00  0.00     0.167 A 
ATOM     35  N1  ATP d   1     -23.467  20.135 -10.256  0.00  0.00    -0.222 NA
ATOM     36  C2  ATP d   1     -22.715  20.738 -11.158  0.00  0.00     0.091 A 
ATOM     37  N3  ATP d   1     -21.425  20.618 -11.326  0.00  0.00    -0.222 NA
ATOM     38  H12 ATP d   1     -23.227  21.410 -11.837  0.00  0.00     0.146 H 
BRANCH  33  39
ATOM     39  N6  ATP d   1     -23.754  18.690  -8.482  0.00  0.00    -0.382 N 
ATOM     40  H10 ATP d   1     -24.762  18.904  -8.469  0.00  0.00     0.157 HD
ATOM     41  H11 ATP d   1     -23.360  18.024  -7.803  0.00  0.00     0.157 HD
ENDBRANCH  33  39
ENDBRANCH   5  28
BRANCH   4  42
ATOM     42  O2' ATP d   1     -16.841  21.696 -10.996  0.00  0.00    -0.388 OA
ATOM     43  H7  ATP d   1     -17.473  22.404 -11.033  0.00  0.00     0.210 HD
ENDBRANCH   4  42
TORSDOF 11
