REMARK WARNING: 32 MAX_TORS EXCEEDED!!!
REMARK  71 active torsions:
REMARK  status: ('A' for Active; 'I' for Inactive)
REMARK    1  A    between atoms: CA_2  and  N_1 
REMARK    2  A    between atoms: CA_8  and  CB_11 
REMARK    3  A    between atoms: CB_11  and  OG_12 
REMARK    4  A    between atoms: CA_21  and  CB_24 
REMARK    5  A    between atoms: CB_24  and  CG_25 
REMARK    6  A    between atoms: CG_25  and  CD1_26 
REMARK    7  A    between atoms: CG_25  and  CD2_27 
REMARK    8  A    between atoms: CA_29  and  CB_32 
REMARK    9  A    between atoms: CB_32  and  CG_33 
REMARK   10  A    between atoms: CG_33  and  CD_34 
REMARK   11  A    between atoms: CA_38  and  C_39 
REMARK       I    between atoms: C_39  and  N_43 
REMARK   12  A    between atoms: N_43  and  CA_44 
REMARK   13  A    between atoms: CA_44  and  C_45 
REMARK   14  A    between atoms: CA_44  and  CB_47 
REMARK       I    between atoms: C_45  and  N_51 
REMARK   15  A    between atoms: CB_47  and  CG_48 
REMARK   16  A    between atoms: N_51  and  CA_52 
REMARK   17  A    between atoms: CA_52  and  C_53 
REMARK   18  A    between atoms: CA_52  and  CB_55 
REMARK       I    between atoms: C_53  and  N_59 
REMARK   19  A    between atoms: CB_55  and  CG_56 
REMARK   20  A    between atoms: CG_56  and  CD1_57 
REMARK   21  A    between atoms: CG_56  and  CD2_58 
REMARK   22  A    between atoms: N_59  and  CA_60 
REMARK   23  A    between atoms: CA_60  and  C_61 
REMARK   24  A    between atoms: CA_60  and  CB_63 
REMARK       I    between atoms: C_61  and  N_68 
REMARK   25  A    between atoms: CB_63  and  CG_64 
REMARK   26  A    between atoms: CG_64  and  CD_65 
REMARK   27  A    between atoms: CD_65  and  CE_66 
REMARK   28  A    between atoms: CE_66  and  NZ_67 
REMARK   29  A    between atoms: N_68  and  CA_69 
REMARK   30  A    between atoms: CA_69  and  C_70 
REMARK       I    between atoms: C_70  and  N_72 
REMARK   31  A    between atoms: N_72  and  CA_73 
REMARK   32  A    between atoms: CA_73  and  C_74 
REMARK   33  A    between atoms: CA_73  and  CB_76 
REMARK       I    between atoms: C_74  and  N_84 
REMARK   34  A    between atoms: CB_76  and  CG_77 
REMARK   35  A    between atoms: CZ_82  and  OH_83 
REMARK   36  A    between atoms: N_84  and  CA_85 
REMARK   37  A    between atoms: CA_85  and  C_86 
REMARK   38  A    between atoms: CA_85  and  CB_88 
REMARK       I    between atoms: C_86  and  N_92 
REMARK   39  A    between atoms: CB_88  and  CG_89 
REMARK   40  A    between atoms: CG_89  and  CD1_90 
REMARK   41  A    between atoms: CG_89  and  CD2_91 
REMARK   42  A    between atoms: N_92  and  CA_93 
REMARK   43  A    between atoms: CA_93  and  C_94 
REMARK   44  A    between atoms: CA_93  and  CB_96 
REMARK       I    between atoms: C_94  and  N_100 
REMARK   45  A    between atoms: CB_96  and  CG_97 
REMARK   46  A    between atoms: N_100  and  CA_101 
REMARK   47  A    between atoms: CA_101  and  C_102 
REMARK   48  A    between atoms: CA_101  and  CB_104 
REMARK       I    between atoms: C_102  and  N_114 
REMARK   49  A    between atoms: CB_104  and  CG_105 
REMARK   50  A    between atoms: N_114  and  CA_115 
REMARK   51  A    between atoms: CA_115  and  C_116 
REMARK   52  A    between atoms: CA_115  and  CB_118 
REMARK       I    between atoms: C_116  and  N_122 
REMARK   53  A    between atoms: CB_118  and  CG1_119 
REMARK   54  A    between atoms: CB_118  and  CG2_120 
REMARK   55  A    between atoms: CG1_119  and  CD1_121 
REMARK   56  A    between atoms: N_122  and  CA_123 
REMARK   57  A    between atoms: CA_123  and  C_124 
REMARK   58  A    between atoms: CA_123  and  CB_126 
REMARK       I    between atoms: C_124  and  N_129 
REMARK   59  A    between atoms: CB_126  and  OG1_127 
REMARK   60  A    between atoms: CB_126  and  CG2_128 
REMARK   61  A    between atoms: N_129  and  CA_130 
REMARK   62  A    between atoms: CA_130  and  C_131 
REMARK   63  A    between atoms: CA_130  and  CB_133 
REMARK       I    between atoms: C_131  and  N_138 
REMARK   64  A    between atoms: CB_133  and  CG_134 
REMARK   65  A    between atoms: CG_134  and  CD_135 
REMARK       I    between atoms: CD_135  and  NE2_137 
REMARK   66  A    between atoms: N_138  and  CA_139 
REMARK   67  A    between atoms: CA_139  and  C_140 
REMARK   68  A    between atoms: CA_139  and  CB_142 
REMARK       I    between atoms: C_140  and  N_143 
REMARK   69  A    between atoms: N_143  and  CA_144 
REMARK   70  A    between atoms: CA_144  and  C_145 
REMARK   71  A    between atoms: CA_144  and  CB_147 
ROOT
ATOM      1  C   LYS d   1      35.604   4.203 144.651  0.00  0.00     0.240 C 
ATOM      2  O   LYS d   1      36.250   5.232 144.726  0.00  0.00    -0.271 OA
ATOM      3  N   GLY d   1      34.718   3.969 143.686  0.00  0.00    -0.351 N 
ATOM      4  H68 GLY d   1      34.331   3.051 143.601  0.00  0.00     0.163 HD
ENDROOT
BRANCH   3   5
ATOM      5  CA  GLY d   1      34.290   5.000 142.747  0.00  0.00     0.069 C 
ATOM      6  H69 GLY d   1      33.416   4.630 142.190  0.00  0.00     0.078 H 
ATOM      7  H70 GLY d   1      35.113   5.203 142.046  0.00  0.00     0.078 H 
BRANCH   5   8
ATOM      8  C   GLY d   1      33.911   6.298 143.443  0.00  0.00     0.236 C 
ATOM      9  O   GLY d   1      34.430   7.362 143.101  0.00  0.00    -0.272 OA
ATOM     10  N   TYR d   1      33.031   6.205 144.438  0.00  0.00    -0.346 N 
ATOM     11  H71 TYR d   1      32.690   5.300 144.693  0.00  0.00     0.163 HD
BRANCH  10  12
ATOM     12  CA  TYR d   1      32.538   7.379 145.179  0.00  0.00     0.093 C 
ATOM     13  H72 TYR d   1      32.322   8.163 144.438  0.00  0.00     0.088 H 
BRANCH  12  14
ATOM     14  C   TYR d   1      33.545   7.949 146.177  0.00  0.00     0.241 C 
ATOM     15  O   TYR d   1      33.517   9.133 146.479  0.00  0.00    -0.271 OA
ATOM     16  N   LEU d   1      34.412   7.108 146.724  0.00  0.00    -0.346 N 
ATOM     17  H80 LEU d   1      34.324   6.125 146.565  0.00  0.00     0.163 HD
BRANCH  16  18
ATOM     18  CA  LEU d   1      35.495   7.618 147.558  0.00  0.00     0.089 C 
ATOM     19  H81 LEU d   1      35.055   8.259 148.336  0.00  0.00     0.087 H 
BRANCH  18  20
ATOM     20  C   LEU d   1      36.448   8.469 146.718  0.00  0.00     0.241 C 
ATOM     21  O   LEU d   1      36.887   9.508 147.180  0.00  0.00    -0.271 OA
ATOM     22  N   ASP d   1      36.762   8.031 145.498  0.00  0.00    -0.346 N 
ATOM     23  H91 ASP d   1      36.419   7.139 145.203  0.00  0.00     0.163 HD
BRANCH  22  24
ATOM     24  CA  ASP d   1      37.593   8.810 144.573  0.00  0.00     0.098 C 
ATOM     25  H92 ASP d   1      38.535   9.062 145.082  0.00  0.00     0.088 H 
BRANCH  24  26
ATOM     26  C   ASP d   1      36.898  10.112 144.140  0.00  0.00     0.241 C 
ATOM     27  O   ASP d   1      37.539  11.167 144.007  0.00  0.00    -0.271 OA
ATOM     28  N   TRP d   1      35.596  10.011 143.873  0.00  0.00    -0.346 N 
ATOM     29  H95 TRP d   1      35.171   9.106 143.895  0.00  0.00     0.163 HD
BRANCH  28  30
ATOM     30  CA  TRP d   1      34.764  11.169 143.549  0.00  0.00     0.093 C 
ATOM     31  H96 TRP d   1      35.084  11.596 142.587  0.00  0.00     0.088 H 
BRANCH  30  32
ATOM     32  C   TRP d   1      34.934  12.228 144.643  0.00  0.00     0.241 C 
ATOM     33  O   TRP d   1      35.194  13.397 144.361  0.00  0.00    -0.271 OA
ATOM     34  N   ILE d   1      34.824  11.789 145.893  0.00  0.00    -0.346 N 
ATOM     35 5H10 ILE d   1      34.697  10.810 146.051  0.00  0.00     0.163 HD
BRANCH  34  36
ATOM     36  CA  ILE d   1      34.883  12.689 147.045  0.00  0.00     0.092 C 
ATOM     37 6H10 ILE d   1      34.178  13.512 146.856  0.00  0.00     0.088 H 
BRANCH  36  38
ATOM     38  C   ILE d   1      36.264  13.307 147.222  0.00  0.00     0.241 C 
ATOM     39  O   ILE d   1      36.374  14.481 147.565  0.00  0.00    -0.271 OA
ATOM     40  N   THR d   1      37.317  12.537 146.968  0.00  0.00    -0.344 N 
ATOM     41 6H11 THR d   1      37.180  11.585 146.694  0.00  0.00     0.163 HD
BRANCH  40  42
ATOM     42  CA  THR d   1      38.681  13.072 147.086  0.00  0.00     0.113 C 
ATOM     43 7H11 THR d   1      38.789  13.457 148.111  0.00  0.00     0.091 H 
BRANCH  42  44
ATOM     44  C   THR d   1      38.924  14.239 146.124  0.00  0.00     0.243 C 
ATOM     45  O   THR d   1      39.684  15.157 146.445  0.00  0.00    -0.271 OA
ATOM     46  N   GLN d   1      38.259  14.237 144.971  0.00  0.00    -0.346 N 
ATOM     47 3H12 GLN d   1      37.638  13.483 144.757  0.00  0.00     0.163 HD
BRANCH  46  48
ATOM     48  CA  GLN d   1      38.431  15.331 144.016  0.00  0.00     0.090 C 
ATOM     49 4H12 GLN d   1      39.513  15.437 143.846  0.00  0.00     0.087 H 
BRANCH  48  50
ATOM     50  C   GLN d   1      37.921  16.671 144.514  0.00  0.00     0.241 C 
ATOM     51  O   GLN d   1      38.384  17.713 144.058  0.00  0.00    -0.271 OA
ATOM     52  N   ALA d   1      36.971  16.638 145.440  0.00  0.00    -0.346 N 
ATOM     53 1H13 ALA d   1      36.609  15.752 145.730  0.00  0.00     0.163 HD
BRANCH  52  54
ATOM     54  CA  ALA d   1      36.442  17.840 146.043  0.00  0.00     0.086 C 
ATOM     55 2H13 ALA d   1      36.392  18.617 145.266  0.00  0.00     0.086 H 
BRANCH  54  56
ATOM     56  C   ALA d   1      37.317  18.366 147.176  0.00  0.00     0.240 C 
ATOM     57  O   ALA d   1      37.153  19.505 147.587  0.00  0.00    -0.271 OA
ATOM     58  N   GLU d   1      38.235  17.544 147.683  0.00  0.00    -0.345 N 
ATOM     59 6H13 GLU d   1      38.363  16.646 147.263  0.00  0.00     0.163 HD
BRANCH  58  60
ATOM     60  CA  GLU d   1      39.066  17.910 148.837  0.00  0.00     0.093 C 
ATOM     61 7H13 GLU d   1      38.394  18.190 149.661  0.00  0.00     0.089 H 
BRANCH  60  62
ATOM     62  C   GLU d   1      39.982  19.094 148.548  0.00  0.00     0.196 C 
ATOM     63  O   GLU d   1      40.508  19.230 147.446  0.00  0.00    -0.646 OA
ATOM     64  OXT GLU d   1      40.214  19.937 149.411  0.00  0.00    -0.646 OA
ENDBRANCH  60  62
BRANCH  60  65
ATOM     65  CB  GLU d   1      39.918  16.719 149.285  0.00  0.00    -0.048 C 
ATOM     66 8H13 GLU d   1      40.532  17.012 150.149  0.00  0.00     0.030 H 
ATOM     67 9H13 GLU d   1      40.573  16.405 148.459  0.00  0.00     0.030 H 
ATOM     68 0H14 GLU d   1      39.261  15.884 149.569  0.00  0.00     0.030 H 
ENDBRANCH  60  65
ENDBRANCH  58  60
ENDBRANCH  54  56
BRANCH  54  69
ATOM     69  CB  ALA d   1      35.035  17.574 146.553  0.00  0.00    -0.049 C 
ATOM     70 3H13 ALA d   1      34.632  18.489 147.012  0.00  0.00     0.030 H 
ATOM     71 4H13 ALA d   1      35.063  16.769 147.303  0.00  0.00     0.030 H 
ATOM     72 5H13 ALA d   1      34.392  17.271 145.714  0.00  0.00     0.030 H 
ENDBRANCH  54  69
ENDBRANCH  52  54
ENDBRANCH  48  50
BRANCH  48  73
ATOM     73  CB  GLN d   1      37.779  15.011 142.673  0.00  0.00    -0.030 C 
ATOM     74 5H12 GLN d   1      37.737  15.935 142.077  0.00  0.00     0.037 H 
ATOM     75 6H12 GLN d   1      36.757  14.649 142.860  0.00  0.00     0.037 H 
BRANCH  73  76
ATOM     76  CG  GLN d   1      38.521  13.961 141.876  0.00  0.00     0.011 C 
ATOM     77 7H12 GLN d   1      38.032  13.855 140.897  0.00  0.00     0.047 H 
ATOM     78 8H12 GLN d   1      38.465  13.006 142.419  0.00  0.00     0.047 H 
BRANCH  76  79
ATOM     79  CD  GLN d   1      39.989  14.303 141.649  0.00  0.00     0.215 C 
ATOM     80  OE1 GLN d   1      40.392  15.470 141.711  0.00  0.00    -0.274 OA
ATOM     81  NE2 GLN d   1      40.800  13.278 141.385  0.00  0.00    -0.370 N 
ATOM     82 9H12 GLN d   1      41.774  13.439 141.227  0.00  0.00     0.159 HD
ATOM     83 0H13 GLN d   1      40.434  12.348 141.345  0.00  0.00     0.159 HD
ENDBRANCH  76  79
ENDBRANCH  73  76
ENDBRANCH  48  73
ENDBRANCH  46  48
ENDBRANCH  42  44
BRANCH  42  84
ATOM     84  CB  THR d   1      39.763  11.992 146.881  0.00  0.00     0.060 C 
ATOM     85 8H11 THR d   1      40.754  12.461 146.970  0.00  0.00     0.086 H 
BRANCH  84  86
ATOM     86  OG1 THR d   1      39.631  11.413 145.582  0.00  0.00    -0.393 OA
ATOM     87 9H11 THR d   1      38.772  11.017 145.499  0.00  0.00     0.210 HD
ENDBRANCH  84  86
BRANCH  84  88
ATOM     88  CG2 THR d   1      39.642  10.906 147.911  0.00  0.00    -0.050 C 
ATOM     89 0H12 THR d   1      40.424  10.151 147.742  0.00  0.00     0.031 H 
ATOM     90 1H12 THR d   1      38.652  10.433 147.831  0.00  0.00     0.031 H 
ATOM     91 2H12 THR d   1      39.761  11.338 148.915  0.00  0.00     0.031 H 
ENDBRANCH  84  88
ENDBRANCH  42  84
ENDBRANCH  40  42
ENDBRANCH  36  38
BRANCH  36  92
ATOM     92  CB  ILE d   1      34.426  11.971 148.327  0.00  0.00    -0.030 C 
ATOM     93 7H10 ILE d   1      34.909  10.984 148.375  0.00  0.00     0.043 H 
BRANCH  92  94
ATOM     94  CG1 ILE d   1      32.919  11.796 148.292  0.00  0.00    -0.063 C 
ATOM     95 8H10 ILE d   1      32.637  11.413 147.300  0.00  0.00     0.033 H 
ATOM     96 9H10 ILE d   1      32.452  12.779 148.452  0.00  0.00     0.033 H 
BRANCH  94  97
ATOM     97  CD1 ILE d   1      32.394  10.845 149.336  0.00  0.00    -0.076 C 
ATOM     98 3H11 ILE d   1      31.300  10.771 149.248  0.00  0.00     0.027 H 
ATOM     99 4H11 ILE d   1      32.657  11.218 150.337  0.00  0.00     0.027 H 
ATOM    100 5H11 ILE d   1      32.842   9.852 149.186  0.00  0.00     0.027 H 
ENDBRANCH  94  97
ENDBRANCH  92  94
BRANCH  92 101
ATOM    101  CG2 ILE d   1      34.797  12.764 149.568  0.00  0.00    -0.071 C 
ATOM    102 0H11 ILE d   1      35.888  12.898 149.605  0.00  0.00     0.028 H 
ATOM    103 1H11 ILE d   1      34.464  12.220 150.464  0.00  0.00     0.028 H 
ATOM    104 2H11 ILE d   1      34.308  13.749 149.534  0.00  0.00     0.028 H 
ENDBRANCH  92 101
ENDBRANCH  36  92
ENDBRANCH  34  36
ENDBRANCH  30  32
BRANCH  30 105
ATOM    105  CB  TRP d   1      33.315  10.701 143.428  0.00  0.00    -0.012 C 
ATOM    106  H97 TRP d   1      33.019  10.310 144.412  0.00  0.00     0.044 H 
ATOM    107  H98 TRP d   1      33.300   9.886 142.690  0.00  0.00     0.044 H 
BRANCH 105 108
ATOM    108  CG  TRP d   1      32.249  11.705 143.007  0.00  0.00    -0.028 A 
ATOM    109  CD1 TRP d   1      32.168  13.028 143.328  0.00  0.00    -0.015 A 
ATOM    110  NE1 TRP d   1      31.030  13.572 142.799  0.00  0.00    -0.365 N 
ATOM    111  H99 TRP d   1      32.903  13.572 143.920  0.00  0.00     0.112 H 
ATOM    112  CE2 TRP d   1      30.330  12.596 142.144  0.00  0.00     0.042 A 
ATOM    113 0H10 TRP d   1      30.746  14.559 142.881  0.00  0.00     0.165 HD
ATOM    114  CD2 TRP d   1      31.066  11.406 142.258  0.00  0.00    -0.002 A 
ATOM    115  CZ2 TRP d   1      29.121  12.664 141.455  0.00  0.00    -0.056 A 
ATOM    116  CE3 TRP d   1      30.569  10.244 141.657  0.00  0.00    -0.070 A 
ATOM    117  CZ3 TRP d   1      29.368  10.304 140.979  0.00  0.00    -0.082 A 
ATOM    118 1H10 TRP d   1      31.118   9.312 141.723  0.00  0.00     0.084 H 
ATOM    119  CH2 TRP d   1      28.653  11.512 140.881  0.00  0.00    -0.081 A 
ATOM    120 3H10 TRP d   1      28.970   9.408 140.516  0.00  0.00     0.083 H 
ATOM    121 4H10 TRP d   1      27.713  11.531 140.341  0.00  0.00     0.083 H 
ATOM    122 2H10 TRP d   1      28.571  13.595 141.376  0.00  0.00     0.086 H 
ENDBRANCH 105 108
ENDBRANCH  30 105
ENDBRANCH  28  30
ENDBRANCH  24  26
BRANCH  24 123
ATOM    123  CB  ASP d   1      37.906   8.003 143.314  0.00  0.00     0.043 C 
ATOM    124  H93 ASP d   1      38.162   8.703 142.505  0.00  0.00     0.052 H 
ATOM    125  H94 ASP d   1      37.010   7.430 143.034  0.00  0.00     0.052 H 
BRANCH 123 126
ATOM    126  CG  ASP d   1      39.047   7.046 143.496  0.00  0.00     0.175 C 
ATOM    127  OD1 ASP d   1      39.883   7.276 144.406  0.00  0.00    -0.648 OA
ATOM    128  OD2 ASP d   1      39.124   6.079 142.705  0.00  0.00    -0.648 OA
ENDBRANCH 123 126
ENDBRANCH  24 123
ENDBRANCH  22  24
ENDBRANCH  18  20
BRANCH  18 129
ATOM    129  CB  LEU d   1      36.255   6.479 148.255  0.00  0.00    -0.035 C 
ATOM    130  H82 LEU d   1      37.241   6.872 148.545  0.00  0.00     0.037 H 
ATOM    131  H83 LEU d   1      36.384   5.672 147.519  0.00  0.00     0.037 H 
BRANCH 129 132
ATOM    132  CG  LEU d   1      35.623   5.857 149.510  0.00  0.00    -0.059 C 
ATOM    133  H84 LEU d   1      34.563   5.647 149.302  0.00  0.00     0.038 H 
BRANCH 132 134
ATOM    134  CD1 LEU d   1      36.321   4.547 149.851  0.00  0.00    -0.073 C 
ATOM    135  H85 LEU d   1      35.862   4.110 150.750  0.00  0.00     0.028 H 
ATOM    136  H86 LEU d   1      37.388   4.738 150.040  0.00  0.00     0.028 H 
ATOM    137  H87 LEU d   1      36.218   3.846 149.009  0.00  0.00     0.028 H 
ENDBRANCH 132 134
BRANCH 132 138
ATOM    138  CD2 LEU d   1      35.703   6.822 150.682  0.00  0.00    -0.073 C 
ATOM    139  H88 LEU d   1      35.195   7.761 150.419  0.00  0.00     0.028 H 
ATOM    140  H89 LEU d   1      36.758   7.029 150.915  0.00  0.00     0.028 H 
ATOM    141  H90 LEU d   1      35.214   6.374 151.560  0.00  0.00     0.028 H 
ENDBRANCH 132 138
ENDBRANCH 129 132
ENDBRANCH  18 129
ENDBRANCH  16  18
ENDBRANCH  12  14
BRANCH  12 142
ATOM    142  CB  TYR d   1      31.231   7.053 145.931  0.00  0.00    -0.014 C 
ATOM    143  H73 TYR d   1      30.994   7.901 146.590  0.00  0.00     0.043 H 
ATOM    144  H74 TYR d   1      31.401   6.152 146.539  0.00  0.00     0.043 H 
BRANCH 142 145
ATOM    145  CG  TYR d   1      30.037   6.801 145.041  0.00  0.00    -0.056 A 
ATOM    146  CD1 TYR d   1      29.567   7.788 144.177  0.00  0.00    -0.074 A 
ATOM    147  CE1 TYR d   1      28.483   7.553 143.357  0.00  0.00    -0.051 A 
ATOM    148  H75 TYR d   1      30.060   8.753 144.149  0.00  0.00     0.084 H 
ATOM    149  CZ  TYR d   1      27.828   6.327 143.404  0.00  0.00     0.065 A 
ATOM    150  H77 TYR d   1      28.142   8.324 142.676  0.00  0.00     0.087 H 
ATOM    151  CE2 TYR d   1      28.265   5.336 144.252  0.00  0.00    -0.051 A 
ATOM    152  CD2 TYR d   1      29.360   5.575 145.071  0.00  0.00    -0.074 A 
ATOM    153  H78 TYR d   1      27.759   4.378 144.280  0.00  0.00     0.087 H 
ATOM    154  H76 TYR d   1      29.698   4.798 145.747  0.00  0.00     0.084 H 
BRANCH 149 155
ATOM    155  OH  TYR d   1      26.749   6.092 142.591  0.00  0.00    -0.361 OA
ATOM    156  H79 TYR d   1      26.572   6.866 142.070  0.00  0.00     0.217 HD
ENDBRANCH 149 155
ENDBRANCH 142 145
ENDBRANCH  12 142
ENDBRANCH  10  12
ENDBRANCH   5   8
ENDBRANCH   3   5
BRANCH   1 157
ATOM    157  CA  LYS d   1      35.778   3.115 145.706  0.00  0.00     0.089 C 
ATOM    158  H56 LYS d   1      36.180   3.582 146.618  0.00  0.00     0.087 H 
BRANCH 157 159
ATOM    159  N   LYS d   1      34.478   2.547 146.023  0.00  0.00    -0.346 N 
ATOM    160  C   LEU d   1      33.593   3.232 146.752  0.00  0.00     0.241 C 
ATOM    161  O   LEU d   1      33.782   4.389 147.141  0.00  0.00    -0.271 OA
ATOM    162  H55 LYS d   1      34.244   1.633 145.691  0.00  0.00     0.163 HD
BRANCH 160 163
ATOM    163  CA  LEU d   1      32.312   2.499 147.114  0.00  0.00     0.089 C 
ATOM    164  H45 LEU d   1      31.560   3.242 147.417  0.00  0.00     0.087 H 
BRANCH 163 165
ATOM    165  N   LEU d   1      31.781   1.750 145.982  0.00  0.00    -0.346 N 
ATOM    166  C   ASP d   1      31.515   2.325 144.812  0.00  0.00     0.241 C 
ATOM    167  O   ASP d   1      31.771   3.511 144.560  0.00  0.00    -0.271 OA
ATOM    168  H44 LEU d   1      31.611   0.770 146.088  0.00  0.00     0.163 HD
BRANCH 166 169
ATOM    169  CA  ASP d   1      30.860   1.417 143.772  0.00  0.00     0.098 C 
ATOM    170  H41 ASP d   1      30.879   1.916 142.792  0.00  0.00     0.088 H 
BRANCH 169 171
ATOM    171  N   ASP d   1      31.591   0.146 143.661  0.00  0.00    -0.345 N 
ATOM    172  C   CYS d   1      32.921   0.121 143.521  0.00  0.00     0.241 C 
ATOM    173  O   CYS d   1      33.600   1.150 143.432  0.00  0.00    -0.271 OA
ATOM    174  H40 ASP d   1      31.084  -0.716 143.691  0.00  0.00     0.163 HD
BRANCH 172 175
ATOM    175  CA  CYS d   1      33.612  -1.257 143.524  0.00  0.00     0.097 C 
ATOM    176  N   CYS d   1      33.288  -1.992 144.727  0.00  0.00    -0.345 N 
ATOM    177  C   GLU d   1      33.671  -1.604 145.935  0.00  0.00     0.241 C 
ATOM    178  H36 CYS d   1      32.751  -2.831 144.643  0.00  0.00     0.163 HD
ATOM    179  CA  GLU d   1      33.186  -2.482 147.086  0.00  0.00     0.090 C 
ATOM    180  O   GLU d   1      34.384  -0.624 146.133  0.00  0.00    -0.271 OA
ATOM    181  N   GLU d   1      31.831  -3.002 146.832  0.00  0.00    -0.346 N 
ATOM    182  H31 GLU d   1      33.157  -1.875 148.003  0.00  0.00     0.087 H 
ATOM    183  C   LEU d   1      30.778  -2.194 146.742  0.00  0.00     0.241 C 
ATOM    184  H30 GLU d   1      31.700  -3.987 146.725  0.00  0.00     0.163 HD
ATOM    185  CA  LEU d   1      29.422  -2.827 146.417  0.00  0.00     0.089 C 
ATOM    186  O   LEU d   1      30.868  -0.982 146.892  0.00  0.00    -0.271 OA
ATOM    187  N   LEU d   1      29.529  -3.847 145.380  0.00  0.00    -0.346 N 
ATOM    188  H20 LEU d   1      28.769  -2.029 146.034  0.00  0.00     0.087 H 
ATOM    189  C   PRO d   1      29.739  -3.517 144.112  0.00  0.00     0.241 C 
ATOM    190  H19 LEU d   1      29.443  -4.812 145.629  0.00  0.00     0.163 HD
ATOM    191  CA  PRO d   1      29.759  -4.653 143.078  0.00  0.00     0.091 C 
ATOM    192  O   PRO d   1      29.902  -2.353 143.750  0.00  0.00    -0.271 OA
ATOM    193  N   PRO d   1      30.260  -5.931 143.594  0.00  0.00    -0.337 N 
ATOM    194  CB  PRO d   1      28.328  -4.992 142.651  0.00  0.00    -0.036 C 
ATOM    195  H12 PRO d   1      30.362  -4.333 142.215  0.00  0.00     0.087 H 
ATOM    196  C   SER d   1      31.444  -6.058 144.214  0.00  0.00     0.245 C 
ATOM    197  CD  PRO d   1      29.415  -7.067 143.173  0.00  0.00    -0.001 C 
ATOM    198  CA  SER d   1      31.703  -7.385 144.920  0.00  0.00     0.109 C 
ATOM    199  O   SER d   1      32.289  -5.166 144.227  0.00  0.00    -0.271 OA
ATOM    200  N   SER d   1      33.123  -7.703 145.019  0.00  0.00    -0.344 N 
ATOM    201  H8  SER d   1      31.223  -8.182 144.333  0.00  0.00     0.090 H 
ATOM    202  C   CYS d   1      33.826  -8.059 143.949  0.00  0.00     0.249 C 
ATOM    203  H7  SER d   1      33.576  -7.652 145.909  0.00  0.00     0.163 HD
ATOM    204  CA  CYS d   1      35.258  -8.524 144.195  0.00  0.00     0.183 C 
ATOM    205  O   CYS d   1      33.372  -8.003 142.808  0.00  0.00    -0.271 OA
ATOM    206  CB  CYS d   1      36.100  -7.357 144.688  0.00  0.00     0.012 C 
ATOM    207  H4  CYS d   1      35.247  -9.307 144.967  0.00  0.00     0.100 H 
ATOM    208  SG  CYS d   1      36.270  -6.060 143.447  0.00  0.00    -0.162 SA
ATOM    209  H5  CYS d   1      37.102  -7.729 144.949  0.00  0.00     0.052 H 
ATOM    210  H6  CYS d   1      35.623  -6.930 145.582  0.00  0.00     0.052 H 
ATOM    211  C1' 8VY d   1      37.721  -5.506 142.507  0.00  0.00     0.001 C 
ATOM    212  C1  8VY d   1      37.120  -4.834 141.296  0.00  0.00    -0.048 A 
ATOM    213 5H14 CYS d   1      38.348  -6.360 142.212  0.00  0.00     0.056 H 
ATOM    214 6H14 CYS d   1      38.322  -4.795 143.094  0.00  0.00     0.056 H 
ATOM    215  C2  8VY d   1      36.535  -3.578 141.415  0.00  0.00    -0.069 A 
ATOM    216  C6  8VY d   1      37.143  -5.474 140.059  0.00  0.00    -0.076 A 
ATOM    217  C3  8VY d   1      35.976  -2.963 140.300  0.00  0.00    -0.048 A 
ATOM    218 1H14 CYS d   1      36.515  -3.078 142.377  0.00  0.00     0.085 H 
ATOM    219  C4  8VY d   1      36.000  -3.601 139.066  0.00  0.00    -0.076 A 
ATOM    220  C3' 8VY d   1      35.338  -1.603 140.422  0.00  0.00     0.001 C 
ATOM    221  C5  8VY d   1      36.582  -4.858 138.945  0.00  0.00    -0.082 A 
ATOM    222 2H14 CYS d   1      35.565  -3.119 138.198  0.00  0.00     0.084 H 
ATOM    223 3H14 CYS d   1      36.599  -5.358 137.983  0.00  0.00     0.083 H 
ATOM    224  SG  CYS d   1      33.558  -1.389 140.712  0.00  0.00    -0.162 SA
ATOM    225 7H14 CYS d   1      35.847  -1.099 141.257  0.00  0.00     0.056 H 
ATOM    226 8H14 CYS d   1      35.561  -1.074 139.484  0.00  0.00     0.056 H 
ATOM    227  CB  CYS d   1      33.201  -2.102 142.320  0.00  0.00     0.004 C 
ATOM    228  H38 CYS d   1      32.116  -2.272 142.381  0.00  0.00     0.052 H 
ATOM    229  H39 CYS d   1      33.728  -3.065 142.387  0.00  0.00     0.052 H 
ATOM    230 4H14 CYS d   1      37.599  -6.453 139.964  0.00  0.00     0.084 H 
ATOM    231  CG  PRO d   1      28.382  -6.437 142.288  0.00  0.00    -0.048 C 
ATOM    232  H17 PRO d   1      28.944  -7.549 144.043  0.00  0.00     0.064 H 
ATOM    233  H18 PRO d   1      30.006  -7.810 142.618  0.00  0.00     0.064 H 
ATOM    234  H15 PRO d   1      28.667  -6.552 141.232  0.00  0.00     0.035 H 
ATOM    235  H16 PRO d   1      27.402  -6.907 142.456  0.00  0.00     0.035 H 
ATOM    236  H13 PRO d   1      28.026  -4.384 141.785  0.00  0.00     0.036 H 
ATOM    237  H14 PRO d   1      27.625  -4.825 143.480  0.00  0.00     0.036 H 
ATOM    238  H37 CYS d   1      34.700  -1.096 143.487  0.00  0.00     0.088 H 
BRANCH 179 239
ATOM    239  CB  GLU d   1      34.176  -3.630 147.286  0.00  0.00    -0.029 C 
ATOM    240  H32 GLU d   1      35.188  -3.205 147.361  0.00  0.00     0.037 H 
ATOM    241  H33 GLU d   1      34.120  -4.292 146.409  0.00  0.00     0.037 H 
BRANCH 239 242
ATOM    242  CG  GLU d   1      33.911  -4.464 148.535  0.00  0.00     0.018 C 
ATOM    243  H34 GLU d   1      32.840  -4.402 148.776  0.00  0.00     0.049 H 
ATOM    244  H35 GLU d   1      34.499  -4.046 149.366  0.00  0.00     0.049 H 
BRANCH 242 245
ATOM    245  CD  GLU d   1      34.285  -5.929 148.366  0.00  0.00     0.172 C 
ATOM    246  OE1 GLU d   1      33.932  -6.526 147.320  0.00  0.00    -0.648 OA
ATOM    247  OE2 GLU d   1      34.922  -6.492 149.286  0.00  0.00    -0.648 OA
ENDBRANCH 242 245
ENDBRANCH 239 242
ENDBRANCH 179 239
BRANCH 185 248
ATOM    248  CB  LEU d   1      28.761  -3.410 147.670  0.00  0.00    -0.035 C 
ATOM    249  H21 LEU d   1      28.975  -2.721 148.500  0.00  0.00     0.037 H 
ATOM    250  H22 LEU d   1      29.239  -4.381 147.867  0.00  0.00     0.037 H 
BRANCH 248 251
ATOM    251  CG  LEU d   1      27.232  -3.648 147.656  0.00  0.00    -0.059 C 
ATOM    252  H23 LEU d   1      27.073  -4.674 148.020  0.00  0.00     0.038 H 
BRANCH 251 253
ATOM    253  CD1 LEU d   1      26.545  -2.704 148.625  0.00  0.00    -0.073 C 
ATOM    254  H24 LEU d   1      25.460  -2.884 148.605  0.00  0.00     0.028 H 
ATOM    255  H25 LEU d   1      26.750  -1.664 148.331  0.00  0.00     0.028 H 
ATOM    256  H26 LEU d   1      26.927  -2.880 149.641  0.00  0.00     0.028 H 
ENDBRANCH 251 253
BRANCH 251 257
ATOM    257  CD2 LEU d   1      26.558  -3.562 146.284  0.00  0.00    -0.073 C 
ATOM    258  H27 LEU d   1      27.059  -4.248 145.585  0.00  0.00     0.028 H 
ATOM    259  H28 LEU d   1      26.631  -2.533 145.903  0.00  0.00     0.028 H 
ATOM    260  H29 LEU d   1      25.499  -3.844 146.377  0.00  0.00     0.028 H 
ENDBRANCH 251 257
ENDBRANCH 248 251
ENDBRANCH 185 248
BRANCH 198 261
ATOM    261  CB  SER d   1      31.051  -7.348 146.306  0.00  0.00     0.044 C 
ATOM    262  H9  SER d   1      31.424  -8.197 146.898  0.00  0.00     0.077 H 
ATOM    263  H10 SER d   1      29.961  -7.433 146.189  0.00  0.00     0.077 H 
BRANCH 261 264
ATOM    264  OG  SER d   1      31.346  -6.145 146.993  0.00  0.00    -0.398 OA
ATOM    265  H11 SER d   1      32.286  -6.067 147.103  0.00  0.00     0.209 HD
ENDBRANCH 261 264
ENDBRANCH 198 261
BRANCH 204 266
ATOM    266  N   CYS d   1      35.856  -9.088 142.950  0.00  0.00    -0.066 N 
ATOM    267  H1  CYS d   1      36.800  -9.388 143.137  0.00  0.00     0.275 HD
ATOM    268  H2  CYS d   1      35.864  -8.382 142.231  0.00  0.00     0.275 HD
ATOM    269  H3  CYS d   1      35.308  -9.876 142.641  0.00  0.00     0.275 HD
ENDBRANCH 204 266
ENDBRANCH 172 175
ENDBRANCH 169 171
BRANCH 169 270
ATOM    270  CB  ASP d   1      29.400   1.201 144.195  0.00  0.00     0.043 C 
ATOM    271  H42 ASP d   1      28.980   2.169 144.504  0.00  0.00     0.052 H 
ATOM    272  H43 ASP d   1      29.383   0.505 145.047  0.00  0.00     0.052 H 
BRANCH 270 273
ATOM    273  CG  ASP d   1      28.535   0.633 143.096  0.00  0.00     0.175 C 
ATOM    274  OD1 ASP d   1      29.052   0.258 142.030  0.00  0.00    -0.648 OA
ATOM    275  OD2 ASP d   1      27.315   0.546 143.321  0.00  0.00    -0.648 OA
ENDBRANCH 270 273
ENDBRANCH 169 270
ENDBRANCH 166 169
ENDBRANCH 163 165
BRANCH 163 276
ATOM    276  CB  LEU d   1      32.581   1.560 148.299  0.00  0.00    -0.035 C 
ATOM    277  H46 LEU d   1      33.367   0.854 147.994  0.00  0.00     0.037 H 
ATOM    278  H47 LEU d   1      31.652   1.008 148.506  0.00  0.00     0.037 H 
BRANCH 276 279
ATOM    279  CG  LEU d   1      33.030   2.220 149.605  0.00  0.00    -0.059 C 
ATOM    280  H48 LEU d   1      33.950   2.789 149.404  0.00  0.00     0.038 H 
BRANCH 279 281
ATOM    281  CD1 LEU d   1      31.968   3.192 150.094  0.00  0.00    -0.073 C 
ATOM    282  H49 LEU d   1      32.303   3.659 151.032  0.00  0.00     0.028 H 
ATOM    283  H50 LEU d   1      31.027   2.650 150.270  0.00  0.00     0.028 H 
ATOM    284  H51 LEU d   1      31.806   3.971 149.334  0.00  0.00     0.028 H 
ENDBRANCH 279 281
BRANCH 279 285
ATOM    285  CD2 LEU d   1      33.345   1.177 150.666  0.00  0.00    -0.073 C 
ATOM    286  H52 LEU d   1      34.114   0.489 150.286  0.00  0.00     0.028 H 
ATOM    287  H53 LEU d   1      32.433   0.611 150.906  0.00  0.00     0.028 H 
ATOM    288  H54 LEU d   1      33.716   1.677 151.573  0.00  0.00     0.028 H 
ENDBRANCH 279 285
ENDBRANCH 276 279
ENDBRANCH 163 276
ENDBRANCH 160 163
ENDBRANCH 157 159
BRANCH 157 289
ATOM    289  CB  LYS d   1      36.779   2.040 145.253  0.00  0.00    -0.038 C 
ATOM    290  H57 LYS d   1      37.079   2.257 144.217  0.00  0.00     0.036 H 
ATOM    291  H58 LYS d   1      36.280   1.060 145.292  0.00  0.00     0.036 H 
BRANCH 289 292
ATOM    292  CG  LYS d   1      38.036   1.979 146.119  0.00  0.00    -0.061 C 
ATOM    293  H59 LYS d   1      38.684   1.175 145.741  0.00  0.00     0.033 H 
ATOM    294  H60 LYS d   1      37.739   1.754 147.154  0.00  0.00     0.033 H 
BRANCH 292 295
ATOM    295  CD  LYS d   1      38.829   3.288 146.113  0.00  0.00    -0.043 C 
ATOM    296  H61 LYS d   1      38.133   4.127 146.261  0.00  0.00     0.035 H 
ATOM    297  H62 LYS d   1      39.331   3.395 145.140  0.00  0.00     0.035 H 
BRANCH 295 298
ATOM    298  CE  LYS d   1      39.880   3.319 147.217  0.00  0.00     0.080 C 
ATOM    299  H63 LYS d   1      40.782   2.795 146.869  0.00  0.00     0.075 H 
ATOM    300  H64 LYS d   1      39.481   2.810 148.107  0.00  0.00     0.075 H 
BRANCH 298 301
ATOM    301  NZ  LYS d   1      40.241   4.726 147.579  0.00  0.00    -0.079 N 
ATOM    302  H65 LYS d   1      40.936   4.717 148.309  0.00  0.00     0.274 HD
ATOM    303  H66 LYS d   1      39.419   5.211 147.903  0.00  0.00     0.274 HD
ATOM    304  H67 LYS d   1      40.611   5.197 146.768  0.00  0.00     0.274 HD
ENDBRANCH 298 301
ENDBRANCH 295 298
ENDBRANCH 292 295
ENDBRANCH 289 292
ENDBRANCH 157 289
ENDBRANCH   1 157
TORSDOF 71
