REMARK WARNING: 32 MAX_TORS EXCEEDED!!!
REMARK  71 active torsions:
REMARK  status: ('A' for Active; 'I' for Inactive)
REMARK    1  A    between atoms: CA_2  and  N_1 
REMARK    2  A    between atoms: C_3  and  CA_2 
REMARK    3  A    between atoms: CA_2  and  CB_5 
REMARK       I    between atoms: N_6  and  C_3 
REMARK    4  A    between atoms: CA_7  and  N_6 
REMARK    5  A    between atoms: C_8  and  CA_7 
REMARK    6  A    between atoms: CA_7  and  CB_10 
REMARK       I    between atoms: N_12  and  C_8 
REMARK    7  A    between atoms: CB_10  and  OG_11 
REMARK    8  A    between atoms: C_14  and  CA_13 
REMARK       I    between atoms: N_19  and  C_14 
REMARK    9  A    between atoms: CA_20  and  N_19 
REMARK   10  A    between atoms: C_21  and  CA_20 
REMARK   11  A    between atoms: CA_20  and  CB_23 
REMARK       I    between atoms: N_27  and  C_21 
REMARK   12  A    between atoms: CB_23  and  CG_24 
REMARK   13  A    between atoms: CG_24  and  CD1_25 
REMARK   14  A    between atoms: CG_24  and  CD2_26 
REMARK   15  A    between atoms: CA_28  and  N_27 
REMARK   16  A    between atoms: C_29  and  CA_28 
REMARK   17  A    between atoms: CA_28  and  CB_31 
REMARK       I    between atoms: N_36  and  C_29 
REMARK   18  A    between atoms: CB_31  and  CG_32 
REMARK   19  A    between atoms: CG_32  and  CD_33 
REMARK   20  A    between atoms: CA_37  and  N_36 
REMARK   21  A    between atoms: C_38  and  CA_37 
REMARK   22  A    between atoms: CA_37  and  CB_40 
REMARK       I    between atoms: N_45  and  C_38 
REMARK   23  A    between atoms: CB_40  and  CG_41 
REMARK   24  A    between atoms: CG_41  and  CD_42 
REMARK   25  A    between atoms: CA_46  and  N_45 
REMARK   26  A    between atoms: C_47  and  CA_46 
REMARK   27  A    between atoms: CA_46  and  CB_49 
REMARK       I    between atoms: N_53  and  C_47 
REMARK   28  A    between atoms: CB_49  and  CG_50 
REMARK   29  A    between atoms: CA_54  and  N_53 
REMARK   30  A    between atoms: C_55  and  CA_54 
REMARK   31  A    between atoms: CA_54  and  CB_57 
REMARK       I    between atoms: N_61  and  C_55 
REMARK   32  A    between atoms: CB_57  and  CG_58 
REMARK   33  A    between atoms: CG_58  and  CD1_59 
REMARK   34  A    between atoms: CG_58  and  CD2_60 
REMARK   35  A    between atoms: CA_62  and  N_61 
REMARK   36  A    between atoms: CA_72  and  CB_75 
REMARK   37  A    between atoms: CB_75  and  CG_76 
REMARK   38  A    between atoms: CZ_81  and  OH_82 
REMARK   39  A    between atoms: CA_84  and  CB_87 
REMARK   40  A    between atoms: CB_87  and  CG_88 
REMARK   41  A    between atoms: CG_88  and  CD1_89 
REMARK   42  A    between atoms: CG_88  and  CD2_90 
REMARK   43  A    between atoms: CA_92  and  C_93 
REMARK       I    between atoms: C_93  and  N_97 
REMARK   44  A    between atoms: N_97  and  CA_98 
REMARK   45  A    between atoms: CA_98  and  C_99 
REMARK   46  A    between atoms: CA_98  and  CB_101 
REMARK       I    between atoms: C_99  and  N_111 
REMARK   47  A    between atoms: CB_101  and  CG_102 
REMARK   48  A    between atoms: N_111  and  CA_112 
REMARK   49  A    between atoms: CA_112  and  C_113 
REMARK   50  A    between atoms: CA_112  and  CB_115 
REMARK       I    between atoms: C_113  and  N_119 
REMARK   51  A    between atoms: CB_115  and  CG1_116 
REMARK   52  A    between atoms: CB_115  and  CG2_117 
REMARK   53  A    between atoms: CG1_116  and  CD1_118 
REMARK   54  A    between atoms: N_119  and  CA_120 
REMARK   55  A    between atoms: CA_120  and  C_121 
REMARK   56  A    between atoms: CA_120  and  CB_123 
REMARK       I    between atoms: C_121  and  N_126 
REMARK   57  A    between atoms: CB_123  and  OG1_124 
REMARK   58  A    between atoms: CB_123  and  CG2_125 
REMARK   59  A    between atoms: N_126  and  CA_127 
REMARK   60  A    between atoms: CA_127  and  C_128 
REMARK   61  A    between atoms: CA_127  and  CB_130 
REMARK       I    between atoms: C_128  and  N_135 
REMARK   62  A    between atoms: CB_130  and  CG_131 
REMARK   63  A    between atoms: CG_131  and  CD_132 
REMARK       I    between atoms: CD_132  and  NE2_134 
REMARK   64  A    between atoms: N_135  and  CA_136 
REMARK   65  A    between atoms: CA_136  and  C_137 
REMARK   66  A    between atoms: CA_136  and  CB_139 
REMARK       I    between atoms: C_137  and  N_140 
REMARK   67  A    between atoms: N_140  and  CA_141 
REMARK   68  A    between atoms: CA_141  and  C_142 
REMARK   69  A    between atoms: CA_141  and  CB_144 
REMARK   70  A    between atoms: CB_144  and  CG_145 
REMARK   71  A    between atoms: CG_145  and  CD_146 
ROOT
ATOM      1  N   LEU d   1       8.281 -11.550 124.752  0.00  0.00    -0.346 N 
ATOM      2  CA  LEU d   1       7.536 -12.766 125.008  0.00  0.00     0.089 C 
ATOM      3  C   LEU d   1       8.537 -13.947 125.124  0.00  0.00     0.241 C 
ATOM      4  O   LEU d   1       8.375 -14.841 125.969  0.00  0.00    -0.271 OA
ATOM      5  H74 LEU d   1       8.175 -11.079 123.876  0.00  0.00     0.163 HD
ATOM      6  H75 LEU d   1       6.999 -12.654 125.962  0.00  0.00     0.087 H 
ATOM      7  CA  CYS d   1       8.286 -11.131 120.209  0.00  0.00     0.097 C 
ATOM      8  C   CYS d   1       9.512 -11.364 121.160  0.00  0.00     0.241 C 
ATOM      9  O   CYS d   1       9.595 -12.421 121.822  0.00  0.00    -0.271 OA
ATOM     10  CB  CYS d   1       8.610 -11.413 118.765  0.00  0.00     0.004 C 
ATOM     11  SG  CYS d   1       9.333 -12.997 118.527  0.00  0.00    -0.162 SA
ATOM     12  N   CYS d   1       9.571 -13.908 124.304  0.00  0.00    -0.345 N 
ATOM     13  CA  CYS d   1      10.584 -14.991 124.359  0.00  0.00     0.097 C 
ATOM     14  CB  CYS d   1      11.578 -14.911 123.207  0.00  0.00     0.004 C 
ATOM     15  SG  CYS d   1      12.349 -16.547 123.078  0.00  0.00    -0.162 SA
ATOM     16  H59 CYS d   1       7.494 -11.825 120.526  0.00  0.00     0.088 H 
ATOM     17  H60 CYS d   1       9.314 -10.648 118.407  0.00  0.00     0.052 H 
ATOM     18  H61 CYS d   1       7.681 -11.359 118.179  0.00  0.00     0.052 H 
ATOM     19  H85 CYS d   1       9.671 -13.156 123.652  0.00  0.00     0.163 HD
ATOM     20  H86 CYS d   1      10.057 -15.954 124.293  0.00  0.00     0.088 H 
ATOM     21  H87 CYS d   1      12.341 -14.147 123.416  0.00  0.00     0.052 H 
ATOM     22  H88 CYS d   1      11.056 -14.662 122.271  0.00  0.00     0.052 H 
ATOM     23 6H13 CYS d   1       8.819 -15.460 121.656  0.00  0.00     0.085 H 
ATOM     24 7H13 CYS d   1      11.166 -18.758 120.142  0.00  0.00     0.084 H 
ATOM     25 8H13 CYS d   1      10.600 -18.037 117.835  0.00  0.00     0.083 H 
ATOM     26 9H13 CYS d   1       9.157 -16.058 117.430  0.00  0.00     0.084 H 
ATOM     27 0H14 CYS d   1       7.362 -14.628 118.365  0.00  0.00     0.056 H 
ATOM     28 1H14 CYS d   1       7.539 -14.020 120.045  0.00  0.00     0.056 H 
ATOM     29 2H14 CYS d   1       9.915 -17.271 123.222  0.00  0.00     0.056 H 
ATOM     30 3H14 CYS d   1      10.917 -18.560 122.474  0.00  0.00     0.056 H 
ATOM     31  N   GLY d   1      10.473 -10.434 121.127  0.00  0.00    -0.351 N 
ATOM     32  CA  GLY d   1      11.713 -10.530 121.978  0.00  0.00     0.069 C 
ATOM     33  C   GLY d   1      11.301 -10.641 123.475  0.00  0.00     0.236 C 
ATOM     34  O   GLY d   1      11.792 -11.499 124.197  0.00  0.00    -0.272 OA
ATOM     35  H62 GLY d   1      10.365  -9.649 120.517  0.00  0.00     0.163 HD
ATOM     36  H63 GLY d   1      12.329  -9.631 121.832  0.00  0.00     0.078 H 
ATOM     37  H64 GLY d   1      12.290 -11.421 121.688  0.00  0.00     0.078 H 
ATOM     38  N   TYR d   1      10.377  -9.797 123.922  0.00  0.00    -0.346 N 
ATOM     39  CA  TYR d   1       9.915  -9.805 125.319  0.00  0.00     0.093 C 
ATOM     40  C   TYR d   1       9.124 -11.043 125.692  0.00  0.00     0.241 C 
ATOM     41  O   TYR d   1       9.289 -11.601 126.793  0.00  0.00    -0.271 OA
ATOM     42  H65 TYR d   1       9.982  -9.133 123.287  0.00  0.00     0.163 HD
ATOM     43  H66 TYR d   1      10.821  -9.823 125.943  0.00  0.00     0.088 H 
ATOM     44  C1  8VY d   1       8.897 -15.626 119.524  0.00  0.00    -0.048 A 
ATOM     45  C2  8VY d   1       9.226 -16.018 120.820  0.00  0.00    -0.069 A 
ATOM     46  C3  8VY d   1      10.092 -17.144 121.086  0.00  0.00    -0.048 A 
ATOM     47  C4  8VY d   1      10.552 -17.878 119.987  0.00  0.00    -0.076 A 
ATOM     48  C5  8VY d   1      10.218 -17.474 118.679  0.00  0.00    -0.082 A 
ATOM     49  C6  8VY d   1       9.398 -16.354 118.445  0.00  0.00    -0.076 A 
ATOM     50  C1' 8VY d   1       8.081 -14.383 119.160  0.00  0.00     0.001 C 
ATOM     51  C3' 8VY d   1      10.694 -17.483 122.475  0.00  0.00     0.001 C 
ENDROOT
BRANCH   7  52
ATOM     52  N   CYS d   1       7.760  -9.783 120.280  0.00  0.00    -0.345 N 
ATOM     53  C   LEU d   1       7.354  -9.286 121.444  0.00  0.00     0.241 C 
ATOM     54  O   LEU d   1       7.371  -9.971 122.480  0.00  0.00    -0.271 OA
ATOM     55  H58 CYS d   1       7.702  -9.226 119.452  0.00  0.00     0.163 HD
BRANCH  53  56
ATOM     56  CA  LEU d   1       6.919  -7.825 121.486  0.00  0.00     0.089 C 
ATOM     57  H48 LEU d   1       6.904  -7.570 122.556  0.00  0.00     0.087 H 
BRANCH  56  58
ATOM     58  N   LEU d   1       7.823  -6.900 120.876  0.00  0.00    -0.346 N 
ATOM     59  C   ASP d   1       9.065  -6.835 121.259  0.00  0.00     0.241 C 
ATOM     60  O   ASP d   1       9.521  -7.542 122.124  0.00  0.00    -0.271 OA
ATOM     61  H47 LEU d   1       7.497  -6.297 120.148  0.00  0.00     0.163 HD
BRANCH  59  62
ATOM     62  CA  ASP d   1       9.876  -5.827 120.526  0.00  0.00     0.098 C 
ATOM     63  H44 ASP d   1      10.936  -5.913 120.805  0.00  0.00     0.088 H 
BRANCH  62  64
ATOM     64  N   ASP d   1       9.728  -6.095 119.064  0.00  0.00    -0.346 N 
ATOM     65  C   GLU d   1      10.097  -7.263 118.499  0.00  0.00     0.241 C 
ATOM     66  O   GLU d   1      10.619  -8.177 119.124  0.00  0.00    -0.271 OA
ATOM     67  H43 ASP d   1       9.340  -5.381 118.481  0.00  0.00     0.163 HD
BRANCH  65  68
ATOM     68  CA  GLU d   1       9.888  -7.423 116.983  0.00  0.00     0.090 C 
ATOM     69  H38 GLU d   1       9.858  -8.496 116.744  0.00  0.00     0.087 H 
BRANCH  68  70
ATOM     70  N   GLU d   1       8.577  -6.839 116.614  0.00  0.00    -0.346 N 
ATOM     71  C   GLU d   1       7.422  -7.358 117.067  0.00  0.00     0.241 C 
ATOM     72  O   GLU d   1       7.346  -8.393 117.751  0.00  0.00    -0.271 OA
ATOM     73  H37 GLU d   1       8.550  -6.040 116.014  0.00  0.00     0.163 HD
BRANCH  71  74
ATOM     74  CA  GLU d   1       6.148  -6.623 116.700  0.00  0.00     0.090 C 
ATOM     75  H32 GLU d   1       5.369  -6.875 117.434  0.00  0.00     0.087 H 
BRANCH  74  76
ATOM     76  N   GLU d   1       6.350  -5.187 116.717  0.00  0.00    -0.346 N 
ATOM     77  C   LEU d   1       6.537  -4.519 117.858  0.00  0.00     0.241 C 
ATOM     78  O   LEU d   1       6.509  -5.104 118.955  0.00  0.00    -0.271 OA
ATOM     79  H31 GLU d   1       6.349  -4.684 115.853  0.00  0.00     0.163 HD
BRANCH  77  80
ATOM     80  CA  LEU d   1       6.871  -3.006 117.765  0.00  0.00     0.089 C 
ATOM     81  H21 LEU d   1       7.468  -2.790 118.663  0.00  0.00     0.087 H 
BRANCH  80  82
ATOM     82  N   LEU d   1       7.719  -2.644 116.636  0.00  0.00    -0.346 N 
ATOM     83  C   PRO d   1       8.978  -3.076 116.595  0.00  0.00     0.241 C 
ATOM     84  O   PRO d   1       9.480  -3.770 117.486  0.00  0.00    -0.271 OA
ATOM     85  H20 LEU d   1       7.358  -2.075 115.897  0.00  0.00     0.163 HD
BRANCH  83  86
ATOM     86  CA  PRO d   1       9.813  -2.729 115.368  0.00  0.00     0.091 C 
ATOM     87  N   PRO d   1       9.078  -2.883 114.090  0.00  0.00    -0.337 N 
ATOM     88  C   SER d   1       8.347  -3.996 113.803  0.00  0.00     0.245 C 
ATOM     89  CD  PRO d   1       9.215  -1.681 113.237  0.00  0.00    -0.001 C 
ATOM     90  O   SER d   1       8.296  -4.996 114.556  0.00  0.00    -0.271 OA
ATOM     91  CG  PRO d   1      10.324  -0.912 113.901  0.00  0.00    -0.048 C 
ATOM     92  H18 PRO d   1       8.283  -1.097 113.225  0.00  0.00     0.064 H 
ATOM     93  H19 PRO d   1       9.488  -1.957 112.208  0.00  0.00     0.064 H 
ATOM     94  CB  PRO d   1      10.211  -1.258 115.388  0.00  0.00    -0.036 C 
ATOM     95  H16 PRO d   1      11.302  -1.224 113.505  0.00  0.00     0.035 H 
ATOM     96  H17 PRO d   1      10.193   0.169 113.745  0.00  0.00     0.035 H 
ATOM     97  H14 PRO d   1      11.173  -1.116 115.901  0.00  0.00     0.036 H 
ATOM     98  H15 PRO d   1       9.440  -0.646 115.879  0.00  0.00     0.036 H 
ATOM     99  H13 PRO d   1      10.708  -3.368 115.362  0.00  0.00     0.087 H 
BRANCH  88 100
ATOM    100  CA  SER d   1       7.540  -4.022 112.479  0.00  0.00     0.109 C 
ATOM    101  H9  SER d   1       8.066  -3.433 111.713  0.00  0.00     0.090 H 
BRANCH 100 102
ATOM    102  N   SER d   1       7.369  -5.413 111.999  0.00  0.00    -0.344 N 
ATOM    103  C   ALA d   1       8.386  -6.192 111.623  0.00  0.00     0.248 C 
ATOM    104  O   ALA d   1       9.566  -5.805 111.524  0.00  0.00    -0.271 OA
ATOM    105  H8  SER d   1       6.443  -5.788 111.954  0.00  0.00     0.163 HD
BRANCH 103 106
ATOM    106  CA  ALA d   1       8.033  -7.643 111.313  0.00  0.00     0.172 C 
ATOM    107  H4  ALA d   1       7.022  -7.683 110.880  0.00  0.00     0.098 H 
BRANCH 106 108
ATOM    108  N   ALA d   1       9.013  -8.195 110.333  0.00  0.00    -0.067 N 
ATOM    109  H1  ALA d   1       8.780  -9.154 110.128  0.00  0.00     0.275 HD
ATOM    110  H2  ALA d   1       9.941  -8.151 110.725  0.00  0.00     0.275 HD
ATOM    111  H3  ALA d   1       8.981  -7.653 109.484  0.00  0.00     0.275 HD
ENDBRANCH 106 108
BRANCH 106 112
ATOM    112  CB  ALA d   1       8.067  -8.490 112.587  0.00  0.00    -0.042 C 
ATOM    113  H5  ALA d   1       7.346  -8.088 113.314  0.00  0.00     0.030 H 
ATOM    114  H6  ALA d   1       9.078  -8.462 113.019  0.00  0.00     0.030 H 
ATOM    115  H7  ALA d   1       7.801  -9.529 112.344  0.00  0.00     0.030 H 
ENDBRANCH 106 112
ENDBRANCH 103 106
ENDBRANCH 100 102
BRANCH 100 116
ATOM    116  CB  SER d   1       6.169  -3.409 112.757  0.00  0.00     0.044 C 
ATOM    117  H10 SER d   1       5.484  -3.676 111.939  0.00  0.00     0.077 H 
ATOM    118  H11 SER d   1       6.269  -2.315 112.809  0.00  0.00     0.077 H 
BRANCH 116 119
ATOM    119  OG  SER d   1       5.637  -3.883 113.978  0.00  0.00    -0.398 OA
ATOM    120  H12 SER d   1       6.223  -3.652 114.689  0.00  0.00     0.209 HD
ENDBRANCH 116 119
ENDBRANCH 100 116
ENDBRANCH  88 100
ENDBRANCH  83  86
ENDBRANCH  80  82
BRANCH  80 121
ATOM    121  CB  LEU d   1       5.634  -2.087 117.856  0.00  0.00    -0.035 C 
ATOM    122  H22 LEU d   1       4.951  -2.501 118.612  0.00  0.00     0.037 H 
ATOM    123  H23 LEU d   1       5.135  -2.081 116.876  0.00  0.00     0.037 H 
BRANCH 121 124
ATOM    124  CG  LEU d   1       5.965  -0.600 118.251  0.00  0.00    -0.059 C 
ATOM    125  H24 LEU d   1       6.013  -0.026 117.314  0.00  0.00     0.038 H 
BRANCH 124 126
ATOM    126  CD1 LEU d   1       4.836  -0.058 119.104  0.00  0.00    -0.073 C 
ATOM    127  H25 LEU d   1       5.057   0.982 119.386  0.00  0.00     0.028 H 
ATOM    128  H26 LEU d   1       4.735  -0.671 120.012  0.00  0.00     0.028 H 
ATOM    129  H27 LEU d   1       3.896  -0.091 118.533  0.00  0.00     0.028 H 
ENDBRANCH 124 126
BRANCH 124 130
ATOM    130  CD2 LEU d   1       7.279  -0.329 119.020  0.00  0.00    -0.073 C 
ATOM    131  H28 LEU d   1       8.131  -0.708 118.436  0.00  0.00     0.028 H 
ATOM    132  H29 LEU d   1       7.246  -0.840 119.993  0.00  0.00     0.028 H 
ATOM    133  H30 LEU d   1       7.395   0.753 119.178  0.00  0.00     0.028 H 
ENDBRANCH 124 130
ENDBRANCH 121 124
ENDBRANCH  80 121
ENDBRANCH  77  80
ENDBRANCH  74  76
BRANCH  74 134
ATOM    134  CB  GLU d   1       5.694  -7.082 115.320  0.00  0.00    -0.029 C 
ATOM    135  H33 GLU d   1       5.683  -8.181 115.287  0.00  0.00     0.037 H 
ATOM    136  H34 GLU d   1       6.393  -6.699 114.561  0.00  0.00     0.037 H 
BRANCH 134 137
ATOM    137  CG  GLU d   1       4.296  -6.556 115.028  0.00  0.00     0.018 C 
ATOM    138  H35 GLU d   1       4.296  -5.467 115.181  0.00  0.00     0.049 H 
ATOM    139  H36 GLU d   1       3.595  -7.025 115.733  0.00  0.00     0.049 H 
BRANCH 137 140
ATOM    140  CD  GLU d   1       3.815  -6.842 113.610  0.00  0.00     0.172 C 
ATOM    141  OE1 GLU d   1       4.653  -6.838 112.634  0.00  0.00    -0.648 OA
ATOM    142  OE2 GLU d   1       2.586  -7.107 113.518  0.00  0.00    -0.648 OA
ENDBRANCH 137 140
ENDBRANCH 134 137
ENDBRANCH  74 134
ENDBRANCH  71  74
ENDBRANCH  68  70
BRANCH  68 143
ATOM    143  CB  GLU d   1      11.080  -6.806 116.221  0.00  0.00    -0.029 C 
ATOM    144  H39 GLU d   1      11.996  -6.970 116.808  0.00  0.00     0.037 H 
ATOM    145  H40 GLU d   1      10.905  -5.726 116.109  0.00  0.00     0.037 H 
BRANCH 143 146
ATOM    146  CG  GLU d   1      11.273  -7.418 114.829  0.00  0.00     0.018 C 
ATOM    147  H41 GLU d   1      10.355  -7.242 114.250  0.00  0.00     0.049 H 
ATOM    148  H42 GLU d   1      11.427  -8.500 114.952  0.00  0.00     0.049 H 
BRANCH 146 149
ATOM    149  CD  GLU d   1      12.464  -6.854 114.020  0.00  0.00     0.172 C 
ATOM    150  OE1 GLU d   1      13.199  -5.999 114.545  0.00  0.00    -0.648 OA
ATOM    151  OE2 GLU d   1      12.650  -7.306 112.853  0.00  0.00    -0.648 OA
ENDBRANCH 146 149
ENDBRANCH 143 146
ENDBRANCH  68 143
ENDBRANCH  65  68
ENDBRANCH  62  64
BRANCH  62 152
ATOM    152  CB  ASP d   1       9.363  -4.460 120.921  0.00  0.00     0.043 C 
ATOM    153  H45 ASP d   1       9.131  -4.473 121.996  0.00  0.00     0.052 H 
ATOM    154  H46 ASP d   1       8.446  -4.254 120.350  0.00  0.00     0.052 H 
BRANCH 152 155
ATOM    155  CG  ASP d   1      10.343  -3.354 120.660  0.00  0.00     0.175 C 
ATOM    156  OD1 ASP d   1      11.534  -3.625 120.360  0.00  0.00    -0.648 OA
ATOM    157  OD2 ASP d   1       9.914  -2.182 120.774  0.00  0.00    -0.648 OA
ENDBRANCH 152 155
ENDBRANCH  62 152
ENDBRANCH  59  62
ENDBRANCH  56  58
BRANCH  56 158
ATOM    158  CB  LEU d   1       5.502  -7.551 120.969  0.00  0.00    -0.035 C 
ATOM    159  H49 LEU d   1       5.505  -7.732 119.884  0.00  0.00     0.037 H 
ATOM    160  H50 LEU d   1       5.277  -6.492 121.163  0.00  0.00     0.037 H 
BRANCH 158 161
ATOM    161  CG  LEU d   1       4.391  -8.363 121.559  0.00  0.00    -0.059 C 
ATOM    162  H51 LEU d   1       4.580  -9.430 121.368  0.00  0.00     0.038 H 
BRANCH 161 163
ATOM    163  CD1 LEU d   1       4.245  -8.165 123.068  0.00  0.00    -0.073 C 
ATOM    164  H52 LEU d   1       3.416  -8.785 123.441  0.00  0.00     0.028 H 
ATOM    165  H53 LEU d   1       4.035  -7.106 123.280  0.00  0.00     0.028 H 
ATOM    166  H54 LEU d   1       5.178  -8.461 123.569  0.00  0.00     0.028 H 
ENDBRANCH 161 163
BRANCH 161 167
ATOM    167  CD2 LEU d   1       3.138  -7.931 120.834  0.00  0.00    -0.073 C 
ATOM    168  H55 LEU d   1       3.269  -8.084 119.752  0.00  0.00     0.028 H 
ATOM    169  H56 LEU d   1       2.947  -6.866 121.034  0.00  0.00     0.028 H 
ATOM    170  H57 LEU d   1       2.285  -8.529 121.188  0.00  0.00     0.028 H 
ENDBRANCH 161 167
ENDBRANCH 158 161
ENDBRANCH  56 158
ENDBRANCH  53  56
ENDBRANCH   7  52
BRANCH  39 171
ATOM    171  CB  TYR d   1       9.180  -8.531 125.664  0.00  0.00    -0.014 C 
ATOM    172  H67 TYR d   1       8.715  -8.650 126.654  0.00  0.00     0.043 H 
ATOM    173  H68 TYR d   1       8.398  -8.361 124.909  0.00  0.00     0.043 H 
BRANCH 171 174
ATOM    174  CG  TYR d   1      10.084  -7.331 125.699  0.00  0.00    -0.056 A 
ATOM    175  CD1 TYR d   1      11.158  -7.265 126.594  0.00  0.00    -0.074 A 
ATOM    176  CE1 TYR d   1      11.956  -6.150 126.642  0.00  0.00    -0.051 A 
ATOM    177  H69 TYR d   1      11.361  -8.101 127.254  0.00  0.00     0.084 H 
ATOM    178  CZ  TYR d   1      11.690  -5.039 125.863  0.00  0.00     0.065 A 
ATOM    179  H71 TYR d   1      12.814  -6.140 127.305  0.00  0.00     0.087 H 
ATOM    180  CE2 TYR d   1      10.596  -5.087 125.015  0.00  0.00    -0.051 A 
ATOM    181  CD2 TYR d   1       9.826  -6.229 124.962  0.00  0.00    -0.074 A 
ATOM    182  H72 TYR d   1      10.347  -4.232 124.397  0.00  0.00     0.087 H 
ATOM    183  H70 TYR d   1       8.971  -6.243 124.296  0.00  0.00     0.084 H 
BRANCH 178 184
ATOM    184  OH  TYR d   1      12.434  -3.889 125.969  0.00  0.00    -0.361 OA
ATOM    185  H73 TYR d   1      13.141  -4.027 126.588  0.00  0.00     0.217 HD
ENDBRANCH 178 184
ENDBRANCH 171 174
ENDBRANCH  39 171
BRANCH   2 186
ATOM    186  CB  LEU d   1       6.516 -13.060 123.914  0.00  0.00    -0.035 C 
ATOM    187  H76 LEU d   1       6.159 -14.092 124.044  0.00  0.00     0.037 H 
ATOM    188  H77 LEU d   1       7.019 -12.966 122.940  0.00  0.00     0.037 H 
BRANCH 186 189
ATOM    189  CG  LEU d   1       5.289 -12.119 123.919  0.00  0.00    -0.059 C 
ATOM    190  H78 LEU d   1       5.644 -11.079 123.977  0.00  0.00     0.038 H 
BRANCH 189 191
ATOM    191  CD1 LEU d   1       4.465 -12.296 122.626  0.00  0.00    -0.073 C 
ATOM    192  H79 LEU d   1       3.598 -11.619 122.648  0.00  0.00     0.028 H 
ATOM    193  H80 LEU d   1       4.116 -13.337 122.553  0.00  0.00     0.028 H 
ATOM    194  H81 LEU d   1       5.093 -12.058 121.755  0.00  0.00     0.028 H 
ENDBRANCH 189 191
BRANCH 189 195
ATOM    195  CD2 LEU d   1       4.422 -12.397 125.090  0.00  0.00    -0.073 C 
ATOM    196  H82 LEU d   1       5.004 -12.272 126.015  0.00  0.00     0.028 H 
ATOM    197  H83 LEU d   1       4.045 -13.429 125.030  0.00  0.00     0.028 H 
ATOM    198  H84 LEU d   1       3.574 -11.696 125.093  0.00  0.00     0.028 H 
ENDBRANCH 189 195
ENDBRANCH 186 189
ENDBRANCH   2 186
BRANCH  13 199
ATOM    199  C   CYS d   1      11.359 -14.936 125.717  0.00  0.00     0.241 C 
ATOM    200  O   CYS d   1      11.565 -15.984 126.343  0.00  0.00    -0.271 OA
ATOM    201  N   TRP d   1      11.728 -13.731 126.100  0.00  0.00    -0.346 N 
ATOM    202  H89 TRP d   1      11.574 -12.970 125.470  0.00  0.00     0.163 HD
BRANCH 201 203
ATOM    203  CA  TRP d   1      12.364 -13.434 127.423  0.00  0.00     0.093 C 
ATOM    204  H90 TRP d   1      13.358 -13.905 127.457  0.00  0.00     0.088 H 
BRANCH 203 205
ATOM    205  C   TRP d   1      11.506 -14.043 128.579  0.00  0.00     0.241 C 
ATOM    206  O   TRP d   1      12.045 -14.843 129.420  0.00  0.00    -0.271 OA
ATOM    207  N   ILE d   1      10.213 -13.731 128.582  0.00  0.00    -0.346 N 
ATOM    208  H99 ILE d   1       9.861 -13.089 127.900  0.00  0.00     0.163 HD
BRANCH 207 209
ATOM    209  CA  ILE d   1       9.290 -14.313 129.570  0.00  0.00     0.092 C 
ATOM    210 0H10 ILE d   1       9.667 -14.007 130.557  0.00  0.00     0.088 H 
BRANCH 209 211
ATOM    211  C   ILE d   1       9.254 -15.864 129.596  0.00  0.00     0.241 C 
ATOM    212  O   ILE d   1       9.256 -16.487 130.697  0.00  0.00    -0.271 OA
ATOM    213  N   THR d   1       9.313 -16.515 128.422  0.00  0.00    -0.344 N 
ATOM    214 0H11 THR d   1       9.361 -15.990 127.572  0.00  0.00     0.163 HD
BRANCH 213 215
ATOM    215  CA  THR d   1       9.308 -17.963 128.363  0.00  0.00     0.113 C 
ATOM    216 1H11 THR d   1       8.435 -18.295 128.944  0.00  0.00     0.091 H 
BRANCH 215 217
ATOM    217  C   THR d   1      10.569 -18.546 129.020  0.00  0.00     0.243 C 
ATOM    218  O   THR d   1      10.507 -19.585 129.651  0.00  0.00    -0.271 OA
ATOM    219  N   GLN d   1      11.658 -17.810 128.958  0.00  0.00    -0.346 N 
ATOM    220 7H11 GLN d   1      11.607 -16.915 128.516  0.00  0.00     0.163 HD
BRANCH 219 221
ATOM    221  CA  GLN d   1      12.969 -18.257 129.521  0.00  0.00     0.090 C 
ATOM    222 8H11 GLN d   1      13.134 -19.306 129.232  0.00  0.00     0.087 H 
BRANCH 221 223
ATOM    223  C   GLN d   1      12.979 -18.183 130.972  0.00  0.00     0.241 C 
ATOM    224  O   GLN d   1      13.831 -18.771 131.603  0.00  0.00    -0.271 OA
ATOM    225  N   ALA d   1      12.012 -17.480 131.574  0.00  0.00    -0.346 N 
ATOM    226 5H12 ALA d   1      11.364 -16.944 131.033  0.00  0.00     0.163 HD
BRANCH 225 227
ATOM    227  CA  ALA d   1      11.917 -17.504 132.996  0.00  0.00     0.086 C 
ATOM    228 6H12 ALA d   1      12.943 -17.454 133.390  0.00  0.00     0.086 H 
BRANCH 227 229
ATOM    229  C   ALA d   1      11.282 -18.772 133.571  0.00  0.00     0.240 C 
ATOM    230  O   ALA d   1      11.456 -19.046 134.749  0.00  0.00    -0.271 OA
ATOM    231  N   GLU d   1      10.563 -19.566 132.785  0.00  0.00    -0.345 N 
ATOM    232 0H13 GLU d   1      10.579 -19.415 131.797  0.00  0.00     0.163 HD
BRANCH 231 233
ATOM    233  CA  GLU d   1       9.728 -20.682 133.339  0.00  0.00     0.097 C 
ATOM    234 1H13 GLU d   1       9.256 -20.319 134.264  0.00  0.00     0.089 H 
BRANCH 233 235
ATOM    235  C   GLU d   1      10.529 -21.909 133.684  0.00  0.00     0.196 C 
ATOM    236  O   GLU d   1      11.627 -22.057 133.161  0.00  0.00    -0.646 OA
ATOM    237  OXT GLU d   1      10.054 -22.715 134.475  0.00  0.00    -0.646 OA
ENDBRANCH 233 235
BRANCH 233 238
ATOM    238  CB  GLU d   1       8.631 -21.046 132.352  0.00  0.00    -0.028 C 
ATOM    239 2H13 GLU d   1       8.087 -21.926 132.725  0.00  0.00     0.037 H 
ATOM    240 3H13 GLU d   1       9.085 -21.281 131.378  0.00  0.00     0.037 H 
BRANCH 238 241
ATOM    241  CG  GLU d   1       7.645 -19.877 132.182  0.00  0.00     0.018 C 
ATOM    242 4H13 GLU d   1       8.228 -18.946 132.119  0.00  0.00     0.049 H 
ATOM    243 5H13 GLU d   1       6.998 -19.845 133.071  0.00  0.00     0.049 H 
BRANCH 241 244
ATOM    244  CD  GLU d   1       6.746 -19.957 130.946  0.00  0.00     0.172 C 
ATOM    245  OE1 GLU d   1       6.712 -21.034 130.305  0.00  0.00    -0.648 OA
ATOM    246  OE2 GLU d   1       6.062 -18.946 130.616  0.00  0.00    -0.648 OA
ENDBRANCH 241 244
ENDBRANCH 238 241
ENDBRANCH 233 238
ENDBRANCH 231 233
ENDBRANCH 227 229
BRANCH 227 247
ATOM    247  CB  ALA d   1      11.168 -16.261 133.477  0.00  0.00    -0.049 C 
ATOM    248 7H12 ALA d   1      11.094 -16.279 134.574  0.00  0.00     0.030 H 
ATOM    249 8H12 ALA d   1      10.158 -16.250 133.042  0.00  0.00     0.030 H 
ATOM    250 9H12 ALA d   1      11.713 -15.359 133.161  0.00  0.00     0.030 H 
ENDBRANCH 227 247
ENDBRANCH 225 227
ENDBRANCH 221 223
BRANCH 221 251
ATOM    251  CB  GLN d   1      14.081 -17.405 128.914  0.00  0.00    -0.030 C 
ATOM    252 9H11 GLN d   1      15.058 -17.834 129.181  0.00  0.00     0.037 H 
ATOM    253 0H12 GLN d   1      14.012 -16.380 129.306  0.00  0.00     0.037 H 
BRANCH 251 254
ATOM    254  CG  GLN d   1      13.939 -17.379 127.425  0.00  0.00     0.011 C 
ATOM    255 1H12 GLN d   1      13.947 -16.332 127.087  0.00  0.00     0.047 H 
ATOM    256 2H12 GLN d   1      12.981 -17.845 127.152  0.00  0.00     0.047 H 
BRANCH 254 257
ATOM    257  CD  GLN d   1      14.999 -18.085 126.768  0.00  0.00     0.215 C 
ATOM    258  OE1 GLN d   1      15.014 -19.310 126.812  0.00  0.00    -0.274 OA
ATOM    259  NE2 GLN d   1      15.995 -17.327 126.229  0.00  0.00    -0.370 N 
ATOM    260 3H12 GLN d   1      16.760 -17.767 125.759  0.00  0.00     0.159 HD
ATOM    261 4H12 GLN d   1      15.961 -16.330 126.304  0.00  0.00     0.159 HD
ENDBRANCH 254 257
ENDBRANCH 251 254
ENDBRANCH 221 251
ENDBRANCH 219 221
ENDBRANCH 215 217
BRANCH 215 262
ATOM    262  CB  THR d   1       9.178 -18.584 126.957  0.00  0.00     0.060 C 
ATOM    263 2H11 THR d   1       9.057 -19.670 127.084  0.00  0.00     0.086 H 
BRANCH 262 264
ATOM    264  OG1 THR d   1      10.358 -18.355 126.177  0.00  0.00    -0.393 OA
ATOM    265 3H11 THR d   1      10.498 -17.420 126.084  0.00  0.00     0.210 HD
ENDBRANCH 262 264
BRANCH 262 266
ATOM    266  CG2 THR d   1       7.926 -18.047 126.183  0.00  0.00    -0.050 C 
ATOM    267 4H11 THR d   1       7.879 -18.518 125.190  0.00  0.00     0.031 H 
ATOM    268 5H11 THR d   1       8.007 -16.956 126.067  0.00  0.00     0.031 H 
ATOM    269 6H11 THR d   1       7.014 -18.290 126.748  0.00  0.00     0.031 H 
ENDBRANCH 262 266
ENDBRANCH 215 262
ENDBRANCH 213 215
ENDBRANCH 209 211
BRANCH 209 270
ATOM    270  CB  ILE d   1       7.860 -13.684 129.423  0.00  0.00    -0.030 C 
ATOM    271 1H10 ILE d   1       7.575 -13.719 128.361  0.00  0.00     0.043 H 
BRANCH 270 272
ATOM    272  CG1 ILE d   1       7.947 -12.240 129.851  0.00  0.00    -0.063 C 
ATOM    273 2H10 ILE d   1       8.803 -11.776 129.339  0.00  0.00     0.033 H 
ATOM    274 3H10 ILE d   1       8.108 -12.208 130.939  0.00  0.00     0.033 H 
BRANCH 272 275
ATOM    275  CD1 ILE d   1       6.684 -11.427 129.522  0.00  0.00    -0.076 C 
ATOM    276 7H10 ILE d   1       6.818 -10.389 129.861  0.00  0.00     0.027 H 
ATOM    277 8H10 ILE d   1       5.818 -11.871 130.035  0.00  0.00     0.027 H 
ATOM    278 9H10 ILE d   1       6.513 -11.439 128.435  0.00  0.00     0.027 H 
ENDBRANCH 272 275
ENDBRANCH 270 272
BRANCH 270 279
ATOM    279  CG2 ILE d   1       6.788 -14.443 130.215  0.00  0.00    -0.071 C 
ATOM    280 4H10 ILE d   1       6.754 -15.489 129.876  0.00  0.00     0.028 H 
ATOM    281 5H10 ILE d   1       5.808 -13.972 130.050  0.00  0.00     0.028 H 
ATOM    282 6H10 ILE d   1       7.034 -14.412 131.287  0.00  0.00     0.028 H 
ENDBRANCH 270 279
ENDBRANCH 209 270
ENDBRANCH 207 209
ENDBRANCH 203 205
BRANCH 203 283
ATOM    283  CB  TRP d   1      12.539 -11.985 127.516  0.00  0.00    -0.012 C 
ATOM    284  H91 TRP d   1      11.534 -11.544 127.436  0.00  0.00     0.044 H 
ATOM    285  H92 TRP d   1      13.141 -11.688 126.645  0.00  0.00     0.044 H 
BRANCH 283 286
ATOM    286  CG  TRP d   1      13.189 -11.349 128.721  0.00  0.00    -0.028 A 
ATOM    287  CD1 TRP d   1      13.188 -11.809 130.031  0.00  0.00    -0.015 A 
ATOM    288  NE1 TRP d   1      13.816 -10.864 130.848  0.00  0.00    -0.365 N 
ATOM    289  H93 TRP d   1      12.766 -12.755 130.368  0.00  0.00     0.112 H 
ATOM    290  CE2 TRP d   1      14.248  -9.828 130.076  0.00  0.00     0.042 A 
ATOM    291  H94 TRP d   1      13.933 -10.939 131.869  0.00  0.00     0.165 HD
ATOM    292  CD2 TRP d   1      13.878 -10.124 128.716  0.00  0.00    -0.002 A 
ATOM    293  CZ2 TRP d   1      14.920  -8.673 130.414  0.00  0.00    -0.056 A 
ATOM    294  CE3 TRP d   1      14.212  -9.189 127.710  0.00  0.00    -0.070 A 
ATOM    295  CZ3 TRP d   1      14.880  -8.028 128.068  0.00  0.00    -0.082 A 
ATOM    296  H95 TRP d   1      13.950  -9.377 126.675  0.00  0.00     0.084 H 
ATOM    297  CH2 TRP d   1      15.215  -7.756 129.409  0.00  0.00    -0.081 A 
ATOM    298  H97 TRP d   1      15.150  -7.314 127.299  0.00  0.00     0.083 H 
ATOM    299  H98 TRP d   1      15.707  -6.824 129.661  0.00  0.00     0.083 H 
ATOM    300  H96 TRP d   1      15.213  -8.483 131.440  0.00  0.00     0.086 H 
ENDBRANCH 283 286
ENDBRANCH 203 283
ENDBRANCH 201 203
ENDBRANCH  13 199
TORSDOF 71
