REMARK  11 active torsions:
REMARK  status: ('A' for Active; 'I' for Inactive)
REMARK    1  A    between atoms: C1_1  and  C2_2 
REMARK    2  A    between atoms: C3_3  and  C5_4 
REMARK    3  A    between atoms: C3_3  and  C4_14 
REMARK    4  A    between atoms: C5_4  and  C6_5 
REMARK    5  A    between atoms: C6_5  and  C7_6 
REMARK    6  A    between atoms: C8_7  and  C9_8 
REMARK    7  A    between atoms: C8_7  and  C10_15 
REMARK    8  A    between atoms: C9_8  and  C11_9 
REMARK    9  A    between atoms: C11_9  and  C12_10 
REMARK   10  A    between atoms: C13_11  and  C14_12 
REMARK   11  A    between atoms: C13_11  and  C15_13 
ROOT
ATOM      1  C7  FAR d   1       2.006   9.986   8.340  0.00  0.00    -0.101 C 
ATOM      2  C8  FAR d   1       1.709  10.277   9.637  0.00  0.00    -0.087 C 
ATOM      3  H9  FAR d   1       1.486  10.520   7.546  0.00  0.00     0.077 H 
ENDROOT
BRANCH   2   4
ATOM      4  C9  FAR d   1       0.655  11.309   9.966  0.00  0.00    -0.042 C 
ATOM      5  H10 FAR d   1      -0.239  10.807  10.364  0.00  0.00     0.040 H 
ATOM      6  H11 FAR d   1       0.388  11.865   9.055  0.00  0.00     0.040 H 
BRANCH   4   7
ATOM      7  C11 FAR d   1       1.215  12.296  11.032  0.00  0.00    -0.046 C 
ATOM      8  H12 FAR d   1       1.322  13.296  10.586  0.00  0.00     0.039 H 
ATOM      9  H13 FAR d   1       2.197  11.942  11.379  0.00  0.00     0.039 H 
BRANCH   7  10
ATOM     10  C12 FAR d   1       0.265  12.367  12.202  0.00  0.00    -0.101 C 
ATOM     11  C13 FAR d   1      -0.471  13.449  12.532  0.00  0.00    -0.091 C 
ATOM     12  H14 FAR d   1       0.166  11.480  12.826  0.00  0.00     0.077 H 
BRANCH  11  13
ATOM     13  C14 FAR d   1      -0.510  14.730  11.793  0.00  0.00    -0.055 C 
ATOM     14  H15 FAR d   1      -1.198  15.424  12.298  0.00  0.00     0.033 H 
ATOM     15  H16 FAR d   1      -0.859  14.550  10.766  0.00  0.00     0.033 H 
ATOM     16  H17 FAR d   1       0.498  15.169  11.766  0.00  0.00     0.033 H 
ENDBRANCH  11  13
BRANCH  11  17
ATOM     17  C15 FAR d   1      -1.351  13.416  13.675  0.00  0.00    -0.055 C 
ATOM     18  H18 FAR d   1      -1.269  12.438  14.173  0.00  0.00     0.033 H 
ATOM     19  H19 FAR d   1      -2.388  13.573  13.344  0.00  0.00     0.033 H 
ATOM     20  H20 FAR d   1      -1.067  14.211  14.380  0.00  0.00     0.033 H 
ENDBRANCH  11  17
ENDBRANCH   7  10
ENDBRANCH   4   7
ENDBRANCH   2   4
BRANCH   2  21
ATOM     21  C10 FAR d   1       2.360   9.608  10.847  0.00  0.00    -0.055 C 
ATOM     22  H24 FAR d   1       3.108   8.878  10.504  0.00  0.00     0.033 H 
ATOM     23  H25 FAR d   1       1.590   9.093  11.440  0.00  0.00     0.033 H 
ATOM     24  H26 FAR d   1       2.851  10.372  11.468  0.00  0.00     0.033 H 
ENDBRANCH   2  21
BRANCH   1  25
ATOM     25  C6  FAR d   1       3.045   8.935   7.966  0.00  0.00    -0.046 C 
ATOM     26  H7  FAR d   1       3.991   9.179   8.472  0.00  0.00     0.039 H 
ATOM     27  H8  FAR d   1       2.690   7.951   8.307  0.00  0.00     0.039 H 
BRANCH  25  28
ATOM     28  C5  FAR d   1       3.303   8.868   6.429  0.00  0.00    -0.042 C 
ATOM     29  H5  FAR d   1       2.602   8.169   5.950  0.00  0.00     0.040 H 
ATOM     30  H6  FAR d   1       3.195   9.864   5.976  0.00  0.00     0.040 H 
BRANCH  28  31
ATOM     31  C3  FAR d   1       4.745   8.366   6.286  0.00  0.00    -0.088 C 
ATOM     32  C2  FAR d   1       5.673   9.136   5.653  0.00  0.00    -0.105 C 
ATOM     33  H4  FAR d   1       5.375  10.099   5.242  0.00  0.00     0.076 H 
BRANCH  32  34
ATOM     34  C1  FAR d   1       7.096   8.686   5.510  0.00  0.00    -0.059 C 
ATOM     35  H1  FAR d   1       7.671   9.453   4.971  0.00  0.00     0.032 H 
ATOM     36  H2  FAR d   1       7.127   7.741   4.947  0.00  0.00     0.032 H 
ATOM     37  H3  FAR d   1       7.534   8.533   6.507  0.00  0.00     0.032 H 
ENDBRANCH  32  34
BRANCH  31  38
ATOM     38  C4  FAR d   1       5.040   7.005   6.910  0.00  0.00    -0.055 C 
ATOM     39  H21 FAR d   1       6.097   6.748   6.747  0.00  0.00     0.033 H 
ATOM     40  H22 FAR d   1       4.401   6.241   6.443  0.00  0.00     0.033 H 
ATOM     41  H23 FAR d   1       4.834   7.044   7.990  0.00  0.00     0.033 H 
ENDBRANCH  31  38
ENDBRANCH  28  31
ENDBRANCH  25  28
ENDBRANCH   1  25
TORSDOF 11
