REMARK  6 active torsions:
REMARK  status: ('A' for Active; 'I' for Inactive)
REMARK    1  A    between atoms: N01_1  and  C04_2 
REMARK    2  A    between atoms: C12_5  and  S20_8 
REMARK    3  A    between atoms: S20_8  and  N23_11 
REMARK    4  A    between atoms: C37_17  and  N42_19 
REMARK       I    between atoms: N42_19  and  C44_20 
REMARK    5  A    between atoms: C44_20  and  C46_22 
REMARK    6  A    between atoms: C49_25  and  C52_27 
ROOT
ATOM      1  N23 MOL d   1      19.556  -0.490  16.372  0.00  0.00    -0.301 N 
ATOM      2  C24 MOL d   1      18.321  -0.048  15.703  0.00  0.00     0.024 C 
ATOM      3  C26 MOL d   1      17.459   0.349  16.912  0.00  0.00    -0.043 C 
ATOM      4  C29 MOL d   1      18.488   0.707  17.999  0.00  0.00    -0.043 C 
ATOM      5  C32 MOL d   1      19.872   0.558  17.351  0.00  0.00     0.024 C 
ATOM      6  C34 MOL d   1      20.398   1.767  16.554  0.00  0.00    -0.026 C 
ATOM      7  C37 MOL d   1      19.395   2.280  15.504  0.00  0.00     0.016 C 
ATOM      8  C39 MOL d   1      18.693   1.117  14.771  0.00  0.00    -0.026 C 
ATOM      9  H14 MOL d   1      17.843  -0.852  15.123  0.00  0.00     0.073 H 
ATOM     10  H15 MOL d   1      16.826  -0.491  17.234  0.00  0.00     0.036 H 
ATOM     11  H16 MOL d   1      16.825   1.216  16.673  0.00  0.00     0.036 H 
ATOM     12  H17 MOL d   1      18.392   0.022  18.854  0.00  0.00     0.036 H 
ATOM     13  H18 MOL d   1      18.337   1.742  18.340  0.00  0.00     0.036 H 
ATOM     14  H19 MOL d   1      20.624   0.248  18.091  0.00  0.00     0.073 H 
ATOM     15  H20 MOL d   1      21.324   1.471  16.039  0.00  0.00     0.039 H 
ATOM     16  H21 MOL d   1      20.616   2.583  17.259  0.00  0.00     0.039 H 
ATOM     17  H22 MOL d   1      19.964   2.853  14.757  0.00  0.00     0.072 H 
ATOM     18  H23 MOL d   1      17.773   1.501  14.306  0.00  0.00     0.039 H 
ATOM     19  H24 MOL d   1      19.368   0.738  13.989  0.00  0.00     0.039 H 
ENDROOT
BRANCH   1  20
ATOM     20  S20 MOL d   1      19.827  -2.091  16.699  0.00  0.00     0.233 S 
ATOM     21  O21 MOL d   1      20.317  -2.199  18.048  0.00  0.00    -0.205 OA
ATOM     22  O22 MOL d   1      18.650  -2.838  16.309  0.00  0.00    -0.205 OA
BRANCH  20  23
ATOM     23  C12 MOL d   1      21.192  -2.585  15.640  0.00  0.00     0.063 C 
ATOM     24  C09 MOL d   1      22.493  -1.841  15.945  0.00  0.00    -0.046 C 
ATOM     25  C06 MOL d   1      23.677  -2.362  15.126  0.00  0.00    -0.037 C 
ATOM     26  H7  MOL d   1      22.350  -0.774  15.718  0.00  0.00     0.035 H 
ATOM     27  H8  MOL d   1      22.724  -1.960  17.014  0.00  0.00     0.035 H 
ATOM     28  C04 MOL d   1      23.854  -3.878  15.317  0.00  0.00     0.100 C 
ATOM     29  H5  MOL d   1      23.498  -2.152  14.061  0.00  0.00     0.036 H 
ATOM     30  H6  MOL d   1      24.594  -1.849  15.452  0.00  0.00     0.036 H 
ATOM     31  C17 MOL d   1      22.562  -4.604  14.938  0.00  0.00    -0.037 C 
ATOM     32  H4  MOL d   1      24.054  -4.064  16.383  0.00  0.00     0.083 H 
ATOM     33  C14 MOL d   1      21.379  -4.107  15.762  0.00  0.00    -0.046 C 
ATOM     34  H12 MOL d   1      22.693  -5.682  15.114  0.00  0.00     0.036 H 
ATOM     35  H13 MOL d   1      22.354  -4.430  13.872  0.00  0.00     0.036 H 
ATOM     36  H10 MOL d   1      20.465  -4.607  15.409  0.00  0.00     0.035 H 
ATOM     37  H11 MOL d   1      21.550  -4.360  16.819  0.00  0.00     0.035 H 
ATOM     38  H9  MOL d   1      20.916  -2.352  14.601  0.00  0.00     0.066 H 
BRANCH  28  39
ATOM     39  N01 MOL d   1      24.984  -4.402  14.552  0.00  0.00    -0.075 N 
ATOM     40  H1  MOL d   1      25.824  -3.912  14.816  0.00  0.00     0.274 HD
ATOM     41  H2  MOL d   1      24.813  -4.270  13.567  0.00  0.00     0.274 HD
ATOM     42  H3  MOL d   1      25.094  -5.385  14.746  0.00  0.00     0.274 HD
ENDBRANCH  28  39
ENDBRANCH  20  23
ENDBRANCH   1  20
BRANCH   7  43
ATOM     43  N42 MOL d   1      18.400   3.181  16.095  0.00  0.00    -0.351 N 
ATOM     44  C44 MOL d   1      17.521   4.066  15.505  0.00  0.00     0.272 C 
ATOM     45  O45 MOL d   1      17.547   4.138  14.281  0.00  0.00    -0.266 OA
ATOM     46  H25 MOL d   1      18.350   3.148  17.093  0.00  0.00     0.163 HD
BRANCH  44  47
ATOM     47  C46 MOL d   1      16.577   4.853  16.292  0.00  0.00     0.154 A 
ATOM     48  N47 MOL d   1      15.906   4.273  17.301  0.00  0.00    -0.123 NA
ATOM     49  O48 MOL d   1      15.080   5.238  17.852  0.00  0.00    -0.217 OA
ATOM     50  C49 MOL d   1      15.253   6.379  17.158  0.00  0.00     0.085 A 
ATOM     51  C50 MOL d   1      16.174   6.205  16.171  0.00  0.00    -0.016 A 
ATOM     52  H26 MOL d   1      16.523   6.942  15.449  0.00  0.00     0.091 H 
BRANCH  50  53
ATOM     53  C52 MOL d   1      14.524   7.624  17.477  0.00  0.00    -0.005 A 
ATOM     54  C54 MOL d   1      14.035   8.513  16.367  0.00  0.00    -0.055 A 
ATOM     55  C57 MOL d   1      15.196   8.941  17.210  0.00  0.00    -0.055 A 
ATOM     56  H28 MOL d   1      13.068   9.028  16.461  0.00  0.00     0.034 H 
ATOM     57  H29 MOL d   1      14.195   8.222  15.318  0.00  0.00     0.034 H 
ATOM     58  H30 MOL d   1      16.208   8.964  16.780  0.00  0.00     0.034 H 
ATOM     59  H31 MOL d   1      15.081   9.771  17.923  0.00  0.00     0.034 H 
ATOM     60  H27 MOL d   1      13.913   7.480  18.380  0.00  0.00     0.050 H 
ENDBRANCH  50  53
ENDBRANCH  44  47
ENDBRANCH   7  43
TORSDOF 6
