REMARK  7 active torsions:
REMARK  status: ('A' for Active; 'I' for Inactive)
REMARK    1  A    between atoms: C5_4  and  C6_5 
REMARK    2  A    between atoms: C6_5  and  N7_8 
REMARK    3  A    between atoms: C9_9  and  C10_10 
REMARK    4  A    between atoms: C10_10  and  N11_11 
REMARK    5  A    between atoms: C13_13  and  N15_15 
REMARK       I    between atoms: N15_15  and  C16_16 
REMARK    6  A    between atoms: C16_16  and  C18_18 
REMARK    7  A    between atoms: N20_20  and  C23_23 
ROOT
ATOM      1  N11 MOL d   1     -38.253 -14.767  24.102  0.00  0.00    -0.063 N 
ATOM      2  C12 MOL d   1     -37.101 -14.607  25.011  0.00  0.00     0.104 C 
ATOM      3  C13 MOL d   1     -36.371 -13.899  23.873  0.00  0.00     0.059 C 
ATOM      4  C14 MOL d   1     -37.804 -13.546  23.416  0.00  0.00     0.104 C 
ATOM      5  H8  MOL d   1     -38.236 -15.595  23.528  0.00  0.00     0.280 HD
ATOM      6  H9  MOL d   1     -36.638 -15.552  25.333  0.00  0.00     0.079 H 
ATOM      7  H10 MOL d   1     -37.297 -13.976  25.890  0.00  0.00     0.079 H 
ATOM      8  H11 MOL d   1     -35.783 -14.545  23.205  0.00  0.00     0.077 H 
ATOM      9  H12 MOL d   1     -38.202 -12.611  23.836  0.00  0.00     0.079 H 
ATOM     10  H13 MOL d   1     -37.952 -13.551  22.326  0.00  0.00     0.079 H 
ENDROOT
BRANCH   1  11
ATOM     11  C10 MOL d   1     -39.541 -14.681  24.812  0.00  0.00     0.110 C 
ATOM     12  H6  MOL d   1     -39.587 -15.487  25.559  0.00  0.00     0.083 H 
ATOM     13  H7  MOL d   1     -39.600 -13.707  25.319  0.00  0.00     0.083 H 
BRANCH  11  14
ATOM     14  C9  MOL d   1     -40.725 -14.816  23.878  0.00  0.00     0.004 A 
ATOM     15  C8  MOL d   1     -41.436 -15.953  23.717  0.00  0.00     0.008 A 
ATOM     16  N7  MOL d   1     -42.422 -15.718  22.831  0.00  0.00    -0.276 N 
ATOM     17  H5  MOL d   1     -41.244 -16.900  24.219  0.00  0.00     0.115 H 
ATOM     18  N27 MOL d   1     -42.308 -14.388  22.415  0.00  0.00    -0.184 NA
ATOM     19  C26 MOL d   1     -41.301 -13.849  23.045  0.00  0.00     0.031 A 
ATOM     20  H21 MOL d   1     -40.964 -12.819  22.941  0.00  0.00     0.118 H 
BRANCH  16  21
ATOM     21  C6  MOL d   1     -43.388 -16.714  22.350  0.00  0.00     0.040 C 
ATOM     22  H3  MOL d   1     -43.507 -16.565  21.267  0.00  0.00     0.074 H 
ATOM     23  H4  MOL d   1     -42.961 -17.710  22.539  0.00  0.00     0.074 H 
BRANCH  21  24
ATOM     24  C5  MOL d   1     -44.769 -16.684  22.970  0.00  0.00    -0.038 A 
ATOM     25  C4  MOL d   1     -45.884 -16.597  22.142  0.00  0.00    -0.074 A 
ATOM     26  C3  MOL d   1     -47.165 -16.578  22.679  0.00  0.00    -0.061 A 
ATOM     27  H2  MOL d   1     -45.752 -16.544  21.067  0.00  0.00     0.084 H 
ATOM     28  C2  MOL d   1     -47.346 -16.656  24.058  0.00  0.00     0.034 A 
ATOM     29  H1  MOL d   1     -48.025 -16.502  22.024  0.00  0.00     0.086 H 
ATOM     30 CL1  MOL d   1     -48.961 -16.637  24.720  0.00  0.00    -0.084 Cl
ATOM     31  C29 MOL d   1     -46.229 -16.750  24.884  0.00  0.00    -0.061 A 
ATOM     32  C28 MOL d   1     -44.948 -16.768  24.342  0.00  0.00    -0.074 A 
ATOM     33  H23 MOL d   1     -46.359 -16.810  25.959  0.00  0.00     0.086 H 
ATOM     34  H22 MOL d   1     -44.087 -16.848  24.995  0.00  0.00     0.084 H 
ENDBRANCH  21  24
ENDBRANCH  16  21
ENDBRANCH  11  14
ENDBRANCH   1  11
BRANCH   3  35
ATOM     35  N15 MOL d   1     -35.594 -12.707  24.249  0.00  0.00    -0.348 N 
ATOM     36  C16 MOL d   1     -34.271 -12.565  23.977  0.00  0.00     0.274 C 
ATOM     37  O17 MOL d   1     -33.630 -13.426  23.400  0.00  0.00    -0.266 OA
ATOM     38  H14 MOL d   1     -36.063 -11.965  24.728  0.00  0.00     0.163 HD
BRANCH  36  39
ATOM     39  C18 MOL d   1     -33.573 -11.323  24.354  0.00  0.00     0.165 A 
ATOM     40  C19 MOL d   1     -32.432 -10.910  23.755  0.00  0.00     0.035 A 
ATOM     41  N20 MOL d   1     -32.079  -9.751  24.315  0.00  0.00    -0.255 N 
ATOM     42  H15 MOL d   1     -31.898 -11.429  22.960  0.00  0.00     0.118 H 
ATOM     43  N21 MOL d   1     -33.047  -9.449  25.282  0.00  0.00    -0.065 NA
ATOM     44  N22 MOL d   1     -33.918 -10.403  25.276  0.00  0.00    -0.125 NA
BRANCH  41  45
ATOM     45  C23 MOL d   1     -30.903  -8.986  23.924  0.00  0.00     0.036 A 
ATOM     46  C24 MOL d   1     -30.961  -7.478  24.183  0.00  0.00    -0.042 A 
ATOM     47  C25 MOL d   1     -30.040  -8.373  25.016  0.00  0.00    -0.042 A 
ATOM     48  H17 MOL d   1     -31.856  -7.031  24.640  0.00  0.00     0.036 H 
ATOM     49  H18 MOL d   1     -30.534  -6.776  23.452  0.00  0.00     0.036 H 
ATOM     50  H19 MOL d   1     -28.950  -8.312  24.885  0.00  0.00     0.036 H 
ATOM     51  H20 MOL d   1     -30.272  -8.567  26.073  0.00  0.00     0.036 H 
ATOM     52  H16 MOL d   1     -30.450  -9.397  23.010  0.00  0.00     0.075 H 
ENDBRANCH  41  45
ENDBRANCH  36  39
ENDBRANCH   3  35
TORSDOF 7
