REMARK  6 active torsions:
REMARK  status: ('A' for Active; 'I' for Inactive)
REMARK    1  A    between atoms: O4_32  and  C3_3 
REMARK    2  A    between atoms: N1_7  and  C9_13 
REMARK    3  A    between atoms: C21_26  and  N3_9 
REMARK    4  A    between atoms: C15_19  and  C14_18 
REMARK    5  A    between atoms: C14_18  and  O4_32 
REMARK    6  A    between atoms: C20_27  and  C21_26 
ROOT
ATOM      1  C14 8W7 d   1      50.815  56.111 -37.893  0.00  0.00     0.050 C 
ATOM      2  H13 8W7 d   1      51.668  56.044 -38.584  0.00  0.00     0.082 H 
ATOM      3  H14 8W7 d   1      50.363  57.111 -37.965  0.00  0.00     0.082 H 
ENDROOT
BRANCH   1   4
ATOM      4  C15 8W7 d   1      51.339  56.006 -36.606  0.00  0.00    -0.034 A 
ATOM      5  C17 8W7 d   1      51.728  54.763 -36.107  0.00  0.00    -0.074 A 
ATOM      6  C19 8W7 d   1      52.255  54.660 -34.824  0.00  0.00    -0.075 A 
ATOM      7  H26 8W7 d   1      51.619  53.876 -36.720  0.00  0.00     0.084 H 
ATOM      8  C20 8W7 d   1      52.396  55.795 -34.032  0.00  0.00    -0.033 A 
ATOM      9  H25 8W7 d   1      52.557  53.692 -34.440  0.00  0.00     0.084 H 
ATOM     10  C18 8W7 d   1      52.009  57.032 -34.539  0.00  0.00    -0.075 A 
ATOM     11  C16 8W7 d   1      51.482  57.146 -35.820  0.00  0.00    -0.074 A 
ATOM     12  H27 8W7 d   1      52.120  57.919 -33.926  0.00  0.00     0.084 H 
ATOM     13  H28 8W7 d   1      51.185  58.115 -36.204  0.00  0.00     0.084 H 
BRANCH   8  14
ATOM     14  C21 8W7 d   1      52.979  55.688 -32.615  0.00  0.00     0.107 C 
ATOM     15  H23 8W7 d   1      53.063  54.627 -32.339  0.00  0.00     0.083 H 
ATOM     16  H24 8W7 d   1      53.977  56.151 -32.599  0.00  0.00     0.083 H 
BRANCH  14  17
ATOM     17  N3  8W7 d   1      52.110  56.375 -31.640  0.00  0.00    -0.063 N 
ATOM     18  C22 8W7 d   1      52.218  55.738 -30.316  0.00  0.00     0.103 C 
ATOM     19  C23 8W7 d   1      51.304  56.472 -29.328  0.00  0.00     0.042 C 
ATOM     20  H15 8W7 d   1      53.259  55.793 -29.965  0.00  0.00     0.079 H 
ATOM     21  H16 8W7 d   1      51.911  54.684 -30.388  0.00  0.00     0.079 H 
ATOM     22  O5  8W7 d   1      51.619  57.881 -29.265  0.00  0.00    -0.388 OA
ATOM     23  H17 8W7 d   1      51.431  56.032 -28.328  0.00  0.00     0.076 H 
ATOM     24  H18 8W7 d   1      50.259  56.353 -29.651  0.00  0.00     0.076 H 
ATOM     25  C24 8W7 d   1      51.523  58.492 -30.565  0.00  0.00     0.042 C 
ATOM     26  C25 8W7 d   1      52.504  57.787 -31.504  0.00  0.00     0.103 C 
ATOM     27  H19 8W7 d   1      51.779  59.559 -30.494  0.00  0.00     0.076 H 
ATOM     28  H20 8W7 d   1      50.498  58.386 -30.951  0.00  0.00     0.076 H 
ATOM     29  H21 8W7 d   1      52.483  58.272 -32.491  0.00  0.00     0.079 H 
ATOM     30  H22 8W7 d   1      53.520  57.847 -31.088  0.00  0.00     0.079 H 
ATOM     31  H5  8W7 d   1      51.155  56.323 -31.959  0.00  0.00     0.280 HD
ENDBRANCH  14  17
ENDBRANCH   8  14
ENDBRANCH   1   4
BRANCH   1  32
ATOM     32  O4  8W7 d   1      49.829  55.182 -38.371  0.00  0.00    -0.346 OA
BRANCH  32  33
ATOM     33  C3  8W7 d   1      48.536  55.584 -38.181  0.00  0.00     0.078 A 
ATOM     34  C2  8W7 d   1      48.184  56.909 -37.929  0.00  0.00    -0.050 A 
ATOM     35  C1  8W7 d   1      46.852  57.264 -37.745  0.00  0.00    -0.079 A 
ATOM     36  H2  8W7 d   1      48.955  57.669 -37.876  0.00  0.00     0.087 H 
ATOM     37  C4  8W7 d   1      45.850  56.301 -37.811  0.00  0.00    -0.067 A 
ATOM     38  H1  8W7 d   1      46.593  58.298 -37.549  0.00  0.00     0.083 H 
ATOM     39  C5  8W7 d   1      46.189  54.974 -38.067  0.00  0.00     0.042 A 
ATOM     40  H3  8W7 d   1      44.813  56.581 -37.664  0.00  0.00     0.085 H 
ATOM     41  C6  8W7 d   1      47.524  54.639 -38.246  0.00  0.00     0.009 A 
ATOM     42  C8  8W7 d   1      45.439  53.803 -38.188  0.00  0.00     0.255 A 
ATOM     43  C7  8W7 d   1      47.624  53.143 -38.500  0.00  0.00     0.026 A 
ATOM     44  N1  8W7 d   1      46.215  52.745 -38.429  0.00  0.00    -0.330 N 
ATOM     45  H6  8W7 d   1      48.223  52.642 -37.725  0.00  0.00     0.071 H 
ATOM     46  H7  8W7 d   1      48.053  52.930 -39.490  0.00  0.00     0.071 H 
ATOM     47  O1  8W7 d   1      44.215  53.752 -38.073  0.00  0.00    -0.267 OA
BRANCH  44  48
ATOM     48  C9  8W7 d   1      45.746  51.361 -38.589  0.00  0.00     0.093 C 
ATOM     49  C10 8W7 d   1      46.037  50.876 -40.006  0.00  0.00    -0.030 C 
ATOM     50  C11 8W7 d   1      45.664  49.402 -40.156  0.00  0.00     0.012 C 
ATOM     51  H9  8W7 d   1      47.109  51.001 -40.218  0.00  0.00     0.037 H 
ATOM     52  H10 8W7 d   1      45.450  51.472 -40.720  0.00  0.00     0.037 H 
ATOM     53  C12 8W7 d   1      46.382  48.560 -39.103  0.00  0.00     0.224 C 
ATOM     54  H11 8W7 d   1      45.956  49.055 -41.158  0.00  0.00     0.047 H 
ATOM     55  H12 8W7 d   1      44.577  49.289 -40.031  0.00  0.00     0.047 H 
ATOM     56  N2  8W7 d   1      46.751  49.123 -37.876  0.00  0.00    -0.296 N 
ATOM     57  O3  8W7 d   1      46.639  47.381 -39.333  0.00  0.00    -0.273 OA
ATOM     58  C13 8W7 d   1      46.470  50.464 -37.579  0.00  0.00     0.247 C 
ATOM     59  H4  8W7 d   1      47.224  48.559 -37.199  0.00  0.00     0.171 HD
ATOM     60  O2  8W7 d   1      46.805  50.921 -36.488  0.00  0.00    -0.271 OA
ATOM     61  H8  8W7 d   1      44.662  51.319 -38.405  0.00  0.00     0.087 H 
ENDBRANCH  44  48
ENDBRANCH  32  33
ENDBRANCH   1  32
TORSDOF 6
