REMARK WARNING: 32 MAX_TORS EXCEEDED!!!
REMARK  59 active torsions:
REMARK  status: ('A' for Active; 'I' for Inactive)
REMARK    1  A    between atoms: N_1  and  CA_2 
REMARK    2  A    between atoms: CA_2  and  C_3 
REMARK    3  A    between atoms: CA_2  and  CB_5 
REMARK       I    between atoms: C_3  and  N_10 
REMARK    4  A    between atoms: CB_5  and  CG_6 
REMARK    5  A    between atoms: CG_6  and  CD_7 
REMARK    6  A    between atoms: N_10  and  CA_11 
REMARK    7  A    between atoms: CA_11  and  C_12 
REMARK    8  A    between atoms: CA_11  and  CB_14 
REMARK       I    between atoms: C_12  and  N_18 
REMARK    9  A    between atoms: CB_14  and  CG_15 
REMARK   10  A    between atoms: N_18  and  CA_19 
REMARK   11  A    between atoms: CA_19  and  C_20 
REMARK   12  A    between atoms: CA_19  and  CB_22 
REMARK       I    between atoms: C_20  and  N_26 
REMARK   13  A    between atoms: CB_22  and  CG_23 
REMARK   14  A    between atoms: N_26  and  CA_27 
REMARK   15  A    between atoms: CA_27  and  C_28 
REMARK   16  A    between atoms: CA_27  and  CB_30 
REMARK       I    between atoms: C_28  and  N_34 
REMARK   17  A    between atoms: CB_30  and  CG_31 
REMARK   18  A    between atoms: N_34  and  CA_35 
REMARK   19  A    between atoms: CA_35  and  C_36 
REMARK   20  A    between atoms: CA_35  and  CB_38 
REMARK       I    between atoms: C_36  and  N_42 
REMARK   21  A    between atoms: CB_38  and  CG1_39 
REMARK   22  A    between atoms: CB_38  and  CG2_40 
REMARK   23  A    between atoms: CG1_39  and  CD1_41 
REMARK   24  A    between atoms: N_42  and  CA_43 
REMARK   25  A    between atoms: CA_43  and  C_44 
REMARK   26  A    between atoms: CA_43  and  CB_46 
REMARK       I    between atoms: C_44  and  N_51 
REMARK   27  A    between atoms: CB_46  and  CG_47 
REMARK   28  A    between atoms: CG_47  and  CD_48 
REMARK   29  A    between atoms: CD_48  and  CE_49 
REMARK   30  A    between atoms: CE_49  and  NZ_50 
REMARK   31  A    between atoms: N_51  and  CA_52 
REMARK   32  A    between atoms: CA_52  and  C_53 
REMARK   33  A    between atoms: CA_52  and  CB_55 
REMARK       I    between atoms: C_53  and  N_60 
REMARK   34  A    between atoms: CB_55  and  CG_56 
REMARK   35  A    between atoms: CG_56  and  CD_57 
REMARK       I    between atoms: CD_57  and  NE2_59 
REMARK   36  A    between atoms: N_60  and  CA_61 
REMARK   37  A    between atoms: CA_61  and  C_62 
REMARK   38  A    between atoms: CA_61  and  CB_64 
REMARK       I    between atoms: C_62  and  N_68 
REMARK   39  A    between atoms: CB_64  and  CG_65 
REMARK   40  A    between atoms: CG_65  and  CD1_66 
REMARK   41  A    between atoms: CG_65  and  CD2_67 
REMARK   42  A    between atoms: N_68  and  CA_69 
REMARK   43  A    between atoms: CA_69  and  C_70 
REMARK   44  A    between atoms: CA_69  and  CB_72 
REMARK       I    between atoms: C_70  and  N_73 
REMARK   45  A    between atoms: N_73  and  CA_74 
REMARK   46  A    between atoms: CA_74  and  C_75 
REMARK   47  A    between atoms: CA_74  and  CB_77 
REMARK       I    between atoms: C_75  and  N_78 
REMARK   48  A    between atoms: N_78  and  CA_79 
REMARK   49  A    between atoms: CA_79  and  C_80 
REMARK   50  A    between atoms: CA_79  and  CB_82 
REMARK       I    between atoms: C_80  and  N_92 
REMARK   51  A    between atoms: CB_82  and  CG_83 
REMARK   52  A    between atoms: N_92  and  CA_93 
REMARK   53  A    between atoms: CA_93  and  C_94 
REMARK   54  A    between atoms: CA_93  and  CB_96 
REMARK       I    between atoms: C_94  and  N_97 
REMARK   55  A    between atoms: N_97  and  CA_98 
REMARK   56  A    between atoms: CA_98  and  C_99 
REMARK   57  A    between atoms: CA_98  and  CB_101 
REMARK   58  A    between atoms: CB_101  and  OG1_102 
REMARK   59  A    between atoms: CB_101  and  CG2_103 
ROOT
ATOM      1  CA  GLN d   1      28.968  39.594  -0.284  0.00  0.00     0.090 C 
ATOM      2  H46 GLN d   1      28.009  39.842  -0.763  0.00  0.00     0.087 H 
ENDROOT
BRANCH   1   3
ATOM      3  N   GLN d   1      29.467  40.805   0.342  0.00  0.00    -0.346 N 
ATOM      4  C   LYS d   1      28.678  41.495   1.136  0.00  0.00     0.241 C 
ATOM      5  O   LYS d   1      27.532  41.107   1.388  0.00  0.00    -0.271 OA
ATOM      6  H45 GLN d   1      30.403  41.112   0.171  0.00  0.00     0.163 HD
BRANCH   4   7
ATOM      7  CA  LYS d   1      29.227  42.765   1.776  0.00  0.00     0.089 C 
ATOM      8  H33 LYS d   1      28.578  43.029   2.624  0.00  0.00     0.087 H 
BRANCH   7   9
ATOM      9  N   LYS d   1      30.570  42.528   2.286  0.00  0.00    -0.346 N 
ATOM     10  C   ILE d   1      30.766  41.584   3.207  0.00  0.00     0.241 C 
ATOM     11  O   ILE d   1      29.827  41.049   3.811  0.00  0.00    -0.271 OA
ATOM     12  H32 LYS d   1      31.340  43.069   1.948  0.00  0.00     0.163 HD
BRANCH  10  13
ATOM     13  CA  ILE d   1      32.194  41.169   3.522  0.00  0.00     0.092 C 
ATOM     14  H22 ILE d   1      32.215  40.075   3.639  0.00  0.00     0.088 H 
BRANCH  13  15
ATOM     15  N   ILE d   1      33.104  41.512   2.435  0.00  0.00    -0.346 N 
ATOM     16  C   ASP d   1      33.219  40.704   1.375  0.00  0.00     0.241 C 
ATOM     17  O   ASP d   1      32.638  39.615   1.314  0.00  0.00    -0.271 OA
ATOM     18  H21 ILE d   1      33.643  42.353   2.482  0.00  0.00     0.163 HD
BRANCH  16  19
ATOM     19  CA  ASP d   1      34.089  41.167   0.209  0.00  0.00     0.098 C 
ATOM     20  H18 ASP d   1      33.714  40.678  -0.702  0.00  0.00     0.088 H 
BRANCH  19  21
ATOM     21  N   ASP d   1      34.008  42.608   0.013  0.00  0.00    -0.345 N 
ATOM     22  C   ASP d   1      32.866  43.168  -0.383  0.00  0.00     0.241 C 
ATOM     23  O   ASP d   1      31.831  42.510  -0.553  0.00  0.00    -0.271 OA
ATOM     24  H17 ASP d   1      34.812  43.179   0.176  0.00  0.00     0.163 HD
BRANCH  22  25
ATOM     25  CA  ASP d   1      32.862  44.672  -0.622  0.00  0.00     0.098 C 
ATOM     26  H14 ASP d   1      31.864  45.054  -0.363  0.00  0.00     0.088 H 
BRANCH  25  27
ATOM     27  N   ASP d   1      33.837  45.364   0.216  0.00  0.00    -0.345 N 
ATOM     28  C   ASP d   1      33.635  45.463   1.533  0.00  0.00     0.241 C 
ATOM     29  O   ASP d   1      32.675  44.921   2.090  0.00  0.00    -0.271 OA
ATOM     30  H13 ASP d   1      34.656  45.764  -0.196  0.00  0.00     0.163 HD
BRANCH  28  31
ATOM     31  CA  ASP d   1      34.664  46.246   2.340  0.00  0.00     0.098 C 
ATOM     32  H10 ASP d   1      34.488  46.046   3.407  0.00  0.00     0.088 H 
BRANCH  31  33
ATOM     33  N   ASP d   1      36.017  45.814   2.008  0.00  0.00    -0.345 N 
ATOM     34  C   GLU d   1      36.390  44.553   2.230  0.00  0.00     0.249 C 
ATOM     35  O   GLU d   1      35.670  43.730   2.796  0.00  0.00    -0.271 OA
ATOM     36  H9  ASP d   1      36.666  46.464   1.613  0.00  0.00     0.163 HD
BRANCH  34  37
ATOM     37  CA  GLU d   1      37.787  44.172   1.756  0.00  0.00     0.176 C 
ATOM     38  H4  GLU d   1      37.902  43.083   1.860  0.00  0.00     0.099 H 
BRANCH  37  39
ATOM     39  N   GLU d   1      37.983  44.518   0.353  0.00  0.00    -0.066 N 
ATOM     40  H1  GLU d   1      38.914  44.255   0.069  0.00  0.00     0.275 HD
ATOM     41  H2  GLU d   1      37.863  45.511   0.232  0.00  0.00     0.275 HD
ATOM     42  H3  GLU d   1      37.308  44.027  -0.212  0.00  0.00     0.275 HD
ENDBRANCH  37  39
BRANCH  37  43
ATOM     43  CB  GLU d   1      38.838  44.856   2.632  0.00  0.00    -0.021 C 
ATOM     44  H5  GLU d   1      38.573  44.685   3.686  0.00  0.00     0.037 H 
ATOM     45  H6  GLU d   1      38.815  45.935   2.419  0.00  0.00     0.037 H 
BRANCH  43  46
ATOM     46  CG  GLU d   1      40.257  44.356   2.410  0.00  0.00     0.018 C 
ATOM     47  H7  GLU d   1      40.580  44.648   1.400  0.00  0.00     0.049 H 
ATOM     48  H8  GLU d   1      40.262  43.259   2.494  0.00  0.00     0.049 H 
BRANCH  46  49
ATOM     49  CD  GLU d   1      41.239  44.925   3.418  0.00  0.00     0.172 C 
ATOM     50  OE1 GLU d   1      41.138  46.128   3.741  0.00  0.00    -0.648 OA
ATOM     51  OE2 GLU d   1      42.108  44.165   3.893  0.00  0.00    -0.648 OA
ENDBRANCH  46  49
ENDBRANCH  43  46
ENDBRANCH  37  43
ENDBRANCH  34  37
ENDBRANCH  31  33
BRANCH  31  52
ATOM     52  CB  ASP d   1      34.522  47.752   2.103  0.00  0.00     0.043 C 
ATOM     53  H11 ASP d   1      34.571  47.944   1.021  0.00  0.00     0.052 H 
ATOM     54  H12 ASP d   1      35.355  48.267   2.604  0.00  0.00     0.052 H 
BRANCH  52  55
ATOM     55  CG  ASP d   1      33.211  48.313   2.638  0.00  0.00     0.175 C 
ATOM     56  OD1 ASP d   1      32.596  47.674   3.518  0.00  0.00    -0.648 OA
ATOM     57  OD2 ASP d   1      32.799  49.401   2.181  0.00  0.00    -0.648 OA
ENDBRANCH  52  55
ENDBRANCH  31  52
ENDBRANCH  28  31
ENDBRANCH  25  27
BRANCH  25  58
ATOM     58  CB  ASP d   1      33.118  44.964  -2.099  0.00  0.00     0.043 C 
ATOM     59  H15 ASP d   1      34.160  44.704  -2.336  0.00  0.00     0.052 H 
ATOM     60  H16 ASP d   1      32.958  46.037  -2.281  0.00  0.00     0.052 H 
BRANCH  58  61
ATOM     61  CG  ASP d   1      32.198  44.172  -3.009  0.00  0.00     0.175 C 
ATOM     62  OD1 ASP d   1      32.562  43.028  -3.361  0.00  0.00    -0.648 OA
ATOM     63  OD2 ASP d   1      31.103  44.679  -3.348  0.00  0.00    -0.648 OA
ENDBRANCH  58  61
ENDBRANCH  25  58
ENDBRANCH  22  25
ENDBRANCH  19  21
BRANCH  19  64
ATOM     64  CB  ASP d   1      35.551  40.752   0.404  0.00  0.00     0.043 C 
ATOM     65  H19 ASP d   1      35.599  39.657   0.498  0.00  0.00     0.052 H 
ATOM     66  H20 ASP d   1      35.931  41.216   1.326  0.00  0.00     0.052 H 
BRANCH  64  67
ATOM     67  CG  ASP d   1      36.438  41.185  -0.766  0.00  0.00     0.175 C 
ATOM     68  OD1 ASP d   1      36.025  41.009  -1.935  0.00  0.00    -0.648 OA
ATOM     69  OD2 ASP d   1      37.546  41.709  -0.517  0.00  0.00    -0.648 OA
ENDBRANCH  64  67
ENDBRANCH  19  64
ENDBRANCH  16  19
ENDBRANCH  13  15
BRANCH  13  70
ATOM     70  CB  ILE d   1      32.620  41.798   4.861  0.00  0.00    -0.030 C 
ATOM     71  H23 ILE d   1      32.071  41.290   5.668  0.00  0.00     0.043 H 
BRANCH  70  72
ATOM     72  CG1 ILE d   1      32.267  43.286   4.910  0.00  0.00    -0.063 C 
ATOM     73  H24 ILE d   1      31.186  43.394   4.737  0.00  0.00     0.033 H 
ATOM     74  H25 ILE d   1      32.820  43.802   4.111  0.00  0.00     0.033 H 
BRANCH  72  75
ATOM     75  CD1 ILE d   1      32.611  43.943   6.237  0.00  0.00    -0.076 C 
ATOM     76  H29 ILE d   1      32.332  45.007   6.203  0.00  0.00     0.027 H 
ATOM     77  H30 ILE d   1      33.692  43.853   6.421  0.00  0.00     0.027 H 
ATOM     78  H31 ILE d   1      32.058  43.445   7.047  0.00  0.00     0.027 H 
ENDBRANCH  72  75
ENDBRANCH  70  72
BRANCH  70  79
ATOM     79  CG2 ILE d   1      34.110  41.594   5.097  0.00  0.00    -0.071 C 
ATOM     80  H26 ILE d   1      34.344  40.520   5.058  0.00  0.00     0.028 H 
ATOM     81  H27 ILE d   1      34.383  41.993   6.085  0.00  0.00     0.028 H 
ATOM     82  H28 ILE d   1      34.680  42.122   4.318  0.00  0.00     0.028 H 
ENDBRANCH  70  79
ENDBRANCH  13  70
ENDBRANCH  10  13
ENDBRANCH   7   9
BRANCH   7  83
ATOM     83  CB  LYS d   1      29.221  43.939   0.792  0.00  0.00    -0.038 C 
ATOM     84  H34 LYS d   1      28.261  43.935   0.256  0.00  0.00     0.036 H 
ATOM     85  H35 LYS d   1      30.042  43.793   0.075  0.00  0.00     0.036 H 
BRANCH  83  86
ATOM     86  CG  LYS d   1      29.398  45.310   1.453  0.00  0.00    -0.061 C 
ATOM     87  H36 LYS d   1      30.389  45.348   1.929  0.00  0.00     0.033 H 
ATOM     88  H37 LYS d   1      28.619  45.436   2.219  0.00  0.00     0.033 H 
BRANCH  86  89
ATOM     89  CD  LYS d   1      29.291  46.457   0.451  0.00  0.00    -0.043 C 
ATOM     90  H38 LYS d   1      28.250  46.531   0.103  0.00  0.00     0.035 H 
ATOM     91  H39 LYS d   1      29.949  46.246  -0.405  0.00  0.00     0.035 H 
BRANCH  89  92
ATOM     92  CE  LYS d   1      29.702  47.792   1.075  0.00  0.00     0.080 C 
ATOM     93  H40 LYS d   1      30.681  47.667   1.560  0.00  0.00     0.075 H 
ATOM     94  H41 LYS d   1      28.953  48.073   1.829  0.00  0.00     0.075 H 
BRANCH  92  95
ATOM     95  NZ  LYS d   1      29.804  48.895   0.067  0.00  0.00    -0.079 N 
ATOM     96  H42 LYS d   1      30.077  49.748   0.529  0.00  0.00     0.274 HD
ATOM     97  H43 LYS d   1      28.910  49.026  -0.380  0.00  0.00     0.274 HD
ATOM     98  H44 LYS d   1      30.494  48.653  -0.627  0.00  0.00     0.274 HD
ENDBRANCH  92  95
ENDBRANCH  89  92
ENDBRANCH  86  89
ENDBRANCH  83  86
ENDBRANCH   7  83
ENDBRANCH   4   7
ENDBRANCH   1   3
BRANCH   1  99
ATOM     99  C   GLN d   1      28.718  38.501   0.708  0.00  0.00     0.241 C 
ATOM    100  O   GLN d   1      27.811  37.730   0.559  0.00  0.00    -0.271 OA
ATOM    101  N   LEU d   1      29.554  38.426   1.724  0.00  0.00    -0.346 N 
ATOM    102  H53 LEU d   1      30.313  39.075   1.777  0.00  0.00     0.163 HD
BRANCH 101 103
ATOM    103  CA  LEU d   1      29.406  37.438   2.760  0.00  0.00     0.089 C 
ATOM    104  H54 LEU d   1      29.442  36.427   2.328  0.00  0.00     0.087 H 
BRANCH 103 105
ATOM    105  C   LEU d   1      28.094  37.662   3.446  0.00  0.00     0.241 C 
ATOM    106  O   LEU d   1      27.347  36.755   3.648  0.00  0.00    -0.271 OA
ATOM    107  N   ALA d   1      27.822  38.891   3.802  0.00  0.00    -0.346 N 
ATOM    108  H64 ALA d   1      28.483  39.617   3.613  0.00  0.00     0.163 HD
BRANCH 107 109
ATOM    109  CA  ALA d   1      26.591  39.210   4.459  0.00  0.00     0.086 C 
ATOM    110  H65 ALA d   1      26.518  38.610   5.378  0.00  0.00     0.086 H 
BRANCH 109 111
ATOM    111  C   ALA d   1      25.416  38.876   3.572  0.00  0.00     0.240 C 
ATOM    112  O   ALA d   1      24.442  38.314   4.016  0.00  0.00    -0.271 OA
ATOM    113  N   ALA d   1      25.513  39.217   2.302  0.00  0.00    -0.346 N 
ATOM    114  H69 ALA d   1      26.342  39.669   1.971  0.00  0.00     0.163 HD
BRANCH 113 115
ATOM    115  CA  ALA d   1      24.435  38.944   1.389  0.00  0.00     0.086 C 
ATOM    116  H70 ALA d   1      23.521  39.376   1.823  0.00  0.00     0.086 H 
BRANCH 115 117
ATOM    117  C   ALA d   1      24.190  37.468   1.211  0.00  0.00     0.240 C 
ATOM    118  O   ALA d   1      23.096  37.091   0.926  0.00  0.00    -0.271 OA
ATOM    119  N   TRP d   1      25.193  36.631   1.410  0.00  0.00    -0.346 N 
ATOM    120  H74 TRP d   1      26.087  36.999   1.663  0.00  0.00     0.163 HD
BRANCH 119 121
ATOM    121  CA  TRP d   1      25.038  35.188   1.272  0.00  0.00     0.093 C 
ATOM    122  H75 TRP d   1      24.567  34.986   0.299  0.00  0.00     0.088 H 
BRANCH 121 123
ATOM    123  C   TRP d   1      24.180  34.570   2.351  0.00  0.00     0.241 C 
ATOM    124  O   TRP d   1      23.630  33.516   2.162  0.00  0.00    -0.271 OA
ATOM    125  N   ALA d   1      24.158  35.231   3.488  0.00  0.00    -0.346 N 
ATOM    126  H84 ALA d   1      24.631  36.111   3.539  0.00  0.00     0.163 HD
BRANCH 125 127
ATOM    127  CA  ALA d   1      23.482  34.743   4.664  0.00  0.00     0.086 C 
ATOM    128  H85 ALA d   1      23.652  33.658   4.720  0.00  0.00     0.086 H 
BRANCH 127 129
ATOM    129  C   ALA d   1      22.017  34.966   4.637  0.00  0.00     0.240 C 
ATOM    130  O   ALA d   1      21.287  34.247   5.271  0.00  0.00    -0.271 OA
ATOM    131  N   THR d   1      21.579  35.967   3.911  0.00  0.00    -0.343 N 
ATOM    132  H89 THR d   1      22.221  36.545   3.407  0.00  0.00     0.163 HD
BRANCH 131 133
ATOM    133  CA  THR d   1      20.162  36.225   3.847  0.00  0.00     0.120 C 
ATOM    134  H90 THR d   1      19.756  36.127   4.865  0.00  0.00     0.093 H 
BRANCH 133 135
ATOM    135  C   THR d   1      19.443  35.214   2.958  0.00  0.00     0.199 C 
ATOM    136  O   THR d   1      20.113  34.269   2.438  0.00  0.00    -0.646 OA
ATOM    137  OXT THR d   1      18.197  35.384   2.811  0.00  0.00    -0.646 OA
ENDBRANCH 133 135
BRANCH 133 138
ATOM    138  CB  THR d   1      19.894  37.639   3.370  0.00  0.00     0.061 C 
ATOM    139  H91 THR d   1      19.943  37.681   2.272  0.00  0.00     0.086 H 
BRANCH 138 140
ATOM    140  OG1 THR d   1      20.879  38.496   3.940  0.00  0.00    -0.393 OA
ATOM    141  H92 THR d   1      20.726  39.388   3.651  0.00  0.00     0.210 HD
ENDBRANCH 138 140
BRANCH 138 142
ATOM    142  CG2 THR d   1      18.531  38.090   3.841  0.00  0.00    -0.050 C 
ATOM    143  H93 THR d   1      18.343  39.116   3.492  0.00  0.00     0.031 H 
ATOM    144  H94 THR d   1      18.496  38.065   4.940  0.00  0.00     0.031 H 
ATOM    145  H95 THR d   1      17.761  37.418   3.434  0.00  0.00     0.031 H 
ENDBRANCH 138 142
ENDBRANCH 133 138
ENDBRANCH 131 133
ENDBRANCH 127 129
BRANCH 127 146
ATOM    146  CB  ALA d   1      24.077  35.383   5.899  0.00  0.00    -0.049 C 
ATOM    147  H86 ALA d   1      23.558  35.007   6.793  0.00  0.00     0.030 H 
ATOM    148  H87 ALA d   1      23.960  36.475   5.839  0.00  0.00     0.030 H 
ATOM    149  H88 ALA d   1      25.146  35.132   5.963  0.00  0.00     0.030 H 
ENDBRANCH 127 146
ENDBRANCH 125 127
ENDBRANCH 121 123
BRANCH 121 150
ATOM    150  CB  TRP d   1      26.404  34.531   1.308  0.00  0.00    -0.012 C 
ATOM    151  H76 TRP d   1      27.016  35.084   2.035  0.00  0.00     0.044 H 
ATOM    152  H77 TRP d   1      26.845  34.632   0.305  0.00  0.00     0.044 H 
BRANCH 150 153
ATOM    153  CG  TRP d   1      26.465  33.087   1.679  0.00  0.00    -0.028 A 
ATOM    154  CD1 TRP d   1      26.403  32.044   0.839  0.00  0.00    -0.015 A 
ATOM    155  NE1 TRP d   1      26.539  30.873   1.511  0.00  0.00    -0.365 N 
ATOM    156  H78 TRP d   1      26.262  32.126  -0.238  0.00  0.00     0.112 H 
ATOM    157  CE2 TRP d   1      26.704  31.149   2.833  0.00  0.00     0.042 A 
ATOM    158  H79 TRP d   1      26.520  29.933   1.091  0.00  0.00     0.165 HD
ATOM    159  CD2 TRP d   1      26.677  32.531   2.976  0.00  0.00    -0.002 A 
ATOM    160  CZ2 TRP d   1      26.882  30.307   3.895  0.00  0.00    -0.056 A 
ATOM    161  CE3 TRP d   1      26.840  33.071   4.244  0.00  0.00    -0.070 A 
ATOM    162  CZ3 TRP d   1      27.011  32.237   5.282  0.00  0.00    -0.082 A 
ATOM    163  H80 TRP d   1      26.829  34.145   4.393  0.00  0.00     0.084 H 
ATOM    164  CH2 TRP d   1      27.032  30.868   5.110  0.00  0.00    -0.081 A 
ATOM    165  H82 TRP d   1      27.135  32.648   6.277  0.00  0.00     0.083 H 
ATOM    166  H83 TRP d   1      27.173  30.229   5.974  0.00  0.00     0.083 H 
ATOM    167  H81 TRP d   1      26.902  29.231   3.764  0.00  0.00     0.086 H 
ENDBRANCH 150 153
ENDBRANCH 121 150
ENDBRANCH 119 121
ENDBRANCH 115 117
BRANCH 115 168
ATOM    168  CB  ALA d   1      24.675  39.624   0.056  0.00  0.00    -0.049 C 
ATOM    169  H71 ALA d   1      23.840  39.402  -0.625  0.00  0.00     0.030 H 
ATOM    170  H72 ALA d   1      25.613  39.252  -0.382  0.00  0.00     0.030 H 
ATOM    171  H73 ALA d   1      24.746  40.711   0.206  0.00  0.00     0.030 H 
ENDBRANCH 115 168
ENDBRANCH 113 115
ENDBRANCH 109 111
BRANCH 109 172
ATOM    172  CB  ALA d   1      26.564  40.665   4.831  0.00  0.00    -0.049 C 
ATOM    173  H66 ALA d   1      25.614  40.897   5.335  0.00  0.00     0.030 H 
ATOM    174  H67 ALA d   1      26.656  41.278   3.922  0.00  0.00     0.030 H 
ATOM    175  H68 ALA d   1      27.402  40.886   5.509  0.00  0.00     0.030 H 
ENDBRANCH 109 172
ENDBRANCH 107 109
ENDBRANCH 103 105
BRANCH 103 176
ATOM    176  CB  LEU d   1      30.516  37.612   3.768  0.00  0.00    -0.035 C 
ATOM    177  H55 LEU d   1      30.141  38.303   4.537  0.00  0.00     0.037 H 
ATOM    178  H56 LEU d   1      31.358  38.078   3.235  0.00  0.00     0.037 H 
BRANCH 176 179
ATOM    179  CG  LEU d   1      31.068  36.423   4.490  0.00  0.00    -0.059 C 
ATOM    180  H57 LEU d   1      30.459  36.217   5.382  0.00  0.00     0.038 H 
BRANCH 179 181
ATOM    181  CD1 LEU d   1      31.057  35.221   3.602  0.00  0.00    -0.073 C 
ATOM    182  H58 LEU d   1      31.465  34.358   4.148  0.00  0.00     0.028 H 
ATOM    183  H59 LEU d   1      31.673  35.417   2.712  0.00  0.00     0.028 H 
ATOM    184  H60 LEU d   1      30.024  35.003   3.292  0.00  0.00     0.028 H 
ENDBRANCH 179 181
BRANCH 179 185
ATOM    185  CD2 LEU d   1      32.476  36.752   4.904  0.00  0.00    -0.073 C 
ATOM    186  H61 LEU d   1      32.469  37.638   5.556  0.00  0.00     0.028 H 
ATOM    187  H62 LEU d   1      33.082  36.960   4.010  0.00  0.00     0.028 H 
ATOM    188  H63 LEU d   1      32.907  35.899   5.449  0.00  0.00     0.028 H 
ENDBRANCH 179 185
ENDBRANCH 176 179
ENDBRANCH 103 176
ENDBRANCH 101 103
ENDBRANCH   1  99
BRANCH   1 189
ATOM    189  CB  GLN d   1      29.909  39.086  -1.356  0.00  0.00    -0.030 C 
ATOM    190  H47 GLN d   1      29.535  38.117  -1.718  0.00  0.00     0.037 H 
ATOM    191  H48 GLN d   1      30.905  38.951  -0.910  0.00  0.00     0.037 H 
BRANCH 189 192
ATOM    192  CG  GLN d   1      30.037  40.027  -2.544  0.00  0.00     0.011 C 
ATOM    193  H49 GLN d   1      30.555  39.497  -3.357  0.00  0.00     0.047 H 
ATOM    194  H50 GLN d   1      30.632  40.900  -2.237  0.00  0.00     0.047 H 
BRANCH 192 195
ATOM    195  CD  GLN d   1      28.706  40.511  -3.059  0.00  0.00     0.215 C 
ATOM    196  OE1 GLN d   1      28.325  41.661  -2.842  0.00  0.00    -0.274 OA
ATOM    197  NE2 GLN d   1      27.989  39.636  -3.748  0.00  0.00    -0.370 N 
ATOM    198  H51 GLN d   1      27.097  39.899  -4.115  0.00  0.00     0.159 HD
ATOM    199  H52 GLN d   1      28.340  38.712  -3.901  0.00  0.00     0.159 HD
ENDBRANCH 192 195
ENDBRANCH 189 192
ENDBRANCH   1 189
TORSDOF 59
