REMARK  9 active torsions:
REMARK  status: ('A' for Active; 'I' for Inactive)
REMARK    1  A    between atoms: C2_2  and  C3_3 
REMARK    2  A    between atoms: C2_2  and  O27_27 
REMARK    3  A    between atoms: C4_4  and  C5_5 
REMARK    4  A    between atoms: C15_15  and  O16_16 
REMARK    5  A    between atoms: C17_17  and  C18_18 
REMARK    6  A    between atoms: C18_18  and  N19_19 
REMARK    7  A    between atoms: C22_22  and  C23_23 
REMARK    8  A    between atoms: O27_27  and  C28_28 
REMARK    9  A    between atoms: C28_28  and  C29_29 
ROOT
ATOM      1  C3  I28 d   1       4.303  25.910   7.374  0.00  0.00     0.087 A 
ATOM      2  C4  I28 d   1       3.976  24.655   7.873  0.00  0.00     0.103 A 
ATOM      3  O11 I28 d   1       2.888  24.760   8.634  0.00  0.00    -0.308 OA
ATOM      4  C12 I28 d   1       2.429  26.017   8.692  0.00  0.00     0.088 A 
ATOM      5  C13 I28 d   1       1.343  26.527   9.379  0.00  0.00    -0.047 A 
ATOM      6  C14 I28 d   1       1.052  27.867   9.309  0.00  0.00    -0.048 A 
ATOM      7  C15 I28 d   1       1.860  28.688   8.547  0.00  0.00     0.074 A 
ATOM      8  C17 I28 d   1       2.962  28.206   7.858  0.00  0.00     0.015 A 
ATOM      9  C26 I28 d   1       3.267  26.839   7.918  0.00  0.00     0.028 A 
ATOM     10  H6  I28 d   1       0.721  25.868   9.974  0.00  0.00     0.087 H 
ATOM     11  H7  I28 d   1       0.201  28.274   9.844  0.00  0.00     0.087 H 
ENDROOT
BRANCH   8  12
ATOM     12  C18 I28 d   1       3.750  29.234   7.084  0.00  0.00     0.110 C 
ATOM     13  H9  I28 d   1       3.088  30.068   6.809  0.00  0.00     0.083 H 
ATOM     14  H10 I28 d   1       4.154  28.771   6.172  0.00  0.00     0.083 H 
BRANCH  12  15
ATOM     15  N19 I28 d   1       4.870  29.749   7.909  0.00  0.00    -0.067 N 
ATOM     16  C20 I28 d   1       5.807  30.520   7.072  0.00  0.00     0.084 C 
ATOM     17  C21 I28 d   1       6.993  31.077   7.862  0.00  0.00    -0.039 C 
ATOM     18  H12 I28 d   1       5.262  31.361   6.618  0.00  0.00     0.076 H 
ATOM     19  H13 I28 d   1       6.192  29.862   6.279  0.00  0.00     0.076 H 
ATOM     20  C22 I28 d   1       6.444  31.981   8.958  0.00  0.00    -0.055 C 
ATOM     21  H14 I28 d   1       7.648  31.655   7.194  0.00  0.00     0.035 H 
ATOM     22  H15 I28 d   1       7.564  30.251   8.310  0.00  0.00     0.035 H 
ATOM     23  C24 I28 d   1       5.608  31.129   9.921  0.00  0.00    -0.039 C 
ATOM     24  H16 I28 d   1       5.821  32.771   8.515  0.00  0.00     0.039 H 
ATOM     25  C25 I28 d   1       4.474  30.390   9.186  0.00  0.00     0.084 C 
ATOM     26  H20 I28 d   1       5.169  31.784  10.688  0.00  0.00     0.035 H 
ATOM     27  H21 I28 d   1       6.263  30.388  10.403  0.00  0.00     0.035 H 
ATOM     28  H22 I28 d   1       4.087  29.608   9.855  0.00  0.00     0.076 H 
ATOM     29  H23 I28 d   1       3.676  31.116   8.971  0.00  0.00     0.076 H 
ATOM     30  H11 I28 d   1       5.385  28.931   8.194  0.00  0.00     0.280 HD
BRANCH  20  31
ATOM     31  C23 I28 d   1       7.612  32.612   9.741  0.00  0.00    -0.073 C 
ATOM     32  H17 I28 d   1       7.213  33.264  10.532  0.00  0.00     0.028 H 
ATOM     33  H18 I28 d   1       8.235  33.206   9.056  0.00  0.00     0.028 H 
ATOM     34  H19 I28 d   1       8.222  31.817  10.194  0.00  0.00     0.028 H 
ENDBRANCH  20  31
ENDBRANCH  12  15
ENDBRANCH   8  12
BRANCH   7  35
ATOM     35  O16 I28 d   1       1.563  30.005   8.465  0.00  0.00    -0.360 OA
ATOM     36  H8  I28 d   1       1.584  30.388   9.334  0.00  0.00     0.217 HD
ENDBRANCH   7  35
BRANCH   1  37
ATOM     37  C2  I28 d   1       5.431  26.207   6.482  0.00  0.00     0.297 C 
ATOM     38  O1  I28 d   1       6.001  27.272   6.555  0.00  0.00    -0.259 OA
BRANCH  37  39
ATOM     39  O27 I28 d   1       5.665  25.412   5.410  0.00  0.00    -0.318 OA
BRANCH  39  40
ATOM     40  C28 I28 d   1       6.600  25.885   4.402  0.00  0.00     0.026 C 
ATOM     41  H24 I28 d   1       6.532  26.980   4.329  0.00  0.00     0.074 H 
ATOM     42  H25 I28 d   1       6.345  25.436   3.431  0.00  0.00     0.074 H 
BRANCH  40  43
ATOM     43  C29 I28 d   1       8.027  25.493   4.780  0.00  0.00    -0.056 C 
ATOM     44  H26 I28 d   1       8.723  25.857   4.010  0.00  0.00     0.030 H 
ATOM     45  H27 I28 d   1       8.100  24.398   4.852  0.00  0.00     0.030 H 
ATOM     46  H28 I28 d   1       8.286  25.942   5.750  0.00  0.00     0.030 H 
ENDBRANCH  40  43
ENDBRANCH  39  40
ENDBRANCH  37  39
ENDBRANCH   1  37
BRANCH   2  47
ATOM     47  C5  I28 d   1       4.633  23.349   7.662  0.00  0.00    -0.001 A 
ATOM     48  C6  I28 d   1       5.990  23.208   7.326  0.00  0.00    -0.070 A 
ATOM     49  C7  I28 d   1       6.538  21.950   7.139  0.00  0.00    -0.082 A 
ATOM     50  H1  I28 d   1       6.612  24.089   7.213  0.00  0.00     0.084 H 
ATOM     51  C8  I28 d   1       5.739  20.830   7.305  0.00  0.00    -0.083 A 
ATOM     52  H2  I28 d   1       7.581  21.843   6.865  0.00  0.00     0.083 H 
ATOM     53  C9  I28 d   1       4.404  20.947   7.659  0.00  0.00    -0.082 A 
ATOM     54  H3  I28 d   1       6.166  19.845   7.155  0.00  0.00     0.083 H 
ATOM     55  C10 I28 d   1       3.844  22.201   7.834  0.00  0.00    -0.070 A 
ATOM     56  H4  I28 d   1       3.799  20.058   7.799  0.00  0.00     0.083 H 
ATOM     57  H5  I28 d   1       2.798  22.296   8.103  0.00  0.00     0.084 H 
ENDBRANCH   2  47
TORSDOF 9
