REMARK  7 active torsions:
REMARK  status: ('A' for Active; 'I' for Inactive)
REMARK    1  A    between atoms: C2_1  and  O1_14 
REMARK    2  A    between atoms: C11_6  and  O12_23 
REMARK    3  A    between atoms: C15_7  and  C16_8 
REMARK       I    between atoms: C16_8  and  N17_24 
REMARK    4  A    between atoms: N17_24  and  C18_9 
REMARK    5  A    between atoms: C7_15  and  C8_16 
REMARK    6  A    between atoms: C22_21  and  C21_20 
REMARK    7  A    between atoms: C22_21  and  N23_26 
ROOT
ATOM      1  C2  5V8 d   1       2.132  28.569   8.246  0.00  0.00     0.074 A 
ATOM      2  C3  5V8 d   1       1.319  27.726   8.992  0.00  0.00    -0.048 A 
ATOM      3  C4  5V8 d   1       1.601  26.378   9.073  0.00  0.00    -0.047 A 
ATOM      4  C5  5V8 d   1       2.696  25.846   8.411  0.00  0.00     0.088 A 
ATOM      5  C15 5V8 d   1       4.587  25.774   7.113  0.00  0.00     0.080 A 
ATOM      6  C20 5V8 d   1       3.537  26.685   7.654  0.00  0.00     0.027 A 
ATOM      7  C7  5V8 d   1       4.273  24.499   7.581  0.00  0.00     0.103 A 
ATOM      8  C21 5V8 d   1       3.244  28.064   7.578  0.00  0.00     0.015 A 
ATOM      9  O6  5V8 d   1       3.170  24.585   8.333  0.00  0.00    -0.308 OA
ATOM     10  H1  5V8 d   1       0.458  28.129   9.513  0.00  0.00     0.087 H 
ATOM     11  H2  5V8 d   1       0.961  25.729   9.660  0.00  0.00     0.087 H 
ENDROOT
BRANCH   8  12
ATOM     12  C22 5V8 d   1       4.107  29.036   6.809  0.00  0.00     0.110 C 
ATOM     13  H17 5V8 d   1       3.510  29.917   6.532  0.00  0.00     0.083 H 
ATOM     14  H18 5V8 d   1       4.486  28.549   5.898  0.00  0.00     0.083 H 
BRANCH  12  15
ATOM     15  N23 5V8 d   1       5.259  29.462   7.663  0.00  0.00    -0.067 N 
ATOM     16  C24 5V8 d   1       6.190  30.240   6.823  0.00  0.00     0.084 C 
ATOM     17  C25 5V8 d   1       7.388  30.710   7.652  0.00  0.00    -0.042 C 
ATOM     18  H7  5V8 d   1       6.546  29.608   5.996  0.00  0.00     0.076 H 
ATOM     19  H8  5V8 d   1       5.665  31.116   6.415  0.00  0.00     0.076 H 
ATOM     20  C26 5V8 d   1       6.868  31.676   8.725  0.00  0.00    -0.062 C 
ATOM     21  H9  5V8 d   1       8.112  31.226   7.004  0.00  0.00     0.035 H 
ATOM     22  H10 5V8 d   1       7.874  29.847   8.130  0.00  0.00     0.035 H 
ATOM     23  C27 5V8 d   1       5.973  30.871   9.669  0.00  0.00    -0.042 C 
ATOM     24  H11 5V8 d   1       6.288  32.484   8.255  0.00  0.00     0.033 H 
ATOM     25  H12 5V8 d   1       7.712  32.107   9.284  0.00  0.00     0.033 H 
ATOM     26  C28 5V8 d   1       4.829  30.245   8.847  0.00  0.00     0.084 C 
ATOM     27  H22 5V8 d   1       5.555  31.535  10.440  0.00  0.00     0.035 H 
ATOM     28  H23 5V8 d   1       6.562  30.076  10.150  0.00  0.00     0.035 H 
ATOM     29  H24 5V8 d   1       4.260  29.576   9.509  0.00  0.00     0.076 H 
ATOM     30  H25 5V8 d   1       4.176  31.058   8.498  0.00  0.00     0.076 H 
ATOM     31  H21 5V8 d   1       5.734  28.636   7.994  0.00  0.00     0.280 HD
ENDBRANCH  12  15
ENDBRANCH   8  12
BRANCH   1  32
ATOM     32  O1  5V8 d   1       1.830  29.903   8.185  0.00  0.00    -0.360 OA
ATOM     33  H13 5V8 d   1       1.846  30.271   9.061  0.00  0.00     0.217 HD
ENDBRANCH   1  32
BRANCH   5  34
ATOM     34  C16 5V8 d   1       5.706  26.148   6.230  0.00  0.00     0.255 C 
ATOM     35  N17 5V8 d   1       5.869  25.440   5.099  0.00  0.00    -0.361 N 
ATOM     36  H20 5V8 d   1       5.241  24.693   4.881  0.00  0.00     0.162 HD
ATOM     37  O19 5V8 d   1       6.445  27.090   6.477  0.00  0.00    -0.268 OA
BRANCH  35  38
ATOM     38  C18 5V8 d   1       6.969  25.764   4.186  0.00  0.00    -0.018 C 
ATOM     39  H4  5V8 d   1       6.941  25.083   3.323  0.00  0.00     0.056 H 
ATOM     40  H5  5V8 d   1       7.928  25.650   4.712  0.00  0.00     0.056 H 
ATOM     41  H6  5V8 d   1       6.863  26.802   3.838  0.00  0.00     0.056 H 
ENDBRANCH  35  38
ENDBRANCH   5  34
BRANCH   7  42
ATOM     42  C8  5V8 d   1       4.964  23.206   7.373  0.00  0.00    -0.001 A 
ATOM     43  C9  5V8 d   1       4.212  22.020   7.449  0.00  0.00    -0.068 A 
ATOM     44  C10 5V8 d   1       4.829  20.796   7.278  0.00  0.00    -0.050 A 
ATOM     45  H14 5V8 d   1       3.146  22.067   7.642  0.00  0.00     0.085 H 
ATOM     46  C11 5V8 d   1       6.202  20.729   7.039  0.00  0.00     0.065 A 
ATOM     47  H3  5V8 d   1       4.245  19.884   7.330  0.00  0.00     0.087 H 
ATOM     48  C13 5V8 d   1       6.958  21.895   6.972  0.00  0.00    -0.050 A 
ATOM     49  C14 5V8 d   1       6.344  23.121   7.142  0.00  0.00    -0.068 A 
ATOM     50  H15 5V8 d   1       8.025  21.842   6.787  0.00  0.00     0.087 H 
ATOM     51  H16 5V8 d   1       6.936  24.028   7.096  0.00  0.00     0.085 H 
BRANCH  46  52
ATOM     52  O12 5V8 d   1       6.803  19.522   6.875  0.00  0.00    -0.361 OA
ATOM     53  H19 5V8 d   1       6.153  18.833   6.949  0.00  0.00     0.217 HD
ENDBRANCH  46  52
ENDBRANCH   7  42
TORSDOF 7
