REMARK  10 active torsions:
REMARK  status: ('A' for Active; 'I' for Inactive)
REMARK    1  A    between atoms: C1_1  and  C2_2 
REMARK    2  A    between atoms: C2_2  and  O3_3 
REMARK    3  A    between atoms: O3_3  and  C4_4 
REMARK    4  A    between atoms: C4_4  and  C6_6 
REMARK    5  A    between atoms: C7_7  and  C20_20 
REMARK    6  A    between atoms: C11_11  and  C16_16 
REMARK    7  A    between atoms: C12_12  and  O15_15 
REMARK    8  A    between atoms: C16_16  and  N17_17 
REMARK    9  A    between atoms: N17_17  and  C18_18 
REMARK   10  A    between atoms: N17_17  and  C19_19 
ROOT
ATOM      1  C6  JS1 d   1       4.525  26.672   7.198  0.00  0.00     0.087 A 
ATOM      2  C7  JS1 d   1       4.013  25.391   7.431  0.00  0.00     0.103 A 
ATOM      3  O8  JS1 d   1       2.841  25.494   8.041  0.00  0.00    -0.308 OA
ATOM      4  C9  JS1 d   1       2.486  26.765   8.243  0.00  0.00     0.088 A 
ATOM      5  C10 JS1 d   1       3.493  27.612   7.735  0.00  0.00     0.028 A 
ATOM      6  C11 JS1 d   1       3.305  29.004   7.868  0.00  0.00     0.015 A 
ATOM      7  C12 JS1 d   1       2.141  29.463   8.465  0.00  0.00     0.074 A 
ATOM      8  C13 JS1 d   1       1.173  28.610   8.957  0.00  0.00    -0.048 A 
ATOM      9  C14 JS1 d   1       1.349  27.265   8.850  0.00  0.00    -0.047 A 
ATOM     10  H6  JS1 d   1       0.280  29.009   9.425  0.00  0.00     0.087 H 
ATOM     11  H7  JS1 d   1       0.599  26.587   9.240  0.00  0.00     0.087 H 
ENDROOT
BRANCH   6  12
ATOM     12  C16 JS1 d   1       4.273  30.065   7.388  0.00  0.00     0.110 C 
ATOM     13  H9  JS1 d   1       3.724  31.005   7.233  0.00  0.00     0.083 H 
ATOM     14  H10 JS1 d   1       4.717  29.739   6.436  0.00  0.00     0.083 H 
BRANCH  12  15
ATOM     15  N17 JS1 d   1       5.362  30.299   8.373  0.00  0.00    -0.075 N 
ATOM     16  H11 JS1 d   1       5.744  29.387   8.571  0.00  0.00     0.279 HD
BRANCH  15  17
ATOM     17  C18 JS1 d   1       4.932  30.842   9.674  0.00  0.00     0.066 C 
ATOM     18  H12 JS1 d   1       5.810  30.976  10.323  0.00  0.00     0.068 H 
ATOM     19  H13 JS1 d   1       4.228  30.142  10.149  0.00  0.00     0.068 H 
ATOM     20  H14 JS1 d   1       4.437  31.812   9.521  0.00  0.00     0.068 H 
ENDBRANCH  15  17
BRANCH  15  21
ATOM     21  C19 JS1 d   1       6.473  31.100   7.809  0.00  0.00     0.066 C 
ATOM     22  H15 JS1 d   1       6.776  30.676   6.840  0.00  0.00     0.068 H 
ATOM     23  H16 JS1 d   1       7.328  31.080   8.501  0.00  0.00     0.068 H 
ATOM     24  H17 JS1 d   1       6.141  32.139   7.667  0.00  0.00     0.068 H 
ENDBRANCH  15  21
ENDBRANCH  12  15
ENDBRANCH   6  12
BRANCH   7  25
ATOM     25  O15 JS1 d   1       1.936  30.786   8.601  0.00  0.00    -0.360 OA
ATOM     26  H8  JS1 d   1       1.859  31.000   9.523  0.00  0.00     0.217 HD
ENDBRANCH   7  25
BRANCH   1  27
ATOM     27  C4  JS1 d   1       5.804  26.989   6.535  0.00  0.00     0.297 C 
ATOM     28  O5  JS1 d   1       6.198  28.139   6.490  0.00  0.00    -0.259 OA
BRANCH  27  29
ATOM     29  O3  JS1 d   1       6.233  26.177   5.541  0.00  0.00    -0.318 OA
BRANCH  29  30
ATOM     30  C2  JS1 d   1       7.501  26.520   4.909  0.00  0.00     0.026 C 
ATOM     31  H4  JS1 d   1       7.355  27.354   4.207  0.00  0.00     0.074 H 
ATOM     32  H5  JS1 d   1       8.234  26.811   5.676  0.00  0.00     0.074 H 
BRANCH  30  33
ATOM     33  C1  JS1 d   1       8.001  25.286   4.154  0.00  0.00    -0.056 C 
ATOM     34  H1  JS1 d   1       8.959  25.518   3.666  0.00  0.00     0.030 H 
ATOM     35  H2  JS1 d   1       7.262  24.998   3.392  0.00  0.00     0.030 H 
ATOM     36  H3  JS1 d   1       8.141  24.455   4.861  0.00  0.00     0.030 H 
ENDBRANCH  30  33
ENDBRANCH  29  30
ENDBRANCH  27  29
ENDBRANCH   1  27
BRANCH   2  37
ATOM     37  C20 JS1 d   1       4.576  24.051   7.151  0.00  0.00    -0.001 A 
ATOM     38  C21 JS1 d   1       5.950  23.819   7.070  0.00  0.00    -0.070 A 
ATOM     39  C22 JS1 d   1       6.439  22.547   6.834  0.00  0.00    -0.082 A 
ATOM     40  H18 JS1 d   1       6.641  24.645   7.193  0.00  0.00     0.084 H 
ATOM     41  C23 JS1 d   1       5.560  21.486   6.720  0.00  0.00    -0.083 A 
ATOM     42  H19 JS1 d   1       7.506  22.383   6.739  0.00  0.00     0.083 H 
ATOM     43  C24 JS1 d   1       4.198  21.697   6.832  0.00  0.00    -0.082 A 
ATOM     44  H20 JS1 d   1       5.939  20.486   6.542  0.00  0.00     0.083 H 
ATOM     45  C25 JS1 d   1       3.699  22.971   7.056  0.00  0.00    -0.070 A 
ATOM     46  H21 JS1 d   1       3.515  20.860   6.744  0.00  0.00     0.083 H 
ATOM     47  H22 JS1 d   1       2.631  23.127   7.157  0.00  0.00     0.084 H 
ENDBRANCH   2  37
TORSDOF 10
