REMARK  8 active torsions:
REMARK  status: ('A' for Active; 'I' for Inactive)
REMARK    1  A    between atoms: C2_2  and  O3_3 
REMARK    2  A    between atoms: C2_2  and  C6_6 
REMARK    3  A    between atoms: O3_3  and  C4_4 
REMARK    4  A    between atoms: C4_4  and  C5_5 
REMARK    5  A    between atoms: C8_8  and  C22_22 
REMARK    6  A    between atoms: C9_9  and  O10_10 
REMARK    7  A    between atoms: C15_15  and  C16_16 
REMARK    8  A    between atoms: C22_22  and  N23_23 
ROOT
ATOM      1  C6  J24 d   1       4.454  26.504   7.153  0.00  0.00     0.087 A 
ATOM      2  C7  J24 d   1       3.381  27.426   7.653  0.00  0.00     0.028 A 
ATOM      3  C8  J24 d   1       3.118  28.811   7.641  0.00  0.00     0.015 A 
ATOM      4  C9  J24 d   1       1.958  29.297   8.243  0.00  0.00     0.074 A 
ATOM      5  C11 J24 d   1       1.060  28.445   8.872  0.00  0.00    -0.048 A 
ATOM      6  C12 J24 d   1       1.308  27.093   8.892  0.00  0.00    -0.047 A 
ATOM      7  C13 J24 d   1       2.453  26.578   8.291  0.00  0.00     0.088 A 
ATOM      8  O14 J24 d   1       2.891  25.313   8.191  0.00  0.00    -0.308 OA
ATOM      9  C15 J24 d   1       4.051  25.221   7.536  0.00  0.00     0.103 A 
ATOM     10  H7  J24 d   1       0.169  28.843   9.344  0.00  0.00     0.087 H 
ATOM     11  H8  J24 d   1       0.608  26.424   9.379  0.00  0.00     0.087 H 
ENDROOT
BRANCH   3  12
ATOM     12  C22 J24 d   1       4.054  29.809   6.994  0.00  0.00     0.111 C 
ATOM     13  H14 J24 d   1       3.490  30.714   6.724  0.00  0.00     0.083 H 
ATOM     14  H15 J24 d   1       4.490  29.364   6.087  0.00  0.00     0.083 H 
BRANCH  12  15
ATOM     15  N23 J24 d   1       5.145  30.172   7.936  0.00  0.00    -0.063 N 
ATOM     16  C24 J24 d   1       4.655  30.798   9.183  0.00  0.00     0.103 C 
ATOM     17  C25 J24 d   1       5.772  31.340  10.081  0.00  0.00     0.042 C 
ATOM     18  H17 J24 d   1       4.088  30.045   9.750  0.00  0.00     0.079 H 
ATOM     19  H18 J24 d   1       3.990  31.632   8.915  0.00  0.00     0.079 H 
ATOM     20  O26 J24 d   1       6.656  32.182   9.333  0.00  0.00    -0.388 OA
ATOM     21  H19 J24 d   1       6.342  30.497  10.498  0.00  0.00     0.076 H 
ATOM     22  H20 J24 d   1       5.326  31.922  10.901  0.00  0.00     0.076 H 
ATOM     23  C27 J24 d   1       7.258  31.518   8.219  0.00  0.00     0.042 C 
ATOM     24  C28 J24 d   1       6.182  30.977   7.265  0.00  0.00     0.103 C 
ATOM     25  H21 J24 d   1       7.870  30.681   8.585  0.00  0.00     0.076 H 
ATOM     26  H22 J24 d   1       7.897  32.230   7.676  0.00  0.00     0.076 H 
ATOM     27  H23 J24 d   1       5.694  31.831   6.772  0.00  0.00     0.079 H 
ATOM     28  H24 J24 d   1       6.674  30.349   6.508  0.00  0.00     0.079 H 
ATOM     29  H16 J24 d   1       5.585  29.308   8.210  0.00  0.00     0.280 HD
ENDBRANCH  12  15
ENDBRANCH   3  12
BRANCH   4  30
ATOM     30  O10 J24 d   1       1.683  30.630   8.246  0.00  0.00    -0.360 OA
ATOM     31  H6  J24 d   1       0.860  30.781   8.695  0.00  0.00     0.217 HD
ENDBRANCH   4  30
BRANCH   1  32
ATOM     32  C2  J24 d   1       5.679  26.831   6.394  0.00  0.00     0.297 C 
ATOM     33  O1  J24 d   1       6.344  27.824   6.636  0.00  0.00    -0.259 OA
BRANCH  32  34
ATOM     34  O3  J24 d   1       6.060  26.020   5.380  0.00  0.00    -0.318 OA
BRANCH  34  35
ATOM     35  C4  J24 d   1       7.231  26.390   4.606  0.00  0.00     0.026 C 
ATOM     36  H1  J24 d   1       8.012  26.772   5.280  0.00  0.00     0.074 H 
ATOM     37  H2  J24 d   1       6.960  27.170   3.880  0.00  0.00     0.074 H 
BRANCH  35  38
ATOM     38  C5  J24 d   1       7.753  25.160   3.864  0.00  0.00    -0.056 C 
ATOM     39  H3  J24 d   1       8.641  25.436   3.276  0.00  0.00     0.030 H 
ATOM     40  H4  J24 d   1       6.971  24.779   3.191  0.00  0.00     0.030 H 
ATOM     41  H5  J24 d   1       8.023  24.380   4.591  0.00  0.00     0.030 H 
ENDBRANCH  35  38
ENDBRANCH  34  35
ENDBRANCH  32  34
ENDBRANCH   1  32
BRANCH   9  42
ATOM     42  C16 J24 d   1       4.729  23.918   7.314  0.00  0.00    -0.001 A 
ATOM     43  C17 J24 d   1       6.124  23.789   7.349  0.00  0.00    -0.070 A 
ATOM     44  C18 J24 d   1       6.731  22.565   7.150  0.00  0.00    -0.082 A 
ATOM     45  H9  J24 d   1       6.736  24.664   7.535  0.00  0.00     0.084 H 
ATOM     46  C19 J24 d   1       5.957  21.437   6.940  0.00  0.00    -0.083 A 
ATOM     47  H10 J24 d   1       7.812  22.488   7.158  0.00  0.00     0.083 H 
ATOM     48  C20 J24 d   1       4.576  21.545   6.923  0.00  0.00    -0.082 A 
ATOM     49  H11 J24 d   1       6.429  20.473   6.790  0.00  0.00     0.083 H 
ATOM     50  C21 J24 d   1       3.962  22.769   7.115  0.00  0.00    -0.070 A 
ATOM     51  H12 J24 d   1       3.971  20.661   6.758  0.00  0.00     0.083 H 
ATOM     52  H13 J24 d   1       2.880  22.837   7.111  0.00  0.00     0.084 H 
ENDBRANCH   9  42
TORSDOF 8
