REMARK  8 active torsions:
REMARK  status: ('A' for Active; 'I' for Inactive)
REMARK    1  A    between atoms: C2_2  and  O3_3 
REMARK    2  A    between atoms: C2_2  and  C6_6 
REMARK    3  A    between atoms: O3_3  and  C4_4 
REMARK    4  A    between atoms: C4_4  and  C5_5 
REMARK    5  A    between atoms: C8_8  and  C22_22 
REMARK    6  A    between atoms: C9_9  and  O10_10 
REMARK    7  A    between atoms: C15_15  and  C16_16 
REMARK    8  A    between atoms: C22_22  and  N23_23 
ROOT
ATOM      1  C6  I66 d   1       4.477  26.237   7.144  0.00  0.00     0.087 A 
ATOM      2  C7  I66 d   1       3.438  27.193   7.652  0.00  0.00     0.028 A 
ATOM      3  C8  I66 d   1       3.215  28.584   7.632  0.00  0.00     0.015 A 
ATOM      4  C9  I66 d   1       2.071  29.101   8.239  0.00  0.00     0.074 A 
ATOM      5  C11 I66 d   1       1.155  28.281   8.889  0.00  0.00    -0.048 A 
ATOM      6  C12 I66 d   1       1.365  26.915   8.920  0.00  0.00    -0.047 A 
ATOM      7  C13 I66 d   1       2.491  26.373   8.308  0.00  0.00     0.088 A 
ATOM      8  O14 I66 d   1       2.900  25.094   8.210  0.00  0.00    -0.308 OA
ATOM      9  C15 I66 d   1       4.049  24.968   7.535  0.00  0.00     0.103 A 
ATOM     10  H7  I66 d   1       0.282  28.710   9.368  0.00  0.00     0.087 H 
ATOM     11  H8  I66 d   1       0.654  26.267   9.420  0.00  0.00     0.087 H 
ENDROOT
BRANCH   3  12
ATOM     12  C22 I66 d   1       4.146  29.594   6.970  0.00  0.00     0.110 C 
ATOM     13  H14 I66 d   1       3.578  30.511   6.753  0.00  0.00     0.083 H 
ATOM     14  H15 I66 d   1       4.523  29.165   6.030  0.00  0.00     0.083 H 
BRANCH  12  15
ATOM     15  N23 I66 d   1       5.305  29.942   7.837  0.00  0.00    -0.067 N 
ATOM     16  C24 I66 d   1       6.285  30.808   7.127  0.00  0.00     0.084 C 
ATOM     17  C25 I66 d   1       6.695  31.930   8.130  0.00  0.00    -0.041 C 
ATOM     18  H17 I66 d   1       5.823  31.249   6.232  0.00  0.00     0.076 H 
ATOM     19  H18 I66 d   1       7.167  30.221   6.833  0.00  0.00     0.076 H 
ATOM     20  C26 I66 d   1       6.196  31.399   9.511  0.00  0.00    -0.041 C 
ATOM     21  H19 I66 d   1       6.204  32.881   7.876  0.00  0.00     0.035 H 
ATOM     22  H20 I66 d   1       7.786  32.071   8.136  0.00  0.00     0.035 H 
ATOM     23  C27 I66 d   1       4.934  30.623   9.099  0.00  0.00     0.084 C 
ATOM     24  H21 I66 d   1       5.955  32.225  10.196  0.00  0.00     0.035 H 
ATOM     25  H22 I66 d   1       6.939  30.738   9.980  0.00  0.00     0.035 H 
ATOM     26  H23 I66 d   1       4.662  29.888   9.871  0.00  0.00     0.076 H 
ATOM     27  H24 I66 d   1       4.092  31.311   8.935  0.00  0.00     0.076 H 
ATOM     28  H16 I66 d   1       5.764  29.077   8.077  0.00  0.00     0.280 HD
ENDBRANCH  12  15
ENDBRANCH   3  12
BRANCH   4  29
ATOM     29  O10 I66 d   1       1.847  30.444   8.222  0.00  0.00    -0.360 OA
ATOM     30  H6  I66 d   1       1.033  30.634   8.673  0.00  0.00     0.217 HD
ENDBRANCH   4  29
BRANCH   1  31
ATOM     31  C2  I66 d   1       5.713  26.533   6.375  0.00  0.00     0.297 C 
ATOM     32  O1  I66 d   1       6.250  27.632   6.441  0.00  0.00    -0.259 OA
BRANCH  31  33
ATOM     33  O3  I66 d   1       6.070  25.705   5.363  0.00  0.00    -0.318 OA
BRANCH  33  34
ATOM     34  C4  I66 d   1       7.351  25.966   4.739  0.00  0.00     0.026 C 
ATOM     35  H1  I66 d   1       8.161  25.811   5.468  0.00  0.00     0.074 H 
ATOM     36  H2  I66 d   1       7.383  27.002   4.370  0.00  0.00     0.074 H 
BRANCH  34  37
ATOM     37  C5  I66 d   1       7.509  24.997   3.576  0.00  0.00    -0.056 C 
ATOM     38  H3  I66 d   1       8.476  25.172   3.082  0.00  0.00     0.030 H 
ATOM     39  H4  I66 d   1       6.694  25.154   2.854  0.00  0.00     0.030 H 
ATOM     40  H5  I66 d   1       7.471  23.964   3.952  0.00  0.00     0.030 H 
ENDBRANCH  34  37
ENDBRANCH  33  34
ENDBRANCH  31  33
ENDBRANCH   1  31
BRANCH   9  41
ATOM     41  C16 I66 d   1       4.693  23.644   7.331  0.00  0.00    -0.001 A 
ATOM     42  C17 I66 d   1       6.095  23.509   7.255  0.00  0.00    -0.070 A 
ATOM     43  C18 I66 d   1       6.686  22.271   7.084  0.00  0.00    -0.082 A 
ATOM     44  H9  I66 d   1       6.720  24.391   7.332  0.00  0.00     0.084 H 
ATOM     45  C19 I66 d   1       5.871  21.149   7.012  0.00  0.00    -0.083 A 
ATOM     46  H10 I66 d   1       7.763  22.178   7.008  0.00  0.00     0.083 H 
ATOM     47  C20 I66 d   1       4.485  21.249   7.110  0.00  0.00    -0.082 A 
ATOM     48  H11 I66 d   1       6.324  20.173   6.877  0.00  0.00     0.083 H 
ATOM     49  C21 I66 d   1       3.884  22.488   7.276  0.00  0.00    -0.070 A 
ATOM     50  H12 I66 d   1       3.874  20.355   7.056  0.00  0.00     0.083 H 
ATOM     51  H13 I66 d   1       2.806  22.568   7.362  0.00  0.00     0.084 H 
ENDBRANCH   9  41
TORSDOF 8
