REMARK  6 active torsions:
REMARK  status: ('A' for Active; 'I' for Inactive)
REMARK    1  A    between atoms: C12_10  and  N_11 
REMARK    2  A    between atoms: N_11  and  C_12 
REMARK    3  A    between atoms: N_11  and  C1_13 
REMARK    4  A    between atoms: C1_13  and  C2_14 
REMARK    5  A    between atoms: C2_14  and  N1_15 
REMARK    6  A    between atoms: N1_15  and  C3_16 
ROOT
ATOM      1  C2  MOL d   1      42.582 -12.277   9.379  0.00  0.00     0.098 C 
ATOM      2  H9  MOL d   1      42.433 -13.364   9.297  0.00  0.00     0.078 H 
ATOM      3  H10 MOL d   1      43.525 -11.998   8.885  0.00  0.00     0.078 H 
ENDROOT
BRANCH   1   4
ATOM      4  C1  MOL d   1      42.660 -11.898  10.842  0.00  0.00     0.034 C 
ATOM      5  H7  MOL d   1      42.800 -10.809  10.912  0.00  0.00     0.067 H 
ATOM      6  H8  MOL d   1      41.712 -12.178  11.324  0.00  0.00     0.067 H 
BRANCH   4   7
ATOM      7  N   MOL d   1      43.754 -12.551  11.562  0.00  0.00    -0.218 N 
BRANCH   7   8
ATOM      8  C12 MOL d   1      43.542 -13.551  12.435  0.00  0.00     0.704 A 
ATOM      9  N3  MOL d   1      42.385 -14.102  12.729  0.00  0.00    -0.186 N 
ATOM     10  C13 MOL d   1      42.697 -15.077  13.675  0.00  0.00     0.097 A 
ATOM     11  H3  MOL d   1      41.458 -13.867  12.347  0.00  0.00     0.184 HD
ATOM     12  C14 MOL d   1      41.908 -15.993  14.368  0.00  0.00    -0.050 A 
ATOM     13  C17 MOL d   1      44.043 -15.081  13.921  0.00  0.00     0.197 A 
ATOM     14  C15 MOL d   1      42.512 -16.857  15.264  0.00  0.00    -0.042 A 
ATOM     15  H2  MOL d   1      40.837 -16.028  14.207  0.00  0.00     0.087 H 
ATOM     16  C16 MOL d   1      43.882 -16.754  15.418  0.00  0.00     0.128 A 
ATOM     17  H1  MOL d   1      41.935 -17.585  15.822  0.00  0.00     0.088 H 
ATOM     18 CL2  MOL d   1      44.690 -17.816  16.533  0.00  0.00    -0.062 Cl
ATOM     19  N4  MOL d   1      44.669 -15.898  14.779  0.00  0.00    -0.214 NA
ATOM     20  N5  MOL d   1      44.572 -14.100  13.122  0.00  0.00    -0.043 NA
ENDBRANCH   7   8
BRANCH   7  21
ATOM     21  C   MOL d   1      45.101 -12.068  11.290  0.00  0.00    -0.002 C 
ATOM     22  H4  MOL d   1      45.056 -11.253  10.553  0.00  0.00     0.057 H 
ATOM     23  H5  MOL d   1      45.712 -12.891  10.891  0.00  0.00     0.057 H 
ATOM     24  H6  MOL d   1      45.552 -11.695  12.222  0.00  0.00     0.057 H 
ENDBRANCH   7  21
ENDBRANCH   4   7
ENDBRANCH   1   4
BRANCH   1  25
ATOM     25  N1  MOL d   1      41.471 -11.591   8.711  0.00  0.00    -0.065 N 
ATOM     26  H11 MOL d   1      41.668 -10.603   8.744  0.00  0.00     0.278 HD
ATOM     27  H12 MOL d   1      40.638 -11.785   9.244  0.00  0.00     0.278 HD
BRANCH  25  28
ATOM     28  C3  MOL d   1      41.179 -11.929   7.309  0.00  0.00     0.131 C 
ATOM     29  C11 MOL d   1      40.465 -13.266   7.209  0.00  0.00     0.002 A 
ATOM     30  C6  MOL d   1      39.061 -13.303   7.167  0.00  0.00     0.058 A 
ATOM     31  C10 MOL d   1      41.171 -14.468   7.166  0.00  0.00    -0.052 A 
ATOM     32  N2  MOL d   1      38.319 -12.138   7.193  0.00  0.00    -0.388 N 
ATOM     33  C7  MOL d   1      38.415 -14.535   7.088  0.00  0.00     0.062 A 
ATOM     34  C5  MOL d   1      38.942 -10.819   7.288  0.00  0.00    -0.005 C 
ATOM     35  H14 MOL d   1      37.292 -12.201   7.144  0.00  0.00     0.159 HD
ATOM     36  C4  MOL d   1      40.334 -10.823   6.686  0.00  0.00    -0.020 C 
ATOM     37  H15 MOL d   1      39.011 -10.530   8.347  0.00  0.00     0.064 H 
ATOM     38  H16 MOL d   1      38.320 -10.089   6.748  0.00  0.00     0.064 H 
ATOM     39  H17 MOL d   1      40.259 -10.991   5.601  0.00  0.00     0.038 H 
ATOM     40  H18 MOL d   1      40.813  -9.851   6.874  0.00  0.00     0.038 H 
ATOM     41  C8  MOL d   1      39.118 -15.721   7.047  0.00  0.00    -0.039 A 
ATOM     42 CL   MOL d   1      36.683 -14.591   7.040  0.00  0.00    -0.082 Cl
ATOM     43  C9  MOL d   1      40.494 -15.667   7.086  0.00  0.00     0.036 A 
ATOM     44  H20 MOL d   1      38.601 -16.672   6.986  0.00  0.00     0.088 H 
ATOM     45 CL1  MOL d   1      41.403 -17.153   7.034  0.00  0.00    -0.084 Cl
ATOM     46  H19 MOL d   1      42.255 -14.460   7.196  0.00  0.00     0.087 H 
ATOM     47  H13 MOL d   1      42.129 -12.000   6.759  0.00  0.00     0.092 H 
ENDBRANCH  25  28
ENDBRANCH   1  25
TORSDOF 6
