REMARK  28 active torsions:
REMARK  status: ('A' for Active; 'I' for Inactive)
REMARK    1  A    between atoms: CA_2  and  C_3 
REMARK       I    between atoms: C_3  and  N_8 
REMARK    2  A    between atoms: N_8  and  CA_9 
REMARK    3  A    between atoms: CA_9  and  C_10 
REMARK    4  A    between atoms: CA_9  and  CB_12 
REMARK       I    between atoms: C_10  and  N_17 
REMARK    5  A    between atoms: CB_12  and  CG_13 
REMARK    6  A    between atoms: CG_13  and  CD_14 
REMARK    7  A    between atoms: N_17  and  CA_18 
REMARK    8  A    between atoms: CA_18  and  C_19 
REMARK    9  A    between atoms: CA_18  and  CB_21 
REMARK       I    between atoms: C_19  and  N_24 
REMARK   10  A    between atoms: CB_21  and  CG1_22 
REMARK   11  A    between atoms: CB_21  and  CG2_23 
REMARK   12  A    between atoms: CA_25  and  C_26 
REMARK       I    between atoms: C_26  and  N_31 
REMARK   13  A    between atoms: CA_32  and  C_33 
REMARK       I    between atoms: C_33  and  N_38 
REMARK   14  A    between atoms: N_38  and  CA_39 
REMARK   15  A    between atoms: CA_39  and  CB_40 
REMARK   16  A    between atoms: CA_39  and  C_47 
REMARK   17  A    between atoms: CB_40  and  CG2_41 
REMARK   18  A    between atoms: CB_40  and  OG1_42 
REMARK   19  A    between atoms: OG1_42  and  P_43 
REMARK       I    between atoms: C_47  and  N_49 
REMARK   20  A    between atoms: CA_50  and  C_51 
REMARK       I    between atoms: C_51  and  N_56 
REMARK   21  A    between atoms: CA_57  and  C_58 
REMARK       I    between atoms: C_58  and  N_63 
REMARK   22  A    between atoms: N_63  and  CA_64 
REMARK   23  A    between atoms: CA_64  and  C_65 
REMARK       I    between atoms: C_65  and  N_67 
REMARK   24  A    between atoms: N_67  and  CA_68 
REMARK   25  A    between atoms: CA_68  and  CB_69 
REMARK   26  A    between atoms: CA_68  and  C_71 
REMARK   27  A    between atoms: CB_69  and  OG_70 
REMARK   28  A    between atoms: OG_70  and  P_73 
ROOT
ATOM      1  C   PRO d   1     -63.195 -32.812 -27.481  0.00  0.00     0.243 C 
ATOM      2  O   PRO d   1     -63.907 -33.867 -27.514  0.00  0.00    -0.271 OA
ATOM      3  N   PRO d   1     -63.638 -31.605 -27.910  0.00  0.00    -0.337 N 
ATOM      4  CA  PRO d   1     -64.959 -31.586 -28.555  0.00  0.00     0.091 C 
ATOM      5  CB  PRO d   1     -65.173 -30.114 -28.928  0.00  0.00    -0.036 C 
ATOM      6  CG  PRO d   1     -64.218 -29.352 -28.038  0.00  0.00    -0.048 C 
ATOM      7  CD  PRO d   1     -63.027 -30.263 -27.852  0.00  0.00    -0.001 C 
ATOM      8  H30 PRO d   1     -65.737 -31.902 -27.844  0.00  0.00     0.087 H 
ATOM      9  H31 PRO d   1     -66.212 -29.811 -28.732  0.00  0.00     0.036 H 
ATOM     10  H32 PRO d   1     -64.935 -29.944 -29.988  0.00  0.00     0.036 H 
ATOM     11  H33 PRO d   1     -64.689 -29.131 -27.069  0.00  0.00     0.035 H 
ATOM     12  H34 PRO d   1     -63.911 -28.412 -28.519  0.00  0.00     0.035 H 
ATOM     13  H35 PRO d   1     -62.292 -30.126 -28.659  0.00  0.00     0.064 H 
ATOM     14  H36 PRO d   1     -62.542 -30.089 -26.880  0.00  0.00     0.064 H 
ENDROOT
BRANCH   4  15
ATOM     15  C   PRO d   1     -64.978 -32.553 -29.756  0.00  0.00     0.241 C 
ATOM     16  O   PRO d   1     -63.948 -32.871 -30.330  0.00  0.00    -0.271 OA
ATOM     17  N   TPO d   1     -66.140 -33.121 -30.016  0.00  0.00    -0.344 N 
ATOM     18  H37 TPO d   1     -66.933 -32.894 -29.451  0.00  0.00     0.163 HD
BRANCH  17  19
ATOM     19  CA  TPO d   1     -66.290 -34.059 -31.095  0.00  0.00     0.114 C 
ATOM     20  H38 TPO d   1     -65.580 -33.820 -31.900  0.00  0.00     0.091 H 
BRANCH  19  21
ATOM     21  CB  TPO d   1     -66.041 -35.492 -30.655  0.00  0.00     0.076 C 
ATOM     22  H39 TPO d   1     -65.088 -35.541 -30.109  0.00  0.00     0.087 H 
BRANCH  21  23
ATOM     23  CG2 TPO d   1     -67.163 -36.047 -29.750  0.00  0.00    -0.049 C 
ATOM     24  H40 TPO d   1     -66.926 -37.083 -29.466  0.00  0.00     0.031 H 
ATOM     25  H41 TPO d   1     -68.118 -36.025 -30.295  0.00  0.00     0.031 H 
ATOM     26  H42 TPO d   1     -67.243 -35.428 -28.844  0.00  0.00     0.031 H 
ENDBRANCH  21  23
BRANCH  21  27
ATOM     27  OG1 TPO d   1     -65.968 -36.281 -31.823  0.00  0.00    -0.275 OA
BRANCH  27  28
ATOM     28  P   TPO d   1     -64.684 -37.127 -32.123  0.00  0.00     0.422 P 
ATOM     29  O1P TPO d   1     -64.992 -37.540 -33.558  0.00  0.00    -0.617 OA
ATOM     30  O2P TPO d   1     -64.754 -38.295 -31.178  0.00  0.00    -0.617 OA
ATOM     31  O3P TPO d   1     -63.612 -36.126 -31.928  0.00  0.00    -0.617 OA
ENDBRANCH  27  28
ENDBRANCH  21  27
ENDBRANCH  19  21
BRANCH  19  32
ATOM     32  C   TPO d   1     -67.698 -33.833 -31.573  0.00  0.00     0.246 C 
ATOM     33  O   TPO d   1     -68.564 -33.396 -30.791  0.00  0.00    -0.271 OA
ATOM     34  N   PRO d   1     -67.947 -34.093 -32.872  0.00  0.00    -0.337 N 
ATOM     35  CA  PRO d   1     -69.301 -33.809 -33.355  0.00  0.00     0.092 C 
ATOM     36  CD  PRO d   1     -67.027 -34.451 -33.973  0.00  0.00    -0.001 C 
ATOM     37  CB  PRO d   1     -69.217 -34.077 -34.864  0.00  0.00    -0.036 C 
ATOM     38  H43 PRO d   1     -69.570 -32.760 -33.160  0.00  0.00     0.087 H 
ATOM     39  CG  PRO d   1     -67.774 -34.037 -35.198  0.00  0.00    -0.048 C 
ATOM     40  H44 PRO d   1     -69.762 -33.301 -35.422  0.00  0.00     0.036 H 
ATOM     41  H45 PRO d   1     -69.639 -35.065 -35.102  0.00  0.00     0.036 H 
ATOM     42  H46 PRO d   1     -67.483 -33.017 -35.491  0.00  0.00     0.035 H 
ATOM     43  H47 PRO d   1     -67.559 -34.731 -36.024  0.00  0.00     0.035 H 
ATOM     44  H48 PRO d   1     -66.826 -35.532 -33.982  0.00  0.00     0.064 H 
ATOM     45  H49 PRO d   1     -66.078 -33.902 -33.887  0.00  0.00     0.064 H 
BRANCH  35  46
ATOM     46  C   PRO d   1     -70.319 -34.712 -32.705  0.00  0.00     0.243 C 
ATOM     47  O   PRO d   1     -69.980 -35.810 -32.293  0.00  0.00    -0.271 OA
ATOM     48  N   PRO d   1     -71.558 -34.239 -32.595  0.00  0.00    -0.337 N 
ATOM     49  CA  PRO d   1     -72.625 -35.124 -32.106  0.00  0.00     0.091 C 
ATOM     50  CD  PRO d   1     -72.049 -32.918 -33.012  0.00  0.00    -0.001 C 
ATOM     51  CB  PRO d   1     -73.877 -34.239 -32.111  0.00  0.00    -0.036 C 
ATOM     52  H50 PRO d   1     -72.397 -35.481 -31.091  0.00  0.00     0.087 H 
ATOM     53  CG  PRO d   1     -73.403 -32.841 -32.381  0.00  0.00    -0.048 C 
ATOM     54  H51 PRO d   1     -74.382 -34.288 -31.135  0.00  0.00     0.036 H 
ATOM     55  H52 PRO d   1     -74.571 -34.565 -32.900  0.00  0.00     0.036 H 
ATOM     56  H53 PRO d   1     -73.342 -32.280 -31.437  0.00  0.00     0.035 H 
ATOM     57  H54 PRO d   1     -74.103 -32.336 -33.063  0.00  0.00     0.035 H 
ATOM     58  H55 PRO d   1     -72.120 -32.852 -34.108  0.00  0.00     0.064 H 
ATOM     59  H56 PRO d   1     -71.394 -32.118 -32.638  0.00  0.00     0.064 H 
BRANCH  49  60
ATOM     60  C   PRO d   1     -72.841 -36.321 -33.033  0.00  0.00     0.241 C 
ATOM     61  O   PRO d   1     -72.650 -36.196 -34.275  0.00  0.00    -0.271 OA
ATOM     62  N   GLY d   1     -73.214 -37.450 -32.418  0.00  0.00    -0.351 N 
ATOM     63  H57 GLY d   1     -73.200 -37.466 -31.418  0.00  0.00     0.163 HD
BRANCH  62  64
ATOM     64  CA  GLY d   1     -73.642 -38.664 -33.117  0.00  0.00     0.069 C 
ATOM     65  H58 GLY d   1     -73.695 -39.490 -32.393  0.00  0.00     0.078 H 
ATOM     66  H59 GLY d   1     -72.902 -38.905 -33.895  0.00  0.00     0.078 H 
BRANCH  64  67
ATOM     67  C   GLY d   1     -75.008 -38.496 -33.773  0.00  0.00     0.236 C 
ATOM     68  O   GLY d   1     -75.628 -37.423 -33.687  0.00  0.00    -0.272 OA
ATOM     69  N   SEP d   1     -75.481 -39.575 -34.411  0.00  0.00    -0.343 N 
ATOM     70  H60 SEP d   1     -75.003 -40.444 -34.281  0.00  0.00     0.163 HD
BRANCH  69  71
ATOM     71  CA  SEP d   1     -76.673 -39.560 -35.301  0.00  0.00     0.117 C 
ATOM     72  H61 SEP d   1     -76.996 -38.517 -35.434  0.00  0.00     0.093 H 
BRANCH  71  73
ATOM     73  CB  SEP d   1     -76.298 -40.108 -36.713  0.00  0.00     0.060 C 
ATOM     74  H62 SEP d   1     -76.661 -39.401 -37.473  0.00  0.00     0.079 H 
ATOM     75  H63 SEP d   1     -76.788 -41.082 -36.855  0.00  0.00     0.079 H 
BRANCH  73  76
ATOM     76  OG  SEP d   1     -74.859 -40.280 -36.884  0.00  0.00    -0.280 OA
BRANCH  76  77
ATOM     77  P   SEP d   1     -73.864 -39.741 -38.083  0.00  0.00     0.422 P 
ATOM     78  O1P SEP d   1     -73.789 -40.948 -39.008  0.00  0.00    -0.617 OA
ATOM     79  O2P SEP d   1     -72.533 -39.221 -37.448  0.00  0.00    -0.617 OA
ATOM     80  O3P SEP d   1     -74.710 -38.674 -38.738  0.00  0.00    -0.617 OA
ENDBRANCH  76  77
ENDBRANCH  73  76
ENDBRANCH  71  73
BRANCH  71  81
ATOM     81  C   SEP d   1     -77.792 -40.297 -34.600  0.00  0.00     0.198 C 
ATOM     82  O   SEP d   1     -78.549 -41.066 -35.206  0.00  0.00    -0.646 OA
ATOM     83  OXT SEP d   1     -78.003 -40.166 -33.388  0.00  0.00    -0.646 OA
ENDBRANCH  71  81
ENDBRANCH  69  71
ENDBRANCH  64  67
ENDBRANCH  62  64
ENDBRANCH  49  60
ENDBRANCH  35  46
ENDBRANCH  19  32
ENDBRANCH  17  19
ENDBRANCH   4  15
BRANCH   1  84
ATOM     84  CA  PRO d   1     -61.754 -32.850 -26.933  0.00  0.00     0.092 C 
ATOM     85  N   PRO d   1     -61.387 -34.105 -26.276  0.00  0.00    -0.337 N 
ATOM     86  C   VAL d   1     -61.931 -34.365 -25.081  0.00  0.00     0.243 C 
ATOM     87  CD  PRO d   1     -60.372 -34.848 -27.040  0.00  0.00    -0.001 C 
ATOM     88  O   VAL d   1     -62.764 -33.620 -24.571  0.00  0.00    -0.271 OA
ATOM     89  CG  PRO d   1     -59.673 -33.759 -27.808  0.00  0.00    -0.048 C 
ATOM     90  H28 PRO d   1     -60.841 -35.575 -27.720  0.00  0.00     0.064 H 
ATOM     91  H29 PRO d   1     -59.674 -35.371 -26.369  0.00  0.00     0.064 H 
ATOM     92  CB  PRO d   1     -60.738 -32.736 -28.082  0.00  0.00    -0.036 C 
ATOM     93  H26 PRO d   1     -58.861 -33.322 -27.208  0.00  0.00     0.035 H 
ATOM     94  H27 PRO d   1     -59.262 -34.152 -28.750  0.00  0.00     0.035 H 
ATOM     95  H24 PRO d   1     -60.300 -31.727 -28.104  0.00  0.00     0.036 H 
ATOM     96  H25 PRO d   1     -61.227 -32.944 -29.045  0.00  0.00     0.036 H 
ATOM     97  H23 PRO d   1     -61.632 -32.015 -26.228  0.00  0.00     0.087 H 
BRANCH  86  98
ATOM     98  CA  VAL d   1     -61.506 -35.667 -24.387  0.00  0.00     0.092 C 
ATOM     99  H15 VAL d   1     -60.414 -35.761 -24.486  0.00  0.00     0.088 H 
BRANCH  98 100
ATOM    100  N   VAL d   1     -61.809 -35.668 -22.924  0.00  0.00    -0.346 N 
ATOM    101  C   GLU d   1     -60.879 -35.364 -22.005  0.00  0.00     0.241 C 
ATOM    102  O   GLU d   1     -59.705 -35.104 -22.303  0.00  0.00    -0.271 OA
ATOM    103  H14 VAL d   1     -62.733 -35.902 -22.620  0.00  0.00     0.163 HD
BRANCH 101 104
ATOM    104  CA  GLU d   1     -61.337 -35.357 -20.526  0.00  0.00     0.090 C 
ATOM    105  H9  GLU d   1     -62.324 -35.842 -20.492  0.00  0.00     0.087 H 
BRANCH 104 106
ATOM    106  N   GLU d   1     -60.445 -36.110 -19.619  0.00  0.00    -0.346 N 
ATOM    107  C   PRO d   1     -60.713 -37.342 -19.184  0.00  0.00     0.253 C 
ATOM    108  O   PRO d   1     -61.583 -38.040 -19.692  0.00  0.00    -0.271 OA
ATOM    109  H8  GLU d   1     -59.598 -35.673 -19.316  0.00  0.00     0.163 HD
BRANCH 107 110
ATOM    110  CA  PRO d   1     -59.824 -37.893 -18.031  0.00  0.00     0.194 C 
ATOM    111  N   PRO d   1     -58.362 -37.733 -18.310  0.00  0.00    -0.056 N 
ATOM    112  CD  PRO d   1     -57.836 -37.958 -16.924  0.00  0.00     0.098 C 
ATOM    113  H1  PRO d   1     -58.141 -36.812 -18.654  0.00  0.00     0.278 HD
ATOM    114  H2  PRO d   1     -58.023 -38.425 -18.960  0.00  0.00     0.278 HD
ATOM    115  CG  PRO d   1     -58.719 -37.114 -16.058  0.00  0.00    -0.080 C 
ATOM    116  H6  PRO d   1     -56.788 -37.634 -16.846  0.00  0.00     0.081 H 
ATOM    117  H7  PRO d   1     -57.913 -39.019 -16.644  0.00  0.00     0.081 H 
ATOM    118  CB  PRO d   1     -60.028 -37.057 -16.764  0.00  0.00    -0.067 C 
ATOM    119  H5  PRO d   1     -58.459 -36.642 -15.112  0.00  0.00     0.079 H 
ATOM    120  H4  PRO d   1     -60.931 -36.536 -16.449  0.00  0.00     0.080 H 
ATOM    121  H3  PRO d   1     -60.072 -38.950 -17.854  0.00  0.00     0.106 H 
ENDBRANCH 107 110
ENDBRANCH 104 106
BRANCH 104 122
ATOM    122  CB  GLU d   1     -61.500 -33.906 -20.004  0.00  0.00    -0.029 C 
ATOM    123  H10 GLU d   1     -61.821 -33.968 -18.954  0.00  0.00     0.037 H 
ATOM    124  H11 GLU d   1     -62.290 -33.428 -20.601  0.00  0.00     0.037 H 
BRANCH 122 125
ATOM    125  CG  GLU d   1     -60.255 -32.983 -20.056  0.00  0.00     0.018 C 
ATOM    126  H12 GLU d   1     -60.610 -31.944 -20.121  0.00  0.00     0.049 H 
ATOM    127  H13 GLU d   1     -59.688 -33.235 -20.965  0.00  0.00     0.049 H 
BRANCH 125 128
ATOM    128  CD  GLU d   1     -59.288 -33.076 -18.857  0.00  0.00     0.172 C 
ATOM    129  OE1 GLU d   1     -59.060 -32.038 -18.177  0.00  0.00    -0.648 OA
ATOM    130  OE2 GLU d   1     -58.727 -34.177 -18.611  0.00  0.00    -0.648 OA
ENDBRANCH 125 128
ENDBRANCH 122 125
ENDBRANCH 104 122
ENDBRANCH 101 104
ENDBRANCH  98 100
BRANCH  98 131
ATOM    131  CB  VAL d   1     -62.158 -36.863 -25.156  0.00  0.00    -0.033 C 
ATOM    132  H16 VAL d   1     -61.809 -36.810 -26.198  0.00  0.00     0.042 H 
BRANCH 131 133
ATOM    133  CG1 VAL d   1     -61.684 -38.193 -24.587  0.00  0.00    -0.071 C 
ATOM    134  H17 VAL d   1     -62.155 -39.018 -25.142  0.00  0.00     0.028 H 
ATOM    135  H18 VAL d   1     -61.965 -38.258 -23.525  0.00  0.00     0.028 H 
ATOM    136  H19 VAL d   1     -60.590 -38.264 -24.682  0.00  0.00     0.028 H 
ENDBRANCH 131 133
BRANCH 131 137
ATOM    137  CG2 VAL d   1     -63.691 -36.762 -25.189  0.00  0.00    -0.071 C 
ATOM    138  H20 VAL d   1     -63.985 -35.788 -25.606  0.00  0.00     0.028 H 
ATOM    139  H21 VAL d   1     -64.087 -36.858 -24.167  0.00  0.00     0.028 H 
ATOM    140  H22 VAL d   1     -64.098 -37.568 -25.817  0.00  0.00     0.028 H 
ENDBRANCH 131 137
ENDBRANCH  98 131
ENDBRANCH  86  98
ENDBRANCH   1  84
TORSDOF 28
