REMARK  7 active torsions:
REMARK  status: ('A' for Active; 'I' for Inactive)
REMARK    1  A    between atoms: C_2  and  CA_4 
REMARK    2  A    between atoms: CA_4  and  N_5 
REMARK    3  A    between atoms: CA_4  and  CB_6 
REMARK    4  A    between atoms: CB_6  and  CAG_7 
REMARK    5  A    between atoms: CAG_7  and  CAH_8 
REMARK    6  A    between atoms: CAH_8  and  OAK_9 
REMARK    7  A    between atoms: CAH_8  and  CAI_10 
ROOT
ATOM      1  CB  8WY d   1     -24.077 -27.299  -8.893  0.00  0.00    -0.027 C 
ATOM      2  H5  8WY d   1     -23.084 -27.101  -8.462  0.00  0.00     0.036 H 
ATOM      3  H6  8WY d   1     -24.364 -26.465  -9.550  0.00  0.00     0.036 H 
ENDROOT
BRANCH   1   4
ATOM      4  CA  8WY d   1     -25.107 -27.398  -7.739  0.00  0.00     0.182 C 
ATOM      5  H1  8WY d   1     -24.679 -27.967  -6.901  0.00  0.00     0.101 H 
BRANCH   4   6
ATOM      6  C   8WY d   1     -25.442 -25.957  -7.311  0.00  0.00     0.204 C 
ATOM      7  O   8WY d   1     -26.315 -25.356  -7.983  0.00  0.00    -0.646 OA
ATOM      8  OXT 8WY d   1     -24.785 -25.463  -6.367  0.00  0.00    -0.646 OA
ENDBRANCH   4   6
BRANCH   4   9
ATOM      9  N   8WY d   1     -26.366 -28.025  -8.182  0.00  0.00    -0.065 N 
ATOM     10  H2  8WY d   1     -26.185 -28.974  -8.471  0.00  0.00     0.275 HD
ATOM     11  H3  8WY d   1     -26.746 -27.504  -8.957  0.00  0.00     0.275 HD
ATOM     12  H4  8WY d   1     -27.027 -28.026  -7.421  0.00  0.00     0.275 HD
ENDBRANCH   4   9
ENDBRANCH   1   4
BRANCH   1  13
ATOM     13  CAG 8WY d   1     -24.000 -28.571  -9.728  0.00  0.00    -0.039 C 
ATOM     14  H7  8WY d   1     -25.012 -28.851 -10.056  0.00  0.00     0.036 H 
ATOM     15  H8  8WY d   1     -23.576 -29.381  -9.116  0.00  0.00     0.036 H 
BRANCH  13  16
ATOM     16  CAH 8WY d   1     -23.108 -28.351 -10.967  0.00  0.00     0.032 C 
ATOM     17  H9  8WY d   1     -23.342 -27.381 -11.429  0.00  0.00     0.082 H 
BRANCH  16  18
ATOM     18  OAK 8WY d   1     -21.731 -28.394 -10.568  0.00  0.00    -0.396 OA
ATOM     19  H10 8WY d   1     -21.178 -28.259 -11.328  0.00  0.00     0.210 HD
ENDBRANCH  16  18
BRANCH  16  20
ATOM     20  CAI 8WY d   1     -23.336 -29.509 -11.997  0.00  0.00    -0.052 C 
ATOM     21  H11 8WY d   1     -22.698 -29.347 -12.878  0.00  0.00     0.030 H 
ATOM     22  H12 8WY d   1     -24.392 -29.522 -12.306  0.00  0.00     0.030 H 
ATOM     23  H13 8WY d   1     -23.079 -30.471 -11.530  0.00  0.00     0.030 H 
ENDBRANCH  16  20
ENDBRANCH  13  16
ENDBRANCH   1  13
TORSDOF 7
