REMARK  7 active torsions:
REMARK  status: ('A' for Active; 'I' for Inactive)
REMARK    1  A    between atoms: C02_2  and  C03_3 
REMARK       I    between atoms: C02_2  and  N16_16 
REMARK    2  A    between atoms: C05_5  and  C06_6 
REMARK    3  A    between atoms: C06_6  and  C07_7 
REMARK    4  A    between atoms: N16_16  and  C17_17 
REMARK    5  A    between atoms: C20_20  and  C21_21 
REMARK    6  A    between atoms: C25_25  and  N26_26 
REMARK    7  A    between atoms: N26_26  and  C27_27 
ROOT
ATOM      1  C03 8OY d   1      -3.959 -31.269 -41.978  0.00  0.00     0.125 A 
ATOM      2  N04 8OY d   1      -5.320 -31.062 -41.868  0.00  0.00    -0.248 NA
ATOM      3  C05 8OY d   1      -6.193 -32.115 -41.997  0.00  0.00     0.035 A 
ATOM      4  C13 8OY d   1      -5.674 -33.399 -42.231  0.00  0.00    -0.059 A 
ATOM      5  C14 8OY d   1      -4.321 -33.604 -42.324  0.00  0.00    -0.079 A 
ATOM      6  C15 8OY d   1      -3.416 -32.529 -42.191  0.00  0.00    -0.050 A 
ATOM      7  H14 8OY d   1      -6.351 -34.238 -42.340  0.00  0.00     0.086 H 
ATOM      8  H15 8OY d   1      -3.942 -34.604 -42.502  0.00  0.00     0.083 H 
ATOM      9  H16 8OY d   1      -2.344 -32.680 -42.252  0.00  0.00     0.087 H 
ENDROOT
BRANCH   1  10
ATOM     10  C02 8OY d   1      -3.071 -29.977 -41.778  0.00  0.00     0.274 C 
ATOM     11  O01 8OY d   1      -1.899 -29.981 -41.996  0.00  0.00    -0.266 OA
ATOM     12  N16 8OY d   1      -3.705 -28.784 -41.305  0.00  0.00    -0.320 N 
ATOM     13  H17 8OY d   1      -4.694 -28.840 -41.170  0.00  0.00     0.169 HD
BRANCH  12  14
ATOM     14  C17 8OY d   1      -3.096 -27.507 -40.997  0.00  0.00     0.062 A 
ATOM     15  C18 8OY d   1      -1.828 -27.075 -41.424  0.00  0.00    -0.054 A 
ATOM     16  C19 8OY d   1      -1.263 -25.845 -41.089  0.00  0.00    -0.064 A 
ATOM     17  H18 8OY d   1      -1.252 -27.742 -42.055  0.00  0.00     0.087 H 
ATOM     18  C20 8OY d   1      -1.934 -24.926 -40.267  0.00  0.00     0.043 A 
ATOM     19  H19 8OY d   1      -0.281 -25.592 -41.473  0.00  0.00     0.085 H 
ATOM     20  C24 8OY d   1      -3.192 -25.341 -39.823  0.00  0.00    -0.038 A 
ATOM     21  C25 8OY d   1      -3.788 -26.572 -40.141  0.00  0.00     0.060 A 
ATOM     22  H20 8OY d   1      -3.749 -24.663 -39.186  0.00  0.00     0.088 H 
BRANCH  18  23
ATOM     23  C21 8OY d   1      -1.348 -23.516 -39.844  0.00  0.00     0.209 C 
ATOM     24  O22 8OY d   1      -2.174 -22.846 -39.173  0.00  0.00    -0.644 OA
ATOM     25  O23 8OY d   1      -0.229 -23.231 -40.174  0.00  0.00    -0.644 OA
ENDBRANCH  18  23
BRANCH  21  26
ATOM     26  N26 8OY d   1      -5.087 -26.920 -39.645  0.00  0.00    -0.354 N 
ATOM     27  H21 8OY d   1      -5.170 -27.064 -38.629  0.00  0.00     0.166 HD
BRANCH  26  28
ATOM     28  C27 8OY d   1      -6.252 -27.084 -40.399  0.00  0.00     0.032 A 
ATOM     29  C28 8OY d   1      -6.311 -26.918 -41.795  0.00  0.00    -0.057 A 
ATOM     30  C29 8OY d   1      -7.459 -27.070 -42.585  0.00  0.00    -0.081 A 
ATOM     31  H22 8OY d   1      -5.391 -26.650 -42.302  0.00  0.00     0.086 H 
ATOM     32  C30 8OY d   1      -8.708 -27.413 -42.030  0.00  0.00    -0.083 A 
ATOM     33  H23 8OY d   1      -7.384 -26.919 -43.656  0.00  0.00     0.083 H 
ATOM     34  C31 8OY d   1      -8.483 -27.538 -40.705  0.00  0.00    -0.081 A 
ATOM     35  H24 8OY d   1      -9.647 -27.547 -42.554  0.00  0.00     0.083 H 
ATOM     36  C32 8OY d   1      -7.547 -27.449 -39.786  0.00  0.00    -0.057 A 
ATOM     37  H25 8OY d   1      -9.414 -27.812 -40.222  0.00  0.00     0.083 H 
ATOM     38  H26 8OY d   1      -7.703 -27.619 -38.727  0.00  0.00     0.086 H 
ENDBRANCH  26  28
ENDBRANCH  21  26
ENDBRANCH  12  14
ENDBRANCH   1  10
BRANCH   3  39
ATOM     39  C06 8OY d   1      -7.735 -31.950 -41.908  0.00  0.00    -0.021 C 
ATOM     40  H1  8OY d   1      -7.928 -31.078 -41.265  0.00  0.00     0.043 H 
ATOM     41  H2  8OY d   1      -8.127 -32.856 -41.424  0.00  0.00     0.043 H 
BRANCH  39  42
ATOM     42  C07 8OY d   1      -8.562 -31.740 -43.224  0.00  0.00    -0.049 C 
ATOM     43  C08 8OY d   1      -7.705 -31.362 -44.451  0.00  0.00    -0.061 C 
ATOM     44  C09 8OY d   1      -8.477 -31.038 -45.737  0.00  0.00    -0.065 C 
ATOM     45  H4  8OY d   1      -7.033 -32.206 -44.665  0.00  0.00     0.033 H 
ATOM     46  H5  8OY d   1      -7.108 -30.477 -44.185  0.00  0.00     0.033 H 
ATOM     47  C10 8OY d   1      -9.987 -30.953 -45.574  0.00  0.00    -0.065 C 
ATOM     48  H6  8OY d   1      -8.257 -31.824 -46.475  0.00  0.00     0.033 H 
ATOM     49  H7  8OY d   1      -8.119 -30.069 -46.115  0.00  0.00     0.033 H 
ATOM     50  C11 8OY d   1     -10.438 -30.283 -44.301  0.00  0.00    -0.065 C 
ATOM     51  H8  8OY d   1     -10.393 -31.975 -45.587  0.00  0.00     0.033 H 
ATOM     52  H9  8OY d   1     -10.394 -30.386 -46.424  0.00  0.00     0.033 H 
ATOM     53  C12 8OY d   1      -9.665 -30.683 -43.044  0.00  0.00    -0.061 C 
ATOM     54  H10 8OY d   1     -11.498 -30.532 -44.142  0.00  0.00     0.033 H 
ATOM     55  H11 8OY d   1     -10.333 -29.196 -44.433  0.00  0.00     0.033 H 
ATOM     56  H12 8OY d   1      -9.195 -29.775 -42.638  0.00  0.00     0.033 H 
ATOM     57  H13 8OY d   1     -10.390 -31.077 -42.317  0.00  0.00     0.033 H 
ATOM     58  H3  8OY d   1      -9.050 -32.700 -43.448  0.00  0.00     0.040 H 
ENDBRANCH  39  42
ENDBRANCH   3  39
TORSDOF 7
