REMARK  9 active torsions:
REMARK  status: ('A' for Active; 'I' for Inactive)
REMARK    1  A    between atoms: C17_3  and  N16_21 
REMARK    2  A    between atoms: C20_4  and  C23_24 
REMARK    3  A    between atoms: C04_11  and  C07_14 
REMARK    4  A    between atoms: C14_19  and  C06_13 
REMARK    5  A    between atoms: C07_14  and  C08_15 
REMARK       I    between atoms: N16_21  and  C14_19 
REMARK    6  A    between atoms: N26_27  and  C18_22 
REMARK    7  A    between atoms: N26_27  and  C27_28 
REMARK    8  A    between atoms: C31_31  and  O33_33 
REMARK    9  A    between atoms: O33_33  and  C34_34 
ROOT
ATOM      1  C14 8N4 d   1     -32.338 -18.024 -41.267  0.00  0.00     0.274 C 
ATOM      2  O15 8N4 d   1     -33.555 -18.042 -41.303  0.00  0.00    -0.266 OA
ATOM      3  N16 8N4 d   1     -31.536 -19.175 -40.953  0.00  0.00    -0.320 N 
ATOM      4  H20 8N4 d   1     -30.543 -19.057 -40.941  0.00  0.00     0.169 HD
ENDROOT
BRANCH   1   5
ATOM      5  C06 8N4 d   1     -31.523 -16.762 -41.546  0.00  0.00     0.125 A 
ATOM      6  C01 8N4 d   1     -32.099 -15.518 -41.761  0.00  0.00    -0.050 A 
ATOM      7  C02 8N4 d   1     -31.289 -14.430 -41.999  0.00  0.00    -0.079 A 
ATOM      8  H8  8N4 d   1     -33.177 -15.404 -41.742  0.00  0.00     0.087 H 
ATOM      9  C03 8N4 d   1     -29.919 -14.577 -42.019  0.00  0.00    -0.059 A 
ATOM     10  H9  8N4 d   1     -31.730 -13.455 -42.171  0.00  0.00     0.083 H 
ATOM     11  C04 8N4 d   1     -29.351 -15.829 -41.801  0.00  0.00     0.035 A 
ATOM     12  H10 8N4 d   1     -29.284 -13.718 -42.204  0.00  0.00     0.086 H 
ATOM     13  N05 8N4 d   1     -30.160 -16.900 -41.568  0.00  0.00    -0.248 NA
BRANCH  11  14
ATOM     14  C07 8N4 d   1     -27.836 -16.043 -41.813  0.00  0.00    -0.021 C 
ATOM     15  H11 8N4 d   1     -27.617 -17.037 -41.396  0.00  0.00     0.043 H 
ATOM     16  H12 8N4 d   1     -27.366 -15.271 -41.187  0.00  0.00     0.043 H 
BRANCH  14  17
ATOM     17  C08 8N4 d   1     -27.248 -15.961 -43.211  0.00  0.00    -0.049 C 
ATOM     18  C13 8N4 d   1     -26.011 -16.822 -43.257  0.00  0.00    -0.061 C 
ATOM     19  C12 8N4 d   1     -25.340 -16.623 -44.586  0.00  0.00    -0.065 C 
ATOM     20  H3  8N4 d   1     -26.290 -17.879 -43.137  0.00  0.00     0.033 H 
ATOM     21  H4  8N4 d   1     -25.325 -16.530 -42.448  0.00  0.00     0.033 H 
ATOM     22  C11 8N4 d   1     -26.246 -17.144 -45.667  0.00  0.00    -0.065 C 
ATOM     23  H18 8N4 d   1     -24.387 -17.172 -44.605  0.00  0.00     0.033 H 
ATOM     24  H19 8N4 d   1     -25.149 -15.552 -44.748  0.00  0.00     0.033 H 
ATOM     25  C10 8N4 d   1     -27.564 -16.392 -45.656  0.00  0.00    -0.065 C 
ATOM     26  H16 8N4 d   1     -25.759 -17.010 -46.644  0.00  0.00     0.033 H 
ATOM     27  H17 8N4 d   1     -26.437 -18.214 -45.496  0.00  0.00     0.033 H 
ATOM     28  C09 8N4 d   1     -28.218 -16.434 -44.286  0.00  0.00    -0.061 C 
ATOM     29  H1  8N4 d   1     -27.379 -15.343 -45.932  0.00  0.00     0.033 H 
ATOM     30  H2  8N4 d   1     -28.243 -16.850 -46.390  0.00  0.00     0.033 H 
ATOM     31  H14 8N4 d   1     -28.527 -17.466 -44.065  0.00  0.00     0.033 H 
ATOM     32  H15 8N4 d   1     -29.102 -15.779 -44.288  0.00  0.00     0.033 H 
ATOM     33  H13 8N4 d   1     -26.976 -14.916 -43.419  0.00  0.00     0.040 H 
ENDBRANCH  14  17
ENDBRANCH  11  14
ENDBRANCH   1   5
BRANCH   3  34
ATOM     34  C17 8N4 d   1     -32.053 -20.482 -40.655  0.00  0.00     0.062 A 
ATOM     35  C22 8N4 d   1     -32.993 -21.065 -41.487  0.00  0.00    -0.054 A 
ATOM     36  C21 8N4 d   1     -33.484 -22.337 -41.203  0.00  0.00    -0.064 A 
ATOM     37  H6  8N4 d   1     -33.348 -20.531 -42.361  0.00  0.00     0.087 H 
ATOM     38  C20 8N4 d   1     -33.028 -23.024 -40.092  0.00  0.00     0.043 A 
ATOM     39  H5  8N4 d   1     -34.224 -22.789 -41.853  0.00  0.00     0.085 H 
ATOM     40  C19 8N4 d   1     -32.083 -22.446 -39.264  0.00  0.00    -0.038 A 
ATOM     41  C18 8N4 d   1     -31.576 -21.181 -39.550  0.00  0.00     0.060 A 
ATOM     42  H21 8N4 d   1     -31.735 -22.981 -38.388  0.00  0.00     0.088 H 
BRANCH  38  43
ATOM     43  C23 8N4 d   1     -33.561 -24.413 -39.776  0.00  0.00     0.209 C 
ATOM     44  O24 8N4 d   1     -32.909 -25.435 -40.126  0.00  0.00    -0.644 OA
ATOM     45  O25 8N4 d   1     -34.650 -24.544 -39.164  0.00  0.00    -0.644 OA
ENDBRANCH  38  43
BRANCH  41  46
ATOM     46  N26 8N4 d   1     -30.618 -20.616 -38.656  0.00  0.00    -0.354 N 
ATOM     47  H22 8N4 d   1     -30.934 -20.400 -37.700  0.00  0.00     0.166 HD
BRANCH  46  48
ATOM     48  C27 8N4 d   1     -29.259 -20.325 -38.976  0.00  0.00     0.035 A 
ATOM     49  C28 8N4 d   1     -28.386 -20.080 -37.922  0.00  0.00    -0.057 A 
ATOM     50  C29 8N4 d   1     -27.056 -19.783 -38.163  0.00  0.00    -0.078 A 
ATOM     51  H7  8N4 d   1     -28.750 -20.122 -36.902  0.00  0.00     0.086 H 
ATOM     52  C30 8N4 d   1     -26.583 -19.726 -39.471  0.00  0.00    -0.050 A 
ATOM     53  H23 8N4 d   1     -26.383 -19.595 -37.334  0.00  0.00     0.083 H 
ATOM     54  C31 8N4 d   1     -27.448 -19.970 -40.529  0.00  0.00     0.080 A 
ATOM     55  H24 8N4 d   1     -25.542 -19.492 -39.663  0.00  0.00     0.087 H 
ATOM     56  C32 8N4 d   1     -28.779 -20.270 -40.284  0.00  0.00    -0.025 A 
ATOM     57  H25 8N4 d   1     -29.450 -20.463 -41.113  0.00  0.00     0.091 H 
BRANCH  54  58
ATOM     58  O33 8N4 d   1     -26.958 -19.903 -41.855  0.00  0.00    -0.255 OA
BRANCH  58  59
ATOM     59  C34 8N4 d   1     -26.362 -21.089 -42.327  0.00  0.00     0.530 C 
ATOM     60  F35 8N4 d   1     -27.007 -22.155 -41.828  0.00  0.00    -0.144 F 
ATOM     61  F36 8N4 d   1     -26.425 -21.109 -43.660  0.00  0.00    -0.144 F 
ATOM     62  F37 8N4 d   1     -25.079 -21.106 -41.932  0.00  0.00    -0.144 F 
ENDBRANCH  58  59
ENDBRANCH  54  58
ENDBRANCH  46  48
ENDBRANCH  41  46
ENDBRANCH   3  34
TORSDOF 9
