REMARK  6 active torsions:
REMARK  status: ('A' for Active; 'I' for Inactive)
REMARK    1  A    between atoms: C02_2  and  C01_1 
REMARK       I    between atoms: C01_1  and  N01_19 
REMARK    2  A    between atoms: C07_7  and  C06_6 
REMARK       I    between atoms: N02_20  and  C07_7 
REMARK    3  A    between atoms: C08_8  and  N02_20 
REMARK    4  A    between atoms: C15_15  and  C16_16 
REMARK    5  A    between atoms: C15_15  and  N04_22 
REMARK    6  A    between atoms: C16_16  and  C17_17 
ROOT
ATOM      1  C08 EDH d   1     -16.297 -48.164 -16.359  0.00  0.00     0.710 A 
ATOM      2  C09 EDH d   1     -18.403 -47.584 -16.787  0.00  0.00     0.103 A 
ATOM      3  C10 EDH d   1     -18.168 -48.816 -17.372  0.00  0.00     0.081 A 
ATOM      4  C11 EDH d   1     -19.207 -49.479 -18.095  0.00  0.00    -0.054 A 
ATOM      5  C12 EDH d   1     -20.455 -48.882 -18.208  0.00  0.00    -0.081 A 
ATOM      6  C13 EDH d   1     -20.697 -47.627 -17.613  0.00  0.00    -0.081 A 
ATOM      7  C14 EDH d   1     -19.679 -46.975 -16.904  0.00  0.00    -0.052 A 
ATOM      8  N03 EDH d   1     -17.210 -47.194 -16.159  0.00  0.00    -0.062 NA
ATOM      9  N04 EDH d   1     -16.857 -49.152 -17.096  0.00  0.00    -0.179 N 
ATOM     10  H4  EDH d   1     -19.021 -50.444 -18.553  0.00  0.00     0.087 H 
ATOM     11  H5  EDH d   1     -21.246 -49.382 -18.755  0.00  0.00     0.083 H 
ATOM     12  H6  EDH d   1     -21.673 -47.165 -17.704  0.00  0.00     0.083 H 
ATOM     13  H7  EDH d   1     -19.866 -46.010 -16.447  0.00  0.00     0.087 H 
ENDROOT
BRANCH   1  14
ATOM     14  N02 EDH d   1     -14.939 -48.170 -15.900  0.00  0.00    -0.153 N 
ATOM     15  C07 EDH d   1     -14.443 -47.171 -14.980  0.00  0.00     0.270 C 
ATOM     16  O01 EDH d   1     -15.163 -46.288 -14.554  0.00  0.00    -0.267 OA
ATOM     17  H18 EDH d   1     -14.319 -48.884 -16.225  0.00  0.00     0.187 HD
BRANCH  15  18
ATOM     18  C06 EDH d   1     -12.949 -47.264 -14.564  0.00  0.00     0.033 A 
ATOM     19  C05 EDH d   1     -12.358 -46.253 -13.828  0.00  0.00    -0.068 A 
ATOM     20  C04 EDH d   1     -11.006 -46.356 -13.471  0.00  0.00    -0.081 A 
ATOM     21  H3  EDH d   1     -12.937 -45.386 -13.529  0.00  0.00     0.085 H 
ATOM     22  C03 EDH d   1     -10.267 -47.476 -13.867  0.00  0.00    -0.068 A 
ATOM     23  H2  EDH d   1     -10.535 -45.571 -12.890  0.00  0.00     0.083 H 
ATOM     24  C02 EDH d   1     -10.855 -48.485 -14.605  0.00  0.00     0.032 A 
ATOM     25  H1  EDH d   1      -9.221 -47.553 -13.592  0.00  0.00     0.085 H 
ATOM     26  C18 EDH d   1     -12.206 -48.381 -14.962  0.00  0.00    -0.052 A 
ATOM     27  H15 EDH d   1     -12.675 -49.165 -15.546  0.00  0.00     0.086 H 
BRANCH  24  28
ATOM     28  C01 EDH d   1     -10.029 -49.697 -15.025  0.00  0.00     0.249 C 
ATOM     29  N01 EDH d   1     -10.556 -50.645 -15.965  0.00  0.00    -0.366 N 
ATOM     30  H16 EDH d   1     -10.009 -51.437 -16.236  0.00  0.00     0.159 HD
ATOM     31  H17 EDH d   1     -11.470 -50.513 -16.349  0.00  0.00     0.159 HD
ATOM     32  O02 EDH d   1      -8.923 -49.862 -14.562  0.00  0.00    -0.268 OA
ENDBRANCH  24  28
ENDBRANCH  15  18
ENDBRANCH   1  14
BRANCH   9  33
ATOM     33  C15 EDH d   1     -16.177 -50.364 -17.514  0.00  0.00     0.017 C 
ATOM     34  H8  EDH d   1     -15.522 -50.712 -16.701  0.00  0.00     0.065 H 
ATOM     35  H9  EDH d   1     -16.924 -51.139 -17.741  0.00  0.00     0.065 H 
BRANCH  33  36
ATOM     36  C16 EDH d   1     -15.355 -50.101 -18.730  0.00  0.00    -0.052 C 
ATOM     37  H10 EDH d   1     -14.698 -49.241 -18.534  0.00  0.00     0.034 H 
ATOM     38  H11 EDH d   1     -16.028 -49.865 -19.567  0.00  0.00     0.034 H 
BRANCH  36  39
ATOM     39  C17 EDH d   1     -14.506 -51.278 -19.111  0.00  0.00    -0.075 C 
ATOM     40  H12 EDH d   1     -13.922 -51.033 -20.010  0.00  0.00     0.027 H 
ATOM     41  H13 EDH d   1     -15.152 -52.144 -19.318  0.00  0.00     0.027 H 
ATOM     42  H14 EDH d   1     -13.822 -51.520 -18.284  0.00  0.00     0.027 H 
ENDBRANCH  36  39
ENDBRANCH  33  36
ENDBRANCH   9  33
TORSDOF 6
