REMARK WARNING: 32 MAX_TORS EXCEEDED!!!
REMARK  37 active torsions:
REMARK  status: ('A' for Active; 'I' for Inactive)
REMARK    1  A    between atoms: N_1  and  CA_2 
REMARK    2  A    between atoms: CA_2  and  C_3 
REMARK       I    between atoms: C_3  and  N_5 
REMARK    3  A    between atoms: N_5  and  CA_6 
REMARK    4  A    between atoms: CA_6  and  C_7 
REMARK    5  A    between atoms: CA_6  and  CB_9 
REMARK       I    between atoms: C_7  and  N_14 
REMARK    6  A    between atoms: CB_9  and  CG_10 
REMARK    7  A    between atoms: CG_10  and  CD_11 
REMARK    8  A    between atoms: N_14  and  CA_15 
REMARK    9  A    between atoms: CA_15  and  C_16 
REMARK   10  A    between atoms: CA_15  and  CB_18 
REMARK       I    between atoms: C_16  and  N_22 
REMARK   11  A    between atoms: CB_18  and  CG_19 
REMARK       I    between atoms: CG_19  and  ND2_21 
REMARK   12  A    between atoms: N_22  and  CA_23 
REMARK   13  A    between atoms: CA_23  and  C_24 
REMARK       I    between atoms: C_24  and  N_26 
REMARK   14  A    between atoms: N_26  and  CA_27 
REMARK   15  A    between atoms: CA_27  and  C_28 
REMARK   16  A    between atoms: CA_27  and  CB_30 
REMARK       I    between atoms: C_28  and  N_37 
REMARK   17  A    between atoms: CB_30  and  CG_31 
REMARK   18  A    between atoms: CG_31  and  CD_32 
REMARK   19  A    between atoms: CD_32  and  NE_33 
REMARK       I    between atoms: NE_33  and  CZ_34 
REMARK       I    between atoms: CZ_34  and  NH1_35 
REMARK       I    between atoms: CZ_34  and  NH2_36 
REMARK   20  A    between atoms: N_37  and  CA_38 
REMARK   21  A    between atoms: CA_38  and  C_39 
REMARK   22  A    between atoms: CA_38  and  CB_41 
REMARK       I    between atoms: C_39  and  N_46 
REMARK   23  A    between atoms: CB_41  and  CG_42 
REMARK   24  A    between atoms: CG_42  and  CD_43 
REMARK   25  A    between atoms: CD_43  and  CE_44 
REMARK   26  A    between atoms: CE_44  and  NZ_45 
REMARK   27  A    between atoms: N_46  and  CA_47 
REMARK   28  A    between atoms: CA_47  and  C_48 
REMARK   29  A    between atoms: CA_47  and  CB_50 
REMARK       I    between atoms: C_48  and  N_53 
REMARK   30  A    between atoms: CB_50  and  OG1_51 
REMARK   31  A    between atoms: CB_50  and  CG2_52 
REMARK   32  A    between atoms: N_53  and  CA_54 
REMARK   33  A    between atoms: CA_54  and  C_55 
REMARK   34  A    between atoms: CA_54  and  CB_57 
REMARK   35  A    between atoms: CB_57  and  CG_58 
REMARK   36  A    between atoms: CG_58  and  CD_59 
REMARK   37  A    between atoms: CD_59  and  NE_60 
REMARK       I    between atoms: NE_60  and  CZ_61 
REMARK       I    between atoms: CZ_61  and  NH1_62 
ROOT
ATOM      1  CA  GLY d   1       0.996   7.437  -6.240  0.00  0.00     0.089 C 
ATOM      2  H22 GLY d   1       1.307   7.871  -7.202  0.00  0.00     0.087 H 
ENDROOT
BRANCH   1   3
ATOM      3  N   GLY d   1       0.966   8.497  -5.245  0.00  0.00    -0.346 N 
ATOM      4  C   GLY d   1       1.599   9.654  -5.428  0.00  0.00     0.236 C 
ATOM      5  O   GLY d   1       2.184   9.924  -6.481  0.00  0.00    -0.272 OA
ATOM      6  H21 GLY d   1       0.455   8.353  -4.398  0.00  0.00     0.163 HD
BRANCH   4   7
ATOM      7  CA  GLY d   1       1.585  10.642  -4.278  0.00  0.00     0.069 C 
ATOM      8  H19 GLY d   1       2.336  10.328  -3.538  0.00  0.00     0.078 H 
ATOM      9  H20 GLY d   1       1.847  11.637  -4.668  0.00  0.00     0.078 H 
BRANCH   7  10
ATOM     10  N   GLY d   1       0.295  10.730  -3.618  0.00  0.00    -0.351 N 
ATOM     11  C   GLY d   1      -0.759  11.211  -4.277  0.00  0.00     0.241 C 
ATOM     12  O   GLY d   1      -0.730  11.507  -5.476  0.00  0.00    -0.271 OA
ATOM     13  H18 GLY d   1       0.197  10.430  -2.669  0.00  0.00     0.163 HD
BRANCH  11  14
ATOM     14  CA  GLY d   1      -2.030  11.392  -3.459  0.00  0.00     0.097 C 
ATOM     15  H13 GLY d   1      -1.755  11.512  -2.401  0.00  0.00     0.088 H 
BRANCH  14  16
ATOM     16  N   GLY d   1      -2.726  12.592  -3.896  0.00  0.00    -0.346 N 
ATOM     17  C   GLY d   1      -2.708  13.711  -3.183  0.00  0.00     0.241 C 
ATOM     18  O   GLY d   1      -2.093  13.801  -2.116  0.00  0.00    -0.271 OA
ATOM     19  H12 GLY d   1      -3.232  12.573  -4.758  0.00  0.00     0.163 HD
BRANCH  17  20
ATOM     20  CA  GLY d   1      -3.501  14.890  -3.733  0.00  0.00     0.090 C 
ATOM     21  H7  GLY d   1      -2.955  15.308  -4.591  0.00  0.00     0.087 H 
BRANCH  20  22
ATOM     22  N   GLY d   1      -4.808  14.432  -4.188  0.00  0.00    -0.346 N 
ATOM     23  C   GLY d   1      -5.208  14.566  -5.453  0.00  0.00     0.243 C 
ATOM     24  O   GLY d   1      -4.503  15.060  -6.333  0.00  0.00    -0.272 OA
ATOM     25  H6  GLY d   1      -5.426  14.003  -3.529  0.00  0.00     0.163 HD
BRANCH  23  26
ATOM     26  CA  GLY d   1      -6.604  14.064  -5.765  0.00  0.00     0.152 C 
ATOM     27  H4  GLY d   1      -6.536  13.010  -6.073  0.00  0.00     0.090 H 
ATOM     28  H5  GLY d   1      -7.215  14.141  -4.854  0.00  0.00     0.090 H 
BRANCH  26  29
ATOM     29  N   GLY d   1      -7.258  14.812  -6.823  0.00  0.00    -0.071 N 
ATOM     30  H1  GLY d   1      -8.178  14.432  -6.984  0.00  0.00     0.274 HD
ATOM     31  H2  GLY d   1      -6.714  14.743  -7.669  0.00  0.00     0.274 HD
ATOM     32  H3  GLY d   1      -7.336  15.780  -6.551  0.00  0.00     0.274 HD
ENDBRANCH  26  29
ENDBRANCH  23  26
ENDBRANCH  20  22
BRANCH  20  33
ATOM     33  CB  GLY d   1      -3.662  15.992  -2.678  0.00  0.00    -0.029 C 
ATOM     34  H8  GLY d   1      -3.980  15.518  -1.738  0.00  0.00     0.037 H 
ATOM     35  H9  GLY d   1      -4.446  16.681  -3.025  0.00  0.00     0.037 H 
BRANCH  33  36
ATOM     36  CG  GLY d   1      -2.407  16.813  -2.390  0.00  0.00     0.018 C 
ATOM     37  H10 GLY d   1      -2.666  17.881  -2.441  0.00  0.00     0.049 H 
ATOM     38  H11 GLY d   1      -1.652  16.582  -3.156  0.00  0.00     0.049 H 
BRANCH  36  39
ATOM     39  CD  GLY d   1      -1.816  16.521  -1.021  0.00  0.00     0.172 C 
ATOM     40  OE1 GLY d   1      -0.573  16.497  -0.898  0.00  0.00    -0.648 OA
ATOM     41  OE2 GLY d   1      -2.598  16.310  -0.070  0.00  0.00    -0.648 OA
ENDBRANCH  36  39
ENDBRANCH  33  36
ENDBRANCH  20  33
ENDBRANCH  17  20
ENDBRANCH  14  16
BRANCH  14  42
ATOM     42  CB  GLY d   1      -2.926  10.161  -3.589  0.00  0.00     0.036 C 
ATOM     43  H14 GLY d   1      -2.839   9.768  -4.612  0.00  0.00     0.051 H 
ATOM     44  H15 GLY d   1      -3.967  10.461  -3.399  0.00  0.00     0.051 H 
BRANCH  42  45
ATOM     45  CG  GLY d   1      -2.551   9.065  -2.614  0.00  0.00     0.217 C 
ATOM     46  OD1 GLY d   1      -1.419   9.007  -2.133  0.00  0.00    -0.274 OA
ATOM     47  ND2 GLY d   1      -3.503   8.191  -2.314  0.00  0.00    -0.370 N 
ATOM     48  H16 GLY d   1      -3.314   7.445  -1.675  0.00  0.00     0.159 HD
ATOM     49  H17 GLY d   1      -4.410   8.278  -2.726  0.00  0.00     0.159 HD
ENDBRANCH  42  45
ENDBRANCH  14  42
ENDBRANCH  11  14
ENDBRANCH   7  10
ENDBRANCH   4   7
ENDBRANCH   1   3
BRANCH   1  50
ATOM     50  C   GLY d   1      -0.394   6.837  -6.395  0.00  0.00     0.241 C 
ATOM     51  O   GLY d   1      -1.168   6.767  -5.437  0.00  0.00    -0.271 OA
ATOM     52  N   GLY d   1      -0.703   6.404  -7.614  0.00  0.00    -0.346 N 
ATOM     53  H34 GLY d   1      -0.065   6.588  -8.362  0.00  0.00     0.163 HD
BRANCH  52  54
ATOM     54  CA  GLY d   1      -1.929   5.674  -7.908  0.00  0.00     0.089 C 
ATOM     55  H35 GLY d   1      -2.521   5.595  -6.984  0.00  0.00     0.087 H 
BRANCH  54  56
ATOM     56  C   GLY d   1      -1.566   4.281  -8.392  0.00  0.00     0.241 C 
ATOM     57  O   GLY d   1      -0.664   4.125  -9.221  0.00  0.00    -0.271 OA
ATOM     58  N   GLY d   1      -2.263   3.274  -7.879  0.00  0.00    -0.344 N 
ATOM     59  H47 GLY d   1      -2.851   3.437  -7.086  0.00  0.00     0.163 HD
BRANCH  58  60
ATOM     60  CA  GLY d   1      -2.187   1.939  -8.449  0.00  0.00     0.113 C 
ATOM     61  H48 GLY d   1      -1.200   1.813  -8.918  0.00  0.00     0.091 H 
BRANCH  60  62
ATOM     62  C   GLY d   1      -3.261   1.793  -9.521  0.00  0.00     0.243 C 
ATOM     63  O   GLY d   1      -4.337   2.392  -9.434  0.00  0.00    -0.271 OA
ATOM     64  N   GLY d   1      -2.950   1.019 -10.556  0.00  0.00    -0.345 N 
ATOM     65  H54 GLY d   1      -2.044   0.600 -10.615  0.00  0.00     0.163 HD
BRANCH  64  66
ATOM     66  CA  GLY d   1      -3.936   0.784 -11.606  0.00  0.00     0.096 C 
ATOM     67  H55 GLY d   1      -4.766   1.489 -11.453  0.00  0.00     0.089 H 
BRANCH  66  68
ATOM     68  C   GLY d   1      -4.491  -0.632 -11.531  0.00  0.00     0.196 C 
ATOM     69  O   GLY d   1      -3.763  -1.607 -11.714  0.00  0.00    -0.646 OA
ATOM     70  OXT GLY d   1      -5.684  -0.826 -11.296  0.00  0.00    -0.646 OA
ENDBRANCH  66  68
BRANCH  66  71
ATOM     71  CB  GLY d   1      -3.350   1.030 -12.998  0.00  0.00    -0.035 C 
ATOM     72  H56 GLY d   1      -2.660   0.210 -13.246  0.00  0.00     0.036 H 
ATOM     73  H57 GLY d   1      -2.800   1.982 -12.991  0.00  0.00     0.036 H 
BRANCH  71  74
ATOM     74  CG  GLY d   1      -4.439   1.096 -14.056  0.00  0.00    -0.047 C 
ATOM     75  H58 GLY d   1      -4.950   2.066 -13.965  0.00  0.00     0.035 H 
ATOM     76  H59 GLY d   1      -5.156   0.284 -13.864  0.00  0.00     0.035 H 
BRANCH  74  77
ATOM     77  CD  GLY d   1      -3.935   0.957 -15.479  0.00  0.00     0.009 C 
ATOM     78  H60 GLY d   1      -3.407  -0.002 -15.587  0.00  0.00     0.064 H 
ATOM     79  H61 GLY d   1      -3.245   1.783 -15.704  0.00  0.00     0.064 H 
BRANCH  77  80
ATOM     80  NE  GLY d   1      -5.061   0.998 -16.410  0.00  0.00    -0.227 N 
ATOM     81  CZ  GLY d   1      -4.979   0.750 -17.713  0.00  0.00     0.665 C 
ATOM     82  NH1 GLY d   1      -6.068   0.816 -18.469  0.00  0.00    -0.235 N 
ATOM     83  NH2 GLY d   1      -3.815   0.434 -18.262  0.00  0.00    -0.235 N 
ATOM     84  H63 GLY d   1      -6.006   0.624 -19.479  0.00  0.00     0.174 HD
ATOM     85  H64 GLY d   1      -6.975   1.059 -18.046  0.00  0.00     0.174 HD
ATOM     86  H65 GLY d   1      -2.968   0.382 -17.679  0.00  0.00     0.174 HD
ATOM     87  H66 GLY d   1      -3.758   0.241 -19.272  0.00  0.00     0.174 HD
ATOM     88  H62 GLY d   1      -5.987   1.237 -16.028  0.00  0.00     0.177 HD
ENDBRANCH  77  80
ENDBRANCH  74  77
ENDBRANCH  71  74
ENDBRANCH  66  71
ENDBRANCH  64  66
ENDBRANCH  60  62
BRANCH  60  89
ATOM     89  CB  GLY d   1      -2.349   0.861  -7.370  0.00  0.00     0.060 C 
ATOM     90  H49 GLY d   1      -1.679   1.096  -6.530  0.00  0.00     0.086 H 
BRANCH  89  91
ATOM     91  OG1 GLY d   1      -1.996  -0.419  -7.912  0.00  0.00    -0.393 OA
ATOM     92  H50 GLY d   1      -2.097  -1.084  -7.242  0.00  0.00     0.210 HD
ENDBRANCH  89  91
BRANCH  89  93
ATOM     93  CG2 GLY d   1      -3.782   0.807  -6.857  0.00  0.00    -0.050 C 
ATOM     94  H51 GLY d   1      -3.866   0.027  -6.086  0.00  0.00     0.031 H 
ATOM     95  H52 GLY d   1      -4.461   0.574  -7.690  0.00  0.00     0.031 H 
ATOM     96  H53 GLY d   1      -4.053   1.781  -6.424  0.00  0.00     0.031 H 
ENDBRANCH  89  93
ENDBRANCH  60  89
ENDBRANCH  58  60
ENDBRANCH  54  56
BRANCH  54  97
ATOM     97  CB  GLY d   1      -2.781   6.368  -8.976  0.00  0.00    -0.038 C 
ATOM     98  H36 GLY d   1      -3.595   5.683  -9.255  0.00  0.00     0.036 H 
ATOM     99  H37 GLY d   1      -2.141   6.552  -9.851  0.00  0.00     0.036 H 
BRANCH  97 100
ATOM    100  CG  GLY d   1      -3.400   7.682  -8.571  0.00  0.00    -0.061 C 
ATOM    101  H38 GLY d   1      -2.607   8.436  -8.456  0.00  0.00     0.033 H 
ATOM    102  H39 GLY d   1      -3.927   7.555  -7.614  0.00  0.00     0.033 H 
BRANCH 100 103
ATOM    103  CD  GLY d   1      -4.389   8.150  -9.630  0.00  0.00    -0.043 C 
ATOM    104  H40 GLY d   1      -4.934   9.024  -9.243  0.00  0.00     0.035 H 
ATOM    105  H41 GLY d   1      -5.100   7.336  -9.834  0.00  0.00     0.035 H 
BRANCH 103 106
ATOM    106  CE  GLY d   1      -3.704   8.537 -10.928  0.00  0.00     0.080 C 
ATOM    107  H42 GLY d   1      -3.234   7.642 -11.362  0.00  0.00     0.075 H 
ATOM    108  H43 GLY d   1      -2.931   9.289 -10.711  0.00  0.00     0.075 H 
BRANCH 106 109
ATOM    109  NZ  GLY d   1      -4.663   9.104 -11.916  0.00  0.00    -0.079 N 
ATOM    110  H44 GLY d   1      -4.170   9.347 -12.761  0.00  0.00     0.274 HD
ATOM    111  H45 GLY d   1      -5.095   9.929 -11.530  0.00  0.00     0.274 HD
ATOM    112  H46 GLY d   1      -5.373   8.420 -12.126  0.00  0.00     0.274 HD
ENDBRANCH 106 109
ENDBRANCH 103 106
ENDBRANCH 100 103
ENDBRANCH  97 100
ENDBRANCH  54  97
ENDBRANCH  52  54
ENDBRANCH   1  50
BRANCH   1 113
ATOM    113  CB  GLY d   1       1.988   6.329  -5.862  0.00  0.00    -0.036 C 
ATOM    114  H23 GLY d   1       2.247   5.774  -6.776  0.00  0.00     0.036 H 
ATOM    115  H24 GLY d   1       1.491   5.653  -5.151  0.00  0.00     0.036 H 
BRANCH 113 116
ATOM    116  CG  GLY d   1       3.277   6.819  -5.226  0.00  0.00    -0.048 C 
ATOM    117  H25 GLY d   1       3.035   7.439  -4.350  0.00  0.00     0.035 H 
ATOM    118  H26 GLY d   1       3.836   7.420  -5.958  0.00  0.00     0.035 H 
BRANCH 116 119
ATOM    119  CD  GLY d   1       4.130   5.651  -4.788  0.00  0.00     0.009 C 
ATOM    120  H27 GLY d   1       4.732   5.314  -5.645  0.00  0.00     0.064 H 
ATOM    121  H28 GLY d   1       3.468   4.835  -4.461  0.00  0.00     0.064 H 
BRANCH 119 122
ATOM    122  NE  GLY d   1       5.029   5.990  -3.692  0.00  0.00    -0.227 N 
ATOM    123  CZ  GLY d   1       6.296   6.351  -3.854  0.00  0.00     0.665 C 
ATOM    124  NH1 GLY d   1       6.811   6.423  -5.073  0.00  0.00    -0.235 N 
ATOM    125  NH2 GLY d   1       7.045   6.639  -2.799  0.00  0.00    -0.235 N 
ATOM    126  H30 GLY d   1       7.794   6.703  -5.201  0.00  0.00     0.174 HD
ATOM    127  H31 GLY d   1       6.228   6.199  -5.892  0.00  0.00     0.174 HD
ATOM    128  H32 GLY d   1       6.644   6.583  -1.852  0.00  0.00     0.174 HD
ATOM    129  H33 GLY d   1       8.028   6.919  -2.926  0.00  0.00     0.174 HD
ATOM    130  H29 GLY d   1       4.658   5.947  -2.732  0.00  0.00     0.177 HD
ENDBRANCH 119 122
ENDBRANCH 116 119
ENDBRANCH 113 116
ENDBRANCH   1 113
TORSDOF 37
