REMARK  11 active torsions:
REMARK  status: ('A' for Active; 'I' for Inactive)
REMARK    1  A    between atoms: C01_1  and  N02_2 
REMARK    2  A    between atoms: N05_5  and  C08_8 
REMARK    3  A    between atoms: C11_11  and  N12_12 
REMARK    4  A    between atoms: N12_12  and  C13_13 
REMARK    5  A    between atoms: N19_19  and  C20_20 
REMARK    6  A    between atoms: C20_20  and  C21_21 
REMARK    7  A    between atoms: N23_23  and  C26_26 
REMARK    8  A    between atoms: C28_28  and  C32_32 
REMARK    9  A    between atoms: C32_32  and  C33_33 
REMARK   10  A    between atoms: C32_32  and  C34_34 
REMARK   11  A    between atoms: C32_32  and  O35_35 
ROOT
ATOM      1  C13 8X7 d   1      22.823   0.327  -5.027  0.00  0.00     0.728 A 
ATOM      2  N14 8X7 d   1      22.782  -0.688  -4.122  0.00  0.00    -0.074 NA
ATOM      3  C15 8X7 d   1      22.043  -0.621  -2.986  0.00  0.00     0.040 A 
ATOM      4  C16 8X7 d   1      21.307   0.542  -2.754  0.00  0.00     0.100 A 
ATOM      5  C17 8X7 d   1      20.443   0.960  -1.714  0.00  0.00     0.278 A 
ATOM      6  O18 8X7 d   1      20.053   0.399  -0.638  0.00  0.00    -0.265 OA
ATOM      7  N19 8X7 d   1      20.027   2.191  -2.081  0.00  0.00    -0.243 N 
ATOM      8  N23 8X7 d   1      20.616   2.592  -3.206  0.00  0.00    -0.213 N 
ATOM      9  C24 8X7 d   1      21.355   1.572  -3.661  0.00  0.00     0.187 A 
ATOM     10  N25 8X7 d   1      22.104   1.452  -4.778  0.00  0.00    -0.042 NA
ATOM     11  H16 8X7 d   1      22.025  -1.444  -2.281  0.00  0.00     0.117 H 
ENDROOT
BRANCH   1  12
ATOM     12  N12 8X7 d   1      23.581   0.176  -6.137  0.00  0.00    -0.188 N 
ATOM     13  H15 8X7 d   1      24.185  -0.658  -6.161  0.00  0.00     0.184 HD
BRANCH  12  14
ATOM     14  C11 8X7 d   1      23.644   0.996  -7.234  0.00  0.00     0.049 A 
ATOM     15  C10 8X7 d   1      22.717   2.009  -7.569  0.00  0.00    -0.054 A 
ATOM     16  C09 8X7 d   1      22.876   2.779  -8.725  0.00  0.00    -0.055 A 
ATOM     17  H14 8X7 d   1      21.869   2.192  -6.919  0.00  0.00     0.087 H 
ATOM     18  C08 8X7 d   1      23.968   2.579  -9.607  0.00  0.00     0.030 A 
ATOM     19  H13 8X7 d   1      22.146   3.548  -8.953  0.00  0.00     0.087 H 
ATOM     20  C37 8X7 d   1      24.890   1.563  -9.253  0.00  0.00    -0.055 A 
ATOM     21  C36 8X7 d   1      24.734   0.788  -8.097  0.00  0.00    -0.054 A 
ATOM     22  H33 8X7 d   1      25.743   1.380  -9.897  0.00  0.00     0.087 H 
ATOM     23  H32 8X7 d   1      25.462   0.019  -7.865  0.00  0.00     0.087 H 
BRANCH  18  24
ATOM     24  N05 8X7 d   1      24.127   3.351 -10.756  0.00  0.00    -0.378 N 
ATOM     25  C04 8X7 d   1      22.969   4.090 -11.242  0.00  0.00     0.018 C 
ATOM     26  C03 8X7 d   1      23.116   4.752 -12.635  0.00  0.00     0.098 C 
ATOM     27  H7  8X7 d   1      22.121   3.391 -11.290  0.00  0.00     0.066 H 
ATOM     28  H8  8X7 d   1      22.748   4.885 -10.514  0.00  0.00     0.066 H 
ATOM     29  N02 8X7 d   1      24.474   5.278 -12.929  0.00  0.00    -0.072 N 
ATOM     30  H5  8X7 d   1      22.866   4.002 -13.400  0.00  0.00     0.078 H 
ATOM     31  H6  8X7 d   1      22.404   5.588 -12.694  0.00  0.00     0.078 H 
ATOM     32  C07 8X7 d   1      25.561   4.336 -12.539  0.00  0.00     0.098 C 
ATOM     33  H4  8X7 d   1      24.591   6.098 -12.354  0.00  0.00     0.279 HD
ATOM     34  C06 8X7 d   1      25.426   3.931 -11.061  0.00  0.00     0.018 C 
ATOM     35  H11 8X7 d   1      26.535   4.825 -12.692  0.00  0.00     0.078 H 
ATOM     36  H12 8X7 d   1      25.500   3.435 -13.167  0.00  0.00     0.078 H 
ATOM     37  H9  8X7 d   1      26.206   3.192 -10.826  0.00  0.00     0.066 H 
ATOM     38  H10 8X7 d   1      25.568   4.825 -10.436  0.00  0.00     0.066 H 
BRANCH  29  39
ATOM     39  C01 8X7 d   1      24.600   5.730 -14.342  0.00  0.00     0.066 C 
ATOM     40  H1  8X7 d   1      23.778   6.421 -14.581  0.00  0.00     0.068 H 
ATOM     41  H2  8X7 d   1      24.553   4.858 -15.011  0.00  0.00     0.068 H 
ATOM     42  H3  8X7 d   1      25.562   6.245 -14.478  0.00  0.00     0.068 H 
ENDBRANCH  29  39
ENDBRANCH  18  24
ENDBRANCH  12  14
ENDBRANCH   1  12
BRANCH   8  43
ATOM     43  C26 8X7 d   1      20.372   3.693  -3.975  0.00  0.00     0.151 A 
ATOM     44  N27 8X7 d   1      19.110   4.178  -3.841  0.00  0.00    -0.231 NA
ATOM     45  C28 8X7 d   1      18.558   5.217  -4.519  0.00  0.00     0.070 A 
ATOM     46  C29 8X7 d   1      19.362   5.817  -5.513  0.00  0.00    -0.056 A 
ATOM     47  C30 8X7 d   1      20.664   5.327  -5.744  0.00  0.00    -0.077 A 
ATOM     48  H22 8X7 d   1      18.981   6.649  -6.095  0.00  0.00     0.086 H 
ATOM     49  C31 8X7 d   1      21.175   4.243  -5.003  0.00  0.00    -0.037 A 
ATOM     50  H23 8X7 d   1      21.282   5.792  -6.504  0.00  0.00     0.083 H 
ATOM     51  H24 8X7 d   1      22.159   3.840  -5.215  0.00  0.00     0.089 H 
BRANCH  45  52
ATOM     52  C32 8X7 d   1      17.159   5.646  -4.186  0.00  0.00     0.095 C 
BRANCH  52  53
ATOM     53  C33 8X7 d   1      16.575   6.717  -5.144  0.00  0.00    -0.043 C 
ATOM     54  H25 8X7 d   1      15.553   6.972  -4.829  0.00  0.00     0.032 H 
ATOM     55  H26 8X7 d   1      16.554   6.319  -6.169  0.00  0.00     0.032 H 
ATOM     56  H27 8X7 d   1      17.204   7.619  -5.113  0.00  0.00     0.032 H 
ENDBRANCH  52  53
BRANCH  52  57
ATOM     57  C34 8X7 d   1      17.080   6.140  -2.717  0.00  0.00    -0.043 C 
ATOM     58  H28 8X7 d   1      17.497   5.372  -2.049  0.00  0.00     0.032 H 
ATOM     59  H29 8X7 d   1      16.030   6.328  -2.449  0.00  0.00     0.032 H 
ATOM     60  H30 8X7 d   1      17.657   7.070  -2.611  0.00  0.00     0.032 H 
ENDBRANCH  52  57
BRANCH  52  61
ATOM     61  O35 8X7 d   1      16.281   4.523  -4.288  0.00  0.00    -0.384 OA
ATOM     62  H31 8X7 d   1      16.590   3.828  -3.719  0.00  0.00     0.211 HD
ENDBRANCH  52  61
ENDBRANCH  45  52
ENDBRANCH   8  43
BRANCH   7  63
ATOM     63  C20 8X7 d   1      19.186   2.959  -1.217  0.00  0.00     0.033 C 
ATOM     64  H17 8X7 d   1      18.636   2.319  -0.511  0.00  0.00     0.073 H 
ATOM     65  H18 8X7 d   1      18.473   3.575  -1.785  0.00  0.00     0.073 H 
BRANCH  63  66
ATOM     66  C21 8X7 d   1      20.183   3.777  -0.539  0.00  0.00    -0.093 C 
ATOM     67  C22 8X7 d   1      20.974   3.353   0.466  0.00  0.00    -0.123 C 
ATOM     68  H20 8X7 d   1      21.694   4.034   0.916  0.00  0.00     0.066 H 
ATOM     69  H21 8X7 d   1      20.893   2.329   0.828  0.00  0.00     0.066 H 
ATOM     70  H19 8X7 d   1      20.297   4.808  -0.869  0.00  0.00     0.078 H 
ENDBRANCH  63  66
ENDBRANCH   7  63
TORSDOF 11
