REMARK  10 active torsions:
REMARK  status: ('A' for Active; 'I' for Inactive)
REMARK    1  A    between atoms: O10_19  and  C7_3 
REMARK    2  A    between atoms: C1_14  and  C24_11 
REMARK    3  A    between atoms: C24_11  and  N25_27 
REMARK    4  A    between atoms: N25_27  and  C26_12 
REMARK    5  A    between atoms: C2_15  and  C1_14 
REMARK    6  A    between atoms: C3_16  and  C2_15 
REMARK    7  A    between atoms: N4_17  and  C3_16 
REMARK    8  A    between atoms: C11_20  and  O10_19 
REMARK    9  A    between atoms: C11_20  and  C12_21 
REMARK   10  A    between atoms: C18_24  and  C11_20 
ROOT
ATOM      1  C5  91V d   1     -16.720   9.520 -27.648  0.00  0.00     0.086 C 
ATOM      2  C6  91V d   1     -18.005   9.890 -28.398  0.00  0.00    -0.018 C 
ATOM      3  C7  91V d   1     -17.739  10.862 -29.569  0.00  0.00     0.043 C 
ATOM      4  C8  91V d   1     -16.229  11.092 -29.796  0.00  0.00    -0.018 C 
ATOM      5  N4  91V d   1     -15.967  10.741 -27.314  0.00  0.00    -0.071 N 
ATOM      6  C9  91V d   1     -15.550  11.540 -28.491  0.00  0.00     0.086 C 
ATOM      7  H1  91V d   1     -16.100   8.871 -28.284  0.00  0.00     0.076 H 
ATOM      8  H2  91V d   1     -16.979   8.986 -26.722  0.00  0.00     0.076 H 
ATOM      9  H3  91V d   1     -18.702  10.367 -27.693  0.00  0.00     0.039 H 
ATOM     10  H4  91V d   1     -18.459   8.971 -28.797  0.00  0.00     0.039 H 
ATOM     11  H5  91V d   1     -18.177  11.830 -29.285  0.00  0.00     0.083 H 
ATOM     12  H6  91V d   1     -16.092  11.871 -30.561  0.00  0.00     0.039 H 
ATOM     13  H7  91V d   1     -15.768  10.155 -30.141  0.00  0.00     0.039 H 
ATOM     14  H23 91V d   1     -16.585  11.326 -26.773  0.00  0.00     0.279 HD
ATOM     15  H24 91V d   1     -15.806  12.594 -28.307  0.00  0.00     0.076 H 
ATOM     16  H25 91V d   1     -14.461  11.443 -28.612  0.00  0.00     0.076 H 
ENDROOT
BRANCH   5  17
ATOM     17  C3  91V d   1     -14.817  10.407 -26.459  0.00  0.00     0.084 C 
ATOM     18  H21 91V d   1     -14.679   9.316 -26.441  0.00  0.00     0.076 H 
ATOM     19  H22 91V d   1     -13.911  10.884 -26.861  0.00  0.00     0.076 H 
BRANCH  17  20
ATOM     20  C2  91V d   1     -15.070  10.912 -25.035  0.00  0.00    -0.041 C 
ATOM     21  H19 91V d   1     -15.159  12.008 -25.045  0.00  0.00     0.035 H 
ATOM     22  H20 91V d   1     -16.002  10.472 -24.651  0.00  0.00     0.035 H 
BRANCH  20  23
ATOM     23  C1  91V d   1     -13.906  10.504 -24.135  0.00  0.00    -0.049 C 
ATOM     24  H17 91V d   1     -14.044   9.464 -23.804  0.00  0.00     0.035 H 
ATOM     25  H18 91V d   1     -12.962  10.589 -24.694  0.00  0.00     0.035 H 
BRANCH  23  26
ATOM     26  C24 91V d   1     -13.862  11.426 -22.916  0.00  0.00    -0.006 C 
ATOM     27  H14 91V d   1     -13.744  10.837 -21.995  0.00  0.00     0.064 H 
ATOM     28  H15 91V d   1     -14.784  12.023 -22.854  0.00  0.00     0.064 H 
BRANCH  26  29
ATOM     29  N25 91V d   1     -12.706  12.296 -23.115  0.00  0.00    -0.373 N 
ATOM     30  H31 91V d   1     -12.488  12.595 -24.076  0.00  0.00     0.161 HD
BRANCH  29  31
ATOM     31  C26 91V d   1     -11.883  12.745 -22.094  0.00  0.00     0.144 A 
ATOM     32  C27 91V d   1     -10.508  12.405 -22.137  0.00  0.00    -0.034 A 
ATOM     33  C28 91V d   1      -9.640  12.831 -21.174  0.00  0.00    -0.031 A 
ATOM     34  H32 91V d   1     -10.136  11.791 -22.956  0.00  0.00     0.089 H 
ATOM     35  C29 91V d   1     -10.156  13.635 -20.140  0.00  0.00     0.174 A 
ATOM     36  H16 91V d   1      -8.586  12.559 -21.204  0.00  0.00     0.089 H 
ATOM     37  N30 91V d   1      -9.604  14.203 -19.081  0.00  0.00    -0.129 NA
ATOM     38  N33 91V d   1     -11.503  13.962 -20.129  0.00  0.00    -0.204 N 
ATOM     39  N31 91V d   1     -10.516  14.851 -18.448  0.00  0.00    -0.141 NA
ATOM     40  C32 91V d   1     -11.682  14.726 -19.041  0.00  0.00     0.112 A 
ATOM     41  H33 91V d   1     -12.623  15.163 -18.709  0.00  0.00     0.149 H 
ATOM     42  N34 91V d   1     -12.363  13.500 -21.129  0.00  0.00    -0.147 NA
ENDBRANCH  29  31
ENDBRANCH  26  29
ENDBRANCH  23  26
ENDBRANCH  20  23
ENDBRANCH  17  20
ENDBRANCH   5  17
BRANCH   3  43
ATOM     43  O10 91V d   1     -18.383  10.447 -30.795  0.00  0.00    -0.371 OA
BRANCH  43  44
ATOM     44  C11 91V d   1     -18.586   9.035 -31.024  0.00  0.00     0.089 C 
ATOM     45  H26 91V d   1     -18.193   8.527 -30.131  0.00  0.00     0.098 H 
BRANCH  44  46
ATOM     46  C12 91V d   1     -20.055   8.624 -31.097  0.00  0.00    -0.025 A 
ATOM     47  C13 91V d   1     -21.071   9.550 -30.878  0.00  0.00    -0.074 A 
ATOM     48  C14 91V d   1     -22.407   9.163 -30.939  0.00  0.00    -0.082 A 
ATOM     49  H8  91V d   1     -20.820  10.581 -30.658  0.00  0.00     0.084 H 
ATOM     50  C15 91V d   1     -22.752   7.849 -31.213  0.00  0.00    -0.083 A 
ATOM     51  H27 91V d   1     -23.186   9.898 -30.770  0.00  0.00     0.083 H 
ATOM     52  C16 91V d   1     -21.750   6.916 -31.427  0.00  0.00    -0.082 A 
ATOM     53  H9  91V d   1     -23.794   7.554 -31.259  0.00  0.00     0.083 H 
ATOM     54  C17 91V d   1     -20.414   7.303 -31.365  0.00  0.00    -0.074 A 
ATOM     55  H28 91V d   1     -22.006   5.885 -31.643  0.00  0.00     0.083 H 
ATOM     56  H10 91V d   1     -19.638   6.564 -31.528  0.00  0.00     0.084 H 
ENDBRANCH  44  46
BRANCH  44  57
ATOM     57  C18 91V d   1     -17.729   8.554 -32.178  0.00  0.00    -0.025 A 
ATOM     58  C19 91V d   1     -16.449   8.087 -31.911  0.00  0.00    -0.074 A 
ATOM     59  C20 91V d   1     -15.646   7.645 -32.952  0.00  0.00    -0.082 A 
ATOM     60  H29 91V d   1     -16.078   8.068 -30.892  0.00  0.00     0.084 H 
ATOM     61  C21 91V d   1     -16.107   7.666 -34.260  0.00  0.00    -0.083 A 
ATOM     62  H11 91V d   1     -14.648   7.279 -32.741  0.00  0.00     0.083 H 
ATOM     63  C22 91V d   1     -17.386   8.133 -34.532  0.00  0.00    -0.082 A 
ATOM     64  H12 91V d   1     -15.471   7.319 -35.067  0.00  0.00     0.083 H 
ATOM     65  C23 91V d   1     -18.190   8.583 -33.492  0.00  0.00    -0.074 A 
ATOM     66  H13 91V d   1     -17.756   8.146 -35.551  0.00  0.00     0.083 H 
ATOM     67  H30 91V d   1     -19.184   8.960 -33.705  0.00  0.00     0.084 H 
ENDBRANCH  44  57
ENDBRANCH  43  44
ENDBRANCH   3  43
TORSDOF 10
