REMARK  4 active torsions:
REMARK  status: ('A' for Active; 'I' for Inactive)
REMARK    1  A    between atoms: C5_2  and  C6_3 
REMARK    2  A    between atoms: C6_3  and  N7_13 
REMARK    3  A    between atoms: N7_13  and  C8_4 
REMARK    4  A    between atoms: N2_11  and  C1_10 
ROOT
ATOM      1  N7  91J d   1     -35.511  21.395  20.652  0.00  0.00    -0.226 N 
ATOM      2  H18 91J d   1     -34.603  21.859  20.801  0.00  0.00     0.177 HD
ENDROOT
BRANCH   1   3
ATOM      3  C6  91J d   1     -36.726  21.941  21.254  0.00  0.00     0.013 C 
ATOM      4  H4  91J d   1     -37.578  21.769  20.580  0.00  0.00     0.065 H 
ATOM      5  H5  91J d   1     -36.914  21.443  22.217  0.00  0.00     0.065 H 
BRANCH   3   6
ATOM      6  C5  91J d   1     -36.552  23.442  21.482  0.00  0.00    -0.035 C 
ATOM      7  C4  91J d   1     -36.371  23.665  22.995  0.00  0.00    -0.037 C 
ATOM      8  C3  91J d   1     -36.494  25.154  23.350  0.00  0.00     0.084 C 
ATOM      9  H1  91J d   1     -35.376  23.305  23.295  0.00  0.00     0.036 H 
ATOM     10  H2  91J d   1     -37.144  23.101  23.537  0.00  0.00     0.036 H 
ATOM     11  N2  91J d   1     -37.793  25.652  22.868  0.00  0.00    -0.075 N 
ATOM     12  H16 91J d   1     -35.681  25.717  22.869  0.00  0.00     0.075 H 
ATOM     13  H17 91J d   1     -36.432  25.280  24.441  0.00  0.00     0.075 H 
ATOM     14  C24 91J d   1     -37.870  25.619  21.398  0.00  0.00     0.084 C 
ATOM     15  H15 91J d   1     -38.505  25.034  23.223  0.00  0.00     0.279 HD
ATOM     16  C23 91J d   1     -37.794  24.164  20.920  0.00  0.00    -0.037 C 
ATOM     17  H10 91J d   1     -37.031  26.190  20.973  0.00  0.00     0.075 H 
ATOM     18  H11 91J d   1     -38.821  26.065  21.070  0.00  0.00     0.075 H 
ATOM     19  H25 91J d   1     -38.697  23.632  21.254  0.00  0.00     0.036 H 
ATOM     20  H26 91J d   1     -37.746  24.152  19.821  0.00  0.00     0.036 H 
ATOM     21  H3  91J d   1     -35.657  23.803  20.954  0.00  0.00     0.042 H 
BRANCH  11  22
ATOM     22  C1  91J d   1     -38.076  26.997  23.387  0.00  0.00     0.066 C 
ATOM     23  H12 91J d   1     -38.011  26.988  24.485  0.00  0.00     0.068 H 
ATOM     24  H13 91J d   1     -39.088  27.302  23.083  0.00  0.00     0.068 H 
ATOM     25  H14 91J d   1     -37.341  27.708  22.982  0.00  0.00     0.068 H 
ENDBRANCH  11  22
ENDBRANCH   3   6
ENDBRANCH   1   3
BRANCH   1  26
ATOM     26  C8  91J d   1     -35.590  20.259  19.886  0.00  0.00     0.681 A 
ATOM     27  N9  91J d   1     -36.428  19.315  20.232  0.00  0.00    -0.184 N 
ATOM     28  C10 91J d   1     -36.546  18.176  19.517  0.00  0.00     0.107 A 
ATOM     29  H19 91J d   1     -37.012  19.444  21.071  0.00  0.00     0.185 HD
ATOM     30  S11 91J d   1     -37.592  16.803  19.787  0.00  0.00    -0.075 SA
ATOM     31  C18 91J d   1     -35.774  17.966  18.378  0.00  0.00     0.074 A 
ATOM     32  C12 91J d   1     -36.992  15.956  18.380  0.00  0.00    -0.008 A 
ATOM     33  C13 91J d   1     -37.487  14.579  17.954  0.00  0.00    -0.034 C 
ATOM     34  C17 91J d   1     -36.052  16.669  17.745  0.00  0.00    -0.026 A 
ATOM     35  C14 91J d   1     -37.101  14.339  16.490  0.00  0.00    -0.061 C 
ATOM     36  H6  91J d   1     -38.581  14.532  18.059  0.00  0.00     0.040 H 
ATOM     37  H7  91J d   1     -37.024  13.809  18.588  0.00  0.00     0.040 H 
ATOM     38  C15 91J d   1     -35.611  14.660  16.294  0.00  0.00    -0.061 C 
ATOM     39  H20 91J d   1     -37.705  14.989  15.840  0.00  0.00     0.033 H 
ATOM     40  H21 91J d   1     -37.287  13.287  16.230  0.00  0.00     0.033 H 
ATOM     41  C16 91J d   1     -35.359  16.164  16.476  0.00  0.00    -0.039 C 
ATOM     42  H8  91J d   1     -35.306  14.362  15.280  0.00  0.00     0.033 H 
ATOM     43  H9  91J d   1     -35.019  14.101  17.034  0.00  0.00     0.033 H 
ATOM     44  H22 91J d   1     -35.756  16.706  15.605  0.00  0.00     0.040 H 
ATOM     45  H23 91J d   1     -34.277  16.343  16.558  0.00  0.00     0.040 H 
ATOM     46  C19 91J d   1     -34.863  19.017  18.014  0.00  0.00     0.273 A 
ATOM     47  O20 91J d   1     -34.150  18.925  17.027  0.00  0.00    -0.267 OA
ATOM     48  N21 91J d   1     -34.804  20.128  18.780  0.00  0.00    -0.155 N 
ATOM     49  H24 91J d   1     -34.175  20.865  18.532  0.00  0.00     0.187 HD
ENDBRANCH   1  26
TORSDOF 4
