REMARK  5 active torsions:
REMARK  status: ('A' for Active; 'I' for Inactive)
REMARK    1  A    between atoms: N1_12  and  C14_2 
REMARK    2  A    between atoms: C14_2  and  C15_22 
REMARK    3  A    between atoms: C5_3  and  N2_13 
REMARK       I    between atoms: N2_13  and  C6_4 
REMARK       I    between atoms: C6_4  and  N3_15 
REMARK    4  A    between atoms: C11_5  and  C13_11 
REMARK    5  A    between atoms: N3_15  and  C7_6 
ROOT
ATOM      1  C4  8Z7 d   1       1.385   9.340 -10.832  0.00  0.00    -0.023 C 
ATOM      2  C5  8Z7 d   1       0.371   8.433 -10.448  0.00  0.00     0.017 C 
ATOM      3  N1  8Z7 d   1       1.224   8.285 -13.093  0.00  0.00    -0.067 N 
ATOM      4  C3  8Z7 d   1       2.121   8.790 -12.064  0.00  0.00     0.086 C 
ATOM      5  C1  8Z7 d   1      -0.570   8.128 -11.514  0.00  0.00    -0.023 C 
ATOM      6  C2  8Z7 d   1       0.181   7.436 -12.648  0.00  0.00     0.086 C 
ATOM      7  H1  8Z7 d   1       2.098   9.465 -10.004  0.00  0.00     0.038 H 
ATOM      8  H2  8Z7 d   1       0.934  10.313 -11.078  0.00  0.00     0.038 H 
ATOM      9  H5  8Z7 d   1       0.911   7.495 -10.252  0.00  0.00     0.072 H 
ATOM     10  H10 8Z7 d   1       0.732   9.115 -13.385  0.00  0.00     0.280 HD
ATOM     11  H12 8Z7 d   1       2.778   7.969 -11.741  0.00  0.00     0.076 H 
ATOM     12  H13 8Z7 d   1       2.729   9.598 -12.497  0.00  0.00     0.076 H 
ATOM     13  H15 8Z7 d   1      -1.024   9.059 -11.885  0.00  0.00     0.038 H 
ATOM     14  H16 8Z7 d   1      -1.358   7.463 -11.132  0.00  0.00     0.038 H 
ATOM     15  H17 8Z7 d   1       0.606   6.488 -12.285  0.00  0.00     0.076 H 
ATOM     16  H18 8Z7 d   1      -0.510   7.234 -13.479  0.00  0.00     0.076 H 
ENDROOT
BRANCH   2  17
ATOM     17  N2  8Z7 d   1      -0.402   8.727  -9.137  0.00  0.00    -0.338 N 
ATOM     18  C6  8Z7 d   1       0.192   9.024  -7.839  0.00  0.00     0.321 C 
ATOM     19  N3  8Z7 d   1      -0.724   9.226  -6.775  0.00  0.00    -0.309 N 
ATOM     20  O   8Z7 d   1       1.393   9.122  -7.660  0.00  0.00    -0.247 OA
ATOM     21  H14 8Z7 d   1      -1.696   9.184  -7.007  0.00  0.00     0.170 HD
ATOM     22  H11 8Z7 d   1      -1.401   8.711  -9.186  0.00  0.00     0.164 HD
BRANCH  19  23
ATOM     23  C7  8Z7 d   1      -0.399   9.486  -5.391  0.00  0.00     0.037 A 
ATOM     24  C8  8Z7 d   1      -1.268   8.926  -4.440  0.00  0.00    -0.057 A 
ATOM     25  C9  8Z7 d   1      -1.024   9.086  -3.094  0.00  0.00    -0.080 A 
ATOM     26  H6  8Z7 d   1      -2.136   8.365  -4.767  0.00  0.00     0.086 H 
ATOM     27  C10 8Z7 d   1       0.094   9.778  -2.680  0.00  0.00    -0.068 A 
ATOM     28  H7  8Z7 d   1      -1.708   8.670  -2.363  0.00  0.00     0.083 H 
ATOM     29  C11 8Z7 d   1       0.972  10.339  -3.632  0.00  0.00     0.050 A 
ATOM     30  H8  8Z7 d   1       0.299   9.892  -1.622  0.00  0.00     0.084 H 
ATOM     31  C12 8Z7 d   1       0.735  10.185  -4.972  0.00  0.00    -0.043 A 
ATOM     32  H9  8Z7 d   1       1.421  10.602  -5.700  0.00  0.00     0.088 H 
BRANCH  29  33
ATOM     33  C13 8Z7 d   1       2.234  11.113  -3.174  0.00  0.00     0.417 C 
ATOM     34  F3  8Z7 d   1       2.193  12.347  -3.710  0.00  0.00    -0.166 F 
ATOM     35  F1  8Z7 d   1       3.357  10.483  -3.603  0.00  0.00    -0.166 F 
ATOM     36  F2  8Z7 d   1       2.263  11.204  -1.851  0.00  0.00    -0.166 F 
ENDBRANCH  29  33
ENDBRANCH  19  23
ENDBRANCH   2  17
BRANCH   3  37
ATOM     37  C14 8Z7 d   1       1.767   7.907 -14.121  0.00  0.00     0.107 C 
ATOM     38  H3  8Z7 d   1       2.309   8.763 -14.550  0.00  0.00     0.083 H 
ATOM     39  H4  8Z7 d   1       0.980   7.584 -14.818  0.00  0.00     0.083 H 
BRANCH  37  40
ATOM     40  C15 8Z7 d   1       2.779   6.731 -13.966  0.00  0.00    -0.033 A 
ATOM     41  C20 8Z7 d   1       2.337   5.401 -13.998  0.00  0.00    -0.075 A 
ATOM     42  C19 8Z7 d   1       3.273   4.375 -13.862  0.00  0.00    -0.082 A 
ATOM     43  H19 8Z7 d   1       1.285   5.173 -14.126  0.00  0.00     0.084 H 
ATOM     44  C18 8Z7 d   1       4.650   4.669 -13.722  0.00  0.00    -0.083 A 
ATOM     45  H20 8Z7 d   1       2.942   3.343 -13.864  0.00  0.00     0.083 H 
ATOM     46  C17 8Z7 d   1       5.108   5.997 -13.706  0.00  0.00    -0.082 A 
ATOM     47  H21 8Z7 d   1       5.362   3.857 -13.626  0.00  0.00     0.083 H 
ATOM     48  C16 8Z7 d   1       4.166   7.009 -13.829  0.00  0.00    -0.075 A 
ATOM     49  H22 8Z7 d   1       6.163   6.224 -13.601  0.00  0.00     0.083 H 
ATOM     50  H23 8Z7 d   1       4.498   8.041 -13.820  0.00  0.00     0.084 H 
ENDBRANCH  37  40
ENDBRANCH   3  37
TORSDOF 5
