REMARK  9 active torsions:
REMARK  status: ('A' for Active; 'I' for Inactive)
REMARK    1  A    between atoms: C13_7  and  C14_2 
REMARK    2  A    between atoms: C16_11  and  C5_3 
REMARK    3  A    between atoms: N7_30  and  C13_7 
REMARK    4  A    between atoms: C2_13  and  C1_9 
REMARK       I    between atoms: N18_28  and  C16_11 
REMARK    5  A    between atoms: N18_28  and  C19_12 
REMARK    6  A    between atoms: C20_14  and  N18_28 
REMARK    7  A    between atoms: C26_19  and  C27_20 
REMARK    8  A    between atoms: C26_19  and  C28_21 
REMARK    9  A    between atoms: C26_19  and  N23_29 
ROOT
ATOM      1  C20 96V d   1      26.536  35.884  30.107  0.00  0.00     0.017 C 
ATOM      2  C21 96V d   1      25.689  36.269  28.883  0.00  0.00    -0.023 C 
ATOM      3  C22 96V d   1      24.685  35.168  28.484  0.00  0.00     0.086 C 
ATOM      4  C24 96V d   1      26.161  33.484  29.622  0.00  0.00     0.086 C 
ATOM      5  C25 96V d   1      27.228  34.553  29.810  0.00  0.00    -0.023 C 
ATOM      6  N23 96V d   1      25.177  33.767  28.541  0.00  0.00    -0.063 N 
ATOM      7  H14 96V d   1      25.836  35.741  30.943  0.00  0.00     0.072 H 
ATOM      8  H15 96V d   1      26.363  36.456  28.034  0.00  0.00     0.038 H 
ATOM      9  H16 96V d   1      25.130  37.187  29.116  0.00  0.00     0.038 H 
ATOM     10  H17 96V d   1      24.364  35.367  27.451  0.00  0.00     0.076 H 
ATOM     11  H18 96V d   1      23.819  35.245  29.158  0.00  0.00     0.076 H 
ATOM     12  H19 96V d   1      25.610  33.381  30.568  0.00  0.00     0.076 H 
ATOM     13  H20 96V d   1      26.665  32.535  29.386  0.00  0.00     0.076 H 
ATOM     14  H21 96V d   1      27.883  34.280  30.651  0.00  0.00     0.038 H 
ATOM     15  H22 96V d   1      27.828  34.644  28.892  0.00  0.00     0.038 H 
ATOM     16  H33 96V d   1      25.675  33.618  27.677  0.00  0.00     0.280 HD
ENDROOT
BRANCH   1  17
ATOM     17  N18 96V d   1      27.570  36.839  30.574  0.00  0.00    -0.347 N 
ATOM     18  C16 96V d   1      28.470  37.459  29.758  0.00  0.00     0.256 C 
ATOM     19  O17 96V d   1      28.405  37.278  28.553  0.00  0.00    -0.267 OA
BRANCH  18  20
ATOM     20  C5  96V d   1      29.575  38.327  30.278  0.00  0.00     0.060 A 
ATOM     21  C4  96V d   1      29.397  39.699  30.849  0.00  0.00     0.015 A 
ATOM     22  C10 96V d   1      30.542  40.450  31.198  0.00  0.00     0.113 A 
ATOM     23  C3  96V d   1      28.287  40.507  31.172  0.00  0.00    -0.048 A 
ATOM     24  C8  96V d   1      31.833  39.859  31.070  0.00  0.00     0.275 A 
ATOM     25  N11 96V d   1      30.097  41.659  31.681  0.00  0.00    -0.355 N 
ATOM     26  N7  96V d   1      31.951  38.574  30.630  0.00  0.00    -0.318 N 
ATOM     27  O9  96V d   1      32.825  40.500  31.415  0.00  0.00    -0.265 OA
ATOM     28  C6  96V d   1      30.866  37.844  30.226  0.00  0.00    -0.001 A 
ATOM     29  H2  96V d   1      31.029  36.836  29.846  0.00  0.00     0.113 H 
ATOM     30  C2  96V d   1      28.742  41.669  31.681  0.00  0.00     0.006 A 
ATOM     31  H32 96V d   1      30.699  42.434  31.993  0.00  0.00     0.166 HD
ATOM     32  H5  96V d   1      27.241  40.238  31.034  0.00  0.00     0.087 H 
BRANCH  26  33
ATOM     33  C13 96V d   1      33.266  37.921  30.575  0.00  0.00     0.017 C 
ATOM     34  H3  96V d   1      33.202  37.056  29.899  0.00  0.00     0.071 H 
ATOM     35  H4  96V d   1      34.001  38.640  30.183  0.00  0.00     0.071 H 
BRANCH  33  36
ATOM     36  C14 96V d   1      33.734  37.441  31.936  0.00  0.00    -0.095 C 
ATOM     37  C15 96V d   1      32.990  37.362  33.016  0.00  0.00    -0.123 C 
ATOM     38  H9  96V d   1      33.421  37.003  33.949  0.00  0.00     0.066 H 
ATOM     39  H10 96V d   1      31.942  37.656  32.978  0.00  0.00     0.066 H 
ATOM     40  H1  96V d   1      34.776  37.136  32.025  0.00  0.00     0.078 H 
ENDBRANCH  33  36
ENDBRANCH  26  33
BRANCH  30  41
ATOM     41  C1  96V d   1      27.884  42.824  32.124  0.00  0.00    -0.037 C 
ATOM     42  H6  96V d   1      28.526  43.636  32.495  0.00  0.00     0.035 H 
ATOM     43  H7  96V d   1      27.210  42.493  32.928  0.00  0.00     0.035 H 
ATOM     44  H8  96V d   1      27.289  43.187  31.273  0.00  0.00     0.035 H 
ENDBRANCH  30  41
ENDBRANCH  18  20
BRANCH  17  45
ATOM     45  C19 96V d   1      27.674  37.008  32.035  0.00  0.00    -0.015 C 
ATOM     46  H11 96V d   1      28.468  37.734  32.264  0.00  0.00     0.056 H 
ATOM     47  H12 96V d   1      27.916  36.041  32.500  0.00  0.00     0.056 H 
ATOM     48  H13 96V d   1      26.715  37.375  32.431  0.00  0.00     0.056 H 
ENDBRANCH  17  45
ENDBRANCH   1  17
BRANCH   6  49
ATOM     49  C26 96V d   1      24.040  32.790  28.543  0.00  0.00     0.125 C 
ATOM     50  H23 96V d   1      23.279  33.259  27.902  0.00  0.00     0.091 H 
BRANCH  49  51
ATOM     51  C27 96V d   1      24.339  31.441  27.864  0.00  0.00    -0.045 C 
ATOM     52  H24 96V d   1      23.448  30.798  27.918  0.00  0.00     0.030 H 
ATOM     53  H25 96V d   1      25.177  30.949  28.379  0.00  0.00     0.030 H 
ATOM     54  H26 96V d   1      24.605  31.612  26.811  0.00  0.00     0.030 H 
ENDBRANCH  49  51
BRANCH  49  55
ATOM     55  C28 96V d   1      23.360  32.628  29.894  0.00  0.00    -0.028 A 
ATOM     56  C29 96V d   1      23.948  31.900  30.929  0.00  0.00    -0.075 A 
ATOM     57  C30 96V d   1      23.329  31.819  32.167  0.00  0.00    -0.082 A 
ATOM     58  H27 96V d   1      24.893  31.395  30.764  0.00  0.00     0.084 H 
ATOM     59  C31 96V d   1      22.113  32.455  32.373  0.00  0.00    -0.083 A 
ATOM     60  H28 96V d   1      23.794  31.261  32.972  0.00  0.00     0.083 H 
ATOM     61  C32 96V d   1      21.526  33.189  31.345  0.00  0.00    -0.082 A 
ATOM     62  H29 96V d   1      21.619  32.380  33.335  0.00  0.00     0.083 H 
ATOM     63  C33 96V d   1      22.147  33.270  30.106  0.00  0.00    -0.075 A 
ATOM     64  H30 96V d   1      20.583  33.697  31.513  0.00  0.00     0.083 H 
ATOM     65  H31 96V d   1      21.685  33.834  29.304  0.00  0.00     0.084 H 
ENDBRANCH  49  55
ENDBRANCH   6  49
TORSDOF 9
