REMARK  8 active torsions:
REMARK  status: ('A' for Active; 'I' for Inactive)
REMARK    1  A    between atoms: N1_12  and  C4_1 
REMARK    2  A    between atoms: C4_1  and  C3_14 
REMARK    3  A    between atoms: C11_5  and  C10_9 
REMARK    4  A    between atoms: N2_13  and  C7_6 
REMARK    5  A    between atoms: C10_9  and  N2_13 
REMARK       I    between atoms: N2_13  and  C17_20 
REMARK    6  A    between atoms: C3_14  and  C2_17 
REMARK       I    between atoms: C17_20  and  N3_15 
REMARK    7  A    between atoms: N3_15  and  C18_22 
REMARK    8  A    between atoms: C2_17  and  C1_16 
ROOT
ATOM      1  N2  8ZA d   1      15.861 -10.229  -9.193  0.00  0.00    -0.325 N 
ATOM      2  N3  8ZA d   1      16.577 -10.448  -6.984  0.00  0.00    -0.309 N 
ATOM      3  C17 8ZA d   1      15.556 -10.143  -7.907  0.00  0.00     0.323 C 
ATOM      4  O   8ZA d   1      14.462  -9.789  -7.525  0.00  0.00    -0.247 OA
ATOM      5  H20 8ZA d   1      17.492 -10.609  -7.354  0.00  0.00     0.170 HD
ENDROOT
BRANCH   1   6
ATOM      6  C7  8ZA d   1      14.813  -9.769 -10.238  0.00  0.00     0.019 C 
ATOM      7  C6  8ZA d   1      15.481  -9.198 -11.413  0.00  0.00    -0.023 C 
ATOM      8  C5  8ZA d   1      14.454  -8.456 -12.255  0.00  0.00     0.085 C 
ATOM      9  H6  8ZA d   1      16.266  -8.499 -11.088  0.00  0.00     0.038 H 
ATOM     10  H7  8ZA d   1      15.933 -10.005 -12.009  0.00  0.00     0.038 H 
ATOM     11  N1  8ZA d   1      13.413  -9.350 -12.646  0.00  0.00    -0.071 N 
ATOM     12  H4  8ZA d   1      14.943  -8.050 -13.153  0.00  0.00     0.076 H 
ATOM     13  H5  8ZA d   1      14.025  -7.632 -11.666  0.00  0.00     0.076 H 
ATOM     14  C9  8ZA d   1      12.787  -9.959 -11.480  0.00  0.00     0.085 C 
ATOM     15  H17 8ZA d   1      13.875 -10.103 -13.131  0.00  0.00     0.279 HD
ATOM     16  C8  8ZA d   1      13.773 -10.695 -10.551  0.00  0.00    -0.023 C 
ATOM     17  H11 8ZA d   1      12.291  -9.166 -10.900  0.00  0.00     0.076 H 
ATOM     18  H12 8ZA d   1      12.035 -10.682 -11.829  0.00  0.00     0.076 H 
ATOM     19  H9  8ZA d   1      13.261 -11.014  -9.632  0.00  0.00     0.038 H 
ATOM     20  H10 8ZA d   1      14.190 -11.575 -11.062  0.00  0.00     0.038 H 
ATOM     21  H8  8ZA d   1      14.290  -8.927  -9.762  0.00  0.00     0.073 H 
BRANCH  11  22
ATOM     22  C4  8ZA d   1      12.602  -8.893 -13.468  0.00  0.00     0.084 C 
ATOM     23  H1  8ZA d   1      11.864  -9.674 -13.702  0.00  0.00     0.075 H 
ATOM     24  H2  8ZA d   1      13.148  -8.619 -14.383  0.00  0.00     0.075 H 
BRANCH  22  25
ATOM     25  C3  8ZA d   1      11.848  -7.641 -12.950  0.00  0.00    -0.043 C 
ATOM     26  H18 8ZA d   1      12.542  -6.788 -12.970  0.00  0.00     0.035 H 
ATOM     27  H19 8ZA d   1      11.533  -7.833 -11.914  0.00  0.00     0.035 H 
BRANCH  25  28
ATOM     28  C2  8ZA d   1      10.607  -7.268 -13.767  0.00  0.00    -0.067 C 
ATOM     29  H24 8ZA d   1       9.914  -8.121 -13.799  0.00  0.00     0.032 H 
ATOM     30  H25 8ZA d   1      10.904  -6.998 -14.791  0.00  0.00     0.032 H 
BRANCH  28  31
ATOM     31  C1  8ZA d   1       9.926  -6.076 -13.098  0.00  0.00    -0.076 C 
ATOM     32  H21 8ZA d   1       9.031  -5.795 -13.673  0.00  0.00     0.027 H 
ATOM     33  H22 8ZA d   1      10.623  -5.226 -13.066  0.00  0.00     0.027 H 
ATOM     34  H23 8ZA d   1       9.633  -6.349 -12.073  0.00  0.00     0.027 H 
ENDBRANCH  28  31
ENDBRANCH  25  28
ENDBRANCH  22  25
ENDBRANCH  11  22
ENDBRANCH   1   6
BRANCH   1  35
ATOM     35  C10 8ZA d   1      17.135 -10.809  -9.637  0.00  0.00     0.023 C 
ATOM     36  H13 8ZA d   1      17.575 -10.202 -10.442  0.00  0.00     0.071 H 
ATOM     37  H14 8ZA d   1      17.843 -10.873  -8.797  0.00  0.00     0.071 H 
BRANCH  35  38
ATOM     38  C11 8ZA d   1      16.779 -12.224 -10.156  0.00  0.00    -0.040 A 
ATOM     39  C12 8ZA d   1      17.184 -12.633 -11.424  0.00  0.00    -0.075 A 
ATOM     40  C13 8ZA d   1      16.854 -13.924 -11.912  0.00  0.00    -0.082 A 
ATOM     41  H15 8ZA d   1      17.759 -11.957 -12.046  0.00  0.00     0.084 H 
ATOM     42  C14 8ZA d   1      16.111 -14.813 -11.134  0.00  0.00    -0.083 A 
ATOM     43  H16 8ZA d   1      17.183 -14.223 -12.901  0.00  0.00     0.083 H 
ATOM     44  C15 8ZA d   1      15.672 -14.431  -9.866  0.00  0.00    -0.082 A 
ATOM     45  H3  8ZA d   1      15.875 -15.800 -11.515  0.00  0.00     0.083 H 
ATOM     46  C16 8ZA d   1      16.007 -13.124  -9.396  0.00  0.00    -0.075 A 
ATOM     47  H26 8ZA d   1      15.091 -15.110  -9.252  0.00  0.00     0.083 H 
ATOM     48  H27 8ZA d   1      15.654 -12.814  -8.419  0.00  0.00     0.084 H 
ENDBRANCH  35  38
ENDBRANCH   1  35
BRANCH   2  49
ATOM     49  C18 8ZA d   1      16.421 -10.547  -5.568  0.00  0.00     0.038 A 
ATOM     50  C23 8ZA d   1      15.268 -11.157  -5.083  0.00  0.00    -0.034 A 
ATOM     51  C22 8ZA d   1      15.140 -11.300  -3.715  0.00  0.00     0.058 A 
ATOM     52  H28 8ZA d   1      14.495 -11.509  -5.757  0.00  0.00     0.089 H 
ATOM     53 CL2  8ZA d   1      13.730 -12.054  -3.054  0.00  0.00    -0.082 Cl
ATOM     54  C21 8ZA d   1      16.132 -10.894  -2.850  0.00  0.00     0.055 A 
ATOM     55 CL1  8ZA d   1      15.874 -11.134  -1.151  0.00  0.00    -0.083 Cl
ATOM     56  C20 8ZA d   1      17.305 -10.314  -3.375  0.00  0.00    -0.058 A 
ATOM     57  C19 8ZA d   1      17.468 -10.127  -4.746  0.00  0.00    -0.055 A 
ATOM     58  H29 8ZA d   1      18.095 -10.008  -2.699  0.00  0.00     0.086 H 
ATOM     59  H30 8ZA d   1      18.365  -9.677  -5.155  0.00  0.00     0.087 H 
ENDBRANCH   2  49
TORSDOF 8
