REMARK  13 active torsions:
REMARK  status: ('A' for Active; 'I' for Inactive)
REMARK    1  A    between atoms: CBH_2  and  CBF_5 
REMARK    2  A    between atoms: CBB_10  and  NBA_11 
REMARK       I    between atoms: NBA_11  and  CAY_12 
REMARK       I    between atoms: CAY_12  and  NAL_14 
REMARK    3  A    between atoms: NAL_14  and  CAI_15 
REMARK    4  A    between atoms: NAL_14  and  CAM_26 
REMARK    5  A    between atoms: NAF_20  and  CAD_21 
REMARK    6  A    between atoms: CAD_21  and  CAE_22 
REMARK    7  A    between atoms: CAD_21  and  CAC_23 
REMARK    8  A    between atoms: CAC_23  and  CAB_24 
REMARK    9  A    between atoms: CAB_24  and  CAA_25 
REMARK   10  A    between atoms: CAM_26  and  CAN_27 
REMARK   11  A    between atoms: CAS_32  and  NAT_33 
REMARK       I    between atoms: NAT_33  and  CAU_34 
REMARK   12  A    between atoms: CAU_34  and  CAW_36 
REMARK   13  A    between atoms: CAW_36  and  CAX_37 
ROOT
ATOM      1  NBA 8ZD d   1      -0.432   8.990  -6.942  0.00  0.00    -0.309 N 
ATOM      2  CAY 8ZD d   1       0.607   8.714  -7.854  0.00  0.00     0.323 C 
ATOM      3  OAZ 8ZD d   1       1.722   8.447  -7.497  0.00  0.00    -0.247 OA
ATOM      4  NAL 8ZD d   1       0.238   8.726  -9.260  0.00  0.00    -0.325 N 
ATOM      5  H5  8ZD d   1      -1.362   9.103  -7.293  0.00  0.00     0.170 HD
ENDROOT
BRANCH   4   6
ATOM      6  CAI 8ZD d   1       1.324   8.280 -10.292  0.00  0.00     0.019 C 
ATOM      7  CAJ 8ZD d   1       1.510   9.101 -11.376  0.00  0.00    -0.023 C 
ATOM      8  CAK 8ZD d   1       2.533   8.386 -12.271  0.00  0.00     0.086 C 
ATOM      9  H7  8ZD d   1       1.899  10.078 -11.054  0.00  0.00     0.038 H 
ATOM     10  H8  8ZD d   1       0.562   9.244 -11.916  0.00  0.00     0.038 H 
ATOM     11  NAF 8ZD d   1       1.962   7.217 -12.834  0.00  0.00    -0.067 N 
ATOM     12  H9  8ZD d   1       3.410   8.107 -11.669  0.00  0.00     0.076 H 
ATOM     13  H10 8ZD d   1       2.844   9.064 -13.080  0.00  0.00     0.076 H 
ATOM     14  CAG 8ZD d   1       1.574   6.296 -11.836  0.00  0.00     0.086 C 
ATOM     15  H15 8ZD d   1       1.122   7.485 -13.323  0.00  0.00     0.280 HD
ATOM     16  CAH 8ZD d   1       0.850   6.945 -10.673  0.00  0.00    -0.023 C 
ATOM     17  H13 8ZD d   1       0.906   5.549 -12.290  0.00  0.00     0.076 H 
ATOM     18  H14 8ZD d   1       2.476   5.797 -11.452  0.00  0.00     0.076 H 
ATOM     19  H11 8ZD d   1      -0.213   7.028 -10.941  0.00  0.00     0.038 H 
ATOM     20  H12 8ZD d   1       0.957   6.286  -9.799  0.00  0.00     0.038 H 
ATOM     21  H6  8ZD d   1       2.294   8.199  -9.779  0.00  0.00     0.073 H 
BRANCH  11  22
ATOM     22  CAD 8ZD d   1       2.800   6.739 -13.727  0.00  0.00     0.100 C 
ATOM     23  H16 8ZD d   1       3.178   7.593 -14.308  0.00  0.00     0.084 H 
BRANCH  22  24
ATOM     24  CAE 8ZD d   1       2.148   5.745 -14.754  0.00  0.00    -0.049 C 
ATOM     25  H17 8ZD d   1       2.914   5.394 -15.461  0.00  0.00     0.030 H 
ATOM     26  H18 8ZD d   1       1.348   6.260 -15.306  0.00  0.00     0.030 H 
ATOM     27  H19 8ZD d   1       1.726   4.885 -14.214  0.00  0.00     0.030 H 
ENDBRANCH  22  24
BRANCH  22  28
ATOM     28  CAC 8ZD d   1       4.019   6.084 -12.994  0.00  0.00    -0.039 C 
ATOM     29  H20 8ZD d   1       3.648   5.244 -12.388  0.00  0.00     0.035 H 
ATOM     30  H21 8ZD d   1       4.474   6.839 -12.336  0.00  0.00     0.035 H 
BRANCH  28  31
ATOM     31  CAB 8ZD d   1       5.129   5.541 -13.966  0.00  0.00    -0.067 C 
ATOM     32  H22 8ZD d   1       6.022   6.180 -13.904  0.00  0.00     0.032 H 
ATOM     33  H23 8ZD d   1       4.750   5.539 -14.999  0.00  0.00     0.032 H 
BRANCH  31  34
ATOM     34  CAA 8ZD d   1       5.480   4.136 -13.551  0.00  0.00    -0.076 C 
ATOM     35  H24 8ZD d   1       6.257   3.739 -14.221  0.00  0.00     0.027 H 
ATOM     36  H25 8ZD d   1       4.584   3.501 -13.612  0.00  0.00     0.027 H 
ATOM     37  H26 8ZD d   1       5.856   4.142 -12.517  0.00  0.00     0.027 H 
ENDBRANCH  31  34
ENDBRANCH  28  31
ENDBRANCH  22  28
ENDBRANCH  11  22
ENDBRANCH   4   6
BRANCH   4  38
ATOM     38  CAM 8ZD d   1      -1.108   9.097  -9.603  0.00  0.00     0.025 C 
ATOM     39  H27 8ZD d   1      -1.760   8.964  -8.727  0.00  0.00     0.071 H 
ATOM     40  H28 8ZD d   1      -1.465   8.461 -10.426  0.00  0.00     0.071 H 
BRANCH  38  41
ATOM     41  CAN 8ZD d   1      -1.137  10.639 -10.064  0.00  0.00    -0.013 A 
ATOM     42  CAO 8ZD d   1      -0.035  11.429  -9.983  0.00  0.00    -0.073 A 
ATOM     43  CAP 8ZD d   1      -0.089  12.792 -10.421  0.00  0.00    -0.082 A 
ATOM     44  H29 8ZD d   1       0.889  11.026  -9.585  0.00  0.00     0.084 H 
ATOM     45  CAQ 8ZD d   1      -1.219  13.312 -10.892  0.00  0.00    -0.081 A 
ATOM     46  H30 8ZD d   1       0.802  13.407 -10.368  0.00  0.00     0.083 H 
ATOM     47  CAR 8ZD d   1      -2.373  12.510 -10.962  0.00  0.00    -0.057 A 
ATOM     48  H31 8ZD d   1      -1.251  14.345 -11.219  0.00  0.00     0.083 H 
ATOM     49  CAS 8ZD d   1      -2.305  11.190 -10.567  0.00  0.00     0.042 A 
ATOM     50  H32 8ZD d   1      -3.307  12.925 -11.323  0.00  0.00     0.086 H 
BRANCH  49  51
ATOM     51  NAT 8ZD d   1      -3.479  10.317 -10.591  0.00  0.00    -0.327 N 
ATOM     52  CAU 8ZD d   1      -3.653   9.368 -11.634  0.00  0.00     0.221 C 
ATOM     53  OAV 8ZD d   1      -2.816   9.311 -12.548  0.00  0.00    -0.273 OA
ATOM     54  H33 8ZD d   1      -4.165  10.389  -9.867  0.00  0.00     0.169 HD
BRANCH  52  55
ATOM     55  CAW 8ZD d   1      -4.773   8.464 -11.527  0.00  0.00     0.006 C 
ATOM     56  H34 8ZD d   1      -5.184   8.283 -12.531  0.00  0.00     0.046 H 
ATOM     57  H35 8ZD d   1      -5.545   8.924 -10.892  0.00  0.00     0.046 H 
BRANCH  55  58
ATOM     58  CAX 8ZD d   1      -4.374   7.187 -10.940  0.00  0.00    -0.068 C 
ATOM     59  H36 8ZD d   1      -5.250   6.524 -10.874  0.00  0.00     0.028 H 
ATOM     60  H37 8ZD d   1      -3.966   7.358  -9.933  0.00  0.00     0.028 H 
ATOM     61  H38 8ZD d   1      -3.606   6.717 -11.572  0.00  0.00     0.028 H 
ENDBRANCH  55  58
ENDBRANCH  52  55
ENDBRANCH  49  51
ENDBRANCH  38  41
ENDBRANCH   4  38
BRANCH   1  62
ATOM     62  CBB 8ZD d   1      -0.204   9.117  -5.510  0.00  0.00     0.037 A 
ATOM     63  CBG 8ZD d   1       0.925   9.834  -5.004  0.00  0.00    -0.043 A 
ATOM     64  CBF 8ZD d   1       1.076   9.965  -3.664  0.00  0.00     0.050 A 
ATOM     65  H1  8ZD d   1       1.650  10.267  -5.683  0.00  0.00     0.088 H 
ATOM     66  CBE 8ZD d   1       0.102   9.429  -2.781  0.00  0.00    -0.068 A 
ATOM     67  CBD 8ZD d   1      -0.981   8.776  -3.278  0.00  0.00    -0.080 A 
ATOM     68  H2  8ZD d   1       0.222   9.541  -1.710  0.00  0.00     0.084 H 
ATOM     69  CBC 8ZD d   1      -1.142   8.633  -4.674  0.00  0.00    -0.057 A 
ATOM     70  H3  8ZD d   1      -1.722   8.364  -2.603  0.00  0.00     0.083 H 
ATOM     71  H4  8ZD d   1      -2.019   8.135  -5.071  0.00  0.00     0.086 H 
BRANCH  64  72
ATOM     72  CBH 8ZD d   1       2.262  10.722  -3.158  0.00  0.00     0.417 C 
ATOM     73  FBI 8ZD d   1       3.421  10.183  -3.605  0.00  0.00    -0.166 F 
ATOM     74  FBJ 8ZD d   1       2.128  12.007  -3.604  0.00  0.00    -0.166 F 
ATOM     75  FBK 8ZD d   1       2.324  10.820  -1.880  0.00  0.00    -0.166 F 
ENDBRANCH  64  72
ENDBRANCH   1  62
TORSDOF 13
