REMARK  1 active torsions:
REMARK  status: ('A' for Active; 'I' for Inactive)
REMARK    1  A    between atoms: C4_1  and  C7_2 
ROOT
ATOM      1  C7  8ZM d   1      44.263   3.828 -20.137  0.00  0.00     0.090 A 
ATOM      2  C9  8ZM d   1      43.817   1.541 -20.935  0.00  0.00     0.223 A 
ATOM      3  C8  8ZM d   1      43.827   2.918 -21.166  0.00  0.00     0.001 A 
ATOM      4  N10 8ZM d   1      44.227   1.109 -19.620  0.00  0.00    -0.015 N 
ATOM      5  C11 8ZM d   1      44.613   2.040 -18.681  0.00  0.00     0.749 A 
ATOM      6  N12 8ZM d   1      44.635   3.368 -18.944  0.00  0.00    -0.060 NA
ATOM      7  N13 8ZM d   1      44.927   1.396 -17.567  0.00  0.00    -0.085 N 
ATOM      8  N14 8ZM d   1      44.730   0.075 -17.835  0.00  0.00    -0.034 NA
ATOM      9  N15 8ZM d   1      44.316  -0.127 -19.050  0.00  0.00    -0.025 NA
ATOM     10  O16 8ZM d   1      43.481   0.571 -21.801  0.00  0.00    -0.169 OA
ATOM     11  H2  8ZM d   1      43.503   3.307 -22.130  0.00  0.00     0.094 H 
ATOM     12  H7  8ZM d   1      45.253   1.809 -16.681  0.00  0.00     0.210 HD
ENDROOT
BRANCH   1  13
ATOM     13  C4  8ZM d   1      44.348   5.290 -20.343  0.00  0.00    -0.007 A 
ATOM     14  C3  8ZM d   1      44.736   6.133 -19.298  0.00  0.00    -0.071 A 
ATOM     15  C2  8ZM d   1      44.820   7.502 -19.491  0.00  0.00    -0.082 A 
ATOM     16  H5  8ZM d   1      44.973   5.712 -18.328  0.00  0.00     0.084 H 
ATOM     17  C1  8ZM d   1      44.527   8.054 -20.723  0.00  0.00    -0.083 A 
ATOM     18  H4  8ZM d   1      45.117   8.144 -18.670  0.00  0.00     0.083 H 
ATOM     19  C6  8ZM d   1      44.146   7.235 -21.769  0.00  0.00    -0.082 A 
ATOM     20  H3  8ZM d   1      44.596   9.126 -20.869  0.00  0.00     0.083 H 
ATOM     21  C5  8ZM d   1      44.059   5.863 -21.589  0.00  0.00    -0.071 A 
ATOM     22  H1  8ZM d   1      43.914   7.668 -22.735  0.00  0.00     0.083 H 
ATOM     23  H6  8ZM d   1      43.765   5.229 -22.418  0.00  0.00     0.084 H 
ENDBRANCH   1  13
TORSDOF 1
