REMARK  4 active torsions:
REMARK  status: ('A' for Active; 'I' for Inactive)
REMARK    1  A    between atoms: C14_2  and  C16_3 
REMARK       I    between atoms: C14_2  and  N13_5 
REMARK    2  A    between atoms: C16_3  and  S17_4 
REMARK    3  A    between atoms: N13_5  and  C10_6 
REMARK    4  A    between atoms: C8_10  and  C3_11 
ROOT
ATOM      1  C10 90G d   1       3.976 -43.495 -22.793  0.00  0.00     0.126 A 
ATOM      2  C9  90G d   1       4.264 -44.220 -21.656  0.00  0.00    -0.009 A 
ATOM      3  N11 90G d   1       3.011 -44.065 -23.519  0.00  0.00    -0.262 N 
ATOM      4  N12 90G d   1       2.630 -45.218 -22.817  0.00  0.00    -0.173 NA
ATOM      5  C8  90G d   1       3.397 -45.306 -21.701  0.00  0.00     0.090 A 
ATOM      6  H5  90G d   1       5.006 -43.992 -20.892  0.00  0.00     0.093 H 
ATOM      7  H6  90G d   1       2.625 -43.727 -24.412  0.00  0.00     0.191 HD
ENDROOT
BRANCH   5   8
ATOM      8  C3  90G d   1       3.313 -46.377 -20.675  0.00  0.00    -0.005 A 
ATOM      9  C2  90G d   1       3.287 -46.041 -19.326  0.00  0.00    -0.069 A 
ATOM     10  C1  90G d   1       3.217 -47.042 -18.364  0.00  0.00    -0.061 A 
ATOM     11  H7  90G d   1       3.321 -45.000 -19.025  0.00  0.00     0.085 H 
ATOM     12  C6  90G d   1       3.182 -48.380 -18.753  0.00  0.00     0.034 A 
ATOM     13  H10 90G d   1       3.190 -46.782 -17.312  0.00  0.00     0.086 H 
ATOM     14  C5  90G d   1       3.221 -48.712 -20.107  0.00  0.00    -0.061 A 
ATOM     15 CL0  90G d   1       3.094 -49.671 -17.500  0.00  0.00    -0.084 Cl
ATOM     16  C4  90G d   1       3.294 -47.709 -21.067  0.00  0.00    -0.069 A 
ATOM     17  H9  90G d   1       3.194 -49.752 -20.411  0.00  0.00     0.086 H 
ATOM     18  H8  90G d   1       3.336 -47.966 -22.119  0.00  0.00     0.085 H 
ENDBRANCH   5   8
BRANCH   1  19
ATOM     19  N13 90G d   1       4.475 -42.371 -23.323  0.00  0.00    -0.311 N 
ATOM     20  C14 90G d   1       4.784 -41.344 -22.552  0.00  0.00     0.232 C 
ATOM     21  O15 90G d   1       4.797 -41.384 -21.327  0.00  0.00    -0.272 OA
ATOM     22  H4  90G d   1       4.615 -42.309 -24.311  0.00  0.00     0.170 HD
BRANCH  20  23
ATOM     23  C16 90G d   1       5.109 -40.087 -23.320  0.00  0.00     0.048 C 
ATOM     24  H1  90G d   1       5.390 -40.347 -24.351  0.00  0.00     0.062 H 
ATOM     25  H2  90G d   1       5.945 -39.563 -22.833  0.00  0.00     0.062 H 
BRANCH  23  26
ATOM     26  S17 90G d   1       3.654 -39.015 -23.342  0.00  0.00    -0.173 SA
ATOM     27  H3  90G d   1       2.889 -39.497 -23.788  0.00  0.00     0.102 HD
ENDBRANCH  23  26
ENDBRANCH  20  23
ENDBRANCH   1  19
TORSDOF 4
