REMARK  5 active torsions:
REMARK  status: ('A' for Active; 'I' for Inactive)
REMARK    1  A    between atoms: C5_1  and  O7_9 
REMARK    2  A    between atoms: C18_17  and  C20_5 
REMARK    3  A    between atoms: C2_7  and  C1_6 
REMARK    4  A    between atoms: C3_8  and  C2_7 
REMARK    5  A    between atoms: N11_12  and  C12_13 
ROOT
ATOM      1  C13 97A d   1      28.035   3.441   3.863  0.00  0.00    -0.056 A 
ATOM      2  C15 97A d   1      26.087   4.826   4.200  0.00  0.00     0.059 A 
ATOM      3  C12 97A d   1      27.267   2.298   4.074  0.00  0.00     0.038 A 
ATOM      4  C14 97A d   1      27.457   4.690   3.933  0.00  0.00    -0.060 A 
ATOM      5  C16 97A d   1      25.537   6.149   4.257  0.00  0.00     0.100 C 
ATOM      6  N17 97A d   1      25.114   7.205   4.299  0.00  0.00    -0.191 NA
ATOM      7  C18 97A d   1      25.306   3.677   4.406  0.00  0.00     0.070 A 
ATOM      8  C19 97A d   1      25.906   2.432   4.339  0.00  0.00    -0.041 A 
ATOM      9  H4  97A d   1      29.092   3.347   3.643  0.00  0.00     0.087 H 
ATOM     10  H12 97A d   1      28.066   5.574   3.781  0.00  0.00     0.086 H 
ATOM     11  H13 97A d   1      25.305   1.544   4.496  0.00  0.00     0.088 H 
ENDROOT
BRANCH   7  12
ATOM     12  C20 97A d   1      23.828   3.734   4.717  0.00  0.00     0.419 C 
ATOM     13  F21 97A d   1      23.200   2.633   4.151  0.00  0.00    -0.166 F 
ATOM     14  F22 97A d   1      23.640   3.682   6.097  0.00  0.00    -0.166 F 
ATOM     15  F23 97A d   1      23.218   4.885   4.229  0.00  0.00    -0.166 F 
ENDBRANCH   7  12
BRANCH   3  16
ATOM     16  N11 97A d   1      27.863   1.029   3.969  0.00  0.00    -0.311 N 
ATOM     17  C3  97A d   1      29.307   0.743   4.064  0.00  0.00     0.045 C 
ATOM     18  C5  97A d   1      29.474  -0.564   3.251  0.00  0.00     0.063 C 
ATOM     19  H10 97A d   1      29.893   1.561   3.620  0.00  0.00     0.077 H 
ATOM     20  C8  97A d   1      28.142  -1.274   3.587  0.00  0.00     0.035 C 
ATOM     21  H1  97A d   1      29.569  -0.355   2.175  0.00  0.00     0.086 H 
ATOM     22  C9  97A d   1      27.187  -0.107   3.677  0.00  0.00     0.227 C 
ATOM     23  H2  97A d   1      28.206  -1.815   4.543  0.00  0.00     0.051 H 
ATOM     24  H3  97A d   1      27.848  -1.972   2.790  0.00  0.00     0.051 H 
ATOM     25  O10 97A d   1      25.990  -0.204   3.519  0.00  0.00    -0.273 OA
BRANCH  17  26
ATOM     26  C2  97A d   1      29.760   0.522   5.512  0.00  0.00    -0.047 C 
ATOM     27  H8  97A d   1      29.328  -0.417   5.889  0.00  0.00     0.035 H 
ATOM     28  H9  97A d   1      30.858   0.460   5.544  0.00  0.00     0.035 H 
BRANCH  26  29
ATOM     29  C1  97A d   1      29.293   1.683   6.391  0.00  0.00    -0.075 C 
ATOM     30  H5  97A d   1      29.623   1.514   7.427  0.00  0.00     0.027 H 
ATOM     31  H6  97A d   1      28.195   1.747   6.362  0.00  0.00     0.027 H 
ATOM     32  H7  97A d   1      29.725   2.623   6.017  0.00  0.00     0.027 H 
ENDBRANCH  26  29
ENDBRANCH  17  26
BRANCH  18  33
ATOM     33  O7  97A d   1      30.579  -1.363   3.678  0.00  0.00    -0.393 OA
ATOM     34  H11 97A d   1      31.383  -0.865   3.586  0.00  0.00     0.210 HD
ENDBRANCH  18  33
ENDBRANCH   3  16
TORSDOF 5
