REMARK  17 active torsions:
REMARK  status: ('A' for Active; 'I' for Inactive)
REMARK    1  A    between atoms: C01_1  and  C02_2 
REMARK    2  A    between atoms: C02_2  and  C03_3 
REMARK    3  A    between atoms: C07_7  and  C09_9 
REMARK    4  A    between atoms: C15_15  and  C16_16 
REMARK    5  A    between atoms: C16_16  and  O17_17 
REMARK    6  A    between atoms: C16_16  and  C18_18 
REMARK    7  A    between atoms: C16_16  and  C26_26 
REMARK    8  A    between atoms: C18_18  and  C19_19 
REMARK    9  A    between atoms: C19_19  and  C20_20 
REMARK   10  A    between atoms: C20_20  and  N21_21 
REMARK       I    between atoms: N21_21  and  C22_22 
REMARK   11  A    between atoms: C22_22  and  O24_24 
REMARK   12  A    between atoms: O24_24  and  C25_25 
REMARK       I    between atoms: N31_30  and  C33_32 
REMARK   13  A    between atoms: C33_32  and  C35_34 
REMARK   14  A    between atoms: C35_34  and  C36_35 
REMARK   15  A    between atoms: C36_35  and  C37_36 
REMARK   16  A    between atoms: C37_36  and  N38_37 
REMARK   17  A    between atoms: N38_37  and  C39_38 
ROOT
ATOM      1  C16 90D d   1      26.101  39.557  19.419  0.00  0.00     0.091 C 
ENDROOT
BRANCH   1   2
ATOM      2  C15 90D d   1      25.291  38.296  19.025  0.00  0.00    -0.009 A 
ATOM      3  C09 90D d   1      25.624  37.006  19.524  0.00  0.00     0.022 A 
ATOM      4  C10 90D d   1      24.839  35.937  19.110  0.00  0.00     0.128 A 
ATOM      5  F11 90D d   1      25.157  34.707  19.574  0.00  0.00    -0.205 F 
ATOM      6  C12 90D d   1      23.766  36.059  18.271  0.00  0.00    -0.045 A 
ATOM      7  C13 90D d   1      23.446  37.318  17.797  0.00  0.00    -0.079 A 
ATOM      8  H10 90D d   1      23.182  35.192  17.985  0.00  0.00     0.088 H 
ATOM      9  C14 90D d   1      24.196  38.424  18.170  0.00  0.00    -0.073 A 
ATOM     10  H11 90D d   1      22.602  37.442  17.128  0.00  0.00     0.083 H 
ATOM     11  H12 90D d   1      23.927  39.403  17.791  0.00  0.00     0.084 H 
BRANCH   3  12
ATOM     12  C07 90D d   1      26.779  36.734  20.438  0.00  0.00    -0.022 A 
ATOM     13  C06 90D d   1      27.960  36.174  19.952  0.00  0.00    -0.072 A 
ATOM     14  C05 90D d   1      29.026  35.939  20.800  0.00  0.00    -0.082 A 
ATOM     15  H8  90D d   1      28.043  35.921  18.901  0.00  0.00     0.084 H 
ATOM     16  C04 90D d   1      28.930  36.255  22.144  0.00  0.00    -0.077 A 
ATOM     17  H7  90D d   1      29.940  35.506  20.411  0.00  0.00     0.083 H 
ATOM     18  C03 90D d   1      27.769  36.815  22.660  0.00  0.00    -0.058 A 
ATOM     19  H6  90D d   1      29.770  36.063  22.801  0.00  0.00     0.084 H 
ATOM     20  C08 90D d   1      26.703  37.039  21.797  0.00  0.00    -0.066 A 
ATOM     21  H9  90D d   1      25.786  37.463  22.191  0.00  0.00     0.085 H 
BRANCH  18  22
ATOM     22  C02 90D d   1      27.655  37.160  24.148  0.00  0.00    -0.044 C 
ATOM     23  H4  90D d   1      26.920  36.480  24.603  0.00  0.00     0.039 H 
ATOM     24  H5  90D d   1      28.639  37.001  24.614  0.00  0.00     0.039 H 
BRANCH  22  25
ATOM     25  C01 90D d   1      27.224  38.576  24.430  0.00  0.00    -0.073 C 
ATOM     26  H1  90D d   1      27.169  38.733  25.517  0.00  0.00     0.028 H 
ATOM     27  H2  90D d   1      26.234  38.754  23.984  0.00  0.00     0.028 H 
ATOM     28  H3  90D d   1      27.953  39.275  23.995  0.00  0.00     0.028 H 
ENDBRANCH  22  25
ENDBRANCH  18  22
ENDBRANCH   3  12
ENDBRANCH   1   2
BRANCH   1  29
ATOM     29  O17 90D d   1      25.583  40.674  18.691  0.00  0.00    -0.384 OA
ATOM     30  H13 90D d   1      26.071  41.456  18.923  0.00  0.00     0.211 HD
ENDBRANCH   1  29
BRANCH   1  31
ATOM     31  C18 90D d   1      27.605  39.445  19.108  0.00  0.00    -0.030 C 
ATOM     32  H14 90D d   1      27.878  38.380  19.141  0.00  0.00     0.038 H 
ATOM     33  H15 90D d   1      28.153  39.989  19.891  0.00  0.00     0.038 H 
BRANCH  31  34
ATOM     34  C19 90D d   1      28.042  39.994  17.770  0.00  0.00    -0.047 C 
ATOM     35  H16 90D d   1      28.883  40.683  17.936  0.00  0.00     0.035 H 
ATOM     36  H17 90D d   1      27.198  40.544  17.329  0.00  0.00     0.035 H 
BRANCH  34  37
ATOM     37  C20 90D d   1      28.484  38.929  16.787  0.00  0.00    -0.003 C 
ATOM     38  H18 90D d   1      27.968  39.096  15.830  0.00  0.00     0.064 H 
ATOM     39  H19 90D d   1      28.206  37.943  17.187  0.00  0.00     0.064 H 
BRANCH  37  40
ATOM     40  N21 90D d   1      29.936  38.951  16.550  0.00  0.00    -0.337 N 
ATOM     41  C22 90D d   1      30.458  39.379  15.388  0.00  0.00     0.360 C 
ATOM     42  O23 90D d   1      30.580  40.544  15.077  0.00  0.00    -0.239 OA
ATOM     43  H20 90D d   1      30.552  38.639  17.274  0.00  0.00     0.164 HD
BRANCH  41  44
ATOM     44  O24 90D d   1      30.830  38.347  14.616  0.00  0.00    -0.309 OA
BRANCH  44  45
ATOM     45  C25 90D d   1      31.469  38.701  13.362  0.00  0.00     0.015 C 
ATOM     46  H21 90D d   1      31.731  37.785  12.812  0.00  0.00     0.067 H 
ATOM     47  H22 90D d   1      32.382  39.279  13.566  0.00  0.00     0.067 H 
ATOM     48  H23 90D d   1      30.779  39.307  12.757  0.00  0.00     0.067 H 
ENDBRANCH  44  45
ENDBRANCH  41  44
ENDBRANCH  37  40
ENDBRANCH  34  37
ENDBRANCH  31  34
ENDBRANCH   1  31
BRANCH   1  49
ATOM     49  C26 90D d   1      25.690  40.030  20.888  0.00  0.00    -0.004 C 
ATOM     50  C28 90D d   1      24.192  40.085  21.233  0.00  0.00    -0.056 C 
ATOM     51  C29 90D d   1      23.964  40.540  22.676  0.00  0.00    -0.050 C 
ATOM     52  H25 90D d   1      23.758  39.083  21.102  0.00  0.00     0.033 H 
ATOM     53  H26 90D d   1      23.695  40.792  20.553  0.00  0.00     0.033 H 
ATOM     54  C30 90D d   1      24.700  41.836  22.954  0.00  0.00    -0.002 C 
ATOM     55  H27 90D d   1      24.331  39.762  23.362  0.00  0.00     0.035 H 
ATOM     56  H28 90D d   1      22.887  40.694  22.840  0.00  0.00     0.035 H 
ATOM     57  N31 90D d   1      26.125  41.723  22.567  0.00  0.00    -0.352 N 
ATOM     58  H29 90D d   1      24.635  42.065  24.028  0.00  0.00     0.064 H 
ATOM     59  H30 90D d   1      24.233  42.648  22.377  0.00  0.00     0.064 H 
ATOM     60  C32 90D d   1      26.309  41.340  21.168  0.00  0.00     0.004 C 
ATOM     61  C33 90D d   1      27.172  41.929  23.396  0.00  0.00     0.219 C 
ATOM     62  H31 90D d   1      25.845  42.101  20.524  0.00  0.00     0.065 H 
ATOM     63  H32 90D d   1      27.386  41.282  20.950  0.00  0.00     0.065 H 
ATOM     64  O34 90D d   1      28.329  41.815  23.018  0.00  0.00    -0.273 OA
ATOM     65  H24 90D d   1      26.133  39.297  21.578  0.00  0.00     0.047 H 
BRANCH  61  66
ATOM     66  C35 90D d   1      26.867  42.314  24.828  0.00  0.00     0.011 C 
ATOM     67  H33 90D d   1      26.246  41.527  25.281  0.00  0.00     0.047 H 
ATOM     68  H34 90D d   1      26.313  43.264  24.828  0.00  0.00     0.047 H 
BRANCH  66  69
ATOM     69  C36 90D d   1      28.128  42.483  25.663  0.00  0.00    -0.035 C 
ATOM     70  H35 90D d   1      28.926  42.877  25.017  0.00  0.00     0.036 H 
ATOM     71  H36 90D d   1      28.425  41.498  26.053  0.00  0.00     0.036 H 
BRANCH  69  72
ATOM     72  C37 90D d   1      27.942  43.430  26.834  0.00  0.00     0.082 C 
ATOM     73  H37 90D d   1      26.925  43.847  26.794  0.00  0.00     0.075 H 
ATOM     74  H38 90D d   1      28.676  44.245  26.750  0.00  0.00     0.075 H 
BRANCH  72  75
ATOM     75  N38 90D d   1      28.126  42.762  28.124  0.00  0.00    -0.079 N 
ATOM     76  H39 90D d   1      29.013  42.283  28.125  0.00  0.00     0.276 HD
ATOM     77  H40 90D d   1      27.383  42.094  28.259  0.00  0.00     0.276 HD
BRANCH  75  78
ATOM     78  C39 90D d   1      28.104  43.733  29.220  0.00  0.00     0.065 C 
ATOM     79  H41 90D d   1      28.244  43.209  30.177  0.00  0.00     0.067 H 
ATOM     80  H42 90D d   1      27.137  44.257  29.227  0.00  0.00     0.067 H 
ATOM     81  H43 90D d   1      28.915  44.463  29.080  0.00  0.00     0.067 H 
ENDBRANCH  75  78
ENDBRANCH  72  75
ENDBRANCH  69  72
ENDBRANCH  66  69
ENDBRANCH  61  66
ENDBRANCH   1  49
TORSDOF 17
