REMARK  5 active torsions:
REMARK  status: ('A' for Active; 'I' for Inactive)
REMARK    1  A    between atoms: C4_1  and  C2_13 
REMARK    2  A    between atoms: C10_5  and  C6_4 
REMARK       I    between atoms: N12_15  and  C10_5 
REMARK    3  A    between atoms: C2_13  and  C3_7 
REMARK    4  A    between atoms: C2_13  and  C1_8 
REMARK    5  A    between atoms: N17_16  and  C15_9 
ROOT
ATOM      1  C14 90S d   1     -50.161  41.622  19.267  0.00  0.00    -0.028 C 
ATOM      2  C10 90S d   1     -50.814  44.429  17.001  0.00  0.00     0.271 C 
ATOM      3  C13 90S d   1     -51.042  42.779  18.786  0.00  0.00    -0.000 C 
ATOM      4  C15 90S d   1     -48.851  42.387  19.472  0.00  0.00     0.051 C 
ATOM      5  C16 90S d   1     -48.810  43.271  18.195  0.00  0.00     0.019 C 
ATOM      6  N12 90S d   1     -50.222  43.595  17.896  0.00  0.00    -0.345 N 
ATOM      7  O11 90S d   1     -52.022  44.425  17.009  0.00  0.00    -0.266 OA
ATOM      8  H1  90S d   1     -50.063  40.834  18.506  0.00  0.00     0.038 H 
ATOM      9  H2  90S d   1     -50.533  41.183  20.204  0.00  0.00     0.038 H 
ATOM     10  H4  90S d   1     -51.381  43.379  19.644  0.00  0.00     0.064 H 
ATOM     11  H5  90S d   1     -51.916  42.389  18.244  0.00  0.00     0.064 H 
ATOM     12  H12 90S d   1     -47.983  41.713  19.506  0.00  0.00     0.078 H 
ATOM     13  H13 90S d   1     -48.357  42.718  17.359  0.00  0.00     0.067 H 
ATOM     14  H14 90S d   1     -48.235  44.190  18.382  0.00  0.00     0.067 H 
ENDROOT
BRANCH   2  15
ATOM     15  C6  90S d   1     -50.230  45.353  16.012  0.00  0.00     0.119 A 
ATOM     16  C5  90S d   1     -49.028  46.046  15.996  0.00  0.00    -0.025 A 
ATOM     17  C4  90S d   1     -49.059  46.803  14.806  0.00  0.00     0.060 A 
ATOM     18  H3  90S d   1     -48.234  46.013  16.740  0.00  0.00     0.090 H 
ATOM     19  N9  90S d   1     -50.189  46.554  14.215  0.00  0.00    -0.179 NA
ATOM     20  N7  90S d   1     -50.895  45.730  14.882  0.00  0.00    -0.273 N 
ATOM     21  H18 90S d   1     -51.831  45.397  14.608  0.00  0.00     0.189 HD
BRANCH  17  22
ATOM     22  C2  90S d   1     -48.031  47.757  14.239  0.00  0.00    -0.017 C 
ATOM     23  H16 90S d   1     -48.508  48.738  14.095  0.00  0.00     0.048 H 
BRANCH  22  24
ATOM     24  C3  90S d   1     -47.493  47.257  12.896  0.00  0.00    -0.068 C 
ATOM     25  H6  90S d   1     -46.750  47.970  12.510  0.00  0.00     0.028 H 
ATOM     26  H7  90S d   1     -48.322  47.168  12.179  0.00  0.00     0.028 H 
ATOM     27  H8  90S d   1     -47.020  46.273  13.034  0.00  0.00     0.028 H 
ENDBRANCH  22  24
BRANCH  22  28
ATOM     28  C1  90S d   1     -46.841  47.912  15.182  0.00  0.00    -0.068 C 
ATOM     29  H9  90S d   1     -47.193  48.271  16.160  0.00  0.00     0.028 H 
ATOM     30  H10 90S d   1     -46.130  48.637  14.759  0.00  0.00     0.028 H 
ATOM     31  H11 90S d   1     -46.342  46.939  15.306  0.00  0.00     0.028 H 
ENDBRANCH  22  28
ENDBRANCH  17  22
ENDBRANCH   2  15
BRANCH   4  32
ATOM     32  N17 90S d   1     -48.932  43.144  20.742  0.00  0.00    -0.274 N 
ATOM     33  C18 90S d   1     -49.118  44.491  20.931  0.00  0.00     0.017 A 
ATOM     34  C19 90S d   1     -49.090  44.774  22.261  0.00  0.00     0.047 A 
ATOM     35  H15 90S d   1     -49.266  45.222  20.137  0.00  0.00     0.116 H 
ATOM     36  C20 90S d   1     -48.887  43.555  22.901  0.00  0.00     0.040 A 
ATOM     37 BR2  90S d   1     -49.317  46.424  23.117  0.00  0.00    -0.048 Br
ATOM     38  N21 90S d   1     -48.795  42.581  22.014  0.00  0.00    -0.183 NA
ATOM     39  H17 90S d   1     -48.814  43.423  23.980  0.00  0.00     0.119 H 
ENDBRANCH   4  32
TORSDOF 5
