REMARK  6 active torsions:
REMARK  status: ('A' for Active; 'I' for Inactive)
REMARK    1  A    between atoms: C4_1  and  C2_12 
REMARK    2  A    between atoms: C10_5  and  C6_4 
REMARK       I    between atoms: N12_16  and  C10_5 
REMARK    3  A    between atoms: C2_12  and  C3_7 
REMARK    4  A    between atoms: C2_12  and  C1_8 
REMARK    5  A    between atoms: N18_17  and  C15_9 
REMARK    6  A    between atoms: C19_11  and  C21_13 
REMARK       I    between atoms: C19_11  and  N18_17 
ROOT
ATOM      1  C14 90V d   1     -48.756  42.888  18.985  0.00  0.00    -0.030 C 
ATOM      2  C10 90V d   1     -51.526  44.703  16.851  0.00  0.00     0.271 C 
ATOM      3  C13 90V d   1     -49.142  44.080  18.002  0.00  0.00    -0.000 C 
ATOM      4  C15 90V d   1     -49.838  42.706  19.706  0.00  0.00     0.029 C 
ATOM      5  C17 90V d   1     -51.150  43.110  18.728  0.00  0.00     0.017 C 
ATOM      6  N12 90V d   1     -50.710  43.981  17.824  0.00  0.00    -0.345 N 
ATOM      7  O11 90V d   1     -52.689  44.503  16.842  0.00  0.00    -0.266 OA
ATOM      8  H1  90V d   1     -47.904  43.167  19.622  0.00  0.00     0.038 H 
ATOM      9  H2  90V d   1     -48.507  41.979  18.418  0.00  0.00     0.038 H 
ATOM     10  H4  90V d   1     -48.636  43.960  17.033  0.00  0.00     0.064 H 
ATOM     11  H5  90V d   1     -48.864  45.049  18.443  0.00  0.00     0.064 H 
ATOM     12  H12 90V d   1     -49.901  41.656  20.026  0.00  0.00     0.075 H 
ATOM     13  H13 90V d   1     -51.947  43.566  19.334  0.00  0.00     0.067 H 
ATOM     14  H14 90V d   1     -51.539  42.211  18.228  0.00  0.00     0.067 H 
ENDROOT
BRANCH   2  15
ATOM     15  C6  90V d   1     -50.874  45.675  15.843  0.00  0.00     0.119 A 
ATOM     16  C5  90V d   1     -49.603  46.252  15.916  0.00  0.00    -0.025 A 
ATOM     17  C4  90V d   1     -49.467  47.034  14.776  0.00  0.00     0.060 A 
ATOM     18  H3  90V d   1     -48.867  46.116  16.707  0.00  0.00     0.090 H 
ATOM     19  N9  90V d   1     -50.575  46.925  14.065  0.00  0.00    -0.179 NA
ATOM     20  N7  90V d   1     -51.441  46.089  14.716  0.00  0.00    -0.273 N 
ATOM     21  H22 90V d   1     -52.380  45.824  14.386  0.00  0.00     0.189 HD
BRANCH  17  22
ATOM     22  C2  90V d   1     -48.265  47.886  14.347  0.00  0.00    -0.017 C 
ATOM     23  H15 90V d   1     -47.493  47.863  15.130  0.00  0.00     0.048 H 
BRANCH  22  24
ATOM     24  C3  90V d   1     -48.704  49.344  14.107  0.00  0.00    -0.068 C 
ATOM     25  H6  90V d   1     -47.834  49.943  13.800  0.00  0.00     0.028 H 
ATOM     26  H7  90V d   1     -49.125  49.758  15.035  0.00  0.00     0.028 H 
ATOM     27  H8  90V d   1     -49.466  49.372  13.314  0.00  0.00     0.028 H 
ENDBRANCH  22  24
BRANCH  22  28
ATOM     28  C1  90V d   1     -47.708  47.277  13.047  0.00  0.00    -0.068 C 
ATOM     29  H9  90V d   1     -47.399  46.238  13.232  0.00  0.00     0.028 H 
ATOM     30  H10 90V d   1     -46.840  47.863  12.710  0.00  0.00     0.028 H 
ATOM     31  H11 90V d   1     -48.487  47.295  12.271  0.00  0.00     0.028 H 
ENDBRANCH  22  28
ENDBRANCH  17  22
ENDBRANCH   2  15
BRANCH   4  32
ATOM     32  N18 90V d   1     -49.865  43.584  20.885  0.00  0.00    -0.354 N 
ATOM     33  C19 90V d   1     -49.458  43.006  22.159  0.00  0.00     0.222 C 
ATOM     34  O20 90V d   1     -49.097  41.889  22.195  0.00  0.00    -0.273 OA
ATOM     35  H21 90V d   1     -50.151  44.540  20.815  0.00  0.00     0.162 HD
BRANCH  33  36
ATOM     36  C21 90V d   1     -49.462  43.797  23.463  0.00  0.00     0.024 A 
ATOM     37  C22 90V d   1     -48.692  43.142  24.612  0.00  0.00    -0.053 A 
ATOM     38  C23 90V d   1     -48.101  44.349  23.885  0.00  0.00    -0.053 A 
ATOM     39  H17 90V d   1     -48.245  42.146  24.477  0.00  0.00     0.034 H 
ATOM     40  H18 90V d   1     -49.053  43.245  25.646  0.00  0.00     0.034 H 
ATOM     41  H19 90V d   1     -48.036  45.321  24.396  0.00  0.00     0.034 H 
ATOM     42  H20 90V d   1     -47.228  44.222  23.228  0.00  0.00     0.034 H 
ATOM     43  H16 90V d   1     -50.399  44.352  23.618  0.00  0.00     0.054 H 
ENDBRANCH  33  36
ENDBRANCH   4  32
TORSDOF 6
