REMARK WARNING: 32 MAX_TORS EXCEEDED!!!
REMARK  40 active torsions:
REMARK  status: ('A' for Active; 'I' for Inactive)
REMARK    1  A    between atoms: CA_5  and  CB_8 
REMARK    2  A    between atoms: CB_8  and  CG_9 
REMARK    3  A    between atoms: CZ_14  and  OH_15 
REMARK    4  A    between atoms: CA_21  and  CB_24 
REMARK    5  A    between atoms: CB_24  and  CG_25 
REMARK    6  A    between atoms: CA_31  and  CB_34 
REMARK    7  A    between atoms: CB_34  and  OG_35 
REMARK    8  A    between atoms: CA_37  and  CB_40 
REMARK    9  A    between atoms: CB_40  and  CG_41 
REMARK   10  A    between atoms: CA_47  and  CB_50 
REMARK   11  A    between atoms: CB_50  and  CG1_51 
REMARK   12  A    between atoms: CB_50  and  CG2_52 
REMARK   13  A    between atoms: CG1_51  and  CD1_53 
REMARK   14  A    between atoms: CA_55  and  CB_58 
REMARK   15  A    between atoms: CB_58  and  CG_59 
REMARK   16  A    between atoms: CG_59  and  CD_60 
REMARK   17  A    between atoms: CD_60  and  NE_61 
REMARK       I    between atoms: NE_61  and  CZ_62 
REMARK       I    between atoms: CZ_62  and  NH1_63 
REMARK   18  A    between atoms: CA_66  and  CB_69 
REMARK   19  A    between atoms: CB_69  and  CG_70 
REMARK   20  A    between atoms: CA_81  and  CB_84 
REMARK   21  A    between atoms: CB_84  and  CG_85 
REMARK   22  A    between atoms: CZ_90  and  OH_91 
REMARK   23  A    between atoms: CA_93  and  CB_96 
REMARK   24  A    between atoms: CB_96  and  OG_97 
REMARK   25  A    between atoms: CA_99  and  CB_102 
REMARK   26  A    between atoms: CB_102  and  CG_103 
REMARK   27  A    between atoms: CZ_108  and  OH_109 
REMARK   28  A    between atoms: CA_111  and  CB_114 
REMARK   29  A    between atoms: CB_114  and  CG_115 
REMARK   30  A    between atoms: CA_121  and  CB_124 
REMARK   31  A    between atoms: CB_124  and  CG1_125 
REMARK   32  A    between atoms: CB_124  and  CG2_126 
REMARK   33  A    between atoms: CA_128  and  CB_131 
REMARK   34  A    between atoms: CB_131  and  OG_132 
REMARK   35  A    between atoms: CA_134  and  CB_137 
REMARK   36  A    between atoms: CB_137  and  CG_138 
REMARK   37  A    between atoms: CZ_143  and  OH_144 
REMARK   38  A    between atoms: CA_146  and  C_147 
REMARK       I    between atoms: C_147  and  N_151 
REMARK   39  A    between atoms: N_151  and  CA_152 
REMARK   40  A    between atoms: CA_152  and  C_153 
REMARK       I    between atoms: C_153  and  N_155 
ROOT
ATOM      1  C   ACE d   1      63.446  35.046  28.880  0.00  0.00     0.227 C 
ATOM      2  O   ACE d   1      63.793  35.811  29.769  0.00  0.00    -0.273 OA
ATOM      3  CH3 ACE d   1      62.853  33.701  29.168  0.00  0.00     0.051 C 
ATOM      4  N   ACE d   1      63.566  35.350  27.590  0.00  0.00    -0.347 N 
ATOM      5  CA  ACE d   1      64.130  36.620  27.177  0.00  0.00     0.093 C 
ATOM      6  C   ACE d   1      63.068  37.667  27.352  0.00  0.00     0.241 C 
ATOM      7  O   ACE d   1      62.179  37.817  26.483  0.00  0.00    -0.271 OA
ATOM      8  N   ACE d   1      63.128  38.378  28.476  0.00  0.00    -0.351 N 
ATOM      9  CA  ACE d   1      62.067  39.279  28.883  0.00  0.00     0.069 C 
ATOM     10  C   ACE d   1      60.883  38.536  29.474  0.00  0.00     0.236 C 
ATOM     11  O   ACE d   1      61.039  37.462  30.057  0.00  0.00    -0.272 OA
ATOM     12  N   ACE d   1      59.692  39.123  29.333  0.00  0.00    -0.346 N 
ATOM     13  CA  ACE d   1      58.453  38.444  29.695  0.00  0.00     0.094 C 
ATOM     14  C   ACE d   1      57.324  38.817  28.739  0.00  0.00     0.241 C 
ATOM     15  O   ACE d   1      56.148  38.625  29.071  0.00  0.00    -0.271 OA
ATOM     16  N   ACE d   1      57.662  39.331  27.557  0.00  0.00    -0.344 N 
ATOM     17  CA  ACE d   1      56.661  39.864  26.643  0.00  0.00     0.109 C 
ATOM     18  C   ACE d   1      55.934  38.756  25.888  0.00  0.00     0.243 C 
ATOM     19  O   ACE d   1      54.700  38.695  25.900  0.00  0.00    -0.271 OA
ATOM     20  N   ACE d   1      56.678  37.870  25.231  0.00  0.00    -0.346 N 
ATOM     21  CA  ACE d   1      56.107  36.834  24.370  0.00  0.00     0.094 C 
ATOM     22  C   ACE d   1      56.349  35.472  25.017  0.00  0.00     0.241 C 
ATOM     23  O   ACE d   1      57.301  34.768  24.677  0.00  0.00    -0.271 OA
ATOM     24  N   ACE d   1      55.475  35.097  25.939  0.00  0.00    -0.346 N 
ATOM     25  CA  ACE d   1      55.573  33.808  26.614  0.00  0.00     0.092 C 
ATOM     26  C   ACE d   1      54.904  32.746  25.755  0.00  0.00     0.241 C 
ATOM     27  O   ACE d   1      53.807  32.953  25.221  0.00  0.00    -0.271 OA
ATOM     28  N   ACE d   1      55.574  31.605  25.614  0.00  0.00    -0.346 N 
ATOM     29  CA  ACE d   1      55.048  30.479  24.861  0.00  0.00     0.089 C 
ATOM     30  C   ACE d   1      55.270  29.211  25.671  0.00  0.00     0.241 C 
ATOM     31  O   ACE d   1      56.246  29.096  26.418  0.00  0.00    -0.271 OA
ATOM     32  N   ACE d   1      54.342  28.266  25.528  0.00  0.00    -0.346 N 
ATOM     33  CA  ACE d   1      54.351  26.994  26.244  0.00  0.00     0.093 C 
ATOM     34  C   ACE d   1      54.082  27.155  27.738  0.00  0.00     0.241 C 
ATOM     35  O   ACE d   1      54.354  26.238  28.522  0.00  0.00    -0.271 OA
ATOM     36  N   ACE d   1      53.549  28.304  28.149  0.00  0.00    -0.351 N 
ATOM     37  CA  ACE d   1      53.147  28.518  29.522  0.00  0.00     0.069 C 
ATOM     38  C   ACE d   1      54.235  29.143  30.378  0.00  0.00     0.236 C 
ATOM     39  O   ACE d   1      55.391  29.302  29.976  0.00  0.00    -0.272 OA
ATOM     40  N   ACE d   1      53.841  29.491  31.605  0.00  0.00    -0.346 N 
ATOM     41  CA  ACE d   1      54.757  30.151  32.530  0.00  0.00     0.093 C 
ATOM     42  C   ACE d   1      55.920  29.239  32.908  0.00  0.00     0.241 C 
ATOM     43  O   ACE d   1      57.088  29.635  32.817  0.00  0.00    -0.271 OA
ATOM     44  N   ACE d   1      55.615  28.013  33.344  0.00  0.00    -0.344 N 
ATOM     45  CA  ACE d   1      56.650  27.125  33.868  0.00  0.00     0.109 C 
ATOM     46  C   ACE d   1      57.750  26.874  32.842  0.00  0.00     0.243 C 
ATOM     47  O   ACE d   1      58.940  26.888  33.180  0.00  0.00    -0.271 OA
ATOM     48  N   ACE d   1      57.370  26.637  31.584  0.00  0.00    -0.346 N 
ATOM     49  CA  ACE d   1      58.361  26.497  30.522  0.00  0.00     0.093 C 
ATOM     50  C   ACE d   1      59.185  27.770  30.372  0.00  0.00     0.241 C 
ATOM     51  O   ACE d   1      60.406  27.710  30.190  0.00  0.00    -0.271 OA
ATOM     52  N   ACE d   1      58.529  28.931  30.432  0.00  0.00    -0.346 N 
ATOM     53  CA  ACE d   1      59.228  30.197  30.242  0.00  0.00     0.094 C 
ATOM     54  C   ACE d   1      60.264  30.418  31.336  0.00  0.00     0.241 C 
ATOM     55  O   ACE d   1      61.404  30.807  31.059  0.00  0.00    -0.271 OA
ATOM     56  N   ACE d   1      59.883  30.165  32.591  0.00  0.00    -0.346 N 
ATOM     57  CA  ACE d   1      60.802  30.350  33.711  0.00  0.00     0.092 C 
ATOM     58  C   ACE d   1      62.040  29.477  33.547  0.00  0.00     0.241 C 
ATOM     59  O   ACE d   1      63.170  29.930  33.767  0.00  0.00    -0.271 OA
ATOM     60  N   ACE d   1      61.852  28.216  33.148  0.00  0.00    -0.344 N 
ATOM     61  CA  ACE d   1      63.008  27.360  32.908  0.00  0.00     0.109 C 
ATOM     62  C   ACE d   1      63.779  27.790  31.666  0.00  0.00     0.243 C 
ATOM     63  O   ACE d   1      64.981  27.525  31.564  0.00  0.00    -0.271 OA
ATOM     64  N   ACE d   1      63.117  28.456  30.716  0.00  0.00    -0.346 N 
ATOM     65  CA  ACE d   1      63.829  28.950  29.542  0.00  0.00     0.093 C 
ATOM     66  C   ACE d   1      64.619  30.211  29.861  0.00  0.00     0.241 C 
ATOM     67  O   ACE d   1      65.749  30.377  29.387  0.00  0.00    -0.271 OA
ATOM     68  N   ACE d   1      64.041  31.107  30.655  0.00  0.00    -0.345 N 
ATOM     69  CA  ACE d   1      64.727  32.323  31.072  0.00  0.00     0.097 C 
ATOM     70  CB  ACE d   1      63.784  33.241  31.851  0.00  0.00     0.004 C 
ATOM     71  SG  ACE d   1      62.397  33.900  30.903  0.00  0.00    -0.157 SA
ATOM     72  H1  ACE d   1      63.590  32.896  29.033  0.00  0.00     0.063 H 
ATOM     73  H2  ACE d   1      61.973  33.503  28.538  0.00  0.00     0.063 H 
ATOM     74  H3  ACE d   1      63.264  34.695  26.898  0.00  0.00     0.163 HD
ATOM     75  H4  ACE d   1      64.964  36.863  27.851  0.00  0.00     0.088 H 
ATOM     76  H12 ACE d   1      63.934  38.288  29.061  0.00  0.00     0.163 HD
ATOM     77  H13 ACE d   1      61.727  39.846  28.004  0.00  0.00     0.078 H 
ATOM     78  H14 ACE d   1      62.462  39.974  29.638  0.00  0.00     0.078 H 
ATOM     79  H15 ACE d   1      59.648  40.053  28.969  0.00  0.00     0.163 HD
ATOM     80  H16 ACE d   1      58.629  37.362  29.601  0.00  0.00     0.088 H 
ATOM     81  H22 ACE d   1      58.626  39.351  27.291  0.00  0.00     0.163 HD
ATOM     82  H23 ACE d   1      55.914  40.414  27.235  0.00  0.00     0.090 H 
ATOM     83  H27 ACE d   1      57.672  37.914  25.330  0.00  0.00     0.163 HD
ATOM     84  H28 ACE d   1      55.023  37.000  24.282  0.00  0.00     0.088 H 
ATOM     85  H34 ACE d   1      54.727  35.715  26.179  0.00  0.00     0.163 HD
ATOM     86  H35 ACE d   1      56.637  33.550  26.724  0.00  0.00     0.088 H 
ATOM     87  H45 ACE d   1      56.474  31.519  26.042  0.00  0.00     0.163 HD
ATOM     88  H46 ACE d   1      53.968  30.625  24.712  0.00  0.00     0.087 H 
ATOM     89  H58 ACE d   1      53.592  28.439  24.890  0.00  0.00     0.163 HD
ATOM     90  H59 ACE d   1      53.512  26.409  25.840  0.00  0.00     0.088 H 
ATOM     91  H67 ACE d   1      53.422  29.043  27.487  0.00  0.00     0.163 HD
ATOM     92  H68 ACE d   1      52.873  27.547  29.960  0.00  0.00     0.078 H 
ATOM     93  H69 ACE d   1      52.272  29.184  29.529  0.00  0.00     0.078 H 
ATOM     94  H70 ACE d   1      52.904  29.297  31.895  0.00  0.00     0.163 HD
ATOM     95  H71 ACE d   1      55.167  31.044  32.036  0.00  0.00     0.088 H 
ATOM     96  H79 ACE d   1      54.666  27.699  33.311  0.00  0.00     0.163 HD
ATOM     97  H80 ACE d   1      57.108  27.614  34.740  0.00  0.00     0.090 H 
ATOM     98  H84 ACE d   1      56.397  26.555  31.368  0.00  0.00     0.163 HD
ATOM     99  H85 ACE d   1      59.039  25.670  30.779  0.00  0.00     0.088 H 
ATOM    100  H93 ACE d   1      57.545  28.933  30.610  0.00  0.00     0.163 HD
ATOM    101  H94 ACE d   1      59.748  30.169  29.273  0.00  0.00     0.088 H 
ATOM    102 0H10 ACE d   1      58.953  29.843  32.767  0.00  0.00     0.163 HD
ATOM    103 1H10 ACE d   1      61.135  31.398  33.705  0.00  0.00     0.088 H 
ATOM    104 9H10 ACE d   1      60.926  27.862  33.015  0.00  0.00     0.163 HD
ATOM    105 0H11 ACE d   1      63.684  27.471  33.768  0.00  0.00     0.090 H 
ATOM    106 4H11 ACE d   1      62.134  28.616  30.809  0.00  0.00     0.163 HD
ATOM    107 5H11 ACE d   1      64.538  28.173  29.222  0.00  0.00     0.088 H 
ATOM    108 3H12 ACE d   1      63.108  30.942  30.975  0.00  0.00     0.163 HD
ATOM    109 4H12 ACE d   1      65.068  32.854  30.171  0.00  0.00     0.088 H 
ATOM    110 5H12 ACE d   1      64.372  34.090  32.230  0.00  0.00     0.052 H 
ATOM    111 6H12 ACE d   1      63.376  32.670  32.698  0.00  0.00     0.052 H 
ENDROOT
BRANCH  29 112
ATOM    112  CB  ACE d   1      55.718  30.364  23.482  0.00  0.00    -0.036 C 
ATOM    113  H47 ACE d   1      56.785  30.144  23.638  0.00  0.00     0.036 H 
ATOM    114  H48 ACE d   1      55.614  31.332  22.970  0.00  0.00     0.036 H 
BRANCH 112 115
ATOM    115  CG  ACE d   1      55.140  29.285  22.575  0.00  0.00    -0.048 C 
ATOM    116  H49 ACE d   1      54.060  29.457  22.454  0.00  0.00     0.035 H 
ATOM    117  H50 ACE d   1      55.305  28.300  23.037  0.00  0.00     0.035 H 
BRANCH 115 118
ATOM    118  CD  ACE d   1      55.806  29.310  21.204  0.00  0.00     0.009 C 
ATOM    119  H51 ACE d   1      56.885  29.139  21.335  0.00  0.00     0.064 H 
ATOM    120  H52 ACE d   1      55.644  30.300  20.753  0.00  0.00     0.064 H 
BRANCH 118 121
ATOM    121  NE  ACE d   1      55.279  28.292  20.297  0.00  0.00    -0.227 N 
ATOM    122  CZ  ACE d   1      54.202  28.457  19.531  0.00  0.00     0.665 C 
ATOM    123  NH1 ACE d   1      53.529  29.600  19.562  0.00  0.00    -0.235 N 
ATOM    124  NH2 ACE d   1      53.796  27.479  18.735  0.00  0.00    -0.235 N 
ATOM    125  H54 ACE d   1      52.697  29.724  18.968  0.00  0.00     0.174 HD
ATOM    126  H55 ACE d   1      53.839  30.363  20.180  0.00  0.00     0.174 HD
ATOM    127  H56 ACE d   1      54.314  26.589  18.707  0.00  0.00     0.174 HD
ATOM    128  H57 ACE d   1      52.962  27.608  18.145  0.00  0.00     0.174 HD
ATOM    129  H53 ACE d   1      55.772  27.389  20.247  0.00  0.00     0.177 HD
ENDBRANCH 118 121
ENDBRANCH 115 118
ENDBRANCH 112 115
ENDBRANCH  29 112
BRANCH  25 130
ATOM    130  CB  ACE d   1      54.948  33.870  28.020  0.00  0.00    -0.030 C 
ATOM    131  H36 ACE d   1      53.887  34.142  27.919  0.00  0.00     0.043 H 
BRANCH 130 132
ATOM    132  CG1 ACE d   1      55.645  34.937  28.862  0.00  0.00    -0.063 C 
ATOM    133  H37 ACE d   1      55.425  35.922  28.425  0.00  0.00     0.033 H 
ATOM    134  H38 ACE d   1      56.729  34.754  28.826  0.00  0.00     0.033 H 
BRANCH 132 135
ATOM    135  CD1 ACE d   1      55.211  34.950  30.310  0.00  0.00    -0.076 C 
ATOM    136  H42 ACE d   1      55.754  35.741  30.848  0.00  0.00     0.027 H 
ATOM    137  H43 ACE d   1      55.434  33.975  30.768  0.00  0.00     0.027 H 
ATOM    138  H44 ACE d   1      54.130  35.144  30.367  0.00  0.00     0.027 H 
ENDBRANCH 132 135
ENDBRANCH 130 132
BRANCH 130 139
ATOM    139  CG2 ACE d   1      55.034  32.510  28.705  0.00  0.00    -0.071 C 
ATOM    140  H39 ACE d   1      54.528  31.755  28.086  0.00  0.00     0.028 H 
ATOM    141  H40 ACE d   1      54.546  32.564  29.689  0.00  0.00     0.028 H 
ATOM    142  H41 ACE d   1      56.090  32.230  28.834  0.00  0.00     0.028 H 
ENDBRANCH 130 139
ENDBRANCH  25 130
BRANCH  33 143
ATOM    143  CB  ACE d   1      55.621  26.171  25.977  0.00  0.00    -0.014 C 
ATOM    144  H60 ACE d   1      55.492  25.178  26.431  0.00  0.00     0.043 H 
ATOM    145  H61 ACE d   1      56.472  26.683  26.450  0.00  0.00     0.043 H 
BRANCH 143 146
ATOM    146  CG  ACE d   1      55.931  25.987  24.510  0.00  0.00    -0.056 A 
ATOM    147  CD1 ACE d   1      54.959  25.535  23.630  0.00  0.00    -0.077 A 
ATOM    148  CE1 ACE d   1      55.241  25.371  22.283  0.00  0.00    -0.082 A 
ATOM    149  H62 ACE d   1      53.966  25.307  24.000  0.00  0.00     0.084 H 
ATOM    150  CZ  ACE d   1      56.504  25.663  21.801  0.00  0.00    -0.083 A 
ATOM    151  H64 ACE d   1      54.472  25.014  21.608  0.00  0.00     0.083 H 
ATOM    152  CE2 ACE d   1      57.480  26.119  22.666  0.00  0.00    -0.082 A 
ATOM    153  H66 ACE d   1      56.727  25.535  20.748  0.00  0.00     0.083 H 
ATOM    154  CD2 ACE d   1      57.191  26.279  24.011  0.00  0.00    -0.077 A 
ATOM    155  H65 ACE d   1      58.471  26.351  22.292  0.00  0.00     0.083 H 
ATOM    156  H63 ACE d   1      57.962  26.638  24.684  0.00  0.00     0.084 H 
ENDBRANCH 143 146
ENDBRANCH  33 143
BRANCH  21 157
ATOM    157  CB  ACE d   1      56.722  36.892  22.972  0.00  0.00     0.004 C 
ATOM    158  H29 ACE d   1      56.275  36.092  22.364  0.00  0.00     0.046 H 
ATOM    159  H30 ACE d   1      57.805  36.722  23.063  0.00  0.00     0.046 H 
BRANCH 157 160
ATOM    160  CG  ACE d   1      56.508  38.194  22.266  0.00  0.00     0.053 A 
ATOM    161  ND1 ACE d   1      57.148  39.358  22.637  0.00  0.00    -0.247 NA
ATOM    162  CE1 ACE d   1      56.770  40.339  21.838  0.00  0.00     0.064 A 
ATOM    163  NE2 ACE d   1      55.910  39.855  20.961  0.00  0.00    -0.359 N 
ATOM    164  H32 ACE d   1      57.110  41.372  21.893  0.00  0.00     0.143 H 
ATOM    165  CD2 ACE d   1      55.728  38.516  21.207  0.00  0.00     0.002 A 
ATOM    166  H33 ACE d   1      55.450  40.394  20.213  0.00  0.00     0.166 HD
ATOM    167  H31 ACE d   1      55.078  37.840  20.654  0.00  0.00     0.114 H 
ENDBRANCH 157 160
ENDBRANCH  21 157
BRANCH  17 168
ATOM    168  CB  ACE d   1      57.326  40.847  25.676  0.00  0.00     0.044 C 
ATOM    169  H24 ACE d   1      57.454  41.816  26.181  0.00  0.00     0.077 H 
ATOM    170  H25 ACE d   1      56.681  40.975  24.794  0.00  0.00     0.077 H 
BRANCH 168 171
ATOM    171  OG  ACE d   1      58.596  40.372  25.256  0.00  0.00    -0.398 OA
ATOM    172  H26 ACE d   1      58.491  39.537  24.816  0.00  0.00     0.209 HD
ENDBRANCH 168 171
ENDBRANCH  17 168
BRANCH  41 173
ATOM    173  CB  ACE d   1      53.991  30.593  33.777  0.00  0.00    -0.014 C 
ATOM    174  H72 ACE d   1      53.532  29.703  34.233  0.00  0.00     0.043 H 
ATOM    175  H73 ACE d   1      53.203  31.295  33.467  0.00  0.00     0.043 H 
BRANCH 173 176
ATOM    176  CG  ACE d   1      54.846  31.273  34.822  0.00  0.00    -0.056 A 
ATOM    177  CD1 ACE d   1      55.109  32.633  34.749  0.00  0.00    -0.074 A 
ATOM    178  CE1 ACE d   1      55.888  33.263  35.699  0.00  0.00    -0.051 A 
ATOM    179  H74 ACE d   1      54.695  33.212  33.931  0.00  0.00     0.084 H 
ATOM    180  CZ  ACE d   1      56.408  32.536  36.743  0.00  0.00     0.065 A 
ATOM    181  H76 ACE d   1      56.088  34.325  35.622  0.00  0.00     0.087 H 
ATOM    182  CE2 ACE d   1      56.161  31.181  36.844  0.00  0.00    -0.051 A 
ATOM    183  CD2 ACE d   1      55.381  30.558  35.887  0.00  0.00    -0.074 A 
ATOM    184  H77 ACE d   1      56.575  30.610  37.667  0.00  0.00     0.087 H 
ATOM    185  H75 ACE d   1      55.184  29.495  35.969  0.00  0.00     0.084 H 
BRANCH 180 186
ATOM    186  OH  ACE d   1      57.182  33.170  37.685  0.00  0.00    -0.361 OA
ATOM    187  H78 ACE d   1      57.251  34.092  37.468  0.00  0.00     0.217 HD
ENDBRANCH 180 186
ENDBRANCH 173 176
ENDBRANCH  41 173
BRANCH  13 188
ATOM    188  CB  ACE d   1      58.045  38.724  31.151  0.00  0.00     0.004 C 
ATOM    189  H17 ACE d   1      56.950  38.826  31.190  0.00  0.00     0.046 H 
ATOM    190  H18 ACE d   1      58.513  39.668  31.466  0.00  0.00     0.046 H 
BRANCH 188 191
ATOM    191  CG  ACE d   1      58.454  37.650  32.115  0.00  0.00     0.053 A 
ATOM    192  ND1 ACE d   1      59.764  37.247  32.272  0.00  0.00    -0.247 NA
ATOM    193  CE1 ACE d   1      59.823  36.293  33.184  0.00  0.00     0.064 A 
ATOM    194  NE2 ACE d   1      58.600  36.062  33.625  0.00  0.00    -0.359 N 
ATOM    195  H20 ACE d   1      60.727  35.784  33.516  0.00  0.00     0.143 H 
ATOM    196  CD2 ACE d   1      57.725  36.896  32.972  0.00  0.00     0.002 A 
ATOM    197  H21 ACE d   1      58.343  35.369  34.342  0.00  0.00     0.166 HD
ATOM    198  H19 ACE d   1      56.647  36.942  33.117  0.00  0.00     0.114 H 
ENDBRANCH 188 191
ENDBRANCH  13 188
BRANCH  45 199
ATOM    199  CB  ACE d   1      56.027  25.808  34.332  0.00  0.00     0.044 C 
ATOM    200  H81 ACE d   1      55.428  25.384  33.512  0.00  0.00     0.077 H 
ATOM    201  H82 ACE d   1      55.377  26.002  35.198  0.00  0.00     0.077 H 
BRANCH 199 202
ATOM    202  OG  ACE d   1      57.029  24.879  34.703  0.00  0.00    -0.398 OA
ATOM    203  H83 ACE d   1      56.620  24.070  34.987  0.00  0.00     0.209 HD
ENDBRANCH 199 202
ENDBRANCH  45 199
BRANCH  49 204
ATOM    204  CB  ACE d   1      57.653  26.163  29.209  0.00  0.00    -0.014 C 
ATOM    205  H86 ACE d   1      56.879  26.926  29.037  0.00  0.00     0.043 H 
ATOM    206  H87 ACE d   1      57.178  25.177  29.320  0.00  0.00     0.043 H 
BRANCH 204 207
ATOM    207  CG  ACE d   1      58.546  26.117  27.985  0.00  0.00    -0.056 A 
ATOM    208  CD1 ACE d   1      58.854  27.271  27.275  0.00  0.00    -0.074 A 
ATOM    209  CE1 ACE d   1      59.660  27.226  26.158  0.00  0.00    -0.051 A 
ATOM    210  H88 ACE d   1      58.454  28.223  27.605  0.00  0.00     0.084 H 
ATOM    211  CZ  ACE d   1      60.156  26.014  25.726  0.00  0.00     0.065 A 
ATOM    212  H90 ACE d   1      59.902  28.137  25.623  0.00  0.00     0.087 H 
ATOM    213  CE2 ACE d   1      59.856  24.858  26.406  0.00  0.00    -0.051 A 
ATOM    214  CD2 ACE d   1      59.053  24.913  27.524  0.00  0.00    -0.074 A 
ATOM    215  H91 ACE d   1      60.249  23.907  26.064  0.00  0.00     0.087 H 
ATOM    216  H89 ACE d   1      58.813  23.997  28.053  0.00  0.00     0.084 H 
BRANCH 211 217
ATOM    217  OH  ACE d   1      60.953  25.954  24.608  0.00  0.00    -0.361 OA
ATOM    218  H92 ACE d   1      61.067  26.828  24.254  0.00  0.00     0.217 HD
ENDBRANCH 211 217
ENDBRANCH 204 207
ENDBRANCH  49 204
BRANCH   5 219
ATOM    219  CB  ACE d   1      64.698  36.568  25.752  0.00  0.00    -0.014 C 
ATOM    220  H5  ACE d   1      64.948  37.590  25.432  0.00  0.00     0.043 H 
ATOM    221  H6  ACE d   1      63.933  36.150  25.081  0.00  0.00     0.043 H 
BRANCH 219 222
ATOM    222  CG  ACE d   1      65.951  35.707  25.665  0.00  0.00    -0.056 A 
ATOM    223  CD1 ACE d   1      66.017  34.468  26.299  0.00  0.00    -0.074 A 
ATOM    224  CE1 ACE d   1      67.155  33.675  26.223  0.00  0.00    -0.051 A 
ATOM    225  H7  ACE d   1      65.162  34.115  26.864  0.00  0.00     0.084 H 
ATOM    226  CZ  ACE d   1      68.249  34.118  25.496  0.00  0.00     0.065 A 
ATOM    227  H9  ACE d   1      67.187  32.717  26.729  0.00  0.00     0.087 H 
ATOM    228  CE2 ACE d   1      68.196  35.350  24.850  0.00  0.00    -0.051 A 
ATOM    229  CD2 ACE d   1      67.052  36.142  24.930  0.00  0.00    -0.074 A 
ATOM    230  H10 ACE d   1      69.051  35.696  24.280  0.00  0.00     0.087 H 
ATOM    231  H8  ACE d   1      67.019  37.098  24.420  0.00  0.00     0.084 H 
BRANCH 226 232
ATOM    232  OH  ACE d   1      69.364  33.338  25.420  0.00  0.00    -0.361 OA
ATOM    233  H11 ACE d   1      69.225  32.540  25.916  0.00  0.00     0.217 HD
ENDBRANCH 226 232
ENDBRANCH 219 222
ENDBRANCH   5 219
BRANCH  53 234
ATOM    234  CB  ACE d   1      58.214  31.340  30.219  0.00  0.00     0.004 C 
ATOM    235  H95 ACE d   1      57.904  31.549  31.254  0.00  0.00     0.046 H 
ATOM    236  H96 ACE d   1      57.341  31.016  29.633  0.00  0.00     0.046 H 
BRANCH 234 237
ATOM    237  CG  ACE d   1      58.739  32.607  29.620  0.00  0.00     0.053 A 
ATOM    238  ND1 ACE d   1      59.204  32.680  28.325  0.00  0.00    -0.247 NA
ATOM    239  CE1 ACE d   1      59.592  33.916  28.068  0.00  0.00     0.064 A 
ATOM    240  NE2 ACE d   1      59.395  34.648  29.150  0.00  0.00    -0.359 N 
ATOM    241  H98 ACE d   1      60.004  34.271  27.125  0.00  0.00     0.143 H 
ATOM    242  CD2 ACE d   1      58.859  33.854  30.134  0.00  0.00     0.002 A 
ATOM    243  H99 ACE d   1      59.609  35.651  29.241  0.00  0.00     0.166 HD
ATOM    244  H97 ACE d   1      58.582  34.168  31.139  0.00  0.00     0.114 H 
ENDBRANCH 234 237
ENDBRANCH  53 234
BRANCH  57 245
ATOM    245  CB  ACE d   1      60.078  30.102  35.047  0.00  0.00    -0.033 C 
ATOM    246 2H10 ACE d   1      59.303  29.338  34.888  0.00  0.00     0.042 H 
BRANCH 245 247
ATOM    247  CG1 ACE d   1      61.047  29.590  36.102  0.00  0.00    -0.071 C 
ATOM    248 3H10 ACE d   1      60.507  29.421  37.045  0.00  0.00     0.028 H 
ATOM    249 4H10 ACE d   1      61.841  30.334  36.263  0.00  0.00     0.028 H 
ATOM    250 5H10 ACE d   1      61.494  28.645  35.761  0.00  0.00     0.028 H 
ENDBRANCH 245 247
BRANCH 245 251
ATOM    251  CG2 ACE d   1      59.410  31.378  35.517  0.00  0.00    -0.071 C 
ATOM    252 6H10 ACE d   1      58.714  31.734  34.743  0.00  0.00     0.028 H 
ATOM    253 7H10 ACE d   1      60.175  32.146  35.703  0.00  0.00     0.028 H 
ATOM    254 8H10 ACE d   1      58.856  31.181  36.446  0.00  0.00     0.028 H 
ENDBRANCH 245 251
ENDBRANCH  57 245
BRANCH  69 255
ATOM    255  C   ACE d   1      65.942  31.990  31.930  0.00  0.00     0.241 C 
ATOM    256  O   ACE d   1      66.861  32.797  32.049  0.00  0.00    -0.271 OA
ATOM    257  N   ACE d   1      65.941  30.809  32.540  0.00  0.00    -0.351 N 
ATOM    258 7H12 ACE d   1      65.124  30.234  32.496  0.00  0.00     0.163 HD
BRANCH 257 259
ATOM    259  CA  ACE d   1      67.135  30.327  33.287  0.00  0.00     0.069 C 
ATOM    260 8H12 ACE d   1      66.810  29.770  34.178  0.00  0.00     0.078 H 
ATOM    261 9H12 ACE d   1      67.747  31.187  33.595  0.00  0.00     0.078 H 
BRANCH 259 262
ATOM    262  C   ACE d   1      67.952  29.420  32.396  0.00  0.00     0.233 C 
ATOM    263  O   ACE d   1      69.149  29.257  32.579  0.00  0.00    -0.272 OA
ATOM    264  N   ACE d   1      67.278  28.817  31.418  0.00  0.00    -0.369 N 
ATOM    265 0H13 ACE d   1      67.753  28.202  30.789  0.00  0.00     0.159 HD
ATOM    266 1H13 ACE d   1      66.297  28.979  31.313  0.00  0.00     0.159 HD
ENDBRANCH 259 262
ENDBRANCH 257 259
ENDBRANCH  69 255
BRANCH  61 267
ATOM    267  CB  ACE d   1      62.597  25.885  32.835  0.00  0.00     0.044 C 
ATOM    268 1H11 ACE d   1      62.076  25.614  33.765  0.00  0.00     0.077 H 
ATOM    269 2H11 ACE d   1      63.502  25.268  32.728  0.00  0.00     0.077 H 
BRANCH 267 270
ATOM    270  OG  ACE d   1      61.738  25.632  31.738  0.00  0.00    -0.398 OA
ATOM    271 3H11 ACE d   1      60.951  26.157  31.826  0.00  0.00     0.209 HD
ENDBRANCH 267 270
ENDBRANCH  61 267
BRANCH  65 272
ATOM    272  CB  ACE d   1      62.858  29.216  28.393  0.00  0.00    -0.014 C 
ATOM    273 6H11 ACE d   1      62.041  29.852  28.766  0.00  0.00     0.043 H 
ATOM    274 7H11 ACE d   1      62.447  28.254  28.053  0.00  0.00     0.043 H 
BRANCH 272 275
ATOM    275  CG  ACE d   1      63.504  29.907  27.212  0.00  0.00    -0.056 A 
ATOM    276  CD1 ACE d   1      64.516  29.290  26.490  0.00  0.00    -0.074 A 
ATOM    277  CE1 ACE d   1      65.107  29.915  25.410  0.00  0.00    -0.051 A 
ATOM    278 8H11 ACE d   1      64.848  28.300  26.779  0.00  0.00     0.084 H 
ATOM    279  CZ  ACE d   1      64.687  31.175  25.038  0.00  0.00     0.065 A 
ATOM    280 0H12 ACE d   1      65.897  29.418  24.858  0.00  0.00     0.087 H 
ATOM    281  CE2 ACE d   1      63.681  31.809  25.735  0.00  0.00    -0.051 A 
ATOM    282  CD2 ACE d   1      63.096  31.174  26.815  0.00  0.00    -0.074 A 
ATOM    283 1H12 ACE d   1      63.351  32.798  25.439  0.00  0.00     0.087 H 
ATOM    284 9H11 ACE d   1      62.305  31.674  27.362  0.00  0.00     0.084 H 
BRANCH 279 285
ATOM    285  OH  ACE d   1      65.270  31.803  23.962  0.00  0.00    -0.361 OA
ATOM    286 2H12 ACE d   1      65.940  31.240  23.593  0.00  0.00     0.217 HD
ENDBRANCH 279 285
ENDBRANCH 272 275
ENDBRANCH  65 272
TORSDOF 40
