REMARK  4 active torsions:
REMARK  status: ('A' for Active; 'I' for Inactive)
REMARK    1  A    between atoms: C4_2  and  N3_1 
REMARK       I    between atoms: N3_1  and  C2_16 
REMARK       I    between atoms: N12_6  and  C10_5 
REMARK    2  A    between atoms: C10_5  and  C9_19 
REMARK    3  A    between atoms: C13_7  and  N12_6 
REMARK    4  A    between atoms: C2_16  and  C22_12 
ROOT
ATOM      1  C4  91Y d   1     -34.927   8.096  32.616  0.00  0.00     0.164 A 
ATOM      2  C6  91Y d   1     -32.816   7.234  32.149  0.00  0.00     0.021 A 
ATOM      3  C7  91Y d   1     -32.234   8.149  33.028  0.00  0.00     0.020 A 
ATOM      4  N5  91Y d   1     -34.132   7.238  31.967  0.00  0.00    -0.239 NA
ATOM      5  N8  91Y d   1     -32.997   9.012  33.686  0.00  0.00    -0.250 NA
ATOM      6  C9  91Y d   1     -34.324   9.026  33.512  0.00  0.00     0.170 A 
ATOM      7  H2  91Y d   1     -32.196   6.522  31.616  0.00  0.00     0.117 H 
ATOM      8  H3  91Y d   1     -31.160   8.154  33.173  0.00  0.00     0.117 H 
ENDROOT
BRANCH   6   9
ATOM      9  C10 91Y d   1     -35.131  10.014  34.271  0.00  0.00     0.274 C 
ATOM     10  N12 91Y d   1     -34.509  11.047  34.885  0.00  0.00    -0.350 N 
ATOM     11  H4  91Y d   1     -33.516  11.127  34.803  0.00  0.00     0.163 HD
ATOM     12  O11 91Y d   1     -36.347   9.884  34.334  0.00  0.00    -0.266 OA
BRANCH  10  13
ATOM     13  C13 91Y d   1     -35.237  12.055  35.667  0.00  0.00     0.020 C 
ATOM     14  C21 91Y d   1     -35.623  11.471  37.053  0.00  0.00    -0.021 C 
ATOM     15  C20 91Y d   1     -34.423  11.750  37.925  0.00  0.00    -0.050 A 
ATOM     16  H7  91Y d   1     -35.809  10.389  36.981  0.00  0.00     0.043 H 
ATOM     17  H8  91Y d   1     -36.518  11.972  37.451  0.00  0.00     0.043 H 
ATOM     18  C15 91Y d   1     -33.656  12.773  37.349  0.00  0.00    -0.050 A 
ATOM     19  C19 91Y d   1     -34.031  11.161  39.126  0.00  0.00    -0.076 A 
ATOM     20  C14 91Y d   1     -34.303  13.214  36.058  0.00  0.00    -0.021 C 
ATOM     21  C16 91Y d   1     -32.490  13.218  37.965  0.00  0.00    -0.076 A 
ATOM     22  H14 91Y d   1     -34.877  14.140  36.210  0.00  0.00     0.043 H 
ATOM     23  H15 91Y d   1     -33.543  13.377  35.280  0.00  0.00     0.043 H 
ATOM     24  C17 91Y d   1     -32.106  12.627  39.164  0.00  0.00    -0.082 A 
ATOM     25  H16 91Y d   1     -31.895  14.007  37.520  0.00  0.00     0.084 H 
ATOM     26  C18 91Y d   1     -32.865  11.602  39.744  0.00  0.00    -0.082 A 
ATOM     27  H6  91Y d   1     -31.203  12.966  39.659  0.00  0.00     0.083 H 
ATOM     28  H17 91Y d   1     -32.543  11.152  40.676  0.00  0.00     0.083 H 
ATOM     29  H18 91Y d   1     -34.625  10.372  39.572  0.00  0.00     0.084 H 
ATOM     30  H5  91Y d   1     -36.117  12.408  35.109  0.00  0.00     0.073 H 
ENDBRANCH  10  13
ENDBRANCH   6   9
BRANCH   1  31
ATOM     31  N3  91Y d   1     -36.322   8.110  32.454  0.00  0.00    -0.309 N 
ATOM     32  C2  91Y d   1     -37.124   7.164  31.888  0.00  0.00     0.227 C 
ATOM     33  O1  91Y d   1     -36.661   6.126  31.426  0.00  0.00    -0.273 OA
ATOM     34  H1  91Y d   1     -36.790   8.923  32.800  0.00  0.00     0.170 HD
BRANCH  32  35
ATOM     35  C22 91Y d   1     -38.637   7.412  31.858  0.00  0.00     0.024 C 
ATOM     36  C23 91Y d   1     -39.375   6.430  30.922  0.00  0.00    -0.054 C 
ATOM     37  C24 91Y d   1     -39.181   6.778  29.429  0.00  0.00    -0.064 C 
ATOM     38  H19 91Y d   1     -40.450   6.461  31.155  0.00  0.00     0.034 H 
ATOM     39  H20 91Y d   1     -38.990   5.415  31.101  0.00  0.00     0.034 H 
ATOM     40  C25 91Y d   1     -39.632   8.212  29.136  0.00  0.00    -0.065 C 
ATOM     41  H10 91Y d   1     -39.775   6.082  28.817  0.00  0.00     0.033 H 
ATOM     42  H11 91Y d   1     -38.117   6.676  29.171  0.00  0.00     0.033 H 
ATOM     43  C26 91Y d   1     -38.847   9.188  30.022  0.00  0.00    -0.064 C 
ATOM     44  H21 91Y d   1     -40.707   8.309  29.348  0.00  0.00     0.033 H 
ATOM     45  H22 91Y d   1     -39.444   8.446  28.078  0.00  0.00     0.033 H 
ATOM     46  C27 91Y d   1     -39.015   8.877  31.521  0.00  0.00    -0.054 C 
ATOM     47  H12 91Y d   1     -39.207  10.209  29.830  0.00  0.00     0.033 H 
ATOM     48  H13 91Y d   1     -37.780   9.121  29.764  0.00  0.00     0.033 H 
ATOM     49  H23 91Y d   1     -38.367   9.553  32.098  0.00  0.00     0.034 H 
ATOM     50  H24 91Y d   1     -40.065   9.046  31.803  0.00  0.00     0.034 H 
ATOM     51  H9  91Y d   1     -39.003   7.218  32.877  0.00  0.00     0.054 H 
ENDBRANCH  32  35
ENDBRANCH   1  31
TORSDOF 4
