REMARK WARNING: 32 MAX_TORS EXCEEDED!!!
REMARK  38 active torsions:
REMARK  status: ('A' for Active; 'I' for Inactive)
REMARK    1  A    between atoms: N_1  and  CA_2 
REMARK    2  A    between atoms: CA_8  and  CB_11 
REMARK    3  A    between atoms: CB_11  and  CG_12 
REMARK    4  A    between atoms: CA_22  and  CB_25 
REMARK    5  A    between atoms: CB_25  and  CG1_26 
REMARK    6  A    between atoms: CB_25  and  CG2_27 
REMARK    7  A    between atoms: CA_29  and  CB_32 
REMARK    8  A    between atoms: CB_32  and  CG_33 
REMARK    9  A    between atoms: CG_33  and  CD1_34 
REMARK   10  A    between atoms: CG_33  and  CD2_35 
REMARK   11  A    between atoms: CA_37  and  CB_40 
REMARK   12  A    between atoms: CB_40  and  CG_41 
REMARK   13  A    between atoms: CG_41  and  CD_42 
REMARK   14  A    between atoms: CA_46  and  CB_49 
REMARK   15  A    between atoms: CB_49  and  CG_50 
REMARK   16  A    between atoms: CZ_55  and  OH_56 
REMARK   17  A    between atoms: CA_58  and  CB_61 
REMARK   18  A    between atoms: CB_61  and  CG_62 
REMARK   19  A    between atoms: CA_66  and  CB_69 
REMARK   20  A    between atoms: CB_69  and  CG_70 
REMARK   21  A    between atoms: CG_70  and  SD_71 
REMARK   22  A    between atoms: SD_71  and  CE_72 
REMARK   23  A    between atoms: CA_74  and  CB_77 
REMARK   24  A    between atoms: CB_77  and  CG_78 
REMARK   25  A    between atoms: CA_89  and  CB_92 
REMARK   26  A    between atoms: CA_94  and  CB_97 
REMARK   27  A    between atoms: CB_97  and  CG_98 
REMARK   28  A    between atoms: CG_98  and  CD1_99 
REMARK   29  A    between atoms: CG_98  and  CD2_100 
REMARK   30  A    between atoms: CA_102  and  CB_105 
REMARK   31  A    between atoms: CB_105  and  CG_106 
REMARK   32  A    between atoms: CA_112  and  C_113 
REMARK       I    between atoms: C_113  and  N_117 
REMARK   33  A    between atoms: N_117  and  CA_118 
REMARK   34  A    between atoms: CA_118  and  C_119 
REMARK   35  A    between atoms: CA_118  and  CB_121 
REMARK   36  A    between atoms: CB_121  and  CG_122 
REMARK   37  A    between atoms: CG_122  and  CD_123 
REMARK   38  A    between atoms: CD_123  and  NE_124 
REMARK       I    between atoms: NE_124  and  CZ_125 
REMARK       I    between atoms: CZ_125  and  NH1_126 
ROOT
ATOM      1  CA  CYS d   1      27.326  65.744 164.466  0.00  0.00     0.184 C 
ATOM      2  C   CYS d   1      25.912  66.240 164.691  0.00  0.00     0.249 C 
ATOM      3  O   CYS d   1      24.938  65.501 164.527  0.00  0.00    -0.271 OA
ATOM      4  CB  CYS d   1      27.352  64.452 163.661  0.00  0.00     0.021 C 
ATOM      5  SG  CYS d   1      26.730  64.628 161.969  0.00  0.00    -0.095 SA
ATOM      6  N   CYS d   1      28.268  65.790 157.973  0.00  0.00    -0.345 N 
ATOM      7  CA  CYS d   1      28.050  66.477 159.232  0.00  0.00     0.098 C 
ATOM      8  CB  CYS d   1      28.962  65.919 160.307  0.00  0.00     0.013 C 
ATOM      9  SG  CYS d   1      28.453  64.284 160.869  0.00  0.00    -0.095 SA
ATOM     10  H4  CYS d   1      27.853  66.510 163.878  0.00  0.00     0.100 H 
ATOM     11  H5  CYS d   1      26.733  63.707 164.182  0.00  0.00     0.054 H 
ATOM     12  H6  CYS d   1      28.391  64.095 163.612  0.00  0.00     0.054 H 
ATOM     13 0H10 CYS d   1      29.173  65.412 157.779  0.00  0.00     0.163 HD
ATOM     14 1H10 CYS d   1      27.006  66.335 159.549  0.00  0.00     0.088 H 
ATOM     15 2H10 CYS d   1      28.954  66.605 161.167  0.00  0.00     0.053 H 
ATOM     16 3H10 CYS d   1      29.983  65.850 159.902  0.00  0.00     0.053 H 
ATOM     17  N   TRP d   1      25.808  67.511 165.082  0.00  0.00    -0.346 N 
ATOM     18  CA  TRP d   1      24.534  68.150 165.383  0.00  0.00     0.093 C 
ATOM     19  C   TRP d   1      23.623  68.212 164.173  0.00  0.00     0.241 C 
ATOM     20  O   TRP d   1      22.413  68.131 164.328  0.00  0.00    -0.271 OA
ATOM     21  H7  TRP d   1      26.645  68.051 165.173  0.00  0.00     0.163 HD
ATOM     22  H8  TRP d   1      24.033  67.559 166.164  0.00  0.00     0.088 H 
ATOM     23  N   VAL d   1      24.203  68.404 162.983  0.00  0.00    -0.346 N 
ATOM     24  CA  VAL d   1      23.422  68.577 161.764  0.00  0.00     0.092 C 
ATOM     25  C   VAL d   1      23.909  67.562 160.754  0.00  0.00     0.241 C 
ATOM     26  O   VAL d   1      25.081  67.581 160.361  0.00  0.00    -0.271 OA
ATOM     27  H17 VAL d   1      25.201  68.430 162.928  0.00  0.00     0.163 HD
ATOM     28  H18 VAL d   1      22.366  68.367 161.990  0.00  0.00     0.088 H 
ATOM     29  N   LEU d   1      23.026  66.650 160.377  0.00  0.00    -0.346 N 
ATOM     30  CA  LEU d   1      23.346  65.622 159.369  0.00  0.00     0.089 C 
ATOM     31  C   LEU d   1      22.545  65.922 158.116  0.00  0.00     0.241 C 
ATOM     32  O   LEU d   1      21.314  66.108 158.196  0.00  0.00    -0.271 OA
ATOM     33  N   LEU d   1      26.069  61.659 152.722  0.00  0.00    -0.346 N 
ATOM     34  CA  LEU d   1      25.753  62.294 153.996  0.00  0.00     0.089 C 
ATOM     35  C   LEU d   1      26.946  63.106 154.496  0.00  0.00     0.241 C 
ATOM     36  O   LEU d   1      28.101  62.704 154.303  0.00  0.00    -0.271 OA
ATOM     37  H26 LEU d   1      22.114  66.659 160.788  0.00  0.00     0.163 HD
ATOM     38  H27 LEU d   1      24.419  65.670 159.130  0.00  0.00     0.087 H 
ATOM     39  H82 LEU d   1      26.489  60.751 152.727  0.00  0.00     0.163 HD
ATOM     40  H83 LEU d   1      24.896  62.970 153.857  0.00  0.00     0.087 H 
ATOM     41  N   GLU d   1      23.223  65.999 156.961  0.00  0.00    -0.346 N 
ATOM     42  CA  GLU d   1      22.506  66.342 155.739  0.00  0.00     0.090 C 
ATOM     43  C   GLU d   1      22.974  65.511 154.573  0.00  0.00     0.241 C 
ATOM     44  O   GLU d   1      24.169  65.219 154.480  0.00  0.00    -0.271 OA
ATOM     45  H37 GLU d   1      24.207  65.823 156.939  0.00  0.00     0.163 HD
ATOM     46  H38 GLU d   1      21.430  66.186 155.903  0.00  0.00     0.087 H 
ATOM     47  N   TYR d   1      22.058  65.246 153.627  0.00  0.00    -0.346 N 
ATOM     48  CA  TYR d   1      22.441  64.706 152.329  0.00  0.00     0.093 C 
ATOM     49  C   TYR d   1      22.861  65.881 151.447  0.00  0.00     0.241 C 
ATOM     50  O   TYR d   1      22.238  66.963 151.475  0.00  0.00    -0.271 OA
ATOM     51  H43 TYR d   1      21.092  65.423 153.818  0.00  0.00     0.163 HD
ATOM     52  H44 TYR d   1      23.261  63.982 152.450  0.00  0.00     0.088 H 
ATOM     53  N   ASP d   1      23.877  65.652 150.600  0.00  0.00    -0.345 N 
ATOM     54  CA  ASP d   1      24.180  66.622 149.554  0.00  0.00     0.098 C 
ATOM     55  C   ASP d   1      23.337  66.182 148.304  0.00  0.00     0.241 C 
ATOM     56  O   ASP d   1      22.678  65.129 148.334  0.00  0.00    -0.271 OA
ATOM     57  H52 ASP d   1      24.424  64.819 150.686  0.00  0.00     0.163 HD
ATOM     58  H53 ASP d   1      23.836  67.615 149.878  0.00  0.00     0.088 H 
ATOM     59  N   MET d   1      23.379  66.962 147.202  0.00  0.00    -0.346 N 
ATOM     60  CA  MET d   1      22.620  66.612 145.990  0.00  0.00     0.090 C 
ATOM     61  C   MET d   1      23.121  65.347 145.261  0.00  0.00     0.241 C 
ATOM     62  O   MET d   1      22.488  64.910 144.287  0.00  0.00    -0.271 OA
ATOM     63  H56 MET d   1      23.936  67.793 147.209  0.00  0.00     0.163 HD
ATOM     64  H57 MET d   1      21.588  66.406 146.311  0.00  0.00     0.087 H 
ATOM     65  N   PHE d   1      24.247  64.754 145.742  0.00  0.00    -0.346 N 
ATOM     66  CA  PHE d   1      24.843  63.564 145.127  0.00  0.00     0.093 C 
ATOM     67  C   PHE d   1      24.545  62.270 145.910  0.00  0.00     0.241 C 
ATOM     68  O   PHE d   1      25.088  61.221 145.562  0.00  0.00    -0.271 OA
ATOM     69  H65 PHE d   1      24.687  65.147 146.550  0.00  0.00     0.163 HD
ATOM     70  H66 PHE d   1      24.389  63.449 144.132  0.00  0.00     0.088 H 
ATOM     71  N   GLY d   1      23.719  62.357 146.948  0.00  0.00    -0.351 N 
ATOM     72  CA  GLY d   1      23.355  61.190 147.748  0.00  0.00     0.069 C 
ATOM     73  C   GLY d   1      24.316  60.832 148.877  0.00  0.00     0.236 C 
ATOM     74  O   GLY d   1      24.153  59.770 149.485  0.00  0.00    -0.272 OA
ATOM     75  H74 GLY d   1      23.335  63.248 147.189  0.00  0.00     0.163 HD
ATOM     76  H75 GLY d   1      23.291  60.324 147.072  0.00  0.00     0.078 H 
ATOM     77  H76 GLY d   1      22.368  61.381 148.194  0.00  0.00     0.078 H 
ATOM     78  N   ALA d   1      25.296  61.723 149.200  0.00  0.00    -0.347 N 
ATOM     79  CA  ALA d   1      26.241  61.481 150.307  0.00  0.00     0.086 C 
ATOM     80  C   ALA d   1      25.820  62.242 151.553  0.00  0.00     0.240 C 
ATOM     81  O   ALA d   1      25.318  63.354 151.444  0.00  0.00    -0.271 OA
ATOM     82  H77 ALA d   1      25.377  62.567 148.670  0.00  0.00     0.163 HD
ATOM     83  H78 ALA d   1      26.246  60.404 150.533  0.00  0.00     0.086 H 
ATOM     84  N   HIS d   1      26.661  64.232 155.174  0.00  0.00    -0.346 N 
ATOM     85  CA  HIS d   1      27.712  65.096 155.723  0.00  0.00     0.094 C 
ATOM     86  C   HIS d   1      27.297  65.645 157.061  0.00  0.00     0.241 C 
ATOM     87  O   HIS d   1      26.136  66.009 157.237  0.00  0.00    -0.271 OA
ATOM     88  H93 HIS d   1      25.704  64.488 155.308  0.00  0.00     0.163 HD
ATOM     89  H94 HIS d   1      28.637  64.511 155.829  0.00  0.00     0.088 H 
ENDROOT
BRANCH   7  90
ATOM     90  C   CYS d   1      28.308  67.982 158.995  0.00  0.00     0.242 C 
ATOM     91  O   CYS d   1      29.434  68.363 158.722  0.00  0.00    -0.271 OA
ATOM     92  N   ARG d   1      27.275  68.827 159.161  0.00  0.00    -0.345 N 
ATOM     93 4H10 ARG d   1      26.408  68.446 159.482  0.00  0.00     0.163 HD
BRANCH  92  94
ATOM     94  CA  ARG d   1      27.336  70.276 158.902  0.00  0.00     0.096 C 
ATOM     95 5H10 ARG d   1      28.209  70.472 158.262  0.00  0.00     0.089 H 
BRANCH  94  96
ATOM     96  C   ARG d   1      27.448  71.111 160.135  0.00  0.00     0.196 C 
ATOM     97  O   ARG d   1      27.496  72.358 160.017  0.00  0.00    -0.646 OA
ATOM     98  OXT ARG d   1      27.264  70.534 161.221  0.00  0.00    -0.646 OA
ENDBRANCH  94  96
BRANCH  94  99
ATOM     99  CB  ARG d   1      26.039  70.737 158.174  0.00  0.00    -0.035 C 
ATOM    100 6H10 ARG d   1      26.179  71.780 157.854  0.00  0.00     0.036 H 
ATOM    101 7H10 ARG d   1      25.207  70.682 158.891  0.00  0.00     0.036 H 
BRANCH  99 102
ATOM    102  CG  ARG d   1      25.669  69.923 156.965  0.00  0.00    -0.047 C 
ATOM    103 8H10 ARG d   1      24.645  70.183 156.657  0.00  0.00     0.035 H 
ATOM    104 9H10 ARG d   1      25.714  68.855 157.224  0.00  0.00     0.035 H 
BRANCH 102 105
ATOM    105  CD  ARG d   1      26.601  70.189 155.830  0.00  0.00     0.009 C 
ATOM    106 0H11 ARG d   1      27.527  69.617 155.988  0.00  0.00     0.064 H 
ATOM    107 1H11 ARG d   1      26.834  71.264 155.805  0.00  0.00     0.064 H 
BRANCH 105 108
ATOM    108  NE  ARG d   1      26.025  69.805 154.557  0.00  0.00    -0.227 N 
ATOM    109  CZ  ARG d   1      26.739  69.617 153.452  0.00  0.00     0.665 C 
ATOM    110  NH1 ARG d   1      28.057  69.782 153.468  0.00  0.00    -0.235 N 
ATOM    111  NH2 ARG d   1      26.141  69.277 152.320  0.00  0.00    -0.235 N 
ATOM    112 3H11 ARG d   1      28.605  69.635 152.608  0.00  0.00     0.174 HD
ATOM    113 4H11 ARG d   1      28.531  70.057 154.340  0.00  0.00     0.174 HD
ATOM    114 5H11 ARG d   1      25.120  69.146 152.296  0.00  0.00     0.174 HD
ATOM    115 6H11 ARG d   1      26.697  69.143 151.464  0.00  0.00     0.174 HD
ATOM    116 2H11 ARG d   1      25.005  69.670 154.506  0.00  0.00     0.177 HD
ENDBRANCH 105 108
ENDBRANCH 102 105
ENDBRANCH  99 102
ENDBRANCH  94  99
ENDBRANCH  92  94
ENDBRANCH   7  90
BRANCH  85 117
ATOM    117  CB  HIS d   1      27.967  66.315 154.806  0.00  0.00     0.002 C 
ATOM    118  H95 HIS d   1      28.729  66.951 155.281  0.00  0.00     0.046 H 
ATOM    119  H96 HIS d   1      27.027  66.878 154.711  0.00  0.00     0.046 H 
BRANCH 117 120
ATOM    120  CG  HIS d   1      28.439  65.961 153.440  0.00  0.00     0.030 A 
ATOM    121  ND1 HIS d   1      29.787  65.936 153.127  0.00  0.00    -0.353 N 
ATOM    122  CE1 HIS d   1      29.847  65.620 151.840  0.00  0.00     0.063 A 
ATOM    123  H97 HIS d   1      30.577  66.123 153.760  0.00  0.00     0.166 HD
ATOM    124  NE2 HIS d   1      28.632  65.460 151.323  0.00  0.00    -0.254 NA
ATOM    125  H99 HIS d   1      30.773  65.506 151.278  0.00  0.00     0.143 H 
ATOM    126  CD2 HIS d   1      27.722  65.716 152.321  0.00  0.00     0.025 A 
ATOM    127  H98 HIS d   1      26.637  65.721 152.228  0.00  0.00     0.117 H 
ENDBRANCH 117 120
ENDBRANCH  85 117
BRANCH   1 128
ATOM    128  N   CYS d   1      28.042  65.588 165.727  0.00  0.00    -0.066 N 
ATOM    129  H1  CYS d   1      28.977  65.258 165.544  0.00  0.00     0.275 HD
ATOM    130  H2  CYS d   1      27.558  64.922 166.308  0.00  0.00     0.275 HD
ATOM    131  H3  CYS d   1      28.086  66.477 166.200  0.00  0.00     0.275 HD
ENDBRANCH   1 128
BRANCH  34 132
ATOM    132  CB  LEU d   1      25.378  61.214 155.021  0.00  0.00    -0.035 C 
ATOM    133  H84 LEU d   1      25.353  61.679 156.017  0.00  0.00     0.037 H 
ATOM    134  H85 LEU d   1      26.154  60.435 154.999  0.00  0.00     0.037 H 
BRANCH 132 135
ATOM    135  CG  LEU d   1      24.017  60.544 154.769  0.00  0.00    -0.059 C 
ATOM    136  H86 LEU d   1      23.916  60.379 153.686  0.00  0.00     0.038 H 
BRANCH 135 137
ATOM    137  CD1 LEU d   1      23.927  59.201 155.459  0.00  0.00    -0.073 C 
ATOM    138  H87 LEU d   1      22.944  58.751 155.258  0.00  0.00     0.028 H 
ATOM    139  H88 LEU d   1      24.054  59.337 156.543  0.00  0.00     0.028 H 
ATOM    140  H89 LEU d   1      24.718  58.539 155.077  0.00  0.00     0.028 H 
ENDBRANCH 135 137
BRANCH 135 141
ATOM    141  CD2 LEU d   1      22.838  61.473 155.235  0.00  0.00    -0.073 C 
ATOM    142  H90 LEU d   1      22.915  62.446 154.727  0.00  0.00     0.028 H 
ATOM    143  H91 LEU d   1      22.897  61.623 156.323  0.00  0.00     0.028 H 
ATOM    144  H92 LEU d   1      21.877  61.001 154.981  0.00  0.00     0.028 H 
ENDBRANCH 135 141
ENDBRANCH 132 135
ENDBRANCH  34 132
BRANCH  18 145
ATOM    145  CB  TRP d   1      24.754  69.578 165.911  0.00  0.00    -0.012 C 
ATOM    146  H9  TRP d   1      23.800  70.121 165.842  0.00  0.00     0.044 H 
ATOM    147  H10 TRP d   1      25.503  70.069 165.273  0.00  0.00     0.044 H 
BRANCH 145 148
ATOM    148  CG  TRP d   1      25.230  69.646 167.329  0.00  0.00    -0.028 A 
ATOM    149  CD1 TRP d   1      26.452  70.073 167.769  0.00  0.00    -0.015 A 
ATOM    150  NE1 TRP d   1      26.497  70.037 169.149  0.00  0.00    -0.365 N 
ATOM    151  H11 TRP d   1      27.270  70.394 167.126  0.00  0.00     0.112 H 
ATOM    152  CE2 TRP d   1      25.289  69.583 169.621  0.00  0.00     0.042 A 
ATOM    153  H12 TRP d   1      27.304  70.306 169.729  0.00  0.00     0.165 HD
ATOM    154  CD2 TRP d   1      24.473  69.311 168.497  0.00  0.00    -0.002 A 
ATOM    155  CZ2 TRP d   1      24.853  69.359 170.936  0.00  0.00    -0.056 A 
ATOM    156  CE3 TRP d   1      23.179  68.798 168.705  0.00  0.00    -0.070 A 
ATOM    157  CZ3 TRP d   1      22.745  68.585 170.013  0.00  0.00    -0.082 A 
ATOM    158  H13 TRP d   1      22.532  68.573 167.865  0.00  0.00     0.084 H 
ATOM    159  CH2 TRP d   1      23.578  68.848 171.105  0.00  0.00    -0.081 A 
ATOM    160  H15 TRP d   1      21.743  68.209 170.186  0.00  0.00     0.083 H 
ATOM    161  H16 TRP d   1      23.217  68.647 172.107  0.00  0.00     0.083 H 
ATOM    162  H14 TRP d   1      25.490  69.578 171.786  0.00  0.00     0.086 H 
ENDBRANCH 145 148
ENDBRANCH  18 145
BRANCH  79 163
ATOM    163  CB  ALA d   1      27.663  61.913 149.913  0.00  0.00    -0.049 C 
ATOM    164  H79 ALA d   1      28.349  61.724 150.752  0.00  0.00     0.030 H 
ATOM    165  H80 ALA d   1      27.666  62.986 149.671  0.00  0.00     0.030 H 
ATOM    166  H81 ALA d   1      27.991  61.338 149.034  0.00  0.00     0.030 H 
ENDBRANCH  79 163
BRANCH  24 167
ATOM    167  CB  VAL d   1      23.513  70.043 161.220  0.00  0.00    -0.033 C 
ATOM    168  H19 VAL d   1      24.573  70.249 161.012  0.00  0.00     0.042 H 
BRANCH 167 169
ATOM    169  CG1 VAL d   1      22.746  70.203 159.902  0.00  0.00    -0.071 C 
ATOM    170  H20 VAL d   1      22.832  71.242 159.552  0.00  0.00     0.028 H 
ATOM    171  H21 VAL d   1      21.686  69.957 160.062  0.00  0.00     0.028 H 
ATOM    172  H22 VAL d   1      23.170  69.525 159.147  0.00  0.00     0.028 H 
ENDBRANCH 167 169
BRANCH 167 173
ATOM    173  CG2 VAL d   1      23.040  71.074 162.259  0.00  0.00    -0.071 C 
ATOM    174  H23 VAL d   1      23.604  70.938 163.193  0.00  0.00     0.028 H 
ATOM    175  H24 VAL d   1      21.967  70.931 162.455  0.00  0.00     0.028 H 
ATOM    176  H25 VAL d   1      23.210  72.089 161.872  0.00  0.00     0.028 H 
ENDBRANCH 167 173
ENDBRANCH  24 167
BRANCH  30 177
ATOM    177  CB  LEU d   1      23.026  64.221 159.914  0.00  0.00    -0.035 C 
ATOM    178  H28 LEU d   1      21.953  64.184 160.152  0.00  0.00     0.037 H 
ATOM    179  H29 LEU d   1      23.611  64.070 160.833  0.00  0.00     0.037 H 
BRANCH 177 180
ATOM    180  CG  LEU d   1      23.346  63.051 158.938  0.00  0.00    -0.059 C 
ATOM    181  H30 LEU d   1      22.911  63.287 157.956  0.00  0.00     0.038 H 
BRANCH 180 182
ATOM    182  CD1 LEU d   1      24.892  62.866 158.767  0.00  0.00    -0.073 C 
ATOM    183  H31 LEU d   1      25.087  62.035 158.074  0.00  0.00     0.028 H 
ATOM    184  H32 LEU d   1      25.345  62.643 159.744  0.00  0.00     0.028 H 
ATOM    185  H33 LEU d   1      25.329  63.791 158.363  0.00  0.00     0.028 H 
ENDBRANCH 180 182
BRANCH 180 186
ATOM    186  CD2 LEU d   1      22.724  61.754 159.452  0.00  0.00    -0.073 C 
ATOM    187  H34 LEU d   1      21.639  61.889 159.570  0.00  0.00     0.028 H 
ATOM    188  H35 LEU d   1      23.169  61.494 160.424  0.00  0.00     0.028 H 
ATOM    189  H36 LEU d   1      22.916  60.945 158.732  0.00  0.00     0.028 H 
ENDBRANCH 180 186
ENDBRANCH 177 180
ENDBRANCH  30 177
BRANCH  66 190
ATOM    190  CB  PHE d   1      26.361  63.768 144.924  0.00  0.00    -0.014 C 
ATOM    191  H67 PHE d   1      26.727  62.995 144.232  0.00  0.00     0.043 H 
ATOM    192  H68 PHE d   1      26.861  63.656 145.897  0.00  0.00     0.043 H 
BRANCH 190 193
ATOM    193  CG  PHE d   1      26.716  65.133 144.354  0.00  0.00    -0.056 A 
ATOM    194  CD1 PHE d   1      26.415  65.453 143.037  0.00  0.00    -0.077 A 
ATOM    195  CE1 PHE d   1      26.704  66.721 142.525  0.00  0.00    -0.082 A 
ATOM    196  H69 PHE d   1      25.950  64.711 142.398  0.00  0.00     0.084 H 
ATOM    197  CZ  PHE d   1      27.291  67.675 143.335  0.00  0.00    -0.083 A 
ATOM    198  H71 PHE d   1      26.468  66.956 141.494  0.00  0.00     0.083 H 
ATOM    199  CE2 PHE d   1      27.580  67.387 144.644  0.00  0.00    -0.082 A 
ATOM    200  H73 PHE d   1      27.524  68.655 142.934  0.00  0.00     0.083 H 
ATOM    201  CD2 PHE d   1      27.273  66.118 145.163  0.00  0.00    -0.077 A 
ATOM    202  H72 PHE d   1      28.044  68.136 145.276  0.00  0.00     0.083 H 
ATOM    203  H70 PHE d   1      27.473  65.904 146.207  0.00  0.00     0.084 H 
ENDBRANCH 190 193
ENDBRANCH  66 190
BRANCH  42 204
ATOM    204  CB  GLU d   1      22.775  67.821 155.332  0.00  0.00    -0.029 C 
ATOM    205  H39 GLU d   1      22.332  67.980 154.338  0.00  0.00     0.037 H 
ATOM    206  H40 GLU d   1      23.865  67.959 155.274  0.00  0.00     0.037 H 
BRANCH 204 207
ATOM    207  CG  GLU d   1      22.221  68.896 156.263  0.00  0.00     0.018 C 
ATOM    208  H41 GLU d   1      22.749  68.823 157.225  0.00  0.00     0.049 H 
ATOM    209  H42 GLU d   1      21.150  68.699 156.417  0.00  0.00     0.049 H 
BRANCH 207 210
ATOM    210  CD  GLU d   1      22.373  70.324 155.742  0.00  0.00     0.172 C 
ATOM    211  OE1 GLU d   1      21.947  71.246 156.473  0.00  0.00    -0.648 OA
ATOM    212  OE2 GLU d   1      22.880  70.535 154.606  0.00  0.00    -0.648 OA
ENDBRANCH 207 210
ENDBRANCH 204 207
ENDBRANCH  42 204
BRANCH  60 213
ATOM    213  CB  MET d   1      22.574  67.810 145.009  0.00  0.00    -0.030 C 
ATOM    214  H58 MET d   1      21.958  68.605 145.456  0.00  0.00     0.037 H 
ATOM    215  H59 MET d   1      22.113  67.475 144.068  0.00  0.00     0.037 H 
BRANCH 213 216
ATOM    216  CG  MET d   1      23.920  68.368 144.705  0.00  0.00    -0.021 C 
ATOM    217  H60 MET d   1      24.534  67.589 144.230  0.00  0.00     0.049 H 
ATOM    218  H61 MET d   1      24.397  68.690 145.643  0.00  0.00     0.049 H 
BRANCH 216 219
ATOM    219  SD  MET d   1      23.790  69.800 143.577  0.00  0.00    -0.173 SA
BRANCH 219 220
ATOM    220  CE  MET d   1      23.036  69.030 142.180  0.00  0.00    -0.035 C 
ATOM    221  H62 MET d   1      22.884  69.777 141.387  0.00  0.00     0.041 H 
ATOM    222  H63 MET d   1      22.065  68.606 142.475  0.00  0.00     0.041 H 
ATOM    223  H64 MET d   1      23.689  68.227 141.807  0.00  0.00     0.041 H 
ENDBRANCH 219 220
ENDBRANCH 216 219
ENDBRANCH 213 216
ENDBRANCH  60 213
BRANCH  48 224
ATOM    224  CB  TYR d   1      21.247  64.052 151.593  0.00  0.00    -0.014 C 
ATOM    225  H45 TYR d   1      21.456  64.060 150.513  0.00  0.00     0.043 H 
ATOM    226  H46 TYR d   1      20.344  64.646 151.797  0.00  0.00     0.043 H 
BRANCH 224 227
ATOM    227  CG  TYR d   1      20.992  62.634 152.019  0.00  0.00    -0.056 A 
ATOM    228  CD1 TYR d   1      21.766  61.588 151.525  0.00  0.00    -0.074 A 
ATOM    229  CE1 TYR d   1      21.533  60.268 151.924  0.00  0.00    -0.051 A 
ATOM    230  H47 TYR d   1      22.562  61.800 150.820  0.00  0.00     0.084 H 
ATOM    231  CZ  TYR d   1      20.503  59.993 152.810  0.00  0.00     0.065 A 
ATOM    232  H49 TYR d   1      22.154  59.465 151.543  0.00  0.00     0.087 H 
ATOM    233  CE2 TYR d   1      19.717  61.018 153.305  0.00  0.00    -0.051 A 
ATOM    234  CD2 TYR d   1      19.997  62.335 152.944  0.00  0.00    -0.074 A 
ATOM    235  H50 TYR d   1      18.889  60.799 153.969  0.00  0.00     0.087 H 
ATOM    236  H48 TYR d   1      19.428  63.142 153.393  0.00  0.00     0.084 H 
BRANCH 231 237
ATOM    237  OH  TYR d   1      20.278  58.699 153.209  0.00  0.00    -0.361 OA
ATOM    238  H51 TYR d   1      20.900  58.124 152.779  0.00  0.00     0.217 HD
ENDBRANCH 231 237
ENDBRANCH 224 227
ENDBRANCH  48 224
BRANCH  54 239
ATOM    239  CB  ASP d   1      25.698  66.727 149.276  0.00  0.00     0.043 C 
ATOM    240  H54 ASP d   1      26.190  66.999 150.221  0.00  0.00     0.052 H 
ATOM    241  H55 ASP d   1      25.845  67.532 148.541  0.00  0.00     0.052 H 
BRANCH 239 242
ATOM    242  CG  ASP d   1      26.394  65.483 148.739  0.00  0.00     0.175 C 
ATOM    243  OD1 ASP d   1      25.696  64.586 148.199  0.00  0.00    -0.648 OA
ATOM    244  OD2 ASP d   1      27.643  65.431 148.807  0.00  0.00    -0.648 OA
ENDBRANCH 239 242
ENDBRANCH  54 239
TORSDOF 38
