REMARK  12 active torsions:
REMARK  status: ('A' for Active; 'I' for Inactive)
REMARK    1  A    between atoms: C01_1  and  C02_2 
REMARK    2  A    between atoms: C02_2  and  N03_3 
REMARK    3  A    between atoms: N03_3  and  C04_4 
REMARK    4  A    between atoms: N03_3  and  C06_6 
REMARK    5  A    between atoms: C04_4  and  C05_5 
REMARK    6  A    between atoms: C06_6  and  C07_7 
REMARK    7  A    between atoms: C07_7  and  O08_8 
REMARK    8  A    between atoms: O08_8  and  C09_9 
REMARK    9  A    between atoms: C12_12  and  N13_13 
REMARK   10  A    between atoms: N13_13  and  C14_14 
REMARK   11  A    between atoms: C21_21  and  C26_26 
REMARK   12  A    between atoms: N24_24  and  C25_25 
ROOT
ATOM      1  C09 96M d   1      -7.144   9.159  10.294  0.00  0.00     0.069 A 
ATOM      2  C10 96M d   1      -7.946   9.077  11.453  0.00  0.00    -0.049 A 
ATOM      3  C11 96M d   1      -7.611   8.162  12.475  0.00  0.00    -0.054 A 
ATOM      4  C12 96M d   1      -6.484   7.310  12.339  0.00  0.00     0.049 A 
ATOM      5  C34 96M d   1      -5.698   7.419  11.181  0.00  0.00    -0.054 A 
ATOM      6  C35 96M d   1      -6.011   8.335  10.171  0.00  0.00    -0.049 A 
ATOM      7  H16 96M d   1      -8.816   9.715  11.558  0.00  0.00     0.087 H 
ATOM      8  H17 96M d   1      -8.219   8.110  13.371  0.00  0.00     0.087 H 
ATOM      9  H27 96M d   1      -4.830   6.780  11.067  0.00  0.00     0.087 H 
ATOM     10  H28 96M d   1      -5.380   8.410   9.293  0.00  0.00     0.087 H 
ENDROOT
BRANCH   4  11
ATOM     11  N13 96M d   1      -6.219   6.462  13.392  0.00  0.00    -0.188 N 
ATOM     12  H18 96M d   1      -6.575   6.784  14.303  0.00  0.00     0.184 HD
BRANCH  11  13
ATOM     13  C14 96M d   1      -5.573   5.286  13.426  0.00  0.00     0.728 A 
ATOM     14  N15 96M d   1      -4.839   4.889  12.367  0.00  0.00    -0.044 NA
ATOM     15  C16 96M d   1      -4.174   3.728  12.300  0.00  0.00     0.163 A 
ATOM     16  C17 96M d   1      -4.222   2.884  13.412  0.00  0.00     0.030 A 
ATOM     17  N24 96M d   1      -3.468   3.381  11.175  0.00  0.00    -0.301 N 
ATOM     18  C18 96M d   1      -4.945   3.308  14.529  0.00  0.00     0.035 A 
ATOM     19  C20 96M d   1      -3.521   1.662  13.391  0.00  0.00    -0.052 A 
ATOM     20  N19 96M d   1      -5.597   4.489  14.508  0.00  0.00    -0.074 NA
ATOM     21  H19 96M d   1      -4.982   2.686  15.416  0.00  0.00     0.117 H 
ATOM     22  C21 96M d   1      -2.796   1.286  12.249  0.00  0.00     0.047 A 
ATOM     23  H20 96M d   1      -3.542   1.008  14.262  0.00  0.00     0.086 H 
ATOM     24  C22 96M d   1      -2.779   2.183  11.153  0.00  0.00     0.260 A 
ATOM     25  O23 96M d   1      -2.089   1.810  10.181  0.00  0.00    -0.267 OA
BRANCH  22  26
ATOM     26  C26 96M d   1      -2.092   0.040  12.197  0.00  0.00     0.023 A 
ATOM     27  C27 96M d   1      -2.798  -1.174  11.970  0.00  0.00     0.046 A 
ATOM     28 CL28 96M d   1      -4.479  -1.165  11.812  0.00  0.00    -0.083 Cl
ATOM     29  C29 96M d   1      -2.132  -2.426  11.909  0.00  0.00    -0.061 A 
ATOM     30  C30 96M d   1      -0.725  -2.474  12.029  0.00  0.00    -0.080 A 
ATOM     31  H24 96M d   1      -2.699  -3.339  11.771  0.00  0.00     0.086 H 
ATOM     32  C31 96M d   1      -0.010  -1.285  12.229  0.00  0.00    -0.061 A 
ATOM     33  H25 96M d   1      -0.203  -3.422  11.967  0.00  0.00     0.083 H 
ATOM     34  C32 96M d   1      -0.685  -0.041  12.313  0.00  0.00     0.046 A 
ATOM     35  H26 96M d   1       1.070  -1.317  12.320  0.00  0.00     0.086 H 
ATOM     36 CL33 96M d   1       0.235   1.357  12.563  0.00  0.00    -0.083 Cl
ENDBRANCH  22  26
BRANCH  17  37
ATOM     37  C25 96M d   1      -3.489   4.305  10.052  0.00  0.00    -0.009 C 
ATOM     38  H21 96M d   1      -4.101   5.182  10.310  0.00  0.00     0.057 H 
ATOM     39  H22 96M d   1      -3.919   3.803   9.172  0.00  0.00     0.057 H 
ATOM     40  H23 96M d   1      -2.463   4.629   9.824  0.00  0.00     0.057 H 
ENDBRANCH  17  37
ENDBRANCH  11  13
ENDBRANCH   4  11
BRANCH   1  41
ATOM     41  O08 96M d   1      -7.414  10.056   9.320  0.00  0.00    -0.349 OA
BRANCH  41  42
ATOM     42  C07 96M d   1      -7.143   9.600   7.966  0.00  0.00     0.049 C 
ATOM     43  H14 96M d   1      -6.138   9.927   7.661  0.00  0.00     0.077 H 
ATOM     44  H15 96M d   1      -7.198   8.502   7.929  0.00  0.00     0.077 H 
BRANCH  42  45
ATOM     45  C06 96M d   1      -8.208  10.211   7.002  0.00  0.00     0.103 C 
ATOM     46  H12 96M d   1      -7.753  10.316   6.006  0.00  0.00     0.079 H 
ATOM     47  H13 96M d   1      -9.061   9.518   6.944  0.00  0.00     0.079 H 
BRANCH  45  48
ATOM     48  N03 96M d   1      -8.723  11.565   7.436  0.00  0.00    -0.070 N 
ATOM     49  H6  96M d   1      -9.115  11.746   6.525  0.00  0.00     0.279 HD
BRANCH  48  50
ATOM     50  C02 96M d   1     -10.092  11.736   8.088  0.00  0.00     0.080 C 
ATOM     51  H4  96M d   1     -10.361  12.799   8.001  0.00  0.00     0.075 H 
ATOM     52  H5  96M d   1     -10.803  11.129   7.509  0.00  0.00     0.075 H 
BRANCH  50  53
ATOM     53  C01 96M d   1     -10.268  11.340   9.591  0.00  0.00    -0.053 C 
ATOM     54  H1  96M d   1     -11.307  11.525   9.899  0.00  0.00     0.029 H 
ATOM     55  H2  96M d   1      -9.589  11.943  10.211  0.00  0.00     0.029 H 
ATOM     56  H3  96M d   1     -10.032  10.273   9.719  0.00  0.00     0.029 H 
ENDBRANCH  50  53
ENDBRANCH  48  50
BRANCH  48  57
ATOM     57  C04 96M d   1      -7.764  12.719   7.312  0.00  0.00     0.080 C 
ATOM     58  H7  96M d   1      -8.316  13.631   7.582  0.00  0.00     0.075 H 
ATOM     59  H8  96M d   1      -7.458  12.775   6.257  0.00  0.00     0.075 H 
BRANCH  57  60
ATOM     60  C05 96M d   1      -6.466  12.699   8.166  0.00  0.00    -0.053 C 
ATOM     61  H9  96M d   1      -5.878  13.606   7.961  0.00  0.00     0.029 H 
ATOM     62  H10 96M d   1      -5.871  11.810   7.908  0.00  0.00     0.029 H 
ATOM     63  H11 96M d   1      -6.730  12.666   9.233  0.00  0.00     0.029 H 
ENDBRANCH  57  60
ENDBRANCH  48  57
ENDBRANCH  45  48
ENDBRANCH  42  45
ENDBRANCH  41  42
ENDBRANCH   1  41
TORSDOF 12
