REMARK  8 active torsions:
REMARK  status: ('A' for Active; 'I' for Inactive)
REMARK       I    between atoms: C2_2  and  N3_3 
REMARK    1  A    between atoms: C2_2  and  C5_5 
REMARK    2  A    between atoms: N3_3  and  C4_4 
REMARK    3  A    between atoms: N7_7  and  C8_8 
REMARK    4  A    between atoms: C14_14  and  C15_15 
REMARK    5  A    between atoms: C14_14  and  C16_16 
REMARK    6  A    between atoms: N21_21  and  C22_22 
REMARK    7  A    between atoms: C25_25  and  N28_28 
REMARK    8  A    between atoms: N31_31  and  C32_32 
ROOT
ATOM      1  C5  P48 d   1      48.569   2.712  10.482  0.00  0.00     0.154 A 
ATOM      2  N6  P48 d   1      48.136   3.682   9.694  0.00  0.00    -0.166 NA
ATOM      3  N7  P48 d   1      47.069   4.300  10.301  0.00  0.00    -0.271 N 
ATOM      4  C9  P48 d   1      46.771   3.737  11.461  0.00  0.00     0.092 A 
ATOM      5  C10 P48 d   1      47.746   2.653  11.721  0.00  0.00     0.017 A 
ATOM      6  C11 P48 d   1      45.761   4.114  12.462  0.00  0.00     0.112 A 
ATOM      7  C12 P48 d   1      45.585   3.257  13.564  0.00  0.00    -0.007 A 
ATOM      8  C13 P48 d   1      46.311   1.930  13.713  0.00  0.00    -0.027 C 
ATOM      9  C14 P48 d   1      47.671   1.809  13.019  0.00  0.00    -0.012 C 
ATOM     10  N17 P48 d   1      45.086   5.295  12.374  0.00  0.00    -0.060 NA
ATOM     11  C18 P48 d   1      44.188   5.664  13.322  0.00  0.00     0.727 A 
ATOM     12  N19 P48 d   1      44.000   4.841  14.392  0.00  0.00    -0.074 NA
ATOM     13  C20 P48 d   1      44.663   3.663  14.520  0.00  0.00     0.029 A 
ATOM     14  N21 P48 d   1      43.476   6.798  13.298  0.00  0.00    -0.188 N 
ATOM     15  H8  P48 d   1      45.657   1.145  13.305  0.00  0.00     0.042 H 
ATOM     16  H9  P48 d   1      46.468   1.755  14.787  0.00  0.00     0.042 H 
ATOM     17  H16 P48 d   1      44.470   3.031  15.380  0.00  0.00     0.116 H 
ATOM     18  H17 P48 d   1      43.006   7.006  14.190  0.00  0.00     0.184 HD
ENDROOT
BRANCH  14  19
ATOM     19  C22 P48 d   1      43.245   7.743  12.321  0.00  0.00     0.049 A 
ATOM     20  C23 P48 d   1      42.096   8.594  12.381  0.00  0.00    -0.054 A 
ATOM     21  C24 P48 d   1      41.851   9.542  11.404  0.00  0.00    -0.055 A 
ATOM     22  H18 P48 d   1      41.404   8.494  13.209  0.00  0.00     0.087 H 
ATOM     23  C25 P48 d   1      42.764   9.706  10.332  0.00  0.00     0.030 A 
ATOM     24  H19 P48 d   1      40.961  10.159  11.458  0.00  0.00     0.087 H 
ATOM     25  C26 P48 d   1      43.935   8.871  10.258  0.00  0.00    -0.055 A 
ATOM     26  C27 P48 d   1      44.175   7.902  11.254  0.00  0.00    -0.054 A 
ATOM     27  H20 P48 d   1      44.632   8.987   9.436  0.00  0.00     0.087 H 
ATOM     28  H21 P48 d   1      45.063   7.281  11.208  0.00  0.00     0.087 H 
BRANCH  23  29
ATOM     29  N28 P48 d   1      42.518  10.674   9.345  0.00  0.00    -0.378 N 
ATOM     30  C29 P48 d   1      42.226  12.055   9.753  0.00  0.00     0.018 C 
ATOM     31  C30 P48 d   1      42.818  12.903   8.629  0.00  0.00     0.098 C 
ATOM     32  H22 P48 d   1      42.706  12.289  10.714  0.00  0.00     0.066 H 
ATOM     33  H23 P48 d   1      41.141  12.217   9.836  0.00  0.00     0.066 H 
ATOM     34  N31 P48 d   1      42.273  12.324   7.395  0.00  0.00    -0.072 N 
ATOM     35  H24 P48 d   1      43.916  12.841   8.634  0.00  0.00     0.078 H 
ATOM     36  H25 P48 d   1      42.510  13.954   8.733  0.00  0.00     0.078 H 
ATOM     37  C33 P48 d   1      42.742  11.013   6.968  0.00  0.00     0.098 C 
ATOM     38  H26 P48 d   1      42.929  12.816   6.809  0.00  0.00     0.279 HD
ATOM     39  C34 P48 d   1      42.093  10.132   8.032  0.00  0.00     0.018 C 
ATOM     40  H30 P48 d   1      43.840  10.944   6.997  0.00  0.00     0.078 H 
ATOM     41  H31 P48 d   1      42.385  10.762   5.958  0.00  0.00     0.078 H 
ATOM     42  H32 P48 d   1      40.998  10.171   7.941  0.00  0.00     0.066 H 
ATOM     43  H33 P48 d   1      42.433   9.091   7.923  0.00  0.00     0.066 H 
BRANCH  34  44
ATOM     44  C32 P48 d   1      41.116  12.924   6.734  0.00  0.00     0.066 C 
ATOM     45  H27 P48 d   1      40.867  12.344   5.833  0.00  0.00     0.068 H 
ATOM     46  H28 P48 d   1      41.352  13.960   6.450  0.00  0.00     0.068 H 
ATOM     47  H29 P48 d   1      40.258  12.919   7.422  0.00  0.00     0.068 H 
ENDBRANCH  34  44
ENDBRANCH  23  29
ENDBRANCH  14  19
BRANCH   3  48
ATOM     48  C8  P48 d   1      46.475   5.406   9.530  0.00  0.00     0.003 C 
ATOM     49  H5  P48 d   1      45.633   5.835  10.094  0.00  0.00     0.059 H 
ATOM     50  H6  P48 d   1      46.113   5.026   8.563  0.00  0.00     0.059 H 
ATOM     51  H7  P48 d   1      47.235   6.183   9.358  0.00  0.00     0.059 H 
ENDBRANCH   3  48
BRANCH   1  52
ATOM     52  C2  P48 d   1      49.710   1.855  10.147  0.00  0.00     0.272 C 
ATOM     53  O1  P48 d   1      50.392   1.471  11.061  0.00  0.00    -0.266 OA
ATOM     54  N3  P48 d   1      49.968   1.575   8.875  0.00  0.00    -0.360 N 
ATOM     55  H1  P48 d   1      49.297   1.844   8.184  0.00  0.00     0.162 HD
BRANCH  54  56
ATOM     56  C4  P48 d   1      51.176   0.898   8.438  0.00  0.00    -0.018 C 
ATOM     57  H2  P48 d   1      51.156   0.782   7.344  0.00  0.00     0.056 H 
ATOM     58  H3  P48 d   1      51.232  -0.094   8.910  0.00  0.00     0.056 H 
ATOM     59  H4  P48 d   1      52.055   1.492   8.728  0.00  0.00     0.056 H 
ENDBRANCH  54  56
ENDBRANCH   1  52
BRANCH   9  60
ATOM     60  C15 P48 d   1      48.757   2.106  14.045  0.00  0.00    -0.065 C 
ATOM     61  H10 P48 d   1      49.745   2.025  13.568  0.00  0.00     0.028 H 
ATOM     62  H11 P48 d   1      48.689   1.383  14.871  0.00  0.00     0.028 H 
ATOM     63  H12 P48 d   1      48.622   3.125  14.437  0.00  0.00     0.028 H 
ENDBRANCH   9  60
BRANCH   9  64
ATOM     64  C16 P48 d   1      47.754   0.382  12.582  0.00  0.00    -0.065 C 
ATOM     65  H13 P48 d   1      46.966   0.179  11.842  0.00  0.00     0.028 H 
ATOM     66  H14 P48 d   1      47.618  -0.277  13.453  0.00  0.00     0.028 H 
ATOM     67  H15 P48 d   1      48.739   0.194  12.130  0.00  0.00     0.028 H 
ENDBRANCH   9  64
TORSDOF 8
