REMARK  9 active torsions:
REMARK  status: ('A' for Active; 'I' for Inactive)
REMARK    1  A    between atoms: C1_1  and  N2_2 
REMARK    2  A    between atoms: N5_5  and  C6_6 
REMARK    3  A    between atoms: C6_6  and  C7_7 
REMARK    4  A    between atoms: C7_7  and  O8_8 
REMARK    5  A    between atoms: O8_8  and  C9_9 
REMARK    6  A    between atoms: C11_11  and  O12_12 
REMARK    7  A    between atoms: O12_12  and  C13_13 
REMARK    8  A    between atoms: C20_20  and  N21_21 
REMARK    9  A    between atoms: N21_21  and  C22_22 
ROOT
ATOM      1  C9  H8H d   1      20.556   6.986   3.102  0.00  0.00     0.073 A 
ATOM      2  C10 H8H d   1      19.895   5.807   3.481  0.00  0.00    -0.018 A 
ATOM      3  C11 H8H d   1      20.323   4.503   3.038  0.00  0.00     0.088 A 
ATOM      4  C19 H8H d   1      21.460   4.426   2.177  0.00  0.00     0.072 A 
ATOM      5  C20 H8H d   1      22.025   3.227   1.640  0.00  0.00     0.144 A 
ATOM      6  N32 H8H d   1      23.118   3.330   0.834  0.00  0.00    -0.223 NA
ATOM      7  C33 H8H d   1      23.711   4.494   0.506  0.00  0.00     0.089 A 
ATOM      8  N34 H8H d   1      23.205   5.640   0.998  0.00  0.00    -0.241 NA
ATOM      9  C35 H8H d   1      22.117   5.641   1.808  0.00  0.00     0.077 A 
ATOM     10  C36 H8H d   1      21.670   6.891   2.261  0.00  0.00    -0.022 A 
ATOM     11  H14 H8H d   1      19.030   5.879   4.131  0.00  0.00     0.092 H 
ATOM     12  H29 H8H d   1      24.580   4.508  -0.142  0.00  0.00     0.146 H 
ATOM     13  H30 H8H d   1      22.192   7.791   1.957  0.00  0.00     0.091 H 
ENDROOT
BRANCH   1  14
ATOM     14  O8  H8H d   1      20.152   8.224   3.526  0.00  0.00    -0.349 OA
BRANCH  14  15
ATOM     15  C7  H8H d   1      21.255   9.132   3.742  0.00  0.00     0.049 C 
ATOM     16  H12 H8H d   1      21.846   8.788   4.604  0.00  0.00     0.077 H 
ATOM     17  H13 H8H d   1      21.891   9.151   2.845  0.00  0.00     0.077 H 
BRANCH  15  18
ATOM     18  C6  H8H d   1      20.726  10.555   4.022  0.00  0.00     0.103 C 
ATOM     19  H10 H8H d   1      21.589  11.227   4.140  0.00  0.00     0.079 H 
ATOM     20  H11 H8H d   1      20.127  10.877   3.158  0.00  0.00     0.079 H 
BRANCH  18  21
ATOM     21  N5  H8H d   1      19.876  10.662   5.249  0.00  0.00    -0.066 N 
ATOM     22  C4  H8H d   1      18.534  11.252   4.963  0.00  0.00     0.106 C 
ATOM     23  C3  H8H d   1      17.612  11.152   6.202  0.00  0.00     0.105 C 
ATOM     24  H7  H8H d   1      18.657  12.310   4.690  0.00  0.00     0.078 H 
ATOM     25  H8  H8H d   1      18.073  10.708   4.126  0.00  0.00     0.078 H 
ATOM     26  N2  H8H d   1      18.262  11.770   7.397  0.00  0.00    -0.072 N 
ATOM     27  H5  H8H d   1      16.668  11.677   5.993  0.00  0.00     0.078 H 
ATOM     28  H6  H8H d   1      17.404  10.093   6.412  0.00  0.00     0.078 H 
ATOM     29  C38 H8H d   1      19.620  11.209   7.674  0.00  0.00     0.105 C 
ATOM     30  H4  H8H d   1      18.402  12.742   7.168  0.00  0.00     0.279 HD
ATOM     31  C37 H8H d   1      20.534  11.298   6.431  0.00  0.00     0.106 C 
ATOM     32  H33 H8H d   1      19.518  10.154   7.968  0.00  0.00     0.078 H 
ATOM     33  H34 H8H d   1      20.080  11.776   8.497  0.00  0.00     0.078 H 
ATOM     34  H31 H8H d   1      20.737  12.355   6.206  0.00  0.00     0.078 H 
ATOM     35  H32 H8H d   1      21.481  10.779   6.641  0.00  0.00     0.078 H 
ATOM     36  H9  H8H d   1      19.700   9.710   5.529  0.00  0.00     0.280 HD
BRANCH  26  37
ATOM     37  C1  H8H d   1      17.379  11.749   8.598  0.00  0.00     0.066 C 
ATOM     38  H1  H8H d   1      16.397  12.171   8.338  0.00  0.00     0.068 H 
ATOM     39  H2  H8H d   1      17.836  12.348   9.399  0.00  0.00     0.068 H 
ATOM     40  H3  H8H d   1      17.253  10.712   8.942  0.00  0.00     0.068 H 
ENDBRANCH  26  37
ENDBRANCH  18  21
ENDBRANCH  15  18
ENDBRANCH  14  15
ENDBRANCH   1  14
BRANCH   3  41
ATOM     41  O12 H8H d   1      19.657   3.314   3.407  0.00  0.00    -0.345 OA
BRANCH  41  42
ATOM     42  C13 H8H d   1      18.320   3.487   4.010  0.00  0.00     0.049 C 
ATOM     43  C14 H8H d   1      17.327   3.476   2.809  0.00  0.00    -0.021 C 
ATOM     44  C15 H8H d   1      16.288   2.338   2.907  0.00  0.00     0.022 C 
ATOM     45  H16 H8H d   1      17.901   3.350   1.879  0.00  0.00     0.040 H 
ATOM     46  H17 H8H d   1      16.794   4.438   2.784  0.00  0.00     0.040 H 
ATOM     47  O16 H8H d   1      16.999   1.113   3.146  0.00  0.00    -0.391 OA
ATOM     48  H18 H8H d   1      15.723   2.265   1.966  0.00  0.00     0.074 H 
ATOM     49  H19 H8H d   1      15.594   2.536   3.737  0.00  0.00     0.074 H 
ATOM     50  C17 H8H d   1      17.492   1.019   4.495  0.00  0.00     0.022 C 
ATOM     51  C18 H8H d   1      18.027   2.362   5.063  0.00  0.00    -0.021 C 
ATOM     52  H20 H8H d   1      18.310   0.284   4.515  0.00  0.00     0.074 H 
ATOM     53  H21 H8H d   1      16.672   0.672   5.141  0.00  0.00     0.074 H 
ATOM     54  H22 H8H d   1      17.279   2.750   5.770  0.00  0.00     0.040 H 
ATOM     55  H23 H8H d   1      18.964   2.151   5.599  0.00  0.00     0.040 H 
ATOM     56  H15 H8H d   1      18.264   4.460   4.521  0.00  0.00     0.084 H 
ENDBRANCH  41  42
ENDBRANCH   3  41
BRANCH   5  57
ATOM     57  N21 H8H d   1      21.546   1.965   1.879  0.00  0.00    -0.336 N 
ATOM     58  H24 H8H d   1      20.702   1.902   2.466  0.00  0.00     0.168 HD
BRANCH  57  59
ATOM     59  C22 H8H d   1      22.062   0.775   1.426  0.00  0.00     0.092 A 
ATOM     60  C23 H8H d   1      23.428   0.396   1.549  0.00  0.00     0.133 A 
ATOM     61  O24 H8H d   1      24.445   1.090   2.113  0.00  0.00    -0.321 OA
ATOM     62  C27 H8H d   1      23.895  -0.819   1.059  0.00  0.00     0.107 A 
ATOM     63  C25 H8H d   1      25.563   0.188   2.005  0.00  0.00     0.115 A 
ATOM     64  O26 H8H d   1      25.213  -0.994   1.268  0.00  0.00    -0.323 OA
ATOM     65  H25 H8H d   1      25.887  -0.103   3.015  0.00  0.00     0.118 H 
ATOM     66  H26 H8H d   1      26.388   0.701   1.489  0.00  0.00     0.118 H 
ATOM     67  C28 H8H d   1      23.030  -1.721   0.424  0.00  0.00    -0.046 A 
ATOM     68  C29 H8H d   1      21.671  -1.379   0.286  0.00  0.00    -0.057 A 
ATOM     69  H27 H8H d   1      23.401  -2.666   0.045  0.00  0.00     0.087 H 
ATOM     70  C30 H8H d   1      21.187  -0.143   0.779  0.00  0.00     0.063 A 
ATOM     71  H28 H8H d   1      20.990  -2.067  -0.201  0.00  0.00     0.086 H 
ATOM     72 CL3  H8H d   1      19.536   0.196   0.571  0.00  0.00    -0.082 Cl
ENDBRANCH  57  59
ENDBRANCH   5  57
TORSDOF 9
