REMARK  11 active torsions:
REMARK  status: ('A' for Active; 'I' for Inactive)
REMARK    1  A    between atoms: C01_1  and  N02_2 
REMARK    2  A    between atoms: N05_5  and  C08_8 
REMARK    3  A    between atoms: C11_11  and  N12_12 
REMARK    4  A    between atoms: N12_12  and  C13_13 
REMARK    5  A    between atoms: N19_19  and  C20_20 
REMARK    6  A    between atoms: C20_20  and  C21_21 
REMARK    7  A    between atoms: N23_23  and  C26_26 
REMARK    8  A    between atoms: C28_28  and  C32_32 
REMARK    9  A    between atoms: C32_32  and  C33_33 
REMARK   10  A    between atoms: C32_32  and  C34_34 
REMARK   11  A    between atoms: C32_32  and  O35_35 
ROOT
ATOM      1  C13 8X7 d   1     -12.409 -25.743 -12.746  0.00  0.00     0.728 A 
ATOM      2  N14 8X7 d   1     -12.802 -26.397 -11.617  0.00  0.00    -0.074 NA
ATOM      3  C15 8X7 d   1     -12.042 -26.407 -10.482  0.00  0.00     0.040 A 
ATOM      4  C16 8X7 d   1     -10.815 -25.720 -10.482  0.00  0.00     0.100 A 
ATOM      5  C17 8X7 d   1      -9.790 -25.511  -9.522  0.00  0.00     0.278 A 
ATOM      6  O18 8X7 d   1      -9.691 -25.921  -8.314  0.00  0.00    -0.265 OA
ATOM      7  N19 8X7 d   1      -8.834 -24.751 -10.148  0.00  0.00    -0.243 N 
ATOM      8  N23 8X7 d   1      -9.220 -24.479 -11.400  0.00  0.00    -0.213 N 
ATOM      9  C24 8X7 d   1     -10.419 -25.061 -11.618  0.00  0.00     0.187 A 
ATOM     10  N25 8X7 d   1     -11.219 -25.088 -12.711  0.00  0.00    -0.042 NA
ATOM     11  H16 8X7 d   1     -12.379 -26.935  -9.597  0.00  0.00     0.117 H 
ENDROOT
BRANCH   1  12
ATOM     12  N12 8X7 d   1     -13.217 -25.770 -13.850  0.00  0.00    -0.188 N 
ATOM     13  H15 8X7 d   1     -14.119 -26.248 -13.713  0.00  0.00     0.184 HD
BRANCH  12  14
ATOM     14  C11 8X7 d   1     -13.020 -25.263 -15.113  0.00  0.00     0.049 A 
ATOM     15  C10 8X7 d   1     -12.377 -24.047 -15.452  0.00  0.00    -0.054 A 
ATOM     16  C09 8X7 d   1     -12.248 -23.650 -16.795  0.00  0.00    -0.055 A 
ATOM     17  H14 8X7 d   1     -11.979 -23.415 -14.666  0.00  0.00     0.087 H 
ATOM     18  C08 8X7 d   1     -12.751 -24.434 -17.868  0.00  0.00     0.030 A 
ATOM     19  H13 8X7 d   1     -11.748 -22.715 -17.019  0.00  0.00     0.087 H 
ATOM     20  C37 8X7 d   1     -13.396 -25.645 -17.510  0.00  0.00    -0.055 A 
ATOM     21  C36 8X7 d   1     -13.525 -26.044 -16.170  0.00  0.00    -0.054 A 
ATOM     22  H33 8X7 d   1     -13.800 -26.279 -18.291  0.00  0.00     0.087 H 
ATOM     23  H32 8X7 d   1     -14.027 -26.978 -15.943  0.00  0.00     0.087 H 
BRANCH  18  24
ATOM     24  N05 8X7 d   1     -12.629 -24.045 -19.205  0.00  0.00    -0.378 N 
ATOM     25  C04 8X7 d   1     -12.243 -22.676 -19.534  0.00  0.00     0.018 C 
ATOM     26  C03 8X7 d   1     -11.613 -22.540 -20.947  0.00  0.00     0.098 C 
ATOM     27  H7  8X7 d   1     -13.139 -22.040 -19.488  0.00  0.00     0.066 H 
ATOM     28  H8  8X7 d   1     -11.510 -22.331 -18.790  0.00  0.00     0.066 H 
ATOM     29  N02 8X7 d   1     -12.449 -23.227 -21.974  0.00  0.00    -0.072 N 
ATOM     30  H5  8X7 d   1     -11.532 -21.473 -21.204  0.00  0.00     0.078 H 
ATOM     31  H6  8X7 d   1     -10.610 -22.992 -20.939  0.00  0.00     0.078 H 
ATOM     32  C07 8X7 d   1     -12.671 -24.658 -21.608  0.00  0.00     0.098 C 
ATOM     33  H4  8X7 d   1     -13.357 -22.792 -21.925  0.00  0.00     0.279 HD
ATOM     34  C06 8X7 d   1     -13.415 -24.694 -20.247  0.00  0.00     0.018 C 
ATOM     35  H11 8X7 d   1     -11.704 -25.175 -21.519  0.00  0.00     0.078 H 
ATOM     36  H12 8X7 d   1     -13.280 -25.151 -22.380  0.00  0.00     0.078 H 
ATOM     37  H9  8X7 d   1     -14.378 -24.172 -20.349  0.00  0.00     0.066 H 
ATOM     38  H10 8X7 d   1     -13.594 -25.741 -19.963  0.00  0.00     0.066 H 
BRANCH  29  39
ATOM     39  C01 8X7 d   1     -11.988 -23.000 -23.373  0.00  0.00     0.066 C 
ATOM     40  H1  8X7 d   1     -11.854 -21.922 -23.544  0.00  0.00     0.068 H 
ATOM     41  H2  8X7 d   1     -12.739 -23.392 -24.075  0.00  0.00     0.068 H 
ATOM     42  H3  8X7 d   1     -11.031 -23.518 -23.532  0.00  0.00     0.068 H 
ENDBRANCH  29  39
ENDBRANCH  18  24
ENDBRANCH  12  14
ENDBRANCH   1  12
BRANCH   8  43
ATOM     43  C26 8X7 d   1      -8.602 -23.739 -12.385  0.00  0.00     0.151 A 
ATOM     44  N27 8X7 d   1      -7.806 -22.714 -12.015  0.00  0.00    -0.231 NA
ATOM     45  C28 8X7 d   1      -7.129 -21.886 -12.843  0.00  0.00     0.070 A 
ATOM     46  C29 8X7 d   1      -7.263 -22.084 -14.236  0.00  0.00    -0.056 A 
ATOM     47  C30 8X7 d   1      -8.087 -23.126 -14.694  0.00  0.00    -0.077 A 
ATOM     48  H22 8X7 d   1      -6.740 -21.444 -14.938  0.00  0.00     0.086 H 
ATOM     49  C31 8X7 d   1      -8.756 -23.956 -13.777  0.00  0.00    -0.037 A 
ATOM     50  H23 8X7 d   1      -8.207 -23.291 -15.759  0.00  0.00     0.083 H 
ATOM     51  H24 8X7 d   1      -9.389 -24.761 -14.134  0.00  0.00     0.089 H 
BRANCH  45  52
ATOM     52  C32 8X7 d   1      -6.292 -20.830 -12.209  0.00  0.00     0.095 C 
BRANCH  52  53
ATOM     53  C33 8X7 d   1      -5.843 -19.711 -13.190  0.00  0.00    -0.043 C 
ATOM     54  H25 8X7 d   1      -5.232 -18.973 -12.649  0.00  0.00     0.032 H 
ATOM     55  H26 8X7 d   1      -6.730 -19.215 -13.611  0.00  0.00     0.032 H 
ATOM     56  H27 8X7 d   1      -5.249 -20.153 -14.004  0.00  0.00     0.032 H 
ENDBRANCH  52  53
BRANCH  52  57
ATOM     57  C34 8X7 d   1      -5.084 -21.517 -11.513  0.00  0.00    -0.043 C 
ATOM     58  H28 8X7 d   1      -5.450 -22.299 -10.831  0.00  0.00     0.032 H 
ATOM     59  H29 8X7 d   1      -4.516 -20.768 -10.941  0.00  0.00     0.032 H 
ATOM     60  H30 8X7 d   1      -4.432 -21.970 -12.274  0.00  0.00     0.032 H 
ENDBRANCH  52  57
BRANCH  52  61
ATOM     61  O35 8X7 d   1      -7.046 -20.190 -11.174  0.00  0.00    -0.384 OA
ATOM     62  H31 8X7 d   1      -7.341 -20.842 -10.549  0.00  0.00     0.211 HD
ENDBRANCH  52  61
ENDBRANCH  45  52
ENDBRANCH   8  43
BRANCH   7  63
ATOM     63  C20 8X7 d   1      -7.607 -24.282  -9.502  0.00  0.00     0.033 C 
ATOM     64  H17 8X7 d   1      -7.878 -23.426  -8.867  0.00  0.00     0.073 H 
ATOM     65  H18 8X7 d   1      -6.925 -23.947 -10.297  0.00  0.00     0.073 H 
BRANCH  63  66
ATOM     66  C21 8X7 d   1      -6.871 -25.228  -8.667  0.00  0.00    -0.093 C 
ATOM     67  C22 8X7 d   1      -6.675 -26.494  -9.042  0.00  0.00    -0.123 C 
ATOM     68  H20 8X7 d   1      -6.122 -27.174  -8.396  0.00  0.00     0.066 H 
ATOM     69  H21 8X7 d   1      -7.068 -26.847  -9.994  0.00  0.00     0.066 H 
ATOM     70  H19 8X7 d   1      -6.471 -24.891  -7.712  0.00  0.00     0.078 H 
ENDBRANCH  63  66
ENDBRANCH   7  63
TORSDOF 11
