REMARK  6 active torsions:
REMARK  status: ('A' for Active; 'I' for Inactive)
REMARK    1  A    between atoms: CBA_4  and  NAA_5 
REMARK    2  A    between atoms: NBQ_11  and  CBO_12 
REMARK    3  A    between atoms: CBI_21  and  OAE_22 
REMARK    4  A    between atoms: C3'_32  and  O3'_33 
REMARK    5  A    between atoms: C1'_35  and  N9_36 
REMARK    6  A    between atoms: C6_44  and  N6_45 
ROOT
ATOM      1  CBO 1YC d   1     -25.659  14.920 -30.303  0.00  0.00     0.140 C 
ATOM      2  OAX 1YC d   1     -24.444  15.742 -30.480  0.00  0.00    -0.353 OA
ATOM      3  CBK 1YC d   1     -24.870  17.018 -31.085  0.00  0.00     0.089 C 
ATOM      4  CAN 1YC d   1     -24.920  18.092 -30.031  0.00  0.00     0.058 C 
ATOM      5  OP3 1YC d   1     -26.096  18.879 -30.179  0.00  0.00    -0.287 OA
ATOM      6  P2' 1YC d   1     -26.499  19.941 -28.922  0.00  0.00     0.408 P 
ATOM      7  O2' 1YC d   1     -28.109  19.981 -28.568  0.00  0.00    -0.277 OA
ATOM      8  OP2 1YC d   1     -25.855  21.325 -29.046  0.00  0.00    -0.624 OA
ATOM      9  OP1 1YC d   1     -25.860  19.336 -27.702  0.00  0.00    -0.624 OA
ATOM     10  CBI 1YC d   1     -26.190  16.787 -31.684  0.00  0.00     0.092 C 
ATOM     11  CBM 1YC d   1     -26.794  15.701 -30.962  0.00  0.00     0.120 C 
ATOM     12  OAZ 1YC d   1     -27.520  14.865 -31.841  0.00  0.00    -0.277 OA
ATOM     13  PBS 1YC d   1     -29.099  14.517 -31.473  0.00  0.00     0.408 P 
ATOM     14  OAH 1YC d   1     -29.257  13.362 -30.508  0.00  0.00    -0.624 OA
ATOM     15  OAI 1YC d   1     -29.706  14.023 -32.769  0.00  0.00    -0.624 OA
ATOM     16  O5' 1YC d   1     -30.022  15.877 -31.054  0.00  0.00    -0.287 OA
ATOM     17  C5' 1YC d   1     -29.997  16.283 -29.665  0.00  0.00     0.058 C 
ATOM     18  C4' 1YC d   1     -30.674  17.624 -29.514  0.00  0.00     0.089 C 
ATOM     19  O4' 1YC d   1     -30.983  17.830 -28.134  0.00  0.00    -0.353 OA
ATOM     20  C3' 1YC d   1     -29.676  18.695 -29.876  0.00  0.00     0.092 C 
ATOM     21  C2' 1YC d   1     -28.850  18.728 -28.674  0.00  0.00     0.120 C 
ATOM     22  C1' 1YC d   1     -29.859  18.574 -27.551  0.00  0.00     0.140 C 
ATOM     23  H6  1YC d   1     -25.585  13.947 -30.811  0.00  0.00     0.123 H 
ATOM     24  H7  1YC d   1     -24.158  17.318 -31.868  0.00  0.00     0.090 H 
ATOM     25  H8  1YC d   1     -24.036  18.739 -30.131  0.00  0.00     0.079 H 
ATOM     26  H9  1YC d   1     -24.921  17.623 -29.036  0.00  0.00     0.079 H 
ATOM     27  H10 1YC d   1     -26.810  17.692 -31.601  0.00  0.00     0.091 H 
ATOM     28  H12 1YC d   1     -27.474  16.095 -30.193  0.00  0.00     0.095 H 
ATOM     29  H13 1YC d   1     -28.954  16.360 -29.325  0.00  0.00     0.079 H 
ATOM     30  H14 1YC d   1     -30.527  15.536 -29.056  0.00  0.00     0.079 H 
ATOM     31  H15 1YC d   1     -31.576  17.683 -30.141  0.00  0.00     0.090 H 
ATOM     32  H16 1YC d   1     -29.092  18.431 -30.770  0.00  0.00     0.091 H 
ATOM     33  H18 1YC d   1     -28.137  17.890 -28.671  0.00  0.00     0.095 H 
ATOM     34  H19 1YC d   1     -30.151  19.585 -27.230  0.00  0.00     0.123 H 
ENDROOT
BRANCH   1  35
ATOM     35  NBQ 1YC d   1     -25.588  14.696 -28.797  0.00  0.00    -0.295 N 
ATOM     36  CBG 1YC d   1     -25.330  13.507 -28.173  0.00  0.00     0.161 A 
ATOM     37  NAS 1YC d   1     -25.048  12.155 -28.698  0.00  0.00    -0.174 N 
ATOM     38  CBE 1YC d   1     -25.359  13.729 -26.799  0.00  0.00     0.171 A 
ATOM     39  CBA 1YC d   1     -24.799  11.040 -27.769  0.00  0.00     0.680 A 
ATOM     40  H4  1YC d   1     -25.026  11.992 -29.715  0.00  0.00     0.186 HD
ATOM     41  NAT 1YC d   1     -24.829  11.266 -26.332  0.00  0.00    -0.154 N 
ATOM     42  CBC 1YC d   1     -25.099  12.566 -25.824  0.00  0.00     0.292 A 
ATOM     43  H1  1YC d   1     -24.660  10.508 -25.702  0.00  0.00     0.187 HD
ATOM     44  OAC 1YC d   1     -25.124  12.754 -24.659  0.00  0.00    -0.265 OA
ATOM     45  NAR 1YC d   1     -25.635  15.038 -26.594  0.00  0.00    -0.234 NA
ATOM     46  CAL 1YC d   1     -25.781  15.648 -27.841  0.00  0.00     0.071 A 
ATOM     47  H5  1YC d   1     -26.009  16.698 -28.018  0.00  0.00     0.144 H 
BRANCH  39  48
ATOM     48  NAA 1YC d   1     -24.525   9.719 -28.289  0.00  0.00    -0.234 N 
ATOM     49  H2  1YC d   1     -24.504   9.560 -29.306  0.00  0.00     0.174 HD
ATOM     50  H3  1YC d   1     -24.351   8.937 -27.642  0.00  0.00     0.174 HD
ENDBRANCH  39  48
ENDBRANCH   1  35
BRANCH  10  51
ATOM     51  OAE 1YC d   1     -26.039  16.418 -33.095  0.00  0.00    -0.390 OA
ATOM     52  H11 1YC d   1     -26.897  16.270 -33.476  0.00  0.00     0.210 HD
ENDBRANCH  10  51
BRANCH  20  53
ATOM     53  O3' 1YC d   1     -30.333  19.939 -30.070  0.00  0.00    -0.390 OA
ATOM     54  H17 1YC d   1     -29.692  20.602 -30.297  0.00  0.00     0.210 HD
ENDBRANCH  20  53
BRANCH  22  55
ATOM     55  N9  1YC d   1     -29.609  17.748 -26.335  0.00  0.00    -0.294 N 
ATOM     56  C8  1YC d   1     -29.327  16.422 -26.325  0.00  0.00     0.071 A 
ATOM     57  N7  1YC d   1     -29.153  16.035 -25.054  0.00  0.00    -0.236 NA
ATOM     58  H20 1YC d   1     -29.254  15.780 -27.202  0.00  0.00     0.144 H 
ATOM     59  C5  1YC d   1     -29.321  17.135 -24.237  0.00  0.00     0.149 A 
ATOM     60  C4  1YC d   1     -29.603  18.204 -25.033  0.00  0.00     0.167 A 
ATOM     61  C6  1YC d   1     -29.260  17.343 -22.814  0.00  0.00     0.155 A 
ATOM     62  N3  1YC d   1     -29.816  19.428 -24.448  0.00  0.00    -0.222 NA
ATOM     63  C2  1YC d   1     -29.752  19.585 -23.120  0.00  0.00     0.091 A 
ATOM     64  N1  1YC d   1     -29.479  18.571 -22.323  0.00  0.00    -0.222 NA
ATOM     65  H21 1YC d   1     -29.928  20.565 -22.692  0.00  0.00     0.146 H 
BRANCH  61  66
ATOM     66  N6  1YC d   1     -28.957  16.212 -21.912  0.00  0.00    -0.382 N 
ATOM     67  H22 1YC d   1     -28.914  16.363 -20.894  0.00  0.00     0.157 HD
ATOM     68  H23 1YC d   1     -28.789  15.273 -22.301  0.00  0.00     0.157 HD
ENDBRANCH  61  66
ENDBRANCH  22  55
TORSDOF 6
