REMARK  6 active torsions:
REMARK  status: ('A' for Active; 'I' for Inactive)
REMARK    1  A    between atoms: C6_3  and  N01_2 
REMARK    2  A    between atoms: N9_10  and  C1'_11 
REMARK    3  A    between atoms: C2'_12  and  O2'_13 
REMARK    4  A    between atoms: C22_22  and  O23_23 
REMARK    5  A    between atoms: C32_32  and  N33_33 
REMARK    6  A    between atoms: C40_40  and  N41_41 
ROOT
ATOM      1  C1' 1SY d   1      -0.589  26.501  57.511  0.00  0.00     0.140 C 
ATOM      2  C2' 1SY d   1      -1.545  25.551  56.840  0.00  0.00     0.106 C 
ATOM      3  C3' 1SY d   1      -1.500  25.970  55.432  0.00  0.00     0.106 C 
ATOM      4  C4' 1SY d   1      -0.133  26.472  55.224  0.00  0.00     0.090 C 
ATOM      5  C16 1SY d   1      -0.112  27.468  54.078  0.00  0.00     0.058 C 
ATOM      6  O17 1SY d   1      -0.659  28.647  54.617  0.00  0.00    -0.287 OA
ATOM      7  P18 1SY d   1      -1.192  29.835  53.582  0.00  0.00     0.408 P 
ATOM      8  O19 1SY d   1      -0.611  31.193  53.887  0.00  0.00    -0.624 OA
ATOM      9  O20 1SY d   1      -2.877  29.919  53.485  0.00  0.00    -0.277 OA
ATOM     10  C21 1SY d   1      -3.668  28.688  53.409  0.00  0.00     0.120 C 
ATOM     11  C22 1SY d   1      -3.912  28.290  52.059  0.00  0.00     0.092 C 
ATOM     12  C24 1SY d   1      -5.201  27.480  52.147  0.00  0.00     0.089 C 
ATOM     13  C25 1SY d   1      -4.966  26.052  52.383  0.00  0.00     0.058 C 
ATOM     14  O26 1SY d   1      -3.668  25.952  52.980  0.00  0.00    -0.287 OA
ATOM     15  P27 1SY d   1      -3.283  24.732  54.061  0.00  0.00     0.408 P 
ATOM     16  O28 1SY d   1      -1.747  24.882  54.537  0.00  0.00    -0.279 OA
ATOM     17  O29 1SY d   1      -4.208  24.544  55.227  0.00  0.00    -0.624 OA
ATOM     18  O30 1SY d   1      -3.372  23.432  53.276  0.00  0.00    -0.624 OA
ATOM     19  O31 1SY d   1      -5.872  27.997  53.334  0.00  0.00    -0.353 OA
ATOM     20  C32 1SY d   1      -5.014  29.004  53.882  0.00  0.00     0.140 C 
ATOM     21  O44 1SY d   1      -0.723  29.466  52.196  0.00  0.00    -0.624 OA
ATOM     22  O4' 1SY d   1       0.170  27.149  56.434  0.00  0.00    -0.353 OA
ATOM     23  H5  1SY d   1       0.073  25.941  58.188  0.00  0.00     0.122 H 
ATOM     24  H6  1SY d   1      -2.561  25.660  57.247  0.00  0.00     0.093 H 
ATOM     25  H8  1SY d   1      -2.238  26.765  55.250  0.00  0.00     0.092 H 
ATOM     26  H9  1SY d   1       0.572  25.650  55.031  0.00  0.00     0.090 H 
ATOM     27  H10 1SY d   1      -0.723  27.106  53.238  0.00  0.00     0.079 H 
ATOM     28  H11 1SY d   1       0.918  27.641  53.734  0.00  0.00     0.079 H 
ATOM     29  H12 1SY d   1      -3.192  27.884  53.990  0.00  0.00     0.095 H 
ATOM     30  H13 1SY d   1      -3.083  27.690  51.656  0.00  0.00     0.091 H 
ATOM     31  H15 1SY d   1      -5.808  27.619  51.240  0.00  0.00     0.090 H 
ATOM     32  H16 1SY d   1      -4.992  25.500  51.432  0.00  0.00     0.079 H 
ATOM     33  H17 1SY d   1      -5.730  25.647  53.063  0.00  0.00     0.079 H 
ATOM     34  H18 1SY d   1      -5.312  30.010  53.551  0.00  0.00     0.123 H 
ENDROOT
BRANCH  20  35
ATOM     35  N33 1SY d   1      -5.108  28.902  55.303  0.00  0.00    -0.295 N 
ATOM     36  C34 1SY d   1      -4.982  27.790  56.025  0.00  0.00     0.071 A 
ATOM     37  N35 1SY d   1      -5.146  28.087  57.313  0.00  0.00    -0.234 NA
ATOM     38  H19 1SY d   1      -4.778  26.797  55.626  0.00  0.00     0.144 H 
ATOM     39  C37 1SY d   1      -5.396  29.398  57.405  0.00  0.00     0.171 A 
ATOM     40  C36 1SY d   1      -5.371  29.915  56.121  0.00  0.00     0.161 A 
ATOM     41  C38 1SY d   1      -5.670  30.302  58.583  0.00  0.00     0.292 A 
ATOM     42  N42 1SY d   1      -5.604  31.344  55.857  0.00  0.00    -0.174 N 
ATOM     43  C40 1SY d   1      -5.868  32.213  56.994  0.00  0.00     0.680 A 
ATOM     44  H23 1SY d   1      -5.581  31.717  54.897  0.00  0.00     0.186 HD
ATOM     45  N39 1SY d   1      -5.904  31.695  58.349  0.00  0.00    -0.154 N 
ATOM     46  H20 1SY d   1      -6.091  32.308  59.116  0.00  0.00     0.187 HD
ATOM     47  O43 1SY d   1      -5.693  29.828  59.680  0.00  0.00    -0.265 OA
BRANCH  43  48
ATOM     48  N41 1SY d   1      -6.092  33.637  56.728  0.00  0.00    -0.234 N 
ATOM     49  H21 1SY d   1      -6.064  33.991  55.761  0.00  0.00     0.174 HD
ATOM     50  H22 1SY d   1      -6.278  34.284  57.508  0.00  0.00     0.174 HD
ENDBRANCH  43  48
ENDBRANCH  20  35
BRANCH  11  51
ATOM     51  O23 1SY d   1      -4.131  29.458  51.247  0.00  0.00    -0.390 OA
ATOM     52  H14 1SY d   1      -3.361  30.014  51.280  0.00  0.00     0.210 HD
ENDBRANCH  11  51
BRANCH   2  53
ATOM     53  O2' 1SY d   1      -1.107  24.193  57.010  0.00  0.00    -0.388 OA
ATOM     54  H7  1SY d   1      -1.720  23.608  56.581  0.00  0.00     0.210 HD
ENDBRANCH   2  53
BRANCH   1  55
ATOM     55  N9  1SY d   1      -1.207  27.548  58.211  0.00  0.00    -0.294 N 
ATOM     56  C4  1SY d   1      -1.692  27.515  59.479  0.00  0.00     0.167 A 
ATOM     57  N3  1SY d   1      -1.758  26.556  60.416  0.00  0.00    -0.222 NA
ATOM     58  C5  1SY d   1      -2.180  28.776  59.751  0.00  0.00     0.149 A 
ATOM     59  C2  1SY d   1      -2.285  26.817  61.597  0.00  0.00     0.091 A 
ATOM     60  N1  1SY d   1      -2.766  28.018  61.897  0.00  0.00    -0.222 NA
ATOM     61  H1  1SY d   1      -2.326  26.031  62.342  0.00  0.00     0.146 H 
ATOM     62  C6  1SY d   1      -2.734  29.016  61.021  0.00  0.00     0.155 A 
ATOM     63  N7  1SY d   1      -1.982  29.525  58.642  0.00  0.00    -0.236 NA
ATOM     64  C8  1SY d   1      -1.392  28.767  57.722  0.00  0.00     0.071 A 
ATOM     65  H4  1SY d   1      -1.106  29.096  56.724  0.00  0.00     0.144 H 
BRANCH  62  66
ATOM     66  N01 1SY d   1      -3.271  30.306  61.375  0.00  0.00    -0.382 N 
ATOM     67  H2  1SY d   1      -3.245  31.079  60.695  0.00  0.00     0.157 HD
ATOM     68  H3  1SY d   1      -3.680  30.455  62.308  0.00  0.00     0.157 HD
ENDBRANCH  62  66
ENDBRANCH   1  55
TORSDOF 6
