REMARK  15 active torsions:
REMARK  status: ('A' for Active; 'I' for Inactive)
REMARK    1  A    between atoms: C17_2  and  O18_23 
REMARK    2  A    between atoms: C24_3  and  C23_11 
REMARK    3  A    between atoms: C04_5  and  N05_16 
REMARK    4  A    between atoms: C12_8  and  N11_19 
REMARK    5  A    between atoms: C14_9  and  C15_21 
REMARK    6  A    between atoms: O20_24  and  C19_10 
REMARK    7  A    between atoms: C23_11  and  O22_26 
REMARK    8  A    between atoms: C25_12  and  O26_27 
REMARK    9  A    between atoms: C33_34  and  N34_13 
REMARK   10  A    between atoms: C15_21  and  O16_22 
REMARK   11  A    between atoms: P21_25  and  O20_24 
REMARK   12  A    between atoms: O22_26  and  P21_25 
REMARK   13  A    between atoms: O26_27  and  P27_28 
REMARK   14  A    between atoms: C31_32  and  O32_33 
REMARK   15  A    between atoms: C39_39  and  N40_40 
ROOT
ATOM      1  P21 9BG d   1     -28.715 -10.794 -28.300  0.00  0.00     0.408 P 
ATOM      2  O45 9BG d   1     -29.779 -11.486 -29.030  0.00  0.00    -0.624 OA
ATOM      3  O46 9BG d   1     -29.292  -9.506 -27.625  0.00  0.00    -0.624 OA
ENDROOT
BRANCH   1   4
ATOM      4  O20 9BG d   1     -27.516 -10.353 -29.368  0.00  0.00    -0.277 OA
BRANCH   4   5
ATOM      5  C19 9BG d   1     -27.157  -8.871 -29.441  0.00  0.00     0.120 C 
ATOM      6  C17 9BG d   1     -27.287  -8.434 -30.657  0.00  0.00     0.092 C 
ATOM      7  C14 9BG d   1     -26.060  -7.313 -30.914  0.00  0.00     0.088 C 
ATOM      8  H2  9BG d   1     -28.269  -7.955 -30.783  0.00  0.00     0.091 H 
ATOM      9  O13 9BG d   1     -25.239  -7.396 -29.942  0.00  0.00    -0.353 OA
ATOM     10  H5  9BG d   1     -25.543  -7.541 -31.858  0.00  0.00     0.090 H 
ATOM     11  C12 9BG d   1     -25.657  -8.688 -29.113  0.00  0.00     0.140 C 
ATOM     12  H4  9BG d   1     -25.079  -9.565 -29.441  0.00  0.00     0.123 H 
ATOM     13  H6  9BG d   1     -27.788  -8.296 -28.747  0.00  0.00     0.095 H 
BRANCH   6  14
ATOM     14  O18 9BG d   1     -27.162  -9.516 -31.580  0.00  0.00    -0.390 OA
ATOM     15  H17 9BG d   1     -27.838 -10.160 -31.405  0.00  0.00     0.210 HD
ENDBRANCH   6  14
BRANCH   7  16
ATOM     16  C15 9BG d   1     -26.628  -5.915 -30.982  0.00  0.00     0.043 C 
ATOM     17  H14 9BG d   1     -27.702  -5.960 -31.214  0.00  0.00     0.078 H 
ATOM     18  H15 9BG d   1     -26.108  -5.339 -31.762  0.00  0.00     0.078 H 
BRANCH  16  19
ATOM     19  O16 9BG d   1     -26.431  -5.282 -29.691  0.00  0.00    -0.398 OA
ATOM     20  H16 9BG d   1     -25.502  -5.248 -29.494  0.00  0.00     0.209 HD
ENDBRANCH  16  19
ENDBRANCH   7  16
BRANCH  11  21
ATOM     21  N11 9BG d   1     -25.463  -8.497 -27.817  0.00  0.00    -0.295 N 
ATOM     22  C10 9BG d   1     -25.527  -7.298 -27.175  0.00  0.00     0.071 A 
ATOM     23  N09 9BG d   1     -25.257  -7.517 -25.843  0.00  0.00    -0.234 NA
ATOM     24  H1  9BG d   1     -25.752  -6.336 -27.634  0.00  0.00     0.144 H 
ATOM     25  C08 9BG d   1     -25.027  -8.831 -25.670  0.00  0.00     0.171 A 
ATOM     26  C02 9BG d   1     -24.680  -9.655 -24.423  0.00  0.00     0.292 A 
ATOM     27  C07 9BG d   1     -25.155  -9.448 -26.911  0.00  0.00     0.161 A 
ATOM     28  O01 9BG d   1     -24.571  -9.122 -23.363  0.00  0.00    -0.265 OA
ATOM     29  N03 9BG d   1     -24.487 -11.072 -24.538  0.00  0.00    -0.154 N 
ATOM     30  C04 9BG d   1     -24.621 -11.715 -25.838  0.00  0.00     0.680 A 
ATOM     31  H10 9BG d   1     -24.262 -11.616 -23.730  0.00  0.00     0.187 HD
ATOM     32  N06 9BG d   1     -24.955 -10.911 -27.030  0.00  0.00    -0.174 N 
ATOM     33  H13 9BG d   1     -25.049 -11.369 -27.948  0.00  0.00     0.186 HD
BRANCH  30  34
ATOM     34  N05 9BG d   1     -24.432 -13.116 -25.964  0.00  0.00    -0.234 N 
ATOM     35  H11 9BG d   1     -24.527 -13.568 -26.885  0.00  0.00     0.174 HD
ATOM     36  H12 9BG d   1     -24.199 -13.681 -25.135  0.00  0.00     0.174 HD
ENDBRANCH  30  34
ENDBRANCH  11  21
ENDBRANCH   4   5
ENDBRANCH   1   4
BRANCH   1  37
ATOM     37  O22 9BG d   1     -28.081 -11.798 -27.119  0.00  0.00    -0.287 OA
BRANCH  37  38
ATOM     38  C23 9BG d   1     -28.976 -12.397 -26.204  0.00  0.00     0.058 C 
ATOM     39  H7  9BG d   1     -29.966 -11.927 -26.301  0.00  0.00     0.079 H 
ATOM     40  H8  9BG d   1     -29.057 -13.472 -26.423  0.00  0.00     0.079 H 
BRANCH  38  41
ATOM     41  C24 9BG d   1     -28.466 -12.209 -24.787  0.00  0.00     0.090 C 
ATOM     42  C25 9BG d   1     -29.751 -12.026 -23.731  0.00  0.00     0.107 C 
ATOM     43  C31 9BG d   1     -29.381 -11.217 -22.815  0.00  0.00     0.106 C 
ATOM     44  H9  9BG d   1     -30.615 -11.610 -24.270  0.00  0.00     0.092 H 
ATOM     45  C33 9BG d   1     -28.123 -10.448 -23.376  0.00  0.00     0.140 C 
ATOM     46  H18 9BG d   1     -30.191 -10.508 -22.587  0.00  0.00     0.093 H 
ATOM     47  O44 9BG d   1     -27.760 -11.134 -24.718  0.00  0.00    -0.353 OA
ATOM     48  H20 9BG d   1     -27.285 -10.528 -22.667  0.00  0.00     0.122 H 
ATOM     49  H3  9BG d   1     -27.860 -13.079 -24.496  0.00  0.00     0.090 H 
BRANCH  42  50
ATOM     50  O26 9BG d   1     -30.135 -13.328 -23.127  0.00  0.00    -0.272 OA
BRANCH  50  51
ATOM     51  P27 9BG d   1     -30.583 -14.666 -24.129  0.00  0.00     0.422 P 
ATOM     52  O28 9BG d   1     -31.279 -14.177 -25.371  0.00  0.00    -0.617 OA
ATOM     53  O29 9BG d   1     -31.504 -15.554 -23.370  0.00  0.00    -0.617 OA
ATOM     54  O30 9BG d   1     -29.332 -15.455 -24.528  0.00  0.00    -0.617 OA
ENDBRANCH  50  51
ENDBRANCH  42  50
BRANCH  43  55
ATOM     55  O32 9BG d   1     -28.999 -11.969 -21.556  0.00  0.00    -0.388 OA
ATOM     56  H19 9BG d   1     -29.748 -12.464 -21.244  0.00  0.00     0.210 HD
ENDBRANCH  43  55
BRANCH  45  57
ATOM     57  N34 9BG d   1     -28.401  -9.162 -23.588  0.00  0.00    -0.294 N 
ATOM     58  C35 9BG d   1     -28.253  -8.129 -22.664  0.00  0.00     0.167 A 
ATOM     59  N36 9BG d   1     -27.826  -8.091 -21.351  0.00  0.00    -0.222 NA
ATOM     60  C41 9BG d   1     -28.632  -6.994 -23.280  0.00  0.00     0.149 A 
ATOM     61  C37 9BG d   1     -27.792  -6.959 -20.719  0.00  0.00     0.091 A 
ATOM     62  N38 9BG d   1     -28.155  -5.832 -21.290  0.00  0.00    -0.222 NA
ATOM     63  H21 9BG d   1     -27.454  -6.942 -19.689  0.00  0.00     0.146 H 
ATOM     64  C39 9BG d   1     -28.579  -5.797 -22.558  0.00  0.00     0.155 A 
ATOM     65  N42 9BG d   1     -28.995  -7.312 -24.529  0.00  0.00    -0.236 NA
ATOM     66  C43 9BG d   1     -28.840  -8.661 -24.691  0.00  0.00     0.071 A 
ATOM     67  H24 9BG d   1     -29.052  -9.219 -25.602  0.00  0.00     0.144 H 
BRANCH  64  68
ATOM     68  N40 9BG d   1     -28.980  -4.532 -23.179  0.00  0.00    -0.382 N 
ATOM     69  H22 9BG d   1     -29.305  -4.518 -24.156  0.00  0.00     0.157 HD
ATOM     70  H23 9BG d   1     -28.937  -3.656 -22.638  0.00  0.00     0.157 HD
ENDBRANCH  64  68
ENDBRANCH  45  57
ENDBRANCH  38  41
ENDBRANCH  37  38
ENDBRANCH   1  37
TORSDOF 15
