REMARK  4 active torsions:
REMARK  status: ('A' for Active; 'I' for Inactive)
REMARK    1  A    between atoms: C11_1  and  N10_25 
REMARK    2  A    between atoms: C27_10  and  O28_33 
REMARK    3  A    between atoms: C29_11  and  N30_34 
REMARK    4  A    between atoms: C43_43  and  O44_44 
ROOT
ATOM      1  C11 9B7 d   1     -29.423  -1.227  25.311  0.00  0.00     0.139 C 
ATOM      2  C13 9B7 d   1     -29.238  -0.266  27.348  0.00  0.00     0.090 C 
ATOM      3  C14 9B7 d   1     -28.928   1.040  28.030  0.00  0.00     0.058 C 
ATOM      4  O17 9B7 d   1     -28.545   4.276  25.941  0.00  0.00    -0.624 OA
ATOM      5  C19 9B7 d   1     -27.832  -1.029  26.878  0.00  0.00     0.106 C 
ATOM      6  O22 9B7 d   1     -25.056   0.179  27.728  0.00  0.00    -0.287 OA
ATOM      7  C23 9B7 d   1     -25.235   1.228  28.675  0.00  0.00     0.058 C 
ATOM      8  C24 9B7 d   1     -24.959   2.555  27.997  0.00  0.00     0.090 C 
ATOM      9  C25 9B7 d   1     -25.945   2.898  27.235  0.00  0.00     0.106 C 
ATOM     10  C27 9B7 d   1     -25.285   3.947  26.356  0.00  0.00     0.106 C 
ATOM     11  C29 9B7 d   1     -23.959   3.234  25.983  0.00  0.00     0.139 C 
ATOM     12  O12 9B7 d   1     -29.872  -0.066  26.249  0.00  0.00    -0.353 OA
ATOM     13  O15 9B7 d   1     -29.356   2.082  27.192  0.00  0.00    -0.287 OA
ATOM     14  P16 9B7 d   1     -28.572   3.545  27.262  0.00  0.00     0.408 P 
ATOM     15  O18 9B7 d   1     -29.431   4.401  28.159  0.00  0.00    -0.624 OA
ATOM     16  O20 9B7 d   1     -27.156  -1.628  28.018  0.00  0.00    -0.279 OA
ATOM     17  P21 9B7 d   1     -25.522  -1.359  28.173  0.00  0.00     0.408 P 
ATOM     18  O26 9B7 d   1     -27.093   3.486  28.017  0.00  0.00    -0.279 OA
ATOM     19  O40 9B7 d   1     -23.700   2.451  26.969  0.00  0.00    -0.353 OA
ATOM     20  O41 9B7 d   1     -24.952  -1.813  29.495  0.00  0.00    -0.624 OA
ATOM     21  O42 9B7 d   1     -24.885  -2.264  27.149  0.00  0.00    -0.624 OA
ATOM     22  C43 9B7 d   1     -28.237  -1.922  26.074  0.00  0.00     0.106 C 
ATOM     23  H1  9B7 d   1     -30.249  -1.935  25.145  0.00  0.00     0.122 H 
ATOM     24  H2  9B7 d   1     -29.823  -0.906  28.026  0.00  0.00     0.090 H 
ATOM     25  H3  9B7 d   1     -27.845   1.122  28.204  0.00  0.00     0.079 H 
ATOM     26  H4  9B7 d   1     -29.459   1.093  28.992  0.00  0.00     0.079 H 
ATOM     27  H5  9B7 d   1     -27.152  -0.326  26.376  0.00  0.00     0.092 H 
ATOM     28  H6  9B7 d   1     -24.538   1.090  29.515  0.00  0.00     0.079 H 
ATOM     29  H7  9B7 d   1     -26.269   1.214  29.051  0.00  0.00     0.079 H 
ATOM     30  H8  9B7 d   1     -24.772   3.322  28.763  0.00  0.00     0.090 H 
ATOM     31  H9  9B7 d   1     -26.307   2.045  26.642  0.00  0.00     0.092 H 
ATOM     32  H10 9B7 d   1     -25.891   4.186  25.469  0.00  0.00     0.093 H 
ATOM     33  H11 9B7 d   1     -23.143   3.957  25.832  0.00  0.00     0.122 H 
ATOM     34  H19 9B7 d   1     -27.440  -2.228  25.381  0.00  0.00     0.093 H 
ENDROOT
BRANCH   1  35
ATOM     35  N10 9B7 d   1     -29.006  -0.756  24.155  0.00  0.00    -0.295 N 
ATOM     36  C06 9B7 d   1     -28.815  -1.475  23.040  0.00  0.00     0.146 A 
ATOM     37  N05 9B7 d   1     -28.988  -2.921  22.723  0.00  0.00    -0.335 N 
ATOM     38  C07 9B7 d   1     -28.375  -0.599  22.064  0.00  0.00     0.172 A 
ATOM     39  C04 9B7 d   1     -28.691  -3.422  21.375  0.00  0.00     0.069 A 
ATOM     40  H14 9B7 d   1     -29.317  -3.571  23.451  0.00  0.00     0.168 HD
ATOM     41  N03 9B7 d   1     -28.228  -2.506  20.346  0.00  0.00    -0.203 NA
ATOM     42  H13 9B7 d   1     -28.818  -4.479  21.146  0.00  0.00     0.143 H 
ATOM     43  C02 9B7 d   1     -28.064  -1.112  20.655  0.00  0.00     0.300 A 
ATOM     44  O01 9B7 d   1     -27.688  -0.361  19.822  0.00  0.00    -0.263 OA
ATOM     45  N08 9B7 d   1     -28.319   0.613  22.632  0.00  0.00    -0.234 NA
ATOM     46  C09 9B7 d   1     -28.702   0.506  23.895  0.00  0.00     0.071 A 
ATOM     47  H15 9B7 d   1     -28.758   1.327  24.608  0.00  0.00     0.144 H 
ENDBRANCH   1  35
BRANCH  22  48
ATOM     48  O44 9B7 d   1     -28.739  -3.111  26.836  0.00  0.00    -0.388 OA
ATOM     49  H20 9B7 d   1     -28.036  -3.465  27.368  0.00  0.00     0.210 HD
ENDBRANCH  22  48
BRANCH  10  50
ATOM     50  O28 9B7 d   1     -25.033   5.074  27.071  0.00  0.00    -0.388 OA
ATOM     51  H16 9B7 d   1     -25.854   5.498  27.291  0.00  0.00     0.210 HD
ENDBRANCH  10  50
BRANCH  11  52
ATOM     52  N30 9B7 d   1     -24.195   2.445  24.733  0.00  0.00    -0.295 N 
ATOM     53  C31 9B7 d   1     -24.463   2.961  23.521  0.00  0.00     0.146 A 
ATOM     54  C37 9B7 d   1     -24.620   1.889  22.656  0.00  0.00     0.172 A 
ATOM     55  N32 9B7 d   1     -24.600   4.358  23.017  0.00  0.00    -0.335 N 
ATOM     56  C35 9B7 d   1     -24.934   2.140  21.177  0.00  0.00     0.300 A 
ATOM     57  N38 9B7 d   1     -24.445   0.772  23.375  0.00  0.00    -0.234 NA
ATOM     58  N34 9B7 d   1     -25.067   3.485  20.688  0.00  0.00    -0.203 NA
ATOM     59  O36 9B7 d   1     -25.068   1.226  20.438  0.00  0.00    -0.263 OA
ATOM     60  C33 9B7 d   1     -24.902   4.602  21.599  0.00  0.00     0.069 A 
ATOM     61  H18 9B7 d   1     -25.002   5.622  21.232  0.00  0.00     0.143 H 
ATOM     62  C39 9B7 d   1     -24.191   1.124  24.631  0.00  0.00     0.071 A 
ATOM     63  H12 9B7 d   1     -24.008   0.432  25.452  0.00  0.00     0.144 H 
ATOM     64  H17 9B7 d   1     -24.483   5.152  23.663  0.00  0.00     0.168 HD
ENDBRANCH  11  52
TORSDOF 4
