REMARK  4 active torsions:
REMARK  status: ('A' for Active; 'I' for Inactive)
REMARK    1  A    between atoms: N11_14  and  C10_1 
REMARK    2  A    between atoms: C08_12  and  O09_13 
REMARK    3  A    between atoms: C29_29  and  N30_30 
REMARK    4  A    between atoms: C38_38  and  O39_39 
ROOT
ATOM      1  C10 9BJ d   1     -23.383   3.054  27.609  0.00  0.00     0.137 C 
ATOM      2  C21 9BJ d   1     -27.506  -1.524  25.370  0.00  0.00     0.106 C 
ATOM      3  C22 9BJ d   1     -28.725  -1.235  25.627  0.00  0.00     0.090 C 
ATOM      4  O01 9BJ d   1     -24.246  -2.446  26.301  0.00  0.00    -0.624 OA
ATOM      5  P02 9BJ d   1     -25.376  -1.755  27.036  0.00  0.00     0.408 P 
ATOM      6  O03 9BJ d   1     -25.195  -0.091  27.154  0.00  0.00    -0.287 OA
ATOM      7  C04 9BJ d   1     -25.554   0.549  28.382  0.00  0.00     0.058 C 
ATOM      8  C05 9BJ d   1     -25.171   1.880  28.340  0.00  0.00     0.090 C 
ATOM      9  C06 9BJ d   1     -25.578   2.568  26.934  0.00  0.00     0.106 C 
ATOM     10  O07 9BJ d   1     -26.995   3.058  26.974  0.00  0.00    -0.279 OA
ATOM     11  C08 9BJ d   1     -24.790   3.521  26.830  0.00  0.00     0.105 C 
ATOM     12  O19 9BJ d   1     -23.673   2.015  28.377  0.00  0.00    -0.354 OA
ATOM     13  O20 9BJ d   1     -26.892  -2.243  26.528  0.00  0.00    -0.279 OA
ATOM     14  C23 9BJ d   1     -28.822   0.175  26.164  0.00  0.00     0.058 C 
ATOM     15  O24 9BJ d   1     -28.042   1.040  25.333  0.00  0.00    -0.287 OA
ATOM     16  P25 9BJ d   1     -27.983   2.683  25.680  0.00  0.00     0.408 P 
ATOM     17  O26 9BJ d   1     -27.751   3.553  24.462  0.00  0.00    -0.624 OA
ATOM     18  O27 9BJ d   1     -29.377   3.044  26.137  0.00  0.00    -0.624 OA
ATOM     19  O28 9BJ d   1     -29.570  -1.374  24.194  0.00  0.00    -0.354 OA
ATOM     20  C29 9BJ d   1     -28.793  -1.931  23.314  0.00  0.00     0.137 C 
ATOM     21  C38 9BJ d   1     -27.576  -2.468  24.114  0.00  0.00     0.105 C 
ATOM     22  O40 9BJ d   1     -25.278  -2.253  28.456  0.00  0.00    -0.624 OA
ATOM     23  H1  9BJ d   1     -23.020   3.848  28.278  0.00  0.00     0.122 H 
ATOM     24  H4  9BJ d   1     -26.926  -0.616  25.146  0.00  0.00     0.092 H 
ATOM     25  H5  9BJ d   1     -29.130  -1.937  26.371  0.00  0.00     0.090 H 
ATOM     26  H6  9BJ d   1     -25.046   0.048  29.219  0.00  0.00     0.079 H 
ATOM     27  H7  9BJ d   1     -26.643   0.485  28.524  0.00  0.00     0.079 H 
ATOM     28  H8  9BJ d   1     -25.632   2.416  29.183  0.00  0.00     0.090 H 
ATOM     29  H9  9BJ d   1     -25.454   1.862  26.100  0.00  0.00     0.092 H 
ATOM     30  H10 9BJ d   1     -24.588   3.737  25.770  0.00  0.00     0.093 H 
ATOM     31  H15 9BJ d   1     -28.437   0.206  27.194  0.00  0.00     0.079 H 
ATOM     32  H16 9BJ d   1     -29.872   0.502  26.155  0.00  0.00     0.079 H 
ATOM     33  H17 9BJ d   1     -29.363  -2.750  22.850  0.00  0.00     0.122 H 
ATOM     34  H23 9BJ d   1     -26.652  -2.412  23.520  0.00  0.00     0.093 H 
ENDROOT
BRANCH   1  35
ATOM     35  N11 9BJ d   1     -22.447   2.964  26.461  0.00  0.00    -0.304 N 
ATOM     36  C12 9BJ d   1     -22.328   1.723  25.709  0.00  0.00     0.010 A 
ATOM     37  C13 9BJ d   1     -21.379   1.638  24.550  0.00  0.00     0.025 A 
ATOM     38  H12 9BJ d   1     -22.025   0.945  26.425  0.00  0.00     0.065 H 
ATOM     39  H13 9BJ d   1     -23.329   1.491  25.317  0.00  0.00     0.065 H 
ATOM     40  C14 9BJ d   1     -20.555   2.829  24.175  0.00  0.00     0.227 A 
ATOM     41  H2  9BJ d   1     -21.978   1.374  23.666  0.00  0.00     0.049 H 
ATOM     42  H3  9BJ d   1     -20.676   0.822  24.773  0.00  0.00     0.049 H 
ATOM     43  N15 9BJ d   1     -20.678   4.064  24.933  0.00  0.00    -0.279 N 
ATOM     44  O18 9BJ d   1     -19.801   2.765  23.258  0.00  0.00    -0.273 OA
ATOM     45  C16 9BJ d   1     -21.623   4.145  26.083  0.00  0.00     0.327 A 
ATOM     46  H14 9BJ d   1     -20.128   4.860  24.682  0.00  0.00     0.173 HD
ATOM     47  O17 9BJ d   1     -21.719   5.155  26.697  0.00  0.00    -0.247 OA
ENDBRANCH   1  35
BRANCH  11  48
ATOM     48  O09 9BJ d   1     -25.350   4.720  27.482  0.00  0.00    -0.388 OA
ATOM     49  H11 9BJ d   1     -26.173   4.950  27.067  0.00  0.00     0.210 HD
ENDBRANCH  11  48
BRANCH  21  50
ATOM     50  O39 9BJ d   1     -27.798  -3.726  24.497  0.00  0.00    -0.388 OA
ATOM     51  H24 9BJ d   1     -27.048  -4.044  24.985  0.00  0.00     0.210 HD
ENDBRANCH  21  50
BRANCH  20  52
ATOM     52  N30 9BJ d   1     -28.126  -1.161  22.221  0.00  0.00    -0.304 N 
ATOM     53  C31 9BJ d   1     -27.747  -1.834  20.947  0.00  0.00     0.327 A 
ATOM     54  N32 9BJ d   1     -27.092  -1.054  19.854  0.00  0.00    -0.279 N 
ATOM     55  O37 9BJ d   1     -27.964  -2.992  20.797  0.00  0.00    -0.247 OA
ATOM     56  C33 9BJ d   1     -26.822   0.366  20.025  0.00  0.00     0.227 A 
ATOM     57  H18 9BJ d   1     -26.838  -1.510  19.001  0.00  0.00     0.173 HD
ATOM     58  C34 9BJ d   1     -27.203   1.048  21.300  0.00  0.00     0.025 A 
ATOM     59  O36 9BJ d   1     -26.299   0.987  19.156  0.00  0.00    -0.273 OA
ATOM     60  C35 9BJ d   1     -27.860   0.260  22.393  0.00  0.00     0.010 A 
ATOM     61  H19 9BJ d   1     -27.894   1.862  21.033  0.00  0.00     0.049 H 
ATOM     62  H20 9BJ d   1     -26.281   1.474  21.723  0.00  0.00     0.049 H 
ATOM     63  H21 9BJ d   1     -27.217   0.355  23.280  0.00  0.00     0.065 H 
ATOM     64  H22 9BJ d   1     -28.830   0.741  22.589  0.00  0.00     0.065 H 
ENDBRANCH  20  52
TORSDOF 4
