REMARK  6 active torsions:
REMARK  status: ('A' for Active; 'I' for Inactive)
REMARK    1  A    between atoms: CBA_4  and  NAA_5 
REMARK    2  A    between atoms: NBQ_11  and  CBO_12 
REMARK    3  A    between atoms: CBI_13  and  OAG_14 
REMARK    4  A    between atoms: C2'_33  and  O2'_34 
REMARK    5  A    between atoms: C1'_35  and  N9_36 
REMARK    6  A    between atoms: C6_44  and  N6_45 
ROOT
ATOM      1  CBO 4BW d   1     -23.836  13.353 -25.699  0.00  0.00     0.139 C 
ATOM      2  CBI 4BW d   1     -25.257  12.660 -26.006  0.00  0.00     0.106 C 
ATOM      3  OAX 4BW d   1     -23.435  14.039 -26.992  0.00  0.00    -0.353 OA
ATOM      4  CBK 4BW d   1     -24.429  13.835 -27.840  0.00  0.00     0.090 C 
ATOM      5  CAN 4BW d   1     -24.760  15.103 -28.580  0.00  0.00     0.058 C 
ATOM      6  OAV 4BW d   1     -24.586  16.211 -27.688  0.00  0.00    -0.287 OA
ATOM      7  PBR 4BW d   1     -25.060  17.726 -28.212  0.00  0.00     0.408 P 
ATOM      8  O3' 4BW d   1     -26.630  17.780 -28.735  0.00  0.00    -0.279 OA
ATOM      9  OAH 4BW d   1     -24.076  18.395 -29.158  0.00  0.00    -0.624 OA
ATOM     10  OAD 4BW d   1     -25.021  18.583 -26.962  0.00  0.00    -0.624 OA
ATOM     11  CBM 4BW d   1     -25.733  13.370 -26.925  0.00  0.00     0.106 C 
ATOM     12  OAZ 4BW d   1     -26.647  12.604 -27.753  0.00  0.00    -0.279 OA
ATOM     13  PBS 4BW d   1     -28.303  13.056 -27.732  0.00  0.00     0.408 P 
ATOM     14  OAI 4BW d   1     -29.137  12.371 -28.779  0.00  0.00    -0.624 OA
ATOM     15  OAE 4BW d   1     -28.795  12.525 -26.420  0.00  0.00    -0.624 OA
ATOM     16  O5' 4BW d   1     -28.579  14.760 -27.633  0.00  0.00    -0.287 OA
ATOM     17  C5' 4BW d   1     -28.664  15.513 -28.827  0.00  0.00     0.058 C 
ATOM     18  C4' 4BW d   1     -28.733  16.999 -28.424  0.00  0.00     0.090 C 
ATOM     19  O4' 4BW d   1     -29.894  17.215 -27.308  0.00  0.00    -0.353 OA
ATOM     20  C3' 4BW d   1     -27.662  17.336 -27.808  0.00  0.00     0.106 C 
ATOM     21  C2' 4BW d   1     -28.138  18.588 -26.842  0.00  0.00     0.106 C 
ATOM     22  C1' 4BW d   1     -29.270  18.140 -26.266  0.00  0.00     0.140 C 
ATOM     23  H6  4BW d   1     -23.073  12.602 -25.447  0.00  0.00     0.122 H 
ATOM     24  H7  4BW d   1     -25.908  12.665 -25.119  0.00  0.00     0.093 H 
ATOM     25  H9  4BW d   1     -24.162  13.046 -28.559  0.00  0.00     0.090 H 
ATOM     26  H10 4BW d   1     -25.803  15.068 -28.928  0.00  0.00     0.079 H 
ATOM     27  H11 4BW d   1     -24.088  15.214 -29.444  0.00  0.00     0.079 H 
ATOM     28  H12 4BW d   1     -26.253  14.245 -26.508  0.00  0.00     0.092 H 
ATOM     29  H13 4BW d   1     -29.568  15.232 -29.387  0.00  0.00     0.079 H 
ATOM     30  H14 4BW d   1     -27.776  15.332 -29.451  0.00  0.00     0.079 H 
ATOM     31  H15 4BW d   1     -28.903  17.627 -29.311  0.00  0.00     0.090 H 
ATOM     32  H16 4BW d   1     -27.279  16.498 -27.207  0.00  0.00     0.092 H 
ATOM     33  H17 4BW d   1     -27.373  18.822 -26.087  0.00  0.00     0.093 H 
ATOM     34  H19 4BW d   1     -29.952  18.975 -26.049  0.00  0.00     0.122 H 
ENDROOT
BRANCH   1  35
ATOM     35  NBQ 4BW d   1     -24.072  14.220 -24.499  0.00  0.00    -0.295 N 
ATOM     36  CBG 4BW d   1     -24.256  13.792 -23.234  0.00  0.00     0.161 A 
ATOM     37  NAS 4BW d   1     -24.299  12.421 -22.636  0.00  0.00    -0.174 N 
ATOM     38  CBE 4BW d   1     -24.430  14.896 -22.441  0.00  0.00     0.171 A 
ATOM     39  CBA 4BW d   1     -24.525  12.258 -21.205  0.00  0.00     0.680 A 
ATOM     40  H4  4BW d   1     -24.169  11.593 -23.235  0.00  0.00     0.186 HD
ATOM     41  NAT 4BW d   1     -24.708  13.420 -20.364  0.00  0.00    -0.154 N 
ATOM     42  CBC 4BW d   1     -24.667  14.734 -20.940  0.00  0.00     0.292 A 
ATOM     43  H1  4BW d   1     -24.863  13.308 -19.382  0.00  0.00     0.187 HD
ATOM     44  OAC 4BW d   1     -24.816  15.694 -20.256  0.00  0.00    -0.265 OA
ATOM     45  NAR 4BW d   1     -24.345  16.017 -23.242  0.00  0.00    -0.234 NA
ATOM     46  CAL 4BW d   1     -24.125  15.608 -24.507  0.00  0.00     0.071 A 
ATOM     47  H5  4BW d   1     -24.009  16.250 -25.379  0.00  0.00     0.144 H 
BRANCH  39  48
ATOM     48  NAA 4BW d   1     -24.566  10.890 -20.609  0.00  0.00    -0.234 N 
ATOM     49  H2  4BW d   1     -24.436  10.063 -21.209  0.00  0.00     0.174 HD
ATOM     50  H3  4BW d   1     -24.725  10.773 -19.598  0.00  0.00     0.174 HD
ENDBRANCH  39  48
ENDBRANCH   1  35
BRANCH   2  51
ATOM     51  OAG 4BW d   1     -25.048  11.265 -26.477  0.00  0.00    -0.388 OA
ATOM     52  H8  4BW d   1     -25.890  10.863 -26.656  0.00  0.00     0.210 HD
ENDBRANCH   2  51
BRANCH  21  53
ATOM     53  O2' 4BW d   1     -28.410  19.755 -27.644  0.00  0.00    -0.388 OA
ATOM     54  H18 4BW d   1     -28.683  20.469 -27.080  0.00  0.00     0.210 HD
ENDBRANCH  21  53
BRANCH  22  55
ATOM     55  N9  4BW d   1     -28.947  17.460 -25.025  0.00  0.00    -0.294 N 
ATOM     56  C8  4BW d   1     -28.883  16.153 -24.852  0.00  0.00     0.071 A 
ATOM     57  N7  4BW d   1     -28.550  15.908 -23.565  0.00  0.00    -0.236 NA
ATOM     58  H20 4BW d   1     -29.067  15.400 -25.616  0.00  0.00     0.144 H 
ATOM     59  C5  4BW d   1     -28.400  17.097 -22.925  0.00  0.00     0.149 A 
ATOM     60  C4  4BW d   1     -28.644  18.078 -23.821  0.00  0.00     0.167 A 
ATOM     61  C6  4BW d   1     -28.059  17.470 -21.580  0.00  0.00     0.155 A 
ATOM     62  N3  4BW d   1     -28.558  19.393 -23.418  0.00  0.00    -0.222 NA
ATOM     63  C2  4BW d   1     -28.236  19.710 -22.149  0.00  0.00     0.091 A 
ATOM     64  N1  4BW d   1     -27.994  18.782 -21.258  0.00  0.00    -0.222 NA
ATOM     65  H21 4BW d   1     -28.176  20.753 -21.860  0.00  0.00     0.146 H 
BRANCH  61  66
ATOM     66  N6  4BW d   1     -27.785  16.434 -20.564  0.00  0.00    -0.382 N 
ATOM     67  H22 4BW d   1     -27.541  16.708 -19.602  0.00  0.00     0.157 HD
ATOM     68  H23 4BW d   1     -27.838  15.437 -20.818  0.00  0.00     0.157 HD
ENDBRANCH  61  66
ENDBRANCH  22  55
TORSDOF 6
