REMARK  1 active torsions:
REMARK  status: ('A' for Active; 'I' for Inactive)
REMARK    1  A    between atoms: C4_2  and  C6_5 
ROOT
ATOM      1  C4  9BS d   1     -30.275  16.534 -23.892  0.00  0.00     0.104 A 
ATOM      2  C1  9BS d   1     -29.836  14.243 -23.410  0.00  0.00    -0.079 A 
ATOM      3  C2  9BS d   1     -29.395  14.617 -22.162  0.00  0.00    -0.066 A 
ATOM      4  C3  9BS d   1     -29.417  15.957 -21.841  0.00  0.00     0.003 A 
ATOM      5  N1  9BS d   1     -29.845  16.917 -22.677  0.00  0.00    -0.257 NA
ATOM      6  C5  9BS d   1     -30.283  15.206 -24.294  0.00  0.00    -0.051 A 
ATOM      7  H4  9BS d   1     -29.833  13.198 -23.698  0.00  0.00     0.083 H 
ATOM      8  H5  9BS d   1     -29.040  13.879 -21.451  0.00  0.00     0.085 H 
ATOM      9  H6  9BS d   1     -29.069  16.253 -20.858  0.00  0.00     0.114 H 
ATOM     10  H7  9BS d   1     -30.633  14.930 -25.282  0.00  0.00     0.087 H 
ENDROOT
BRANCH   1  11
ATOM     11  C6  9BS d   1     -30.758  17.607 -24.803  0.00  0.00     0.177 A 
ATOM     12  N3  9BS d   1     -30.657  18.868 -24.365  0.00  0.00    -0.239 NA
ATOM     13  C9  9BS d   1     -31.107  19.814 -25.202  0.00  0.00     0.006 A 
ATOM     14  C8  9BS d   1     -31.641  19.539 -26.438  0.00  0.00    -0.049 A 
ATOM     15  H2  9BS d   1     -31.046  20.849 -24.887  0.00  0.00     0.114 H 
ATOM     16  C7  9BS d   1     -31.693  18.209 -26.781  0.00  0.00     0.006 A 
ATOM     17  H3  9BS d   1     -31.998  20.320 -27.099  0.00  0.00     0.087 H 
ATOM     18  N2  9BS d   1     -31.258  17.224 -25.984  0.00  0.00    -0.239 NA
ATOM     19  H1  9BS d   1     -32.108  17.943 -27.747  0.00  0.00     0.114 H 
ENDBRANCH   1  11
TORSDOF 1
