REMARK  1 active torsions:
REMARK  status: ('A' for Active; 'I' for Inactive)
REMARK    1  A    between atoms: C7_2  and  O14_14 
ROOT
ATOM      1  C4  9BV d   1     -30.114  18.676 -24.088  0.00  0.00     0.075 A 
ATOM      2  C7  9BV d   1     -29.042  16.722 -23.047  0.00  0.00     0.181 A 
ATOM      3  C6  9BV d   1     -29.880  16.622 -25.373  0.00  0.00    -0.067 A 
ATOM      4  C9  9BV d   1     -29.377  18.879 -21.930  0.00  0.00     0.276 A 
ATOM      5  C1  9BV d   1     -30.488  17.217 -26.439  0.00  0.00    -0.082 A 
ATOM      6  C2  9BV d   1     -30.917  18.529 -26.362  0.00  0.00    -0.081 A 
ATOM      7  C3  9BV d   1     -30.740  19.256 -25.219  0.00  0.00    -0.054 A 
ATOM      8  C5  9BV d   1     -29.672  17.329 -24.164  0.00  0.00     0.046 A 
ATOM      9  N8  9BV d   1     -28.899  17.504 -21.935  0.00  0.00    -0.154 N 
ATOM     10  N10 9BV d   1     -29.961  19.444 -22.965  0.00  0.00    -0.210 NA
ATOM     11  N11 9BV d   1     -29.049  19.310 -20.650  0.00  0.00    -0.087 NA
ATOM     12  N12 9BV d   1     -28.446  18.332 -19.948  0.00  0.00    -0.021 NA
ATOM     13  N13 9BV d   1     -28.346  17.248 -20.692  0.00  0.00    -0.036 NA
ATOM     14  H1  9BV d   1     -29.549  15.587 -25.453  0.00  0.00     0.085 H 
ATOM     15  H2  9BV d   1     -30.637  16.654 -27.359  0.00  0.00     0.083 H 
ATOM     16  H3  9BV d   1     -31.402  18.988 -27.222  0.00  0.00     0.083 H 
ATOM     17  H4  9BV d   1     -31.083  20.289 -25.177  0.00  0.00     0.087 H 
ENDROOT
BRANCH   2  18
ATOM     18  O14 9BV d   1     -28.638  15.488 -23.116  0.00  0.00    -0.344 OA
ATOM     19  H5  9BV d   1     -29.082  14.973 -22.453  0.00  0.00     0.219 HD
ENDBRANCH   2  18
TORSDOF 1
