REMARK  3 active torsions:
REMARK  status: ('A' for Active; 'I' for Inactive)
REMARK    1  A    between atoms: N2_3  and  C8_7 
REMARK    2  A    between atoms: C7_4  and  C10_15 
REMARK    3  A    between atoms: C8_7  and  C9_6 
ROOT
ATOM      1  C4  9BY d   1     -30.004  19.622 -22.345  0.00  0.00     0.065 A 
ATOM      2  N2  9BY d   1     -30.177  18.422 -23.035  0.00  0.00    -0.318 N 
ATOM      3  C7  9BY d   1     -30.753  18.757 -24.244  0.00  0.00     0.161 A 
ATOM      4  C6  9BY d   1     -30.472  21.941 -22.783  0.00  0.00    -0.053 A 
ATOM      5  C1  9BY d   1     -29.958  22.242 -21.530  0.00  0.00    -0.081 A 
ATOM      6  C2  9BY d   1     -29.472  21.241 -20.695  0.00  0.00    -0.081 A 
ATOM      7  C3  9BY d   1     -29.488  19.911 -21.092  0.00  0.00    -0.055 A 
ATOM      8  C5  9BY d   1     -30.493  20.610 -23.191  0.00  0.00     0.086 A 
ATOM      9  N1  9BY d   1     -30.959  20.051 -24.380  0.00  0.00    -0.227 NA
ATOM     10  H1  9BY d   1     -30.849  22.725 -23.430  0.00  0.00     0.087 H 
ATOM     11  H4  9BY d   1     -29.935  23.273 -21.196  0.00  0.00     0.083 H 
ATOM     12  H5  9BY d   1     -29.075  21.503 -19.721  0.00  0.00     0.083 H 
ATOM     13  H6  9BY d   1     -29.111  19.127 -20.445  0.00  0.00     0.087 H 
ENDROOT
BRANCH   3  14
ATOM     14  C10 9BY d   1     -31.143  17.857 -25.340  0.00  0.00     0.109 A 
ATOM     15  N3  9BY d   1     -30.962  16.480 -25.314  0.00  0.00    -0.250 NA
ATOM     16  C12 9BY d   1     -31.395  15.966 -26.422  0.00  0.00     0.040 A 
ATOM     17  S1  9BY d   1     -32.050  17.071 -27.578  0.00  0.00    -0.092 SA
ATOM     18  H8  9BY d   1     -31.349  14.895 -26.614  0.00  0.00     0.126 H 
ATOM     19  C11 9BY d   1     -31.712  18.328 -26.480  0.00  0.00    -0.012 A 
ATOM     20  H7  9BY d   1     -31.925  19.379 -26.668  0.00  0.00     0.098 H 
ENDBRANCH   3  14
BRANCH   2  21
ATOM     21  C8  9BY d   1     -29.832  17.102 -22.524  0.00  0.00     0.082 C 
ATOM     22  H2  9BY d   1     -29.845  16.392 -23.364  0.00  0.00     0.081 H 
ATOM     23  H3  9BY d   1     -30.591  16.809 -21.784  0.00  0.00     0.081 H 
BRANCH  21  24
ATOM     24  C9  9BY d   1     -28.475  17.032 -21.865  0.00  0.00     0.191 C 
ATOM     25  O1  9BY d   1     -28.320  16.572 -20.751  0.00  0.00    -0.647 OA
ATOM     26  O2  9BY d   1     -27.501  17.513 -22.594  0.00  0.00    -0.647 OA
ENDBRANCH  21  24
ENDBRANCH   2  21
TORSDOF 3
