REMARK  7 active torsions:
REMARK  status: ('A' for Active; 'I' for Inactive)
REMARK    1  A    between atoms: CAM_9  and  CAL_8 
REMARK    2  A    between atoms: CAT_15  and  NAU_29 
REMARK    3  A    between atoms: CAX_18  and  OBG_33 
REMARK    4  A    between atoms: CBB_20  and  NBC_32 
REMARK    5  A    between atoms: NBC_32  and  CBD_21 
REMARK    6  A    between atoms: CBH_24  and  CBI_25 
REMARK    7  A    between atoms: CBH_24  and  NAY_30 
ROOT
ATOM      1  CAM 981 d   1     -29.481  12.857 -15.839  0.00  0.00     0.003 A 
ATOM      2  CAN 981 d   1     -30.066  11.646 -16.289  0.00  0.00    -0.057 A 
ATOM      3  CAO 981 d   1     -31.413  11.399 -15.791  0.00  0.00     0.029 A 
ATOM      4  CAP 981 d   1     -32.015  10.246 -16.217  0.00  0.00     0.035 A 
ATOM      5  CAX 981 d   1     -30.207  13.807 -14.889  0.00  0.00     0.131 A 
ATOM      6  CAZ 981 d   1     -32.076  12.260 -14.927  0.00  0.00     0.159 A 
ATOM      7  CBB 981 d   1     -33.905  10.770 -14.933  0.00  0.00     0.728 A 
ATOM      8  NAQ 981 d   1     -33.265   9.934 -15.794  0.00  0.00    -0.074 NA
ATOM      9  NAY 981 d   1     -31.516  13.486 -14.442  0.00  0.00    -0.334 N 
ATOM     10  NBA 981 d   1     -33.281  11.898 -14.528  0.00  0.00    -0.044 NA
ATOM     11  H8  981 d   1     -29.549  10.955 -16.954  0.00  0.00     0.086 H 
ATOM     12  H9  981 d   1     -31.491   9.581 -16.894  0.00  0.00     0.117 H 
ATOM     13  H15 981 d   1     -30.637  14.351 -15.743  0.00  0.00     0.126 H 
ENDROOT
BRANCH   7  14
ATOM     14  NBC 981 d   1     -35.236  10.425 -14.482  0.00  0.00    -0.188 N 
ATOM     15  H25 981 d   1     -35.610   9.513 -14.782  0.00  0.00     0.184 HD
BRANCH  14  16
ATOM     16  CBD 981 d   1     -36.099  11.252 -13.640  0.00  0.00     0.052 A 
ATOM     17  CAR 981 d   1     -35.619  12.207 -12.771  0.00  0.00    -0.017 A 
ATOM     18  CAS 981 d   1     -36.513  12.923 -11.988  0.00  0.00     0.145 A 
ATOM     19  H10 981 d   1     -34.554  12.397 -12.700  0.00  0.00     0.091 H 
ATOM     20  CAT 981 d   1     -37.890  12.699 -12.032  0.00  0.00     0.069 A 
ATOM     21  FAF 981 d   1     -35.948  13.836 -11.175  0.00  0.00    -0.204 F 
ATOM     22  CBF 981 d   1     -38.380  11.732 -12.873  0.00  0.00    -0.052 A 
ATOM     23  CBE 981 d   1     -37.476  11.009 -13.674  0.00  0.00    -0.054 A 
ATOM     24  H17 981 d   1     -39.444  11.528 -12.920  0.00  0.00     0.087 H 
ATOM     25  H16 981 d   1     -37.858  10.241 -14.337  0.00  0.00     0.087 H 
BRANCH  20  26
ATOM     26  NAU 981 d   1     -38.818  13.472 -11.200  0.00  0.00    -0.375 N 
ATOM     27  CAG 981 d   1     -39.984  12.833 -10.602  0.00  0.00     0.018 C 
ATOM     28  CAH 981 d   1     -40.662  13.617  -9.463  0.00  0.00     0.096 C 
ATOM     29  H2  981 d   1     -40.729  12.678 -11.396  0.00  0.00     0.066 H 
ATOM     30  H3  981 d   1     -39.667  11.859 -10.201  0.00  0.00     0.066 H 
ATOM     31  NAI 981 d   1     -40.221  14.997  -9.289  0.00  0.00    -0.072 N 
ATOM     32  H4  981 d   1     -40.468  13.080  -8.523  0.00  0.00     0.078 H 
ATOM     33  H5  981 d   1     -41.744  13.631  -9.661  0.00  0.00     0.078 H 
ATOM     34  CAW 981 d   1     -38.973  15.445  -9.903  0.00  0.00     0.096 C 
ATOM     35  H23 981 d   1     -40.130  15.151  -8.297  0.00  0.00     0.277 HD
ATOM     36  H24 981 d   1     -40.953  15.585  -9.654  0.00  0.00     0.277 HD
ATOM     37  CAV 981 d   1     -38.869  14.932 -11.336  0.00  0.00     0.018 C 
ATOM     38  H13 981 d   1     -38.947  16.545  -9.909  0.00  0.00     0.078 H 
ATOM     39  H14 981 d   1     -38.124  15.061  -9.319  0.00  0.00     0.078 H 
ATOM     40  H11 981 d   1     -37.956  15.310 -11.819  0.00  0.00     0.066 H 
ATOM     41  H12 981 d   1     -39.748  15.237 -11.923  0.00  0.00     0.066 H 
ENDBRANCH  20  26
ENDBRANCH  14  16
ENDBRANCH   7  14
BRANCH   9  42
ATOM     42  CBH 981 d   1     -32.323  14.300 -13.464  0.00  0.00    -0.004 C 
ATOM     43  H18 981 d   1     -33.386  14.093 -13.655  0.00  0.00     0.063 H 
ATOM     44  H19 981 d   1     -32.060  13.961 -12.451  0.00  0.00     0.063 H 
BRANCH  42  45
ATOM     45  CBI 981 d   1     -32.128  15.825 -13.512  0.00  0.00    -0.061 C 
ATOM     46  H20 981 d   1     -32.768  16.300 -12.755  0.00  0.00     0.029 H 
ATOM     47  H21 981 d   1     -32.401  16.198 -14.510  0.00  0.00     0.029 H 
ATOM     48  H22 981 d   1     -31.075  16.067 -13.306  0.00  0.00     0.029 H 
ENDBRANCH  42  45
ENDBRANCH   9  42
BRANCH   5  49
ATOM     49  OBG 981 d   1     -29.545  14.959 -14.487  0.00  0.00    -0.372 OA
ATOM     50  H26 981 d   1     -28.687  14.989 -14.895  0.00  0.00     0.212 HD
ENDBRANCH   5  49
BRANCH   1  51
ATOM     51  CAL 981 d   1     -28.112  13.232 -16.328  0.00  0.00    -0.004 A 
ATOM     52  CAD 981 d   1     -27.927  13.486 -17.689  0.00  0.00     0.046 A 
ATOM     53  CAC 981 d   1     -26.672  13.819 -18.109  0.00  0.00    -0.040 A 
ATOM     54 CLAE 981 d   1     -29.120  13.389 -19.009  0.00  0.00    -0.083 Cl
ATOM     55  CAB 981 d   1     -25.643  13.927 -17.217  0.00  0.00     0.035 A 
ATOM     56  H1  981 d   1     -26.490  14.000 -19.162  0.00  0.00     0.088 H 
ATOM     57  CAJ 981 d   1     -25.847  13.690 -15.868  0.00  0.00    -0.061 A 
ATOM     58 CLAA 981 d   1     -24.088  14.381 -17.964  0.00  0.00    -0.084 Cl
ATOM     59  CAK 981 d   1     -27.103  13.344 -15.411  0.00  0.00    -0.069 A 
ATOM     60  H6  981 d   1     -25.021  13.776 -15.171  0.00  0.00     0.086 H 
ATOM     61  H7  981 d   1     -27.284  13.166 -14.357  0.00  0.00     0.085 H 
ENDBRANCH   1  51
TORSDOF 7
