REMARK  12 active torsions:
REMARK  status: ('A' for Active; 'I' for Inactive)
REMARK    1  A    between atoms: C17_3  and  C13_1 
REMARK    2  A    between atoms: C13_1  and  N08_17 
REMARK    3  A    between atoms: C13_1  and  C12_21 
REMARK    4  A    between atoms: N08_17  and  C20_4 
REMARK    5  A    between atoms: C18_24  and  C21_5 
REMARK    6  A    between atoms: C19_25  and  N07_16 
REMARK       I    between atoms: N11_20  and  C34_34 
REMARK    7  A    between atoms: C35_35  and  N11_20 
REMARK    8  A    between atoms: C14_22  and  C29_29 
REMARK    9  A    between atoms: C14_22  and  C30_30 
REMARK   10  A    between atoms: C34_34  and  C31_31 
REMARK   11  A    between atoms: C36_36  and  C35_35 
REMARK   12  A    between atoms: C36_36  and  C37_37 
ROOT
ATOM      1  C13 97Y d   1      22.053  32.351  30.403  0.00  0.00     0.039 C 
ATOM      2  H1  97Y d   1      23.079  32.605  30.097  0.00  0.00     0.080 H 
ENDROOT
BRANCH   1   3
ATOM      3  C17 97Y d   1      21.042  32.971  29.401  0.00  0.00    -0.035 A 
ATOM      4  C26 97Y d   1      19.665  32.823  29.595  0.00  0.00    -0.074 A 
ATOM      5  C33 97Y d   1      18.763  33.430  28.726  0.00  0.00    -0.067 A 
ATOM      6  H6  97Y d   1      19.298  32.232  30.427  0.00  0.00     0.084 H 
ATOM      7  C31 97Y d   1      19.232  34.198  27.658  0.00  0.00     0.032 A 
ATOM      8  H23 97Y d   1      17.697  33.307  28.878  0.00  0.00     0.085 H 
ATOM      9  C32 97Y d   1      20.611  34.375  27.483  0.00  0.00    -0.067 A 
ATOM     10  C25 97Y d   1      21.514  33.769  28.357  0.00  0.00    -0.074 A 
ATOM     11  H22 97Y d   1      20.978  34.985  26.665  0.00  0.00     0.085 H 
ATOM     12  H14 97Y d   1      22.580  33.917  28.226  0.00  0.00     0.084 H 
BRANCH   7  13
ATOM     13  C34 97Y d   1      18.233  34.877  26.705  0.00  0.00     0.251 C 
ATOM     14  O04 97Y d   1      18.630  35.483  25.759  0.00  0.00    -0.268 OA
ATOM     15  N11 97Y d   1      16.802  34.794  26.971  0.00  0.00    -0.356 N 
ATOM     16  H9  97Y d   1      16.482  34.280  27.767  0.00  0.00     0.162 HD
BRANCH  15  17
ATOM     17  C35 97Y d   1      15.829  35.441  26.107  0.00  0.00     0.004 C 
ATOM     18  H24 97Y d   1      16.345  36.166  25.460  0.00  0.00     0.064 H 
ATOM     19  H25 97Y d   1      15.087  35.966  26.727  0.00  0.00     0.064 H 
BRANCH  17  20
ATOM     20  C36 97Y d   1      15.119  34.412  25.240  0.00  0.00     0.030 C 
ATOM     21  H26 97Y d   1      15.611  33.439  25.387  0.00  0.00     0.051 H 
ATOM     22  H27 97Y d   1      15.220  34.719  24.189  0.00  0.00     0.051 H 
BRANCH  20  23
ATOM     23  C37 97Y d   1      13.627  34.247  25.550  0.00  0.00     0.174 C 
ATOM     24  O05 97Y d   1      13.199  34.241  26.740  0.00  0.00    -0.648 OA
ATOM     25  O06 97Y d   1      12.821  34.095  24.594  0.00  0.00    -0.648 OA
ENDBRANCH  20  23
ENDBRANCH  17  20
ENDBRANCH  15  17
ENDBRANCH   7  13
ENDBRANCH   1   3
BRANCH   1  26
ATOM     26  N08 97Y d   1      21.914  30.882  30.490  0.00  0.00    -0.380 N 
ATOM     27  H8  97Y d   1      21.632  30.485  31.398  0.00  0.00     0.160 HD
BRANCH  26  28
ATOM     28  C20 97Y d   1      22.145  29.950  29.390  0.00  0.00     0.046 A 
ATOM     29  C28 97Y d   1      22.844  30.309  28.232  0.00  0.00    -0.052 A 
ATOM     30  C24 97Y d   1      22.983  29.334  27.240  0.00  0.00    -0.036 A 
ATOM     31  H7  97Y d   1      23.261  31.302  28.109  0.00  0.00     0.087 H 
ATOM     32  C19 97Y d   1      22.454  28.050  27.414  0.00  0.00     0.134 A 
ATOM     33  H5  97Y d   1      23.508  29.576  26.323  0.00  0.00     0.089 H 
ATOM     34  N10 97Y d   1      21.836  27.744  28.552  0.00  0.00    -0.241 NA
ATOM     35  C27 97Y d   1      21.669  28.645  29.513  0.00  0.00     0.030 A 
ATOM     36  H15 97Y d   1      21.148  28.358  30.419  0.00  0.00     0.118 H 
BRANCH  32  37
ATOM     37  N07 97Y d   1      22.619  27.026  26.380  0.00  0.00    -0.299 N 
ATOM     38  C22 97Y d   1      22.173  25.783  26.449  0.00  0.00     0.020 A 
ATOM     39  C18 97Y d   1      22.559  25.140  25.283  0.00  0.00     0.157 A 
ATOM     40  H4  97Y d   1      21.607  25.345  27.270  0.00  0.00     0.116 H 
ATOM     41  N09 97Y d   1      23.218  26.027  24.558  0.00  0.00    -0.237 NA
ATOM     42  C23 97Y d   1      23.258  27.165  25.226  0.00  0.00     0.072 A 
ATOM     43  H13 97Y d   1      23.742  28.078  24.882  0.00  0.00     0.144 H 
BRANCH  39  44
ATOM     44  C21 97Y d   1      22.279  23.682  24.920  0.00  0.00     0.436 C 
ATOM     45  F01 97Y d   1      22.222  23.535  23.559  0.00  0.00    -0.165 F 
ATOM     46  F02 97Y d   1      23.294  22.904  25.394  0.00  0.00    -0.165 F 
ATOM     47  F03 97Y d   1      21.102  23.296  25.509  0.00  0.00    -0.165 F 
ENDBRANCH  39  44
ENDBRANCH  32  37
ENDBRANCH  26  28
ENDBRANCH   1  26
BRANCH   1  48
ATOM     48  C12 97Y d   1      21.756  32.921  31.738  0.00  0.00    -0.029 C 
ATOM     49  C15 97Y d   1      22.803  32.681  32.792  0.00  0.00    -0.053 C 
ATOM     50  C14 97Y d   1      22.688  34.139  33.191  0.00  0.00    -0.047 C 
ATOM     51  H2  97Y d   1      23.789  32.395  32.396  0.00  0.00     0.034 H 
ATOM     52  H3  97Y d   1      22.503  31.971  33.577  0.00  0.00     0.034 H 
ATOM     53  C16 97Y d   1      22.027  34.404  31.863  0.00  0.00    -0.053 C 
ATOM     54  H11 97Y d   1      21.122  35.027  31.923  0.00  0.00     0.034 H 
ATOM     55  H12 97Y d   1      22.701  34.809  31.093  0.00  0.00     0.034 H 
ATOM     56  H10 97Y d   1      20.741  32.621  32.039  0.00  0.00     0.043 H 
BRANCH  50  57
ATOM     57  C29 97Y d   1      21.758  34.402  34.387  0.00  0.00    -0.069 C 
ATOM     58  H16 97Y d   1      22.296  34.191  35.323  0.00  0.00     0.028 H 
ATOM     59  H17 97Y d   1      20.876  33.749  34.316  0.00  0.00     0.028 H 
ATOM     60  H18 97Y d   1      21.437  35.454  34.377  0.00  0.00     0.028 H 
ENDBRANCH  50  57
BRANCH  50  61
ATOM     61  C30 97Y d   1      24.051  34.813  33.320  0.00  0.00    -0.069 C 
ATOM     62  H19 97Y d   1      24.660  34.582  32.433  0.00  0.00     0.028 H 
ATOM     63  H20 97Y d   1      24.560  34.441  34.221  0.00  0.00     0.028 H 
ATOM     64  H21 97Y d   1      23.916  35.902  33.399  0.00  0.00     0.028 H 
ENDBRANCH  50  61
ENDBRANCH   1  48
TORSDOF 12
