REMARK  9 active torsions:
REMARK  status: ('A' for Active; 'I' for Inactive)
REMARK    1  A    between atoms: SAB_26  and  CAA_1 
REMARK    2  A    between atoms: CAE_2  and  SAB_26 
REMARK    3  A    between atoms: NAJ_15  and  CAI_6 
REMARK       I    between atoms: CAK_7  and  NAJ_15 
REMARK       I    between atoms: NAM_16  and  CAK_7 
REMARK    4  A    between atoms: CAN_8  and  CAO_9 
REMARK    5  A    between atoms: CAN_8  and  NAM_16 
REMARK    6  A    between atoms: CAR_12  and  CAS_13 
REMARK       I    between atoms: CAS_13  and  NAU_17 
REMARK    7  A    between atoms: NAU_17  and  CAV_14 
REMARK    8  A    between atoms: NAM_16  and  CBC_29 
REMARK    9  A    between atoms: CBF_32  and  CBG_33 
ROOT
ATOM      1  CAK 97V d   1      22.594 -26.231 -30.819  0.00  0.00     0.327 C 
ATOM      2  NAJ 97V d   1      22.365 -24.997 -31.575  0.00  0.00    -0.308 N 
ATOM      3  NAM 97V d   1      22.866 -27.510 -31.512  0.00  0.00    -0.295 N 
ATOM      4  OAL 97V d   1      22.550 -26.206 -29.631  0.00  0.00    -0.246 OA
ATOM      5  H11 97V d   1      22.389 -25.063 -32.572  0.00  0.00     0.170 HD
ENDROOT
BRANCH   3   6
ATOM      6  CAN 97V d   1      23.123 -28.721 -30.737  0.00  0.00     0.028 C 
ATOM      7  H7  97V d   1      23.379 -29.538 -31.428  0.00  0.00     0.072 H 
ATOM      8  H8  97V d   1      23.968 -28.536 -30.058  0.00  0.00     0.072 H 
BRANCH   6   9
ATOM      9  CAO 97V d   1      21.909 -29.135 -29.912  0.00  0.00    -0.040 A 
ATOM     10  CAP 97V d   1      20.650 -29.233 -30.502  0.00  0.00    -0.074 A 
ATOM     11  CAQ 97V d   1      19.561 -29.603 -29.724  0.00  0.00    -0.067 A 
ATOM     12  H9  97V d   1      20.522 -29.023 -31.558  0.00  0.00     0.084 H 
ATOM     13  CAR 97V d   1      19.740 -29.868 -28.365  0.00  0.00     0.032 A 
ATOM     14  H10 97V d   1      18.576 -29.686 -30.170  0.00  0.00     0.085 H 
ATOM     15  CBA 97V d   1      21.000 -29.764 -27.781  0.00  0.00    -0.067 A 
ATOM     16  CBB 97V d   1      22.088 -29.389 -28.556  0.00  0.00    -0.074 A 
ATOM     17  H14 97V d   1      21.130 -29.975 -26.726  0.00  0.00     0.085 H 
ATOM     18  H15 97V d   1      23.071 -29.295 -28.108  0.00  0.00     0.084 H 
BRANCH  13  19
ATOM     19  CAS 97V d   1      18.538 -30.264 -27.512  0.00  0.00     0.270 C 
ATOM     20  NAU 97V d   1      17.220 -29.811 -27.931  0.00  0.00    -0.151 N 
ATOM     21  H12 97V d   1      17.147 -29.255 -28.759  0.00  0.00     0.188 HD
ATOM     22  OAT 97V d   1      18.691 -30.920 -26.531  0.00  0.00    -0.267 OA
BRANCH  20  23
ATOM     23  CAV 97V d   1      16.010 -30.129 -27.203  0.00  0.00     0.744 A 
ATOM     24  NAW 97V d   1      15.904 -30.802 -26.022  0.00  0.00    -0.086 N 
ATOM     25  NAX 97V d   1      14.598 -30.872 -25.713  0.00  0.00    -0.033 NA
ATOM     26  H13 97V d   1      16.683 -31.186 -25.468  0.00  0.00     0.209 HD
ATOM     27  NAY 97V d   1      13.898 -30.274 -26.650  0.00  0.00    -0.008 NA
ATOM     28  NAZ 97V d   1      14.745 -29.805 -27.584  0.00  0.00     0.065 NA
ENDBRANCH  20  23
ENDBRANCH  13  19
ENDBRANCH   6   9
ENDBRANCH   3   6
BRANCH   3  29
ATOM     29  CBC 97V d   1      22.973 -27.642 -32.968  0.00  0.00     0.039 A 
ATOM     30  CBD 97V d   1      22.170 -28.571 -33.646  0.00  0.00    -0.056 A 
ATOM     31  CBE 97V d   1      22.321 -28.767 -35.021  0.00  0.00    -0.074 A 
ATOM     32  H16 97V d   1      21.427 -29.141 -33.099  0.00  0.00     0.086 H 
ATOM     33  CBF 97V d   1      23.303 -28.066 -35.736  0.00  0.00    -0.054 A 
ATOM     34  H17 97V d   1      21.674 -29.466 -35.539  0.00  0.00     0.084 H 
ATOM     35  CBM 97V d   1      24.117 -27.152 -35.047  0.00  0.00    -0.074 A 
ATOM     36  CBN 97V d   1      23.982 -26.972 -33.667  0.00  0.00    -0.056 A 
ATOM     37  H29 97V d   1      24.859 -26.579 -35.592  0.00  0.00     0.084 H 
ATOM     38  H30 97V d   1      24.660 -26.312 -33.138  0.00  0.00     0.086 H 
BRANCH  33  39
ATOM     39  CBG 97V d   1      23.462 -28.263 -37.276  0.00  0.00    -0.029 C 
ATOM     40  CBH 97V d   1      24.950 -28.235 -37.695  0.00  0.00    -0.058 C 
ATOM     41  CBI 97V d   1      25.170 -28.514 -39.191  0.00  0.00    -0.064 C 
ATOM     42  H19 97V d   1      25.490 -28.998 -37.115  0.00  0.00     0.034 H 
ATOM     43  H20 97V d   1      25.359 -27.241 -37.462  0.00  0.00     0.034 H 
ATOM     44  CBJ 97V d   1      24.436 -29.770 -39.698  0.00  0.00    -0.065 C 
ATOM     45  H21 97V d   1      26.248 -28.647 -39.365  0.00  0.00     0.033 H 
ATOM     46  H22 97V d   1      24.810 -27.646 -39.763  0.00  0.00     0.033 H 
ATOM     47  CBK 97V d   1      22.957 -29.829 -39.265  0.00  0.00    -0.064 C 
ATOM     48  H23 97V d   1      24.951 -30.658 -39.303  0.00  0.00     0.033 H 
ATOM     49  H24 97V d   1      24.479 -29.779 -40.797  0.00  0.00     0.033 H 
ATOM     50  CBL 97V d   1      22.746 -29.541 -37.768  0.00  0.00    -0.058 C 
ATOM     51  H25 97V d   1      22.569 -30.835 -39.484  0.00  0.00     0.033 H 
ATOM     52  H26 97V d   1      22.394 -29.084 -39.846  0.00  0.00     0.033 H 
ATOM     53  H27 97V d   1      21.667 -29.428 -37.585  0.00  0.00     0.034 H 
ATOM     54  H28 97V d   1      23.128 -30.397 -37.192  0.00  0.00     0.034 H 
ATOM     55  H18 97V d   1      22.971 -27.409 -37.766  0.00  0.00     0.047 H 
ENDBRANCH  33  39
ENDBRANCH   3  29
BRANCH   2  56
ATOM     56  CAI 97V d   1      22.102 -23.668 -30.997  0.00  0.00     0.037 A 
ATOM     57  CAH 97V d   1      21.676 -22.652 -31.853  0.00  0.00    -0.057 A 
ATOM     58  CAG 97V d   1      21.445 -21.362 -31.373  0.00  0.00    -0.079 A 
ATOM     59  H6  97V d   1      21.523 -22.867 -32.904  0.00  0.00     0.086 H 
ATOM     60  CAF 97V d   1      21.660 -21.071 -30.029  0.00  0.00    -0.062 A 
ATOM     61  H5  97V d   1      21.098 -20.587 -32.047  0.00  0.00     0.083 H 
ATOM     62  CAE 97V d   1      22.109 -22.064 -29.160  0.00  0.00     0.061 A 
ATOM     63  H4  97V d   1      21.478 -20.069 -29.657  0.00  0.00     0.085 H 
ATOM     64  CBO 97V d   1      22.349 -23.356 -29.651  0.00  0.00    -0.036 A 
ATOM     65  H31 97V d   1      22.729 -24.121 -28.984  0.00  0.00     0.089 H 
BRANCH  62  66
ATOM     66  SAB 97V d   1      22.401 -21.666 -27.400  0.00  0.00     0.172 S 
ATOM     67  OAC 97V d   1      23.120 -22.959 -26.656  0.00  0.00    -0.223 OA
ATOM     68  OAD 97V d   1      20.972 -21.325 -26.640  0.00  0.00    -0.223 OA
BRANCH  66  69
ATOM     69  CAA 97V d   1      23.504 -20.224 -27.276  0.00  0.00     0.020 C 
ATOM     70  H1  97V d   1      23.679 -19.986 -26.216  0.00  0.00     0.049 H 
ATOM     71  H2  97V d   1      23.037 -19.361 -27.773  0.00  0.00     0.049 H 
ATOM     72  H3  97V d   1      24.463 -20.453 -27.763  0.00  0.00     0.049 H 
ENDBRANCH  66  69
ENDBRANCH  62  66
ENDBRANCH   2  56
TORSDOF 9
