REMARK  13 active torsions:
REMARK  status: ('A' for Active; 'I' for Inactive)
REMARK    1  A    between atoms: N4_2  and  C15_1 
REMARK       I    between atoms: C14_3  and  N4_2 
REMARK       I    between atoms: N3_5  and  C14_3 
REMARK    2  A    between atoms: C13_6  and  N3_5 
REMARK    3  A    between atoms: C12_7  and  C13_6 
REMARK    4  A    between atoms: C11_8  and  C12_7 
REMARK    5  A    between atoms: C10_9  and  C11_8 
REMARK    6  A    between atoms: C24_14  and  C25_17 
REMARK    7  A    between atoms: C25_17  and  C26_18 
REMARK    8  A    between atoms: C5_25  and  C6_20 
REMARK    9  A    between atoms: C5_25  and  C7_21 
REMARK   10  A    between atoms: C3_27  and  C8_23 
REMARK       I    between atoms: C4_26  and  N1_24 
REMARK   11  A    between atoms: N1_24  and  C3_27 
REMARK   12  A    between atoms: C5_25  and  C4_26 
REMARK   13  A    between atoms: C16_33  and  C17_34 
ROOT
ATOM      1  C10 9BA d   1      21.486  -6.694  23.872  0.00  0.00     0.089 C 
ATOM      2  C27 9BA d   1      20.123  -6.491  24.549  0.00  0.00     0.241 C 
ATOM      3  O3  9BA d   1      19.862  -5.454  25.169  0.00  0.00    -0.271 OA
ATOM      4  N2  9BA d   1      21.930  -8.082  23.878  0.00  0.00    -0.346 N 
ATOM      5  N7  9BA d   1      19.216  -7.477  24.417  0.00  0.00    -0.346 N 
ATOM      6  C24 9BA d   1      17.863  -7.349  24.986  0.00  0.00     0.089 C 
ATOM      7  C23 9BA d   1      17.850  -7.858  26.432  0.00  0.00     0.241 C 
ATOM      8  O4  9BA d   1      16.755  -7.898  27.024  0.00  0.00    -0.271 OA
ATOM      9  C9  9BA d   1      22.137  -8.700  25.073  0.00  0.00     0.246 C 
ATOM     10  C3  9BA d   1      22.701 -10.149  24.994  0.00  0.00     0.111 C 
ATOM     11  C2  9BA d   1      22.776 -10.838  26.381  0.00  0.00    -0.019 C 
ATOM     12  C1  9BA d   1      21.491 -11.447  26.962  0.00  0.00    -0.002 C 
ATOM     13  O2  9BA d   1      21.888  -8.121  26.123  0.00  0.00    -0.271 OA
ATOM     14  N   9BA d   1      20.454 -10.444  27.158  0.00  0.00    -0.359 N 
ATOM     15  N6  9BA d   1      19.044  -8.185  27.047  0.00  0.00    -0.342 N 
ATOM     16  C16 9BA d   1      19.122  -8.746  28.374  0.00  0.00     0.115 C 
ATOM     17  C   9BA d   1      20.190  -9.852  28.370  0.00  0.00     0.245 C 
ATOM     18  O   9BA d   1      20.716 -10.211  29.407  0.00  0.00    -0.271 OA
ATOM     19  H14 9BA d   1      22.224  -6.107  24.439  0.00  0.00     0.087 H 
ATOM     20  H15 9BA d   1      22.080  -8.572  23.019  0.00  0.00     0.163 HD
ATOM     21  H16 9BA d   1      19.465  -8.311  23.924  0.00  0.00     0.163 HD
ATOM     22  H17 9BA d   1      17.531  -6.301  24.953  0.00  0.00     0.087 H 
ATOM     23  H34 9BA d   1      23.134 -10.086  27.099  0.00  0.00     0.039 H 
ATOM     24  H35 9BA d   1      23.514 -11.650  26.302  0.00  0.00     0.039 H 
ATOM     25  H36 9BA d   1      21.724 -11.911  27.932  0.00  0.00     0.064 H 
ATOM     26  H37 9BA d   1      21.116 -12.215  26.269  0.00  0.00     0.064 H 
ATOM     27  H38 9BA d   1      19.904 -10.171  26.368  0.00  0.00     0.162 HD
ATOM     28  H39 9BA d   1      19.895  -8.025  26.548  0.00  0.00     0.163 HD
ATOM     29  H40 9BA d   1      18.147  -9.163  28.666  0.00  0.00     0.095 H 
ENDROOT
BRANCH   1  30
ATOM     30  C11 9BA d   1      21.465  -6.166  22.435  0.00  0.00    -0.036 C 
ATOM     31  H12 9BA d   1      22.433  -6.372  21.954  0.00  0.00     0.036 H 
ATOM     32  H13 9BA d   1      20.662  -6.665  21.872  0.00  0.00     0.036 H 
BRANCH  30  33
ATOM     33  C12 9BA d   1      21.217  -4.673  22.450  0.00  0.00    -0.048 C 
ATOM     34  H10 9BA d   1      20.347  -4.454  23.087  0.00  0.00     0.035 H 
ATOM     35  H11 9BA d   1      22.104  -4.160  22.851  0.00  0.00     0.035 H 
BRANCH  33  36
ATOM     36  C13 9BA d   1      20.944  -4.181  21.032  0.00  0.00     0.009 C 
ATOM     37  H8  9BA d   1      20.122  -4.774  20.604  0.00  0.00     0.064 H 
ATOM     38  H9  9BA d   1      20.648  -3.123  21.076  0.00  0.00     0.064 H 
BRANCH  36  39
ATOM     39  N3  9BA d   1      22.091  -4.303  20.182  0.00  0.00    -0.227 N 
ATOM     40  C14 9BA d   1      23.112  -3.349  20.095  0.00  0.00     0.667 C 
ATOM     41  N4  9BA d   1      24.164  -3.689  19.212  0.00  0.00    -0.231 N 
ATOM     42  N5  9BA d   1      23.106  -2.218  20.737  0.00  0.00    -0.235 N 
ATOM     43  H4  9BA d   1      24.313  -4.671  18.938  0.00  0.00     0.177 HD
ATOM     44  H5  9BA d   1      22.329  -1.992  21.375  0.00  0.00     0.174 HD
ATOM     45  H6  9BA d   1      23.878  -1.548  20.608  0.00  0.00     0.174 HD
ATOM     46  H7  9BA d   1      22.169  -5.147  19.597  0.00  0.00     0.177 HD
BRANCH  41  47
ATOM     47  C15 9BA d   1      25.035  -2.643  18.693  0.00  0.00    -0.005 C 
ATOM     48  H1  9BA d   1      25.789  -3.090  18.028  0.00  0.00     0.057 H 
ATOM     49  H2  9BA d   1      25.538  -2.136  19.530  0.00  0.00     0.057 H 
ATOM     50  H3  9BA d   1      24.436  -1.913  18.130  0.00  0.00     0.057 H 
ENDBRANCH  41  47
ENDBRANCH  36  39
ENDBRANCH  33  36
ENDBRANCH  30  33
ENDBRANCH   1  30
BRANCH   6  51
ATOM     51  C25 9BA d   1      16.933  -8.240  24.136  0.00  0.00    -0.041 C 
ATOM     52  H18 9BA d   1      15.906  -8.162  24.523  0.00  0.00     0.036 H 
ATOM     53  H19 9BA d   1      17.272  -9.284  24.204  0.00  0.00     0.036 H 
BRANCH  51  54
ATOM     54  C26 9BA d   1      16.952  -7.797  22.659  0.00  0.00    -0.074 C 
ATOM     55  H20 9BA d   1      16.283  -8.445  22.073  0.00  0.00     0.027 H 
ATOM     56  H21 9BA d   1      17.976  -7.876  22.266  0.00  0.00     0.027 H 
ATOM     57  H22 9BA d   1      16.610  -6.754  22.584  0.00  0.00     0.027 H 
ENDBRANCH  51  54
ENDBRANCH   6  51
BRANCH  10  58
ATOM     58  C8  9BA d   1      24.141  -9.966  24.538  0.00  0.00    -0.044 C 
ATOM     59  H29 9BA d   1      24.626 -10.949  24.453  0.00  0.00     0.031 H 
ATOM     60  H30 9BA d   1      24.683  -9.352  25.272  0.00  0.00     0.031 H 
ATOM     61  H31 9BA d   1      24.155  -9.464  23.559  0.00  0.00     0.031 H 
ENDBRANCH  10  58
BRANCH  10  62
ATOM     62  N1  9BA d   1      22.004 -10.920  23.984  0.00  0.00    -0.343 N 
ATOM     63  C4  9BA d   1      20.641 -10.948  23.827  0.00  0.00     0.222 C 
ATOM     64  O1  9BA d   1      19.879 -10.274  24.510  0.00  0.00    -0.273 OA
ATOM     65  H32 9BA d   1      22.555 -11.471  23.357  0.00  0.00     0.163 HD
BRANCH  63  66
ATOM     66  C5  9BA d   1      20.122 -11.856  22.752  0.00  0.00     0.017 C 
ATOM     67  H33 9BA d   1      20.942 -12.433  22.300  0.00  0.00     0.053 H 
BRANCH  66  68
ATOM     68  C6  9BA d   1      19.108 -12.817  23.419  0.00  0.00    -0.065 C 
ATOM     69  H23 9BA d   1      18.701 -13.504  22.662  0.00  0.00     0.028 H 
ATOM     70  H24 9BA d   1      18.288 -12.234  23.864  0.00  0.00     0.028 H 
ATOM     71  H25 9BA d   1      19.614 -13.396  24.205  0.00  0.00     0.028 H 
ENDBRANCH  66  68
BRANCH  66  72
ATOM     72  C7  9BA d   1      19.469 -10.989  21.703  0.00  0.00    -0.065 C 
ATOM     73  H26 9BA d   1      20.223 -10.324  21.256  0.00  0.00     0.028 H 
ATOM     74  H27 9BA d   1      18.676 -10.385  22.168  0.00  0.00     0.028 H 
ATOM     75  H28 9BA d   1      19.032 -11.627  20.920  0.00  0.00     0.028 H 
ENDBRANCH  66  72
ENDBRANCH  63  66
ENDBRANCH  10  62
BRANCH  16  76
ATOM     76  C17 9BA d   1      19.537  -7.650  29.359  0.00  0.00    -0.026 A 
ATOM     77  C18 9BA d   1      18.880  -7.561  30.574  0.00  0.00    -0.074 A 
ATOM     78  C19 9BA d   1      19.210  -6.565  31.466  0.00  0.00    -0.082 A 
ATOM     79  H41 9BA d   1      18.105  -8.276  30.824  0.00  0.00     0.084 H 
ATOM     80  C20 9BA d   1      20.197  -5.656  31.168  0.00  0.00    -0.083 A 
ATOM     81  H42 9BA d   1      18.686  -6.497  32.413  0.00  0.00     0.083 H 
ATOM     82  C21 9BA d   1      20.854  -5.703  29.960  0.00  0.00    -0.082 A 
ATOM     83  H43 9BA d   1      20.461  -4.894  31.892  0.00  0.00     0.083 H 
ATOM     84  C22 9BA d   1      20.532  -6.710  29.037  0.00  0.00    -0.074 A 
ATOM     85  H44 9BA d   1      21.614  -4.968  29.723  0.00  0.00     0.083 H 
ATOM     86  H45 9BA d   1      21.046  -6.763  28.084  0.00  0.00     0.084 H 
ENDBRANCH  16  76
TORSDOF 13
