REMARK  4 active torsions:
REMARK  status: ('A' for Active; 'I' for Inactive)
REMARK    1  A    between atoms: C1_1  and  C_18 
REMARK    2  A    between atoms: C3_3  and  C7_7 
REMARK       I    between atoms: C7_7  and  N2_9 
REMARK    3  A    between atoms: N1_12  and  O1_13 
REMARK    4  A    between atoms: O1_13  and  S_14 
ROOT
ATOM      1  C1  9CM d   1     -37.073   1.385  15.092  0.00  0.00    -0.058 C 
ATOM      2  C2  9CM d   1     -35.903   0.781  15.294  0.00  0.00    -0.068 C 
ATOM      3  C3  9CM d   1     -34.622   1.535  15.054  0.00  0.00     0.110 C 
ATOM      4  C4  9CM d   1     -36.017   3.067  13.840  0.00  0.00     0.025 C 
ATOM      5  C5  9CM d   1     -37.271   2.821  14.661  0.00  0.00     0.081 C 
ATOM      6  C6  9CM d   1     -35.383   3.850  15.765  0.00  0.00     0.347 C 
ATOM      7  N   9CM d   1     -35.010   2.889  14.871  0.00  0.00    -0.313 N 
ATOM      8  O   9CM d   1     -34.675   4.351  16.616  0.00  0.00    -0.245 OA
ATOM      9  N1  9CM d   1     -36.799   3.744  15.757  0.00  0.00    -0.177 N 
ATOM     10  H1  9CM d   1     -35.873  -0.254  15.631  0.00  0.00     0.081 H 
ATOM     11  H2  9CM d   1     -34.035   1.502  15.984  0.00  0.00     0.094 H 
ATOM     12  H3  9CM d   1     -35.996   4.083  13.419  0.00  0.00     0.068 H 
ATOM     13  H4  9CM d   1     -35.907   2.332  13.030  0.00  0.00     0.068 H 
ATOM     14  H5  9CM d   1     -38.250   3.042  14.211  0.00  0.00     0.086 H 
ENDROOT
BRANCH   3  15
ATOM     15  C7  9CM d   1     -33.723   0.861  13.986  0.00  0.00     0.242 C 
ATOM     16  O5  9CM d   1     -33.513   1.382  12.889  0.00  0.00    -0.271 OA
ATOM     17  N2  9CM d   1     -33.223  -0.317  14.334  0.00  0.00    -0.368 N 
ATOM     18  H6  9CM d   1     -32.633  -0.817  13.700  0.00  0.00     0.159 HD
ATOM     19  H7  9CM d   1     -33.436  -0.706  15.230  0.00  0.00     0.159 HD
ENDBRANCH   3  15
BRANCH   1  20
ATOM     20  C   9CM d   1     -38.398   0.712  15.316  0.00  0.00    -0.053 C 
ATOM     21  H8  9CM d   1     -38.232  -0.330  15.628  0.00  0.00     0.033 H 
ATOM     22  H9  9CM d   1     -38.979   0.727  14.382  0.00  0.00     0.033 H 
ATOM     23  H10 9CM d   1     -38.953   1.246  16.102  0.00  0.00     0.033 H 
ENDBRANCH   1  20
BRANCH   9  24
ATOM     24  O1  9CM d   1     -37.513   4.423  16.790  0.00  0.00    -0.125 OA
BRANCH  24  25
ATOM     25  S   9CM d   1     -38.559   5.602  16.303  0.00  0.00     0.274 S 
ATOM     26  O3  9CM d   1     -39.332   5.247  15.178  0.00  0.00    -0.571 OA
ATOM     27  O4  9CM d   1     -39.523   5.581  17.513  0.00  0.00    -0.571 OA
ATOM     28  O2  9CM d   1     -37.797   6.776  16.416  0.00  0.00    -0.571 OA
ENDBRANCH  24  25
ENDBRANCH   9  24
TORSDOF 4
