REMARK  4 active torsions:
REMARK  status: ('A' for Active; 'I' for Inactive)
REMARK    1  A    between atoms: C1_1  and  C2_3 
REMARK    2  A    between atoms: C3_4  and  C1'_5 
REMARK    3  A    between atoms: C3'_7  and  O3'_12 
REMARK    4  A    between atoms: C4'_8  and  O4'_11 
ROOT
ATOM      1  C1' DHC d   1      -2.107   6.486  55.655  0.00  0.00    -0.033 A 
ATOM      2  C2' DHC d   1      -1.268   5.442  56.040  0.00  0.00    -0.038 A 
ATOM      3  C3' DHC d   1       0.060   5.598  55.782  0.00  0.00     0.099 A 
ATOM      4  C4' DHC d   1       0.470   6.753  55.208  0.00  0.00     0.098 A 
ATOM      5  C5' DHC d   1      -0.337   7.802  54.821  0.00  0.00    -0.047 A 
ATOM      6  C6' DHC d   1      -1.691   7.680  55.063  0.00  0.00    -0.070 A 
ATOM      7  H3  DHC d   1      -1.653   4.550  56.521  0.00  0.00     0.089 H 
ATOM      8  H4  DHC d   1       0.074   8.686  54.347  0.00  0.00     0.087 H 
ATOM      9  H5  DHC d   1      -2.391   8.467  54.808  0.00  0.00     0.084 H 
ENDROOT
BRANCH   1  10
ATOM     10  C3  DHC d   1      -3.563   6.294  55.944  0.00  0.00    -0.067 C 
ATOM     11  C2  DHC d   1      -4.080   5.085  55.774  0.00  0.00    -0.009 C 
ATOM     12  H1  DHC d   1      -3.487   4.248  55.407  0.00  0.00     0.094 H 
ATOM     13  H2  DHC d   1      -4.180   7.124  56.284  0.00  0.00     0.085 H 
BRANCH  11  14
ATOM     14  C1  DHC d   1      -5.518   4.944  56.115  0.00  0.00     0.198 C 
ATOM     15  O1  DHC d   1      -6.233   4.121  55.534  0.00  0.00    -0.645 OA
ATOM     16  O2  DHC d   1      -5.962   5.658  57.009  0.00  0.00    -0.645 OA
ENDBRANCH  11  14
ENDBRANCH   1  10
BRANCH   3  17
ATOM     17  O3' DHC d   1       0.955   4.601  56.137  0.00  0.00    -0.358 OA
ATOM     18  H7  DHC d   1       0.481   3.874  56.523  0.00  0.00     0.217 HD
ENDBRANCH   3  17
BRANCH   4  19
ATOM     19  O4' DHC d   1       1.816   6.863  54.966  0.00  0.00    -0.358 OA
ATOM     20  H6  DHC d   1       2.257   6.081  55.277  0.00  0.00     0.217 HD
ENDBRANCH   4  19
TORSDOF 4
