REMARK  3 active torsions:
REMARK  status: ('A' for Active; 'I' for Inactive)
REMARK    1  A    between atoms: C1_1  and  C2_4 
REMARK    2  A    between atoms: C3_5  and  C1'_6 
REMARK    3  A    between atoms: C4'_9  and  O4'_12 
ROOT
ATOM      1  C1' HC4 d   1     -16.160   4.976 112.414  0.00  0.00    -0.036 A 
ATOM      2  C2' HC4 d   1     -17.128   5.886 112.862  0.00  0.00    -0.070 A 
ATOM      3  C3' HC4 d   1     -18.461   5.568 112.740  0.00  0.00    -0.050 A 
ATOM      4  C4' HC4 d   1     -18.787   4.360 112.165  0.00  0.00     0.065 A 
ATOM      5  C5' HC4 d   1     -17.856   3.420 111.704  0.00  0.00    -0.050 A 
ATOM      6  C6' HC4 d   1     -16.507   3.745 111.838  0.00  0.00    -0.070 A 
ATOM      7  H3  HC4 d   1     -16.829   6.831 113.300  0.00  0.00     0.084 H 
ATOM      8  H4  HC4 d   1     -19.231   6.248 113.086  0.00  0.00     0.087 H 
ATOM      9  H5  HC4 d   1     -18.171   2.481 111.263  0.00  0.00     0.087 H 
ATOM     10  H6  HC4 d   1     -15.739   3.058 111.503  0.00  0.00     0.084 H 
ENDROOT
BRANCH   1  11
ATOM     11  C3  HC4 d   1     -14.677   5.309 112.536  0.00  0.00    -0.067 C 
ATOM     12  C2  HC4 d   1     -14.374   6.206 113.478  0.00  0.00    -0.009 C 
ATOM     13  H1  HC4 d   1     -15.237   6.581 114.026  0.00  0.00     0.094 H 
ATOM     14  H2  HC4 d   1     -13.921   4.849 111.902  0.00  0.00     0.085 H 
BRANCH  12  15
ATOM     15  C1  HC4 d   1     -13.075   6.790 113.920  0.00  0.00     0.198 C 
ATOM     16  O1  HC4 d   1     -11.979   6.364 113.488  0.00  0.00    -0.645 OA
ATOM     17  O2  HC4 d   1     -13.171   7.722 114.763  0.00  0.00    -0.645 OA
ENDBRANCH  12  15
ENDBRANCH   1  11
BRANCH   4  18
ATOM     18  O4' HC4 d   1     -20.128   4.040 112.047  0.00  0.00    -0.361 OA
ATOM     19  H7  HC4 d   1     -20.654   4.752 112.392  0.00  0.00     0.217 HD
ENDBRANCH   4  18
TORSDOF 3
