REMARK  2 active torsions:
REMARK  status: ('A' for Active; 'I' for Inactive)
REMARK    1  A    between atoms: C1_1  and  C2_4 
REMARK    2  A    between atoms: C3_5  and  C1'_6 
ROOT
ATOM      1  C1' HCI d   1      38.793   2.945 112.627  0.00  0.00    -0.036 A 
ATOM      2  C2' HCI d   1      39.743   1.929 112.900  0.00  0.00    -0.073 A 
ATOM      3  C3' HCI d   1      41.110   2.145 112.616  0.00  0.00    -0.082 A 
ATOM      4  C4' HCI d   1      41.529   3.387 112.076  0.00  0.00    -0.083 A 
ATOM      5  C5' HCI d   1      40.576   4.410 111.825  0.00  0.00    -0.082 A 
ATOM      6  C6' HCI d   1      39.215   4.183 112.102  0.00  0.00    -0.073 A 
ATOM      7  H3  HCI d   1      39.421   0.986 113.327  0.00  0.00     0.084 H 
ATOM      8  H4  HCI d   1      41.836   1.364 112.810  0.00  0.00     0.083 H 
ATOM      9  H5  HCI d   1      42.577   3.556 111.855  0.00  0.00     0.083 H 
ATOM     10  H6  HCI d   1      40.896   5.364 111.421  0.00  0.00     0.083 H 
ATOM     11  H7  HCI d   1      38.488   4.964 111.911  0.00  0.00     0.084 H 
ENDROOT
BRANCH   1  12
ATOM     12  C3  HCI d   1      37.336   2.769 112.915  0.00  0.00    -0.067 C 
ATOM     13  C2  HCI d   1      36.560   1.682 112.817  0.00  0.00    -0.009 C 
ATOM     14  H1  HCI d   1      36.914   0.711 112.476  0.00  0.00     0.094 H 
ATOM     15  H2  HCI d   1      36.825   3.667 113.259  0.00  0.00     0.085 H 
BRANCH  13  16
ATOM     16  C1  HCI d   1      35.135   1.961 113.235  0.00  0.00     0.198 C 
ATOM     17  O1  HCI d   1      34.206   1.243 112.820  0.00  0.00    -0.645 OA
ATOM     18  O2  HCI d   1      34.866   2.914 114.002  0.00  0.00    -0.645 OA
ENDBRANCH  13  16
ENDBRANCH   1  12
TORSDOF 2
