REMARK  7 active torsions:
REMARK  status: ('A' for Active; 'I' for Inactive)
REMARK    1  A    between atoms: C1_14  and  C7_3 
REMARK    2  A    between atoms: N22_25  and  C24_9 
REMARK    3  A    between atoms: N10_18  and  C2_17 
REMARK    4  A    between atoms: C11_19  and  N10_18 
REMARK    5  A    between atoms: C12_20  and  C11_19 
REMARK    6  A    between atoms: C19_21  and  N22_25 
REMARK    7  A    between atoms: N22_25  and  C23_26 
ROOT
ATOM      1  C13 9DJ d   1     -16.665   6.691  51.435  0.00  0.00    -0.056 C 
ATOM      2  C15 9DJ d   1     -18.830   7.995  51.964  0.00  0.00    -0.040 C 
ATOM      3  C17 9DJ d   1     -18.845   5.980  50.202  0.00  0.00    -0.046 A 
ATOM      4  C20 9DJ d   1     -20.978   5.704  48.980  0.00  0.00    -0.057 A 
ATOM      5  C21 9DJ d   1     -19.631   5.289  49.222  0.00  0.00    -0.074 A 
ATOM      6  C12 9DJ d   1     -17.386   5.678  50.516  0.00  0.00    -0.013 C 
ATOM      7  C19 9DJ d   1     -21.596   6.804  49.663  0.00  0.00     0.035 A 
ATOM      8  C18 9DJ d   1     -20.817   7.482  50.594  0.00  0.00    -0.050 A 
ATOM      9  C16 9DJ d   1     -19.520   7.142  50.904  0.00  0.00    -0.049 A 
ATOM     10  C14 9DJ d   1     -17.330   8.049  51.702  0.00  0.00    -0.061 C 
ATOM     11  H3  9DJ d   1     -15.683   6.895  50.984  0.00  0.00     0.034 H 
ATOM     12  H4  9DJ d   1     -16.526   6.201  52.410  0.00  0.00     0.034 H 
ATOM     13  H5  9DJ d   1     -19.010   7.557  52.957  0.00  0.00     0.040 H 
ATOM     14  H6  9DJ d   1     -19.241   9.015  51.934  0.00  0.00     0.040 H 
ATOM     15  H7  9DJ d   1     -21.561   5.161  48.245  0.00  0.00     0.086 H 
ATOM     16  H8  9DJ d   1     -19.208   4.458  48.669  0.00  0.00     0.084 H 
ATOM     17  H15 9DJ d   1     -16.849   5.611  49.559  0.00  0.00     0.050 H 
ATOM     18  H16 9DJ d   1     -21.258   8.329  51.106  0.00  0.00     0.087 H 
ATOM     19  H17 9DJ d   1     -17.160   8.690  50.824  0.00  0.00     0.033 H 
ATOM     20  H18 9DJ d   1     -16.846   8.498  52.582  0.00  0.00     0.033 H 
ENDROOT
BRANCH   6  21
ATOM     21  C11 9DJ d   1     -17.244   4.391  51.282  0.00  0.00    -0.000 C 
ATOM     22  H13 9DJ d   1     -17.817   4.462  52.218  0.00  0.00     0.065 H 
ATOM     23  H14 9DJ d   1     -17.636   3.563  50.674  0.00  0.00     0.065 H 
BRANCH  21  24
ATOM     24  N10 9DJ d   1     -15.838   4.134  51.597  0.00  0.00    -0.387 N 
ATOM     25  H12 9DJ d   1     -15.145   4.874  51.418  0.00  0.00     0.159 HD
BRANCH  24  26
ATOM     26  C2  9DJ d   1     -15.406   2.923  52.130  0.00  0.00     0.062 A 
ATOM     27  C1  9DJ d   1     -14.030   2.832  52.717  0.00  0.00     0.070 A 
ATOM     28  C6  9DJ d   1     -13.586   1.620  53.269  0.00  0.00    -0.047 A 
ATOM     29  C5  9DJ d   1     -14.410   0.510  53.270  0.00  0.00     0.003 A 
ATOM     30  H2  9DJ d   1     -12.592   1.554  53.697  0.00  0.00     0.087 H 
ATOM     31  N4  9DJ d   1     -15.623   0.547  52.704  0.00  0.00    -0.271 NA
ATOM     32  H1  9DJ d   1     -14.068  -0.406  53.737  0.00  0.00     0.114 H 
ATOM     33  C3  9DJ d   1     -16.145   1.708  52.134  0.00  0.00     0.028 A 
ATOM     34  H11 9DJ d   1     -17.132   1.684  51.686  0.00  0.00     0.118 H 
BRANCH  27  35
ATOM     35  C7  9DJ d   1     -13.151   4.065  52.776  0.00  0.00     0.211 C 
ATOM     36  O9  9DJ d   1     -13.653   5.223  52.681  0.00  0.00    -0.644 OA
ATOM     37  O8  9DJ d   1     -11.934   3.845  52.895  0.00  0.00    -0.644 OA
ENDBRANCH  27  35
ENDBRANCH  24  26
ENDBRANCH  21  24
ENDBRANCH   6  21
BRANCH   7  38
ATOM     38  N22 9DJ d   1     -22.966   7.313  49.535  0.00  0.00    -0.351 N 
BRANCH  38  39
ATOM     39  C24 9DJ d   1     -23.832   7.052  48.399  0.00  0.00     0.034 A 
ATOM     40  C29 9DJ d   1     -24.540   8.142  47.767  0.00  0.00    -0.057 A 
ATOM     41  C28 9DJ d   1     -25.407   7.933  46.662  0.00  0.00    -0.081 A 
ATOM     42  H22 9DJ d   1     -24.405   9.148  48.148  0.00  0.00     0.086 H 
ATOM     43  C27 9DJ d   1     -25.557   6.603  46.194  0.00  0.00    -0.083 A 
ATOM     44  H10 9DJ d   1     -25.933   8.758  46.195  0.00  0.00     0.083 H 
ATOM     45  C26 9DJ d   1     -24.886   5.495  46.791  0.00  0.00    -0.081 A 
ATOM     46  H23 9DJ d   1     -26.209   6.421  45.347  0.00  0.00     0.083 H 
ATOM     47  C25 9DJ d   1     -24.032   5.720  47.897  0.00  0.00    -0.057 A 
ATOM     48  H9  9DJ d   1     -25.028   4.493  46.403  0.00  0.00     0.083 H 
ATOM     49  H24 9DJ d   1     -23.527   4.884  48.367  0.00  0.00     0.086 H 
ENDBRANCH  38  39
BRANCH  38  50
ATOM     50  C23 9DJ d   1     -23.522   8.142  50.665  0.00  0.00    -0.013 C 
ATOM     51  H19 9DJ d   1     -24.551   8.448  50.424  0.00  0.00     0.057 H 
ATOM     52  H20 9DJ d   1     -22.897   9.036  50.806  0.00  0.00     0.057 H 
ATOM     53  H21 9DJ d   1     -23.524   7.547  51.590  0.00  0.00     0.057 H 
ENDBRANCH  38  50
ENDBRANCH   7  38
TORSDOF 7
