REMARK  9 active torsions:
REMARK  status: ('A' for Active; 'I' for Inactive)
REMARK    1  A    between atoms: C2_11  and  C1_10 
REMARK    2  A    between atoms: C2_11  and  C38_38 
REMARK    3  A    between atoms: N12_14  and  C15_15 
REMARK    4  A    between atoms: C19_19  and  C23_23 
REMARK    5  A    between atoms: C20_20  and  C21_21 
REMARK    6  A    between atoms: C21_21  and  O22_22 
REMARK    7  A    between atoms: C25_25  and  N31_31 
REMARK    8  A    between atoms: N28_28  and  C30_30 
REMARK    9  A    between atoms: N31_31  and  C32_32 
ROOT
ATOM      1  C15 9B1 d   1     -40.531  27.826  -7.855  0.00  0.00     0.046 A 
ATOM      2  C16 9B1 d   1     -41.449  28.154  -8.839  0.00  0.00    -0.056 A 
ATOM      3  C17 9B1 d   1     -41.012  28.509 -10.103  0.00  0.00    -0.080 A 
ATOM      4  C18 9B1 d   1     -39.652  28.541 -10.385  0.00  0.00    -0.072 A 
ATOM      5  C19 9B1 d   1     -38.706  28.203  -9.412  0.00  0.00    -0.018 A 
ATOM      6  C20 9B1 d   1     -39.150  27.861  -8.121  0.00  0.00     0.003 A 
ATOM      7  H12 9B1 d   1     -42.510  28.133  -8.619  0.00  0.00     0.086 H 
ATOM      8  H13 9B1 d   1     -41.731  28.762 -10.874  0.00  0.00     0.083 H 
ATOM      9  H14 9B1 d   1     -39.319  28.832 -11.374  0.00  0.00     0.084 H 
ENDROOT
BRANCH   1  10
ATOM     10  N12 9B1 d   1     -40.939  27.464  -6.562  0.00  0.00    -0.312 N 
ATOM     11  C10 9B1 d   1     -41.095  28.426  -5.641  0.00  0.00     0.265 C 
ATOM     12  C6  9B1 d   1     -41.397  28.020  -4.283  0.00  0.00     0.080 A 
ATOM     13  O11 9B1 d   1     -40.861  29.620  -5.850  0.00  0.00    -0.266 OA
ATOM     14  C5  9B1 d   1     -41.265  26.723  -3.846  0.00  0.00    -0.027 A 
ATOM     15  S7  9B1 d   1     -41.738  29.049  -2.936  0.00  0.00    -0.088 SA
ATOM     16  C4  9B1 d   1     -41.490  26.589  -2.472  0.00  0.00    -0.036 A 
ATOM     17  C14 9B1 d   1     -40.916  25.619  -4.824  0.00  0.00    -0.024 C 
ATOM     18  C8  9B1 d   1     -41.759  27.737  -1.838  0.00  0.00    -0.009 A 
ATOM     19  C3  9B1 d   1     -41.509  25.437  -1.468  0.00  0.00    -0.033 C 
ATOM     20  C9  9B1 d   1     -41.999  27.552  -0.349  0.00  0.00    -0.028 C 
ATOM     21  C2  9B1 d   1     -41.994  26.031  -0.129  0.00  0.00    -0.039 C 
ATOM     22  H3  9B1 d   1     -42.969  27.981  -0.058  0.00  0.00     0.042 H 
ATOM     23  H4  9B1 d   1     -41.197  28.029   0.234  0.00  0.00     0.042 H 
ATOM     24  H7  9B1 d   1     -40.499  25.016  -1.353  0.00  0.00     0.041 H 
ATOM     25  H8  9B1 d   1     -42.198  24.649  -1.806  0.00  0.00     0.041 H 
ATOM     26  C13 9B1 d   1     -41.204  26.052  -6.263  0.00  0.00     0.007 C 
ATOM     27  H1  9B1 d   1     -41.516  24.727  -4.590  0.00  0.00     0.042 H 
ATOM     28  H2  9B1 d   1     -39.847  25.378  -4.728  0.00  0.00     0.042 H 
ATOM     29  H5  9B1 d   1     -42.266  25.855  -6.470  0.00  0.00     0.065 H 
ATOM     30  H6  9B1 d   1     -40.581  25.441  -6.932  0.00  0.00     0.065 H 
BRANCH  21  31
ATOM     31  C1  9B1 d   1     -43.411  25.556   0.161  0.00  0.00    -0.069 C 
ATOM     32  H9  9B1 d   1     -43.752  25.982   1.116  0.00  0.00     0.028 H 
ATOM     33  H10 9B1 d   1     -43.424  24.458   0.224  0.00  0.00     0.028 H 
ATOM     34  H11 9B1 d   1     -44.081  25.885  -0.647  0.00  0.00     0.028 H 
ENDBRANCH  21  31
BRANCH  21  35
ATOM     35  C38 9B1 d   1     -41.041  25.649   1.012  0.00  0.00    -0.069 C 
ATOM     36  H29 9B1 d   1     -40.027  26.004   0.777  0.00  0.00     0.028 H 
ATOM     37  H30 9B1 d   1     -41.029  24.555   1.129  0.00  0.00     0.028 H 
ATOM     38  H31 9B1 d   1     -41.384  26.114   1.948  0.00  0.00     0.028 H 
ENDBRANCH  21  35
ENDBRANCH   1  10
BRANCH   6  39
ATOM     39  C21 9B1 d   1     -38.144  27.455  -7.050  0.00  0.00     0.043 C 
ATOM     40  H15 9B1 d   1     -37.218  27.152  -7.560  0.00  0.00     0.081 H 
ATOM     41  H16 9B1 d   1     -38.563  26.594  -6.508  0.00  0.00     0.081 H 
BRANCH  39  42
ATOM     42  O22 9B1 d   1     -37.802  28.446  -6.087  0.00  0.00    -0.396 OA
ATOM     43  H17 9B1 d   1     -37.173  28.086  -5.473  0.00  0.00     0.209 HD
ENDBRANCH  39  42
ENDBRANCH   6  39
BRANCH   5  44
ATOM     44  C23 9B1 d   1     -37.268  28.304  -9.813  0.00  0.00    -0.031 A 
ATOM     45  C24 9B1 d   1     -36.806  27.788 -11.043  0.00  0.00    -0.064 A 
ATOM     46  C25 9B1 d   1     -35.482  27.945 -11.391  0.00  0.00     0.105 A 
ATOM     47  H18 9B1 d   1     -37.491  27.270 -11.712  0.00  0.00     0.081 H 
ATOM     48  C26 9B1 d   1     -34.592  28.605 -10.528  0.00  0.00     0.246 A 
ATOM     49  H19 9B1 d   1     -35.744  28.892 -11.886  0.00  0.00     0.094 H 
ATOM     50  O27 9B1 d   1     -33.408  28.721 -10.865  0.00  0.00    -0.271 OA
ATOM     51  N28 9B1 d   1     -35.050  29.078  -9.358  0.00  0.00    -0.350 N 
ATOM     52  C29 9B1 d   1     -36.362  28.947  -9.005  0.00  0.00     0.021 A 
ATOM     53  H20 9B1 d   1     -36.371  28.412  -8.044  0.00  0.00     0.071 H 
ATOM     54  H21 9B1 d   1     -36.746  29.968  -8.861  0.00  0.00     0.071 H 
BRANCH  46  55
ATOM     55  N31 9B1 d   1     -34.893  27.481 -12.573  0.00  0.00    -0.358 N 
ATOM     56  H25 9B1 d   1     -33.863  27.479 -12.603  0.00  0.00     0.162 HD
BRANCH  55  57
ATOM     57  C32 9B1 d   1     -35.542  27.026 -13.702  0.00  0.00     0.127 A 
ATOM     58  C33 9B1 d   1     -34.779  26.794 -14.855  0.00  0.00    -0.022 A 
ATOM     59  C34 9B1 d   1     -35.417  26.318 -15.983  0.00  0.00     0.007 A 
ATOM     60  H26 9B1 d   1     -33.712  26.984 -14.861  0.00  0.00     0.091 H 
ATOM     61  N35 9B1 d   1     -36.733  26.108 -15.934  0.00  0.00    -0.254 NA
ATOM     62  H27 9B1 d   1     -34.859  26.119 -16.891  0.00  0.00     0.115 H 
ATOM     63  C36 9B1 d   1     -37.421  26.335 -14.833  0.00  0.00     0.088 A 
ATOM     64  N37 9B1 d   1     -36.846  26.778 -13.731  0.00  0.00    -0.225 NA
ATOM     65  H28 9B1 d   1     -38.489  26.153 -14.833  0.00  0.00     0.146 H 
ENDBRANCH  55  57
ENDBRANCH  46  55
BRANCH  51  66
ATOM     66  C30 9B1 d   1     -34.084  29.759  -8.478  0.00  0.00    -0.016 C 
ATOM     67  H22 9B1 d   1     -33.090  29.753  -8.950  0.00  0.00     0.056 H 
ATOM     68  H23 9B1 d   1     -34.034  29.234  -7.513  0.00  0.00     0.056 H 
ATOM     69  H24 9B1 d   1     -34.406  30.798  -8.314  0.00  0.00     0.056 H 
ENDBRANCH  51  66
ENDBRANCH   5  44
TORSDOF 9
