REMARK  9 active torsions:
REMARK  status: ('A' for Active; 'I' for Inactive)
REMARK    1  A    between atoms: N01_1  and  C02_2 
REMARK    2  A    between atoms: C02_2  and  C03_3 
REMARK    3  A    between atoms: C02_2  and  C22_22 
REMARK    4  A    between atoms: C03_3  and  C04_4 
REMARK    5  A    between atoms: C06_6  and  C19_19 
REMARK    6  A    between atoms: N08_8  and  C09_9 
REMARK    7  A    between atoms: C12_12  and  C13_13 
REMARK    8  A    between atoms: C13_13  and  C14_14 
REMARK    9  A    between atoms: C14_14  and  C15_15 
ROOT
ATOM      1  C04 5DY d   1     -20.560  19.170 -11.758  0.00  0.00     0.056 C 
ATOM      2  C05 5DY d   1     -21.362  19.682 -10.507  0.00  0.00    -0.043 C 
ATOM      3  C06 5DY d   1     -20.687  20.821 -10.165  0.00  0.00     0.151 C 
ATOM      4  N07 5DY d   1     -19.891  21.352 -11.260  0.00  0.00    -0.165 NA
ATOM      5  N08 5DY d   1     -19.625  20.331 -12.070  0.00  0.00    -0.261 N 
ATOM      6  H7  5DY d   1     -21.223  18.913 -12.597  0.00  0.00     0.082 H 
ATOM      7  H8  5DY d   1     -22.236  19.240 -10.031  0.00  0.00     0.084 H 
ENDROOT
BRANCH   5   8
ATOM      8  C09 5DY d   1     -18.520  20.299 -12.967  0.00  0.00     0.053 A 
ATOM      9  C10 5DY d   1     -18.519  19.492 -14.254  0.00  0.00    -0.055 A 
ATOM     10  C11 5DY d   1     -17.251  19.520 -15.079  0.00  0.00    -0.075 A 
ATOM     11  H9  5DY d   1     -19.387  18.922 -14.567  0.00  0.00     0.087 H 
ATOM     12  C12 5DY d   1     -16.064  20.344 -14.607  0.00  0.00    -0.058 A 
ATOM     13  H10 5DY d   1     -17.189  18.955 -16.002  0.00  0.00     0.084 H 
ATOM     14  C17 5DY d   1     -16.106  21.136 -13.323  0.00  0.00    -0.075 A 
ATOM     15  C18 5DY d   1     -17.351  21.123 -12.494  0.00  0.00    -0.055 A 
ATOM     16  H17 5DY d   1     -15.242  21.709 -13.005  0.00  0.00     0.084 H 
ATOM     17  H18 5DY d   1     -17.411  21.693 -11.574  0.00  0.00     0.087 H 
BRANCH  12  18
ATOM     18  C13 5DY d   1     -14.761  20.423 -15.377  0.00  0.00    -0.039 C 
ATOM     19  H11 5DY d   1     -14.732  21.342 -15.981  0.00  0.00     0.040 H 
ATOM     20  H12 5DY d   1     -14.655  19.548 -16.035  0.00  0.00     0.040 H 
BRANCH  18  21
ATOM     21  C14 5DY d   1     -13.640  20.439 -14.335  0.00  0.00    -0.037 C 
ATOM     22  H13 5DY d   1     -13.848  21.233 -13.603  0.00  0.00     0.036 H 
ATOM     23  H14 5DY d   1     -12.687  20.649 -14.843  0.00  0.00     0.036 H 
BRANCH  21  24
ATOM     24  C15 5DY d   1     -13.519  19.097 -13.590  0.00  0.00     0.059 C 
ATOM     25  F16 5DY d   1     -13.559  18.061 -14.488  0.00  0.00    -0.255 F 
ATOM     26  H15 5DY d   1     -14.353  18.997 -12.880  0.00  0.00     0.082 H 
ATOM     27  H16 5DY d   1     -12.566  19.068 -13.042  0.00  0.00     0.082 H 
ENDBRANCH  21  24
ENDBRANCH  18  21
ENDBRANCH  12  18
ENDBRANCH   5   8
BRANCH   1  28
ATOM     28  C03 5DY d   1     -19.715  18.070 -11.401  0.00  0.00    -0.005 C 
ATOM     29  H5  5DY d   1     -19.058  17.840 -12.253  0.00  0.00     0.040 H 
ATOM     30  H6  5DY d   1     -19.103  18.363 -10.535  0.00  0.00     0.040 H 
BRANCH  28  31
ATOM     31  C02 5DY d   1     -20.502  16.813 -11.039  0.00  0.00     0.184 C 
ATOM     32  H4  5DY d   1     -21.346  17.066 -10.380  0.00  0.00     0.101 H 
BRANCH  31  33
ATOM     33  N01 5DY d   1     -21.010  16.180 -12.243  0.00  0.00    -0.065 N 
ATOM     34  H1  5DY d   1     -21.657  16.802 -12.702  0.00  0.00     0.275 HD
ATOM     35  H2  5DY d   1     -21.483  15.324 -11.999  0.00  0.00     0.275 HD
ATOM     36  H3  5DY d   1     -20.243  15.975 -12.864  0.00  0.00     0.275 HD
ENDBRANCH  31  33
BRANCH  31  37
ATOM     37  C22 5DY d   1     -19.514  15.911 -10.303  0.00  0.00     0.204 C 
ATOM     38  O23 5DY d   1     -19.292  14.746 -10.718  0.00  0.00    -0.646 OA
ATOM     39  O24 5DY d   1     -18.920  16.330  -9.267  0.00  0.00    -0.646 OA
ENDBRANCH  31  37
ENDBRANCH  28  31
ENDBRANCH   1  28
BRANCH   3  40
ATOM     40  C19 5DY d   1     -20.769  21.541  -8.838  0.00  0.00     0.230 C 
ATOM     41  O20 5DY d   1     -21.693  21.224  -8.015  0.00  0.00    -0.643 OA
ATOM     42  O21 5DY d   1     -19.911  22.442  -8.620  0.00  0.00    -0.643 OA
ENDBRANCH   3  40
TORSDOF 9
