REMARK  8 active torsions:
REMARK  status: ('A' for Active; 'I' for Inactive)
REMARK    1  A    between atoms: P1_2  and  O1_5 
REMARK    2  A    between atoms: O1_5  and  C1_6 
REMARK    3  A    between atoms: C1_6  and  C2_7 
REMARK    4  A    between atoms: C3_8  and  O3_9 
REMARK    5  A    between atoms: C5_11  and  C6_14 
REMARK    6  A    between atoms: C4_12  and  O4_13 
REMARK    7  A    between atoms: C6_14  and  O6_15 
REMARK    8  A    between atoms: O6_15  and  P2_16 
ROOT
ATOM      1  C2  IR8 d   1      -5.926  -8.072  33.390  0.00  0.00     0.150 C 
ATOM      2  C3  IR8 d   1      -7.263  -8.037  32.655  0.00  0.00     0.091 C 
ATOM      3  N1  IR8 d   1      -6.251  -8.329  34.813  0.00  0.00    -0.058 N 
ATOM      4  C5  IR8 d   1      -7.670  -7.985  35.045  0.00  0.00     0.150 C 
ATOM      5  C4  IR8 d   1      -8.260  -7.588  33.704  0.00  0.00     0.091 C 
ATOM      6  H3  IR8 d   1      -5.322  -8.899  32.990  0.00  0.00     0.091 H 
ATOM      7  H4  IR8 d   1      -7.519  -9.050  32.312  0.00  0.00     0.090 H 
ATOM      8  H6  IR8 d   1      -5.663  -7.761  35.403  0.00  0.00     0.278 HD
ATOM      9  H7  IR8 d   1      -6.099  -9.303  35.025  0.00  0.00     0.278 HD
ATOM     10  H8  IR8 d   1      -7.738  -7.133  35.738  0.00  0.00     0.091 H 
ATOM     11  H9  IR8 d   1      -9.232  -8.078  33.544  0.00  0.00     0.090 H 
ENDROOT
BRANCH   1  12
ATOM     12  C1  IR8 d   1      -5.110  -6.788  33.274  0.00  0.00     0.061 C 
ATOM     13  H1  IR8 d   1      -4.774  -6.655  32.235  0.00  0.00     0.078 H 
ATOM     14  H2  IR8 d   1      -5.728  -5.928  33.573  0.00  0.00     0.078 H 
BRANCH  12  15
ATOM     15  O1  IR8 d   1      -3.979  -6.889  34.135  0.00  0.00    -0.281 OA
BRANCH  15  16
ATOM     16  P1  IR8 d   1      -2.988  -5.641  34.372  0.00  0.00     0.422 P 
ATOM     17  O3P IR8 d   1      -3.010  -4.752  33.151  0.00  0.00    -0.617 OA
ATOM     18  O1P IR8 d   1      -1.595  -6.175  34.612  0.00  0.00    -0.617 OA
ATOM     19  O2P IR8 d   1      -3.460  -4.886  35.594  0.00  0.00    -0.617 OA
ENDBRANCH  15  16
ENDBRANCH  12  15
ENDBRANCH   1  12
BRANCH   2  20
ATOM     20  O3  IR8 d   1      -7.252  -7.171  31.509  0.00  0.00    -0.391 OA
ATOM     21  H5  IR8 d   1      -8.106  -7.188  31.092  0.00  0.00     0.210 HD
ENDBRANCH   2  20
BRANCH   5  22
ATOM     22  O4  IR8 d   1      -8.419  -6.170  33.673  0.00  0.00    -0.391 OA
ATOM     23  H10 IR8 d   1      -9.002  -5.902  34.374  0.00  0.00     0.210 HD
ENDBRANCH   5  22
BRANCH   4  24
ATOM     24  C6  IR8 d   1      -8.392  -9.175  35.660  0.00  0.00     0.061 C 
ATOM     25  H11 IR8 d   1      -8.353 -10.030  34.969  0.00  0.00     0.078 H 
ATOM     26  H12 IR8 d   1      -9.441  -8.911  35.858  0.00  0.00     0.078 H 
BRANCH  24  27
ATOM     27  O6  IR8 d   1      -7.743  -9.516  36.884  0.00  0.00    -0.281 OA
BRANCH  27  28
ATOM     28  P2  IR8 d   1      -8.463  -9.390  38.316  0.00  0.00     0.422 P 
ATOM     29  O4P IR8 d   1      -7.707 -10.301  39.254  0.00  0.00    -0.617 OA
ATOM     30  O5P IR8 d   1      -9.884  -9.883  38.190  0.00  0.00    -0.617 OA
ATOM     31  O6P IR8 d   1      -8.413  -7.965  38.807  0.00  0.00    -0.617 OA
ENDBRANCH  27  28
ENDBRANCH  24  27
ENDBRANCH   4  24
TORSDOF 8
