REMARK  8 active torsions:
REMARK  status: ('A' for Active; 'I' for Inactive)
REMARK    1  A    between atoms: P1_2  and  O1_5 
REMARK    2  A    between atoms: O1_5  and  C1_6 
REMARK    3  A    between atoms: C1_6  and  C2_7 
REMARK    4  A    between atoms: C3_8  and  O3_9 
REMARK    5  A    between atoms: C5_11  and  C6_14 
REMARK    6  A    between atoms: C4_12  and  O4_13 
REMARK    7  A    between atoms: C6_14  and  O6_15 
REMARK    8  A    between atoms: O6_15  and  P2_16 
ROOT
ATOM      1  C2  IR9 d   1     -33.166 -16.222  12.472  0.00  0.00     0.150 C 
ATOM      2  C3  IR9 d   1     -31.882 -16.888  12.924  0.00  0.00     0.091 C 
ATOM      3  N1  IR9 d   1     -33.450 -16.844  11.158  0.00  0.00    -0.058 N 
ATOM      4  C5  IR9 d   1     -32.138 -17.290  10.632  0.00  0.00     0.150 C 
ATOM      5  C4  IR9 d   1     -31.100 -16.828  11.639  0.00  0.00     0.091 C 
ATOM      6  H3  IR9 d   1     -32.979 -15.146  12.337  0.00  0.00     0.091 H 
ATOM      7  H4  IR9 d   1     -31.390 -16.342  13.742  0.00  0.00     0.090 H 
ATOM      8  H6  IR9 d   1     -33.868 -16.172  10.534  0.00  0.00     0.278 HD
ATOM      9  H7  IR9 d   1     -34.070 -17.631  11.269  0.00  0.00     0.278 HD
ATOM     10  H8  IR9 d   1     -32.118 -18.387  10.561  0.00  0.00     0.091 H 
ATOM     11  H9  IR9 d   1     -30.784 -15.796  11.428  0.00  0.00     0.090 H 
ENDROOT
BRANCH   1  12
ATOM     12  C1  IR9 d   1     -34.342 -16.360  13.426  0.00  0.00     0.061 C 
ATOM     13  H1  IR9 d   1     -34.579 -17.423  13.581  0.00  0.00     0.078 H 
ATOM     14  H2  IR9 d   1     -34.100 -15.894  14.392  0.00  0.00     0.078 H 
BRANCH  12  15
ATOM     15  O1  IR9 d   1     -35.447 -15.697  12.829  0.00  0.00    -0.281 OA
BRANCH  15  16
ATOM     16  P1  IR9 d   1     -36.728 -15.356  13.723  0.00  0.00     0.422 P 
ATOM     17  O3P IR9 d   1     -37.621 -14.386  12.981  0.00  0.00    -0.617 OA
ATOM     18  O1P IR9 d   1     -37.479 -16.633  13.973  0.00  0.00    -0.617 OA
ATOM     19  O2P IR9 d   1     -36.228 -14.727  15.005  0.00  0.00    -0.617 OA
ENDBRANCH  15  16
ENDBRANCH  12  15
ENDBRANCH   1  12
BRANCH   2  20
ATOM     20  O3  IR9 d   1     -32.124 -18.246  13.307  0.00  0.00    -0.391 OA
ATOM     21  H5  IR9 d   1     -31.308 -18.645  13.586  0.00  0.00     0.210 HD
ENDBRANCH   2  20
BRANCH   5  22
ATOM     22  O4  IR9 d   1     -29.946 -17.660  11.640  0.00  0.00    -0.391 OA
ATOM     23  H10 IR9 d   1     -30.198 -18.549  11.861  0.00  0.00     0.210 HD
ENDBRANCH   5  22
BRANCH   4  24
ATOM     24  C6  IR9 d   1     -31.891 -16.712   9.257  0.00  0.00     0.061 C 
ATOM     25  H11 IR9 d   1     -30.994 -17.171   8.815  0.00  0.00     0.078 H 
ATOM     26  H12 IR9 d   1     -31.748 -15.624   9.330  0.00  0.00     0.078 H 
BRANCH  24  27
ATOM     27  O6  IR9 d   1     -33.028 -16.997   8.447  0.00  0.00    -0.281 OA
BRANCH  27  28
ATOM     28  P2  IR9 d   1     -32.994 -18.164   7.343  0.00  0.00     0.422 P 
ATOM     29  O4P IR9 d   1     -33.059 -19.511   8.023  0.00  0.00    -0.617 OA
ATOM     30  O5P IR9 d   1     -31.707 -18.048   6.557  0.00  0.00    -0.617 OA
ATOM     31  O6P IR9 d   1     -34.184 -17.964   6.431  0.00  0.00    -0.617 OA
ENDBRANCH  27  28
ENDBRANCH  24  27
ENDBRANCH   4  24
TORSDOF 8
