REMARK WARNING: 32 MAX_TORS EXCEEDED!!!
REMARK  46 active torsions:
REMARK  status: ('A' for Active; 'I' for Inactive)
REMARK    1  A    between atoms: C_1  and  O_2 
REMARK    2  A    between atoms: C_1  and  CH3_3 
REMARK    3  A    between atoms: N_4  and  C_1 
REMARK    4  A    between atoms: CA_5  and  N_4 
REMARK    5  A    between atoms: C_6  and  CA_5 
REMARK    6  A    between atoms: CA_5  and  CB_8 
REMARK       I    between atoms: N_11  and  C_6 
REMARK    7  A    between atoms: CB_8  and  OG1_9 
REMARK    8  A    between atoms: CB_8  and  CG2_10 
REMARK    9  A    between atoms: CA_12  and  N_11 
REMARK   10  A    between atoms: C_13  and  CA_12 
REMARK   11  A    between atoms: CA_12  and  CB_15 
REMARK       I    between atoms: N_17  and  C_13 
REMARK   12  A    between atoms: CB_15  and  OG_16 
REMARK   13  A    between atoms: CA_18  and  N_17 
REMARK   14  A    between atoms: C_19  and  CA_18 
REMARK   15  A    between atoms: CA_18  and  CB_21 
REMARK       I    between atoms: N_28  and  C_19 
REMARK   16  A    between atoms: CB_21  and  CG_22 
REMARK   17  A    between atoms: CA_29  and  N_28 
REMARK   18  A    between atoms: C_30  and  CA_29 
REMARK   19  A    between atoms: CA_29  and  CB_32 
REMARK       I    between atoms: N_33  and  C_30 
REMARK   20  A    between atoms: CA_34  and  N_33 
REMARK   21  A    between atoms: C_35  and  CA_34 
REMARK   22  A    between atoms: CA_34  and  CB_37 
REMARK       I    between atoms: N_42  and  C_35 
REMARK   23  A    between atoms: CB_37  and  CG_38 
REMARK   24  A    between atoms: CG_38  and  CD_39 
REMARK   25  A    between atoms: CA_43  and  N_42 
REMARK   26  A    between atoms: C_44  and  CA_43 
REMARK   27  A    between atoms: CA_43  and  CB_46 
REMARK       I    between atoms: N_54  and  C_44 
REMARK   28  A    between atoms: CB_46  and  CG_47 
REMARK   29  A    between atoms: CZ_52  and  OH_53 
REMARK   30  A    between atoms: CA_55  and  N_54 
REMARK   31  A    between atoms: C_56  and  CA_55 
REMARK   32  A    between atoms: CA_55  and  CB_58 
REMARK       I    between atoms: N_70  and  C_56 
REMARK   33  A    between atoms: CB_58  and  CG_59 
REMARK   34  A    between atoms: C_68  and  O_77 
REMARK   35  A    between atoms: CA_71  and  N_70 
REMARK   36  A    between atoms: CA_80  and  CB_83 
REMARK   37  A    between atoms: CB_83  and  CG_84 
REMARK   38  A    between atoms: CG_84  and  CD1_85 
REMARK   39  A    between atoms: CG_84  and  CD2_86 
REMARK   40  A    between atoms: CA_88  and  CB_91 
REMARK   41  A    between atoms: CB_91  and  CG_92 
REMARK   42  A    between atoms: CG_92  and  CD1_93 
REMARK   43  A    between atoms: CG_92  and  CD2_94 
REMARK   44  A    between atoms: CA_96  and  CB_99 
REMARK   45  A    between atoms: CB_99  and  OG_100 
REMARK   46  A    between atoms: CA_102  and  C_103 
REMARK       I    between atoms: C_103  and  N_107 
ROOT
ATOM      1  CA  ACE d   1     -12.775 -16.463 -23.628  0.00  0.00     0.093 C 
ATOM      2  H49 ACE d   1     -12.632 -16.634 -24.705  0.00  0.00     0.088 H 
ENDROOT
BRANCH   1   3
ATOM      3  N   ACE d   1     -13.478 -15.209 -23.455  0.00  0.00    -0.346 N 
ATOM      4  C   ACE d   1     -14.561 -14.837 -24.141  0.00  0.00     0.241 C 
ATOM      5  O   ACE d   1     -15.027 -15.437 -25.096  0.00  0.00    -0.271 OA
ATOM      6  H48 ACE d   1     -13.125 -14.573 -22.769  0.00  0.00     0.163 HD
BRANCH   4   7
ATOM      7  CA  ACE d   1     -15.175 -13.519 -23.692  0.00  0.00     0.093 C 
ATOM      8  H40 ACE d   1     -16.209 -13.468 -24.062  0.00  0.00     0.088 H 
BRANCH   7   9
ATOM      9  N   ACE d   1     -15.214 -13.410 -22.225  0.00  0.00    -0.346 N 
ATOM     10  C   ACE d   1     -15.799 -14.333 -21.464  0.00  0.00     0.241 C 
ATOM     11  O   ACE d   1     -16.383 -15.311 -21.928  0.00  0.00    -0.271 OA
ATOM     12  H39 ACE d   1     -14.788 -12.619 -21.786  0.00  0.00     0.163 HD
BRANCH  10  13
ATOM     13  CA  ACE d   1     -15.695 -14.163 -19.946  0.00  0.00     0.090 C 
ATOM     14  H34 ACE d   1     -15.945 -15.129 -19.483  0.00  0.00     0.087 H 
BRANCH  13  15
ATOM     15  N   ACE d   1     -14.337 -13.779 -19.505  0.00  0.00    -0.346 N 
ATOM     16  C   ACE d   1     -13.285 -14.589 -19.515  0.00  0.00     0.240 C 
ATOM     17  O   ACE d   1     -13.286 -15.720 -19.957  0.00  0.00    -0.271 OA
ATOM     18  H33 ACE d   1     -14.201 -12.844 -19.176  0.00  0.00     0.163 HD
BRANCH  16  19
ATOM     19  CA  ACE d   1     -12.003 -14.008 -18.940  0.00  0.00     0.086 C 
ATOM     20  H29 ACE d   1     -11.221 -14.774 -19.042  0.00  0.00     0.086 H 
BRANCH  19  21
ATOM     21  N   ACE d   1     -11.534 -12.813 -19.617  0.00  0.00    -0.346 N 
ATOM     22  C   ACE d   1     -11.721 -12.516 -20.904  0.00  0.00     0.241 C 
ATOM     23  O   ACE d   1     -12.152 -13.276 -21.740  0.00  0.00    -0.271 OA
ATOM     24  H28 ACE d   1     -11.024 -12.151 -19.068  0.00  0.00     0.163 HD
BRANCH  22  25
ATOM     25  CA  ACE d   1     -11.340 -11.111 -21.286  0.00  0.00     0.093 C 
ATOM     26  H20 ACE d   1     -11.681 -10.883 -22.307  0.00  0.00     0.088 H 
BRANCH  25  27
ATOM     27  N   ACE d   1     -11.995 -10.215 -20.315  0.00  0.00    -0.346 N 
ATOM     28  C   ACE d   1     -13.320 -10.146 -20.210  0.00  0.00     0.243 C 
ATOM     29  O   ACE d   1     -14.073 -10.768 -20.963  0.00  0.00    -0.271 OA
ATOM     30  H19 ACE d   1     -11.429  -9.644 -19.720  0.00  0.00     0.163 HD
BRANCH  28  31
ATOM     31  CA  ACE d   1     -13.876  -9.255 -19.098  0.00  0.00     0.109 C 
ATOM     32  H15 ACE d   1     -13.241  -8.361 -19.018  0.00  0.00     0.090 H 
BRANCH  31  33
ATOM     33  N   ACE d   1     -15.244  -8.832 -19.382  0.00  0.00    -0.344 N 
ATOM     34  C   ACE d   1     -15.503  -7.911 -20.282  0.00  0.00     0.252 C 
ATOM     35  O   ACE d   1     -14.623  -7.394 -21.008  0.00  0.00    -0.271 OA
ATOM     36  H14 ACE d   1     -16.000  -9.252 -18.881  0.00  0.00     0.163 HD
BRANCH  34  37
ATOM     37  CA  ACE d   1     -16.973  -7.554 -20.390  0.00  0.00     0.204 C 
ATOM     38  H8  ACE d   1     -17.463  -7.928 -19.479  0.00  0.00     0.103 H 
BRANCH  37  39
ATOM     39  N   ACE d   1     -17.196  -6.081 -20.429  0.00  0.00    -0.034 N 
ATOM     40  H6  ACE d   1     -16.815  -5.819 -21.325  0.00  0.00     0.281 HD
ATOM     41  H7  ACE d   1     -18.201  -6.005 -20.456  0.00  0.00     0.281 HD
BRANCH  39  42
ATOM     42  C   ACE d   1     -16.843  -5.071 -19.649  0.00  0.00     0.187 C 
ATOM     43  H1  ACE d   1     -15.926  -4.591 -20.021  0.00  0.00     0.128 H 
BRANCH  42  44
ATOM     44  O   ACE d   1     -16.612  -5.609 -18.547  0.00  0.00    -0.370 OA
ATOM     45  H2  ACE d   1     -16.349  -4.945 -17.921  0.00  0.00     0.212 HD
ENDBRANCH  42  44
BRANCH  42  46
ATOM     46  CH3 ACE d   1     -17.978  -4.028 -19.654  0.00  0.00    -0.029 C 
ATOM     47  H3  ACE d   1     -18.096  -3.619 -20.669  0.00  0.00     0.033 H 
ATOM     48  H4  ACE d   1     -17.731  -3.213 -18.957  0.00  0.00     0.033 H 
ATOM     49  H5  ACE d   1     -18.917  -4.507 -19.340  0.00  0.00     0.033 H 
ENDBRANCH  42  46
ENDBRANCH  39  42
ENDBRANCH  37  39
BRANCH  37  50
ATOM     50  CB  ACE d   1     -17.638  -8.268 -21.591  0.00  0.00     0.068 C 
ATOM     51  H9  ACE d   1     -17.271  -7.811 -22.522  0.00  0.00     0.086 H 
BRANCH  50  52
ATOM     52  OG1 ACE d   1     -19.052  -8.090 -21.501  0.00  0.00    -0.393 OA
ATOM     53  H10 ACE d   1     -19.366  -8.465 -20.687  0.00  0.00     0.210 HD
ENDBRANCH  50  52
BRANCH  50  54
ATOM     54  CG2 ACE d   1     -17.324  -9.747 -21.622  0.00  0.00    -0.050 C 
ATOM     55  H11 ACE d   1     -17.817 -10.208 -22.490  0.00  0.00     0.031 H 
ATOM     56  H12 ACE d   1     -17.690 -10.219 -20.698  0.00  0.00     0.031 H 
ATOM     57  H13 ACE d   1     -16.236  -9.889 -21.700  0.00  0.00     0.031 H 
ENDBRANCH  50  54
ENDBRANCH  37  50
ENDBRANCH  34  37
ENDBRANCH  31  33
BRANCH  31  58
ATOM     58  CB  ACE d   1     -13.851 -10.000 -17.772  0.00  0.00     0.044 C 
ATOM     59  H16 ACE d   1     -14.471  -9.459 -17.042  0.00  0.00     0.077 H 
ATOM     60  H17 ACE d   1     -12.815 -10.052 -17.406  0.00  0.00     0.077 H 
BRANCH  58  61
ATOM     61  OG  ACE d   1     -14.360 -11.326 -17.928  0.00  0.00    -0.398 OA
ATOM     62  H18 ACE d   1     -14.336 -11.774 -17.090  0.00  0.00     0.209 HD
ENDBRANCH  58  61
ENDBRANCH  31  58
ENDBRANCH  28  31
ENDBRANCH  25  27
BRANCH  25  63
ATOM     63  CB  ACE d   1      -9.818 -10.961 -21.200  0.00  0.00    -0.014 C 
ATOM     64  H21 ACE d   1      -9.518 -11.128 -20.155  0.00  0.00     0.043 H 
ATOM     65  H22 ACE d   1      -9.560  -9.933 -21.496  0.00  0.00     0.043 H 
BRANCH  63  66
ATOM     66  CG  ACE d   1      -9.024 -11.915 -22.075  0.00  0.00    -0.056 A 
ATOM     67  CD1 ACE d   1      -9.086 -11.865 -23.456  0.00  0.00    -0.077 A 
ATOM     68  CE1 ACE d   1      -8.305 -12.700 -24.232  0.00  0.00    -0.082 A 
ATOM     69  H23 ACE d   1      -9.756 -11.161 -23.936  0.00  0.00     0.084 H 
ATOM     70  CZ  ACE d   1      -7.425 -13.575 -23.627  0.00  0.00    -0.083 A 
ATOM     71  H25 ACE d   1      -8.383 -12.668 -25.313  0.00  0.00     0.083 H 
ATOM     72  CE2 ACE d   1      -7.349 -13.631 -22.261  0.00  0.00    -0.082 A 
ATOM     73  H27 ACE d   1      -6.795 -14.217 -24.233  0.00  0.00     0.083 H 
ATOM     74  CD2 ACE d   1      -8.117 -12.782 -21.497  0.00  0.00    -0.077 A 
ATOM     75  H26 ACE d   1      -6.686 -14.342 -21.782  0.00  0.00     0.083 H 
ATOM     76  H24 ACE d   1      -8.008 -12.794 -20.419  0.00  0.00     0.084 H 
ENDBRANCH  63  66
ENDBRANCH  25  63
ENDBRANCH  22  25
ENDBRANCH  19  21
BRANCH  19  77
ATOM     77  CB  ACE d   1     -12.187 -13.709 -17.475  0.00  0.00    -0.049 C 
ATOM     78  H30 ACE d   1     -12.543 -14.613 -16.958  0.00  0.00     0.030 H 
ATOM     79  H31 ACE d   1     -12.926 -12.903 -17.355  0.00  0.00     0.030 H 
ATOM     80  H32 ACE d   1     -11.227 -13.393 -17.042  0.00  0.00     0.030 H 
ENDBRANCH  19  77
ENDBRANCH  16  19
ENDBRANCH  13  15
BRANCH  13  81
ATOM     81  CB  ACE d   1     -16.698 -13.104 -19.444  0.00  0.00    -0.029 C 
ATOM     82  H35 ACE d   1     -16.320 -12.117 -19.749  0.00  0.00     0.037 H 
ATOM     83  H36 ACE d   1     -16.723 -13.164 -18.346  0.00  0.00     0.037 H 
BRANCH  81  84
ATOM     84  CG  ACE d   1     -18.140 -13.222 -19.946  0.00  0.00     0.018 C 
ATOM     85  H37 ACE d   1     -18.463 -14.269 -19.854  0.00  0.00     0.049 H 
ATOM     86  H38 ACE d   1     -18.174 -12.919 -21.003  0.00  0.00     0.049 H 
BRANCH  84  87
ATOM     87  CD  ACE d   1     -19.108 -12.329 -19.140  0.00  0.00     0.172 C 
ATOM     88  OE1 ACE d   1     -20.358 -12.486 -19.261  0.00  0.00    -0.648 OA
ATOM     89  OE2 ACE d   1     -18.623 -11.479 -18.374  0.00  0.00    -0.648 OA
ENDBRANCH  84  87
ENDBRANCH  81  84
ENDBRANCH  13  81
ENDBRANCH  10  13
ENDBRANCH   7   9
BRANCH   7  90
ATOM     90  CB  ACE d   1     -14.371 -12.385 -24.330  0.00  0.00    -0.014 C 
ATOM     91  H41 ACE d   1     -13.995 -12.742 -25.300  0.00  0.00     0.043 H 
ATOM     92  H42 ACE d   1     -13.522 -12.159 -23.668  0.00  0.00     0.043 H 
BRANCH  90  93
ATOM     93  CG  ACE d   1     -15.126 -11.098 -24.571  0.00  0.00    -0.056 A 
ATOM     94  CD1 ACE d   1     -16.287 -11.060 -25.344  0.00  0.00    -0.074 A 
ATOM     95  CE1 ACE d   1     -16.966  -9.846 -25.550  0.00  0.00    -0.051 A 
ATOM     96  H43 ACE d   1     -16.668 -11.972 -25.789  0.00  0.00     0.084 H 
ATOM     97  CZ  ACE d   1     -16.437  -8.668 -25.028  0.00  0.00     0.065 A 
ATOM     98  H45 ACE d   1     -17.894  -9.827 -26.110  0.00  0.00     0.087 H 
ATOM     99  CE2 ACE d   1     -15.274  -8.697 -24.302  0.00  0.00    -0.051 A 
ATOM    100  CD2 ACE d   1     -14.633  -9.895 -24.081  0.00  0.00    -0.074 A 
ATOM    101  H46 ACE d   1     -14.860  -7.778 -23.903  0.00  0.00     0.087 H 
ATOM    102  H44 ACE d   1     -13.714  -9.900 -23.506  0.00  0.00     0.084 H 
BRANCH  97 103
ATOM    103  OH  ACE d   1     -17.006  -7.413 -25.208  0.00  0.00    -0.361 OA
ATOM    104  H47 ACE d   1     -17.802  -7.498 -25.720  0.00  0.00     0.217 HD
ENDBRANCH  97 103
ENDBRANCH  90  93
ENDBRANCH   7  90
ENDBRANCH   4   7
ENDBRANCH   1   3
BRANCH   1 105
ATOM    105  C   ACE d   1     -13.596 -17.591 -23.062  0.00  0.00     0.241 C 
ATOM    106  O   ACE d   1     -13.226 -18.733 -23.354  0.00  0.00    -0.271 OA
ATOM    107  N   ACE d   1     -14.416 -17.395 -22.065  0.00  0.00    -0.350 N 
ATOM    108  H59 ACE d   1     -14.406 -16.479 -21.665  0.00  0.00     0.163 HD
BRANCH 107 109
ATOM    109  CA  ACE d   1     -15.350 -18.349 -21.458  0.00  0.00     0.062 C 
ATOM    110  C   ACE d   1     -16.671 -18.683 -22.266  0.00  0.00     0.210 C 
ATOM    111  N   ACE d   1     -16.880 -17.780 -23.207  0.00  0.00    -0.034 N 
ATOM    112  H58 ACE d   1     -17.504 -18.724 -21.549  0.00  0.00     0.132 H 
ATOM    113  CA  ACE d   1     -17.835 -17.704 -24.374  0.00  0.00     0.181 C 
ATOM    114  H71 ACE d   1     -15.976 -17.686 -23.642  0.00  0.00     0.281 HD
ATOM    115  H72 ACE d   1     -17.089 -16.945 -22.683  0.00  0.00     0.281 HD
ATOM    116  C   ACE d   1     -17.265 -18.423 -25.609  0.00  0.00     0.249 C 
ATOM    117  H73 ACE d   1     -18.746 -18.245 -24.080  0.00  0.00     0.099 H 
ATOM    118  O   ACE d   1     -17.983 -19.143 -26.292  0.00  0.00    -0.271 OA
ATOM    119  N   ACE d   1     -15.971 -18.206 -25.862  0.00  0.00    -0.346 N 
ATOM    120  CA  ACE d   1     -15.169 -18.966 -26.842  0.00  0.00     0.089 C 
ATOM    121  H83 ACE d   1     -15.513 -17.478 -25.352  0.00  0.00     0.163 HD
ATOM    122  C   ACE d   1     -15.131 -20.512 -26.666  0.00  0.00     0.241 C 
ATOM    123  H84 ACE d   1     -15.612 -18.779 -27.831  0.00  0.00     0.087 H 
ATOM    124  O   ACE d   1     -15.398 -21.250 -27.629  0.00  0.00    -0.271 OA
ATOM    125  N   ACE d   1     -14.722 -21.002 -25.500  0.00  0.00    -0.344 N 
ATOM    126  CA  ACE d   1     -15.083 -22.355 -25.047  0.00  0.00     0.109 C 
ATOM    127  H94 ACE d   1     -14.150 -20.432 -24.911  0.00  0.00     0.163 HD
ATOM    128  C   ACE d   1     -16.631 -22.432 -24.808  0.00  0.00     0.243 C 
ATOM    129  H95 ACE d   1     -14.814 -23.076 -25.833  0.00  0.00     0.090 H 
ATOM    130  O   ACE d   1     -17.392 -21.765 -25.494  0.00  0.00    -0.271 OA
ATOM    131  N   ACE d   1     -17.084 -23.244 -23.852  0.00  0.00    -0.345 N 
ATOM    132  CA  ACE d   1     -18.501 -23.328 -23.422  0.00  0.00     0.097 C 
ATOM    133  H99 ACE d   1     -16.422 -23.837 -23.393  0.00  0.00     0.163 HD
ATOM    134  CB  ACE d   1     -19.035 -21.989 -22.832  0.00  0.00     0.010 C 
ATOM    135 0H10 ACE d   1     -18.540 -24.067 -22.609  0.00  0.00     0.088 H 
ATOM    136  SG  ACE d   1     -18.889 -21.723 -21.018  0.00  0.00    -0.102 SA
ATOM    137 1H10 ACE d   1     -20.103 -21.922 -23.087  0.00  0.00     0.053 H 
ATOM    138 2H10 ACE d   1     -18.488 -21.173 -23.327  0.00  0.00     0.053 H 
ATOM    139  C1  ACE d   1     -19.414 -20.399 -20.237  0.00  0.00     0.114 C 
ATOM    140  S   ACE d   1     -20.891 -19.901 -21.203  0.00  0.00    -0.026 SA
ATOM    141  NZ  ACE d   1     -19.440 -19.535 -19.024  0.00  0.00    -0.379 N 
ATOM    142  CE  ACE d   1     -18.410 -19.667 -17.924  0.00  0.00    -0.006 C 
ATOM    143  H69 ACE d   1     -20.160 -18.847 -18.934  0.00  0.00     0.160 HD
ATOM    144  CD  ACE d   1     -17.319 -18.601 -18.051  0.00  0.00    -0.050 C 
ATOM    145  H67 ACE d   1     -18.909 -19.554 -16.951  0.00  0.00     0.064 H 
ATOM    146  H68 ACE d   1     -17.947 -20.663 -17.985  0.00  0.00     0.064 H 
ATOM    147  CG  ACE d   1     -16.306 -18.995 -19.144  0.00  0.00    -0.062 C 
ATOM    148  H65 ACE d   1     -17.782 -17.639 -18.316  0.00  0.00     0.035 H 
ATOM    149  H66 ACE d   1     -16.794 -18.503 -17.089  0.00  0.00     0.035 H 
ATOM    150  CB  ACE d   1     -15.780 -17.859 -20.066  0.00  0.00    -0.042 C 
ATOM    151  H63 ACE d   1     -15.436 -19.444 -18.643  0.00  0.00     0.033 H 
ATOM    152  H64 ACE d   1     -16.788 -19.747 -19.787  0.00  0.00     0.033 H 
ATOM    153  H61 ACE d   1     -16.579 -17.114 -20.191  0.00  0.00     0.036 H 
ATOM    154  H62 ACE d   1     -14.913 -17.389 -19.579  0.00  0.00     0.036 H 
ATOM    155  H60 ACE d   1     -14.798 -19.293 -21.339  0.00  0.00     0.079 H 
BRANCH 110 156
ATOM    156  O   ACE d   1     -16.675 -19.714 -22.996  0.00  0.00    -0.368 OA
ATOM    157  H70 ACE d   1     -16.532 -20.483 -22.457  0.00  0.00     0.212 HD
ENDBRANCH 110 156
BRANCH 113 158
ATOM    158  CB  ACE d   1     -18.262 -16.242 -24.686  0.00  0.00    -0.027 C 
ATOM    159  H74 ACE d   1     -18.783 -16.235 -25.655  0.00  0.00     0.037 H 
ATOM    160  H75 ACE d   1     -17.354 -15.626 -24.754  0.00  0.00     0.037 H 
BRANCH 158 161
ATOM    161  CG  ACE d   1     -19.199 -15.608 -23.629  0.00  0.00    -0.059 C 
ATOM    162  H76 ACE d   1     -18.844 -15.954 -22.647  0.00  0.00     0.038 H 
BRANCH 161 163
ATOM    163  CD1 ACE d   1     -19.174 -14.068 -23.590  0.00  0.00    -0.073 C 
ATOM    164  H77 ACE d   1     -19.866 -13.710 -22.814  0.00  0.00     0.028 H 
ATOM    165  H78 ACE d   1     -19.483 -13.671 -24.568  0.00  0.00     0.028 H 
ATOM    166  H79 ACE d   1     -18.155 -13.723 -23.360  0.00  0.00     0.028 H 
ENDBRANCH 161 163
BRANCH 161 167
ATOM    167  CD2 ACE d   1     -20.634 -16.115 -23.802  0.00  0.00    -0.073 C 
ATOM    168  H80 ACE d   1     -20.634 -17.215 -23.828  0.00  0.00     0.028 H 
ATOM    169  H81 ACE d   1     -21.049 -15.726 -24.744  0.00  0.00     0.028 H 
ATOM    170  H82 ACE d   1     -21.250 -15.768 -22.959  0.00  0.00     0.028 H 
ENDBRANCH 161 167
ENDBRANCH 158 161
ENDBRANCH 113 158
BRANCH 120 171
ATOM    171  CB  ACE d   1     -13.750 -18.378 -26.837  0.00  0.00    -0.035 C 
ATOM    172  H85 ACE d   1     -13.358 -18.494 -25.816  0.00  0.00     0.037 H 
ATOM    173  H86 ACE d   1     -13.845 -17.308 -27.073  0.00  0.00     0.037 H 
BRANCH 171 174
ATOM    174  CG  ACE d   1     -12.704 -18.949 -27.781  0.00  0.00    -0.059 C 
ATOM    175  H87 ACE d   1     -11.821 -18.300 -27.691  0.00  0.00     0.038 H 
BRANCH 174 176
ATOM    176  CD1 ACE d   1     -12.244 -20.335 -27.354  0.00  0.00    -0.073 C 
ATOM    177  H88 ACE d   1     -11.490 -20.706 -28.064  0.00  0.00     0.028 H 
ATOM    178  H89 ACE d   1     -13.105 -21.020 -27.342  0.00  0.00     0.028 H 
ATOM    179  H90 ACE d   1     -11.804 -20.281 -26.347  0.00  0.00     0.028 H 
ENDBRANCH 174 176
BRANCH 174 180
ATOM    180  CD2 ACE d   1     -13.143 -18.854 -29.238  0.00  0.00    -0.073 C 
ATOM    181  H91 ACE d   1     -13.458 -17.823 -29.460  0.00  0.00     0.028 H 
ATOM    182  H92 ACE d   1     -13.985 -19.540 -29.413  0.00  0.00     0.028 H 
ATOM    183  H93 ACE d   1     -12.303 -19.130 -29.893  0.00  0.00     0.028 H 
ENDBRANCH 174 180
ENDBRANCH 171 174
ENDBRANCH 120 171
BRANCH 126 184
ATOM    184  CB  ACE d   1     -14.297 -22.709 -23.771  0.00  0.00     0.044 C 
ATOM    185  H96 ACE d   1     -14.226 -23.804 -23.698  0.00  0.00     0.077 H 
ATOM    186  H97 ACE d   1     -14.848 -22.319 -22.902  0.00  0.00     0.077 H 
BRANCH 184 187
ATOM    187  OG  ACE d   1     -12.979 -22.168 -23.750  0.00  0.00    -0.398 OA
ATOM    188  H98 ACE d   1     -13.026 -21.221 -23.803  0.00  0.00     0.209 HD
ENDBRANCH 184 187
ENDBRANCH 126 184
BRANCH 132 189
ATOM    189  C   ACE d   1     -19.406 -23.857 -24.550  0.00  0.00     0.239 C 
ATOM    190  O   ACE d   1     -20.056 -24.902 -24.386  0.00  0.00    -0.271 OA
ATOM    191  N   ACE d   1     -19.766 -23.252 -25.606  0.00  0.00    -0.368 N 
ATOM    192 3H10 ACE d   1     -20.361 -23.710 -26.266  0.00  0.00     0.159 HD
ATOM    193 4H10 ACE d   1     -19.454 -22.317 -25.778  0.00  0.00     0.159 HD
ENDBRANCH 132 189
ENDBRANCH 107 109
ENDBRANCH   1 105
BRANCH   1 194
ATOM    194  CB  ACE d   1     -11.372 -16.445 -22.942  0.00  0.00    -0.012 C 
ATOM    195  H50 ACE d   1     -11.515 -16.575 -21.859  0.00  0.00     0.044 H 
ATOM    196  H51 ACE d   1     -10.905 -15.468 -23.136  0.00  0.00     0.044 H 
BRANCH 194 197
ATOM    197  CG  ACE d   1     -10.400 -17.562 -23.446  0.00  0.00    -0.028 A 
ATOM    198  CD1 ACE d   1     -10.129 -18.726 -22.810  0.00  0.00    -0.015 A 
ATOM    199  NE1 ACE d   1      -9.232 -19.478 -23.531  0.00  0.00    -0.365 N 
ATOM    200  H52 ACE d   1     -10.562 -19.026 -21.857  0.00  0.00     0.112 H 
ATOM    201  CE2 ACE d   1      -8.880 -18.809 -24.663  0.00  0.00     0.042 A 
ATOM    202  H53 ACE d   1      -8.880 -20.406 -23.256  0.00  0.00     0.165 HD
ATOM    203  CD2 ACE d   1      -9.592 -17.582 -24.657  0.00  0.00    -0.002 A 
ATOM    204  CZ2 ACE d   1      -7.986 -19.171 -25.704  0.00  0.00    -0.056 A 
ATOM    205  CE3 ACE d   1      -9.403 -16.695 -25.729  0.00  0.00    -0.070 A 
ATOM    206  CZ3 ACE d   1      -8.524 -17.058 -26.766  0.00  0.00    -0.082 A 
ATOM    207  H54 ACE d   1      -9.926 -15.746 -25.757  0.00  0.00     0.084 H 
ATOM    208  CH2 ACE d   1      -7.825 -18.285 -26.735  0.00  0.00    -0.081 A 
ATOM    209  H56 ACE d   1      -8.381 -16.384 -27.603  0.00  0.00     0.083 H 
ATOM    210  H57 ACE d   1      -7.147 -18.530 -27.544  0.00  0.00     0.083 H 
ATOM    211  H55 ACE d   1      -7.451 -20.113 -25.683  0.00  0.00     0.086 H 
ENDBRANCH 194 197
ENDBRANCH   1 194
TORSDOF 46
