REMARK  0 active torsions:
REMARK  status: ('A' for Active; 'I' for Inactive)
ROOT
ATOM      1  C1  NPY d   1      47.720  31.880  14.264  0.00  0.00    -0.072 A 
ATOM      2  C2  NPY d   1      47.990  31.876  15.629  0.00  0.00    -0.082 A 
ATOM      3  C3  NPY d   1      49.299  31.818  16.104  0.00  0.00    -0.082 A 
ATOM      4  C4  NPY d   1      50.382  31.761  15.232  0.00  0.00    -0.072 A 
ATOM      5  C4A NPY d   1      50.160  31.763  13.863  0.00  0.00    -0.026 A 
ATOM      6  C5  NPY d   1      51.208  31.708  12.956  0.00  0.00    -0.072 A 
ATOM      7  C6  NPY d   1      50.938  31.712  11.591  0.00  0.00    -0.082 A 
ATOM      8  C7  NPY d   1      49.630  31.771  11.115  0.00  0.00    -0.082 A 
ATOM      9  C8  NPY d   1      48.547  31.827  11.988  0.00  0.00    -0.072 A 
ATOM     10  C8A NPY d   1      48.768  31.825  13.357  0.00  0.00    -0.026 A 
ATOM     11  H1  NPY d   1      46.696  31.926  13.911  0.00  0.00     0.084 H 
ATOM     12  H2  NPY d   1      47.168  31.919  16.335  0.00  0.00     0.083 H 
ATOM     13  H3  NPY d   1      49.477  31.817  17.173  0.00  0.00     0.083 H 
ATOM     14  H4  NPY d   1      51.393  31.715  15.620  0.00  0.00     0.084 H 
ATOM     15  H5  NPY d   1      52.232  31.662  13.309  0.00  0.00     0.084 H 
ATOM     16  H6  NPY d   1      51.760  31.668  10.886  0.00  0.00     0.083 H 
ATOM     17  H7  NPY d   1      49.452  31.773  10.046  0.00  0.00     0.083 H 
ATOM     18  H8  NPY d   1      47.536  31.872  11.600  0.00  0.00     0.084 H 
ENDROOT
TORSDOF 0
