REMARK  17 active torsions:
REMARK  status: ('A' for Active; 'I' for Inactive)
REMARK    1  A    between atoms: C1_1  and  O1_7 
REMARK    2  A    between atoms: C2_2  and  O2_8 
REMARK    3  A    between atoms: C3_3  and  O3_9 
REMARK    4  A    between atoms: C4_4  and  O4_10 
REMARK    5  A    between atoms: C6_6  and  C5_5 
REMARK    6  A    between atoms: O6_12  and  C6_6 
REMARK    7  A    between atoms: C2_14  and  O6_12 
REMARK    8  A    between atoms: C2_14  and  C1_13 
REMARK    9  A    between atoms: C4_16  and  O4_27 
REMARK   10  A    between atoms: N5_24  and  C5_17 
REMARK   11  A    between atoms: C6_18  and  C7_19 
REMARK   12  A    between atoms: C7_19  and  C8_20 
REMARK   13  A    between atoms: C7_19  and  O7_29 
REMARK   14  A    between atoms: C8_20  and  C9_21 
REMARK   15  A    between atoms: C8_20  and  O8_30 
REMARK   16  A    between atoms: C9_21  and  O9_31 
REMARK   17  A    between atoms: C10_22  and  C11_23 
REMARK       I    between atoms: C10_22  and  N5_24 
ROOT
ATOM      1  H12 GAL d   1     -56.506  13.492  18.549  0.00  0.00     0.045 H 
ATOM      2  H13 GAL d   1     -56.620  11.712  18.340  0.00  0.00     0.045 H 
ATOM      3  H14 GAL d   1     -55.544  13.777  16.446  0.00  0.00     0.086 H 
ATOM      4  H15 GAL d   1     -55.564  10.794  15.987  0.00  0.00     0.080 H 
ATOM      5  H16 GAL d   1     -53.166  12.605  16.496  0.00  0.00     0.090 H 
ATOM      6  C2  SIA d   1     -54.655  12.440  18.780  0.00  0.00     0.258 C 
ATOM      7  C3  SIA d   1     -56.016  12.605  18.122  0.00  0.00     0.024 C 
ATOM      8  C4  SIA d   1     -55.938  12.772  16.659  0.00  0.00     0.063 C 
ATOM      9  C5  SIA d   1     -55.070  11.777  15.979  0.00  0.00     0.064 C 
ATOM     10  C6  SIA d   1     -53.707  11.660  16.651  0.00  0.00     0.091 C 
ATOM     11  O6  SIA d   1     -53.826  11.419  18.092  0.00  0.00    -0.336 OA
ENDROOT
BRANCH   6  12
ATOM     12  O6  GAL d   1     -54.580  11.618  19.879  0.00  0.00    -0.344 OA
BRANCH  12  13
ATOM     13  C6  GAL d   1     -53.383  11.381  20.643  0.00  0.00     0.050 C 
ATOM     14  H6  GAL d   1     -52.630  10.894  20.005  0.00  0.00     0.078 H 
ATOM     15  H7  GAL d   1     -52.987  12.339  21.012  0.00  0.00     0.078 H 
BRANCH  13  16
ATOM     16  C5  GAL d   1     -53.711  10.472  21.831  0.00  0.00     0.089 C 
ATOM     17  C4  GAL d   1     -52.410   9.971  22.447  0.00  0.00     0.090 C 
ATOM     18  C3  GAL d   1     -52.647   8.939  23.511  0.00  0.00     0.092 C 
ATOM     19  H4  GAL d   1     -51.885  10.825  22.899  0.00  0.00     0.091 H 
ATOM     20  C2  GAL d   1     -53.548   7.848  23.051  0.00  0.00     0.110 C 
ATOM     21  H3  GAL d   1     -53.105   9.430  24.382  0.00  0.00     0.091 H 
ATOM     22  C1  GAL d   1     -54.837   8.374  22.452  0.00  0.00     0.156 C 
ATOM     23  H2  GAL d   1     -53.023   7.252  22.290  0.00  0.00     0.094 H 
ATOM     24  O5  GAL d   1     -54.572   9.379  21.363  0.00  0.00    -0.349 OA
ATOM     25  H1  GAL d   1     -55.421   8.859  23.248  0.00  0.00     0.133 H 
ATOM     26  H5  GAL d   1     -54.258  11.049  22.591  0.00  0.00     0.090 H 
BRANCH  17  27
ATOM     27  O4  GAL d   1     -51.579   9.398  21.406  0.00  0.00    -0.390 OA
ATOM     28  H11 GAL d   1     -50.767   9.085  21.787  0.00  0.00     0.210 HD
ENDBRANCH  17  27
BRANCH  18  29
ATOM     29  O3  GAL d   1     -51.377   8.369  23.896  0.00  0.00    -0.390 OA
ATOM     30  H10 GAL d   1     -50.970   7.965  23.139  0.00  0.00     0.210 HD
ENDBRANCH  18  29
BRANCH  20  31
ATOM     31  O2  GAL d   1     -53.868   7.011  24.185  0.00  0.00    -0.388 OA
ATOM     32  H9  GAL d   1     -54.444   6.309  23.906  0.00  0.00     0.210 HD
ENDBRANCH  20  31
BRANCH  22  33
ATOM     33  O1  GAL d   1     -55.574   7.324  21.921  0.00  0.00    -0.369 OA
ATOM     34  H8  GAL d   1     -55.746   6.684  22.601  0.00  0.00     0.212 HD
ENDBRANCH  22  33
ENDBRANCH  13  16
ENDBRANCH  12  13
ENDBRANCH   6  12
BRANCH   6  35
ATOM     35  C1  SIA d   1     -53.922  13.794  18.845  0.00  0.00     0.239 C 
ATOM     36  O1A SIA d   1     -52.674  13.857  18.646  0.00  0.00    -0.644 OA
ATOM     37  O1B SIA d   1     -54.536  14.809  19.093  0.00  0.00    -0.644 OA
ENDBRANCH   6  35
BRANCH   8  38
ATOM     38  O4  SIA d   1     -57.276  12.652  16.120  0.00  0.00    -0.393 OA
ATOM     39  H25 GAL d   1     -57.256  12.821  15.185  0.00  0.00     0.210 HD
ENDBRANCH   8  38
BRANCH  10  40
ATOM     40  C7  SIA d   1     -52.899  10.524  16.042  0.00  0.00     0.089 C 
ATOM     41  H17 GAL d   1     -52.776  10.695  14.962  0.00  0.00     0.091 H 
BRANCH  40  42
ATOM     42  C8  SIA d   1     -51.540  10.483  16.708  0.00  0.00     0.083 C 
ATOM     43  H18 GAL d   1     -51.668  10.212  17.767  0.00  0.00     0.090 H 
BRANCH  42  44
ATOM     44  C9  SIA d   1     -50.663   9.449  16.027  0.00  0.00     0.043 C 
ATOM     45  H19 GAL d   1     -50.345   9.826  15.044  0.00  0.00     0.078 H 
ATOM     46  H20 GAL d   1     -51.229   8.515  15.896  0.00  0.00     0.078 H 
BRANCH  44  47
ATOM     47  O9  SIA d   1     -49.502   9.199  16.847  0.00  0.00    -0.398 OA
ATOM     48  H28 GAL d   1     -49.015  10.007  16.959  0.00  0.00     0.209 HD
ENDBRANCH  44  47
ENDBRANCH  42  44
BRANCH  42  49
ATOM     49  O8  SIA d   1     -50.902  11.752  16.623  0.00  0.00    -0.391 OA
ATOM     50  H27 GAL d   1     -50.057  11.710  17.056  0.00  0.00     0.210 HD
ENDBRANCH  42  49
ENDBRANCH  40  42
BRANCH  40  51
ATOM     51  O7  SIA d   1     -53.582   9.283  16.253  0.00  0.00    -0.390 OA
ATOM     52  H26 GAL d   1     -53.693   9.139  17.185  0.00  0.00     0.210 HD
ENDBRANCH  40  51
ENDBRANCH  10  40
BRANCH   9  53
ATOM     53  N5  SIA d   1     -54.867  12.237  14.573  0.00  0.00    -0.352 N 
ATOM     54  C10 SIA d   1     -55.047  11.310  13.452  0.00  0.00     0.214 C 
ATOM     55  O10 SIA d   1     -55.349  10.201  13.653  0.00  0.00    -0.274 OA
ATOM     56  H24 GAL d   1     -54.606  13.186  14.395  0.00  0.00     0.163 HD
BRANCH  54  57
ATOM     57  C11 SIA d   1     -54.837  11.797  12.042  0.00  0.00    -0.003 C 
ATOM     58  H21 GAL d   1     -55.015  10.970  11.338  0.00  0.00     0.040 H 
ATOM     59  H22 GAL d   1     -53.804  12.159  11.929  0.00  0.00     0.040 H 
ATOM     60  H23 GAL d   1     -55.539  12.617  11.829  0.00  0.00     0.040 H 
ENDBRANCH  54  57
ENDBRANCH   9  53
TORSDOF 17
