REMARK WARNING: 32 MAX_TORS EXCEEDED!!!
REMARK  62 active torsions:
REMARK  status: ('A' for Active; 'I' for Inactive)
REMARK    1  A    between atoms: C_1  and  CH3_3 
REMARK       I    between atoms: C_1  and  N_4 
REMARK    2  A    between atoms: N_4  and  CA_5 
REMARK    3  A    between atoms: CA_5  and  C_6 
REMARK    4  A    between atoms: CA_5  and  CB_8 
REMARK       I    between atoms: C_6  and  N_11 
REMARK    5  A    between atoms: CB_8  and  OG1_9 
REMARK    6  A    between atoms: CB_8  and  CG2_10 
REMARK    7  A    between atoms: N_11  and  CA_12 
REMARK    8  A    between atoms: CA_12  and  C_13 
REMARK    9  A    between atoms: CA_12  and  CB_15 
REMARK       I    between atoms: C_13  and  N_18 
REMARK   10  A    between atoms: CB_15  and  CG1_16 
REMARK   11  A    between atoms: CB_15  and  CG2_17 
REMARK   12  A    between atoms: N_18  and  CA_19 
REMARK   13  A    between atoms: CA_19  and  C_20 
REMARK   14  A    between atoms: CA_19  and  CB_22 
REMARK       I    between atoms: C_20  and  N_29 
REMARK   15  A    between atoms: CB_22  and  CG_23 
REMARK   16  A    between atoms: N_29  and  CA_30 
REMARK   17  A    between atoms: CA_30  and  C_31 
REMARK   18  A    between atoms: CA_30  and  CB_33 
REMARK       I    between atoms: C_31  and  N_36 
REMARK   19  A    between atoms: CB_33  and  OG1_34 
REMARK   20  A    between atoms: CB_33  and  CG2_35 
REMARK   21  A    between atoms: N_36  and  CA_37 
REMARK   22  A    between atoms: CA_37  and  C_38 
REMARK   23  A    between atoms: CA_37  and  CB_40 
REMARK       I    between atoms: C_38  and  N_42 
REMARK   24  A    between atoms: CB_40  and  OG_41 
REMARK   25  A    between atoms: N_42  and  CA_43 
REMARK   26  A    between atoms: CA_43  and  C_44 
REMARK   27  A    between atoms: CA_43  and  CB_46 
REMARK       I    between atoms: C_44  and  N_56 
REMARK   28  A    between atoms: CB_46  and  CG_47 
REMARK   29  A    between atoms: N_56  and  CA_57 
REMARK   30  A    between atoms: CA_57  and  C_58 
REMARK   31  A    between atoms: CA_57  and  CB_60 
REMARK       I    between atoms: C_58  and  N_65 
REMARK   32  A    between atoms: CB_60  and  CG_61 
REMARK   33  A    between atoms: CG_61  and  CD_62 
REMARK   34  A    between atoms: N_65  and  CA_66 
REMARK   35  A    between atoms: CA_66  and  C_67 
REMARK   36  A    between atoms: CA_66  and  CB_69 
REMARK       I    between atoms: C_67  and  N_74 
REMARK   37  A    between atoms: CB_69  and  CG_70 
REMARK   38  A    between atoms: CG_70  and  CD_71 
REMARK   39  A    between atoms: N_74  and  CA_75 
REMARK   40  A    between atoms: CA_75  and  C_76 
REMARK   41  A    between atoms: CA_75  and  CB_78 
REMARK       I    between atoms: C_76  and  N_86 
REMARK   42  A    between atoms: CB_78  and  CG_79 
REMARK   43  A    between atoms: CZ_84  and  OH_85 
REMARK   44  A    between atoms: N_86  and  CA_87 
REMARK   45  A    between atoms: CA_87  and  C_88 
REMARK   46  A    between atoms: CA_87  and  CB_90 
REMARK       I    between atoms: C_88  and  N_94 
REMARK   47  A    between atoms: CB_90  and  CG_91 
REMARK   48  A    between atoms: CG_91  and  CD1_92 
REMARK   49  A    between atoms: CG_91  and  CD2_93 
REMARK   50  A    between atoms: N_94  and  CA_95 
REMARK   51  A    between atoms: CA_95  and  C_96 
REMARK   52  A    between atoms: CA_95  and  CB_98 
REMARK       I    between atoms: C_96  and  N_102 
REMARK   53  A    between atoms: CB_98  and  CG_99 
REMARK   54  A    between atoms: N_102  and  CA_103 
REMARK   55  A    between atoms: CA_103  and  C_104 
REMARK   56  A    between atoms: CA_103  and  CB_106 
REMARK       I    between atoms: C_104  and  N_116 
REMARK   57  A    between atoms: CB_106  and  CG_107 
REMARK   58  A    between atoms: N_116  and  CA_117 
REMARK   59  A    between atoms: CA_117  and  C_118 
REMARK   60  A    between atoms: CA_117  and  CB_120 
REMARK       I    between atoms: C_118  and  N_123 
REMARK   61  A    between atoms: CB_120  and  CG1_121 
REMARK   62  A    between atoms: CB_120  and  CG2_122 
ROOT
ATOM      1  CA  GLU d   1       5.903 -17.825  37.996  0.00  0.00     0.090 C 
ATOM      2  H52 GLU d   1       4.984 -17.471  37.507  0.00  0.00     0.087 H 
ENDROOT
BRANCH   1   3
ATOM      3  N   GLU d   1       6.672 -18.602  37.008  0.00  0.00    -0.346 N 
ATOM      4  C   TRP d   1       7.090 -18.165  35.794  0.00  0.00     0.241 C 
ATOM      5  O   TRP d   1       6.872 -17.032  35.358  0.00  0.00    -0.271 OA
ATOM      6  H51 GLU d   1       6.908 -19.541  37.256  0.00  0.00     0.163 HD
BRANCH   4   7
ATOM      7  CA  TRP d   1       7.900 -19.152  34.956  0.00  0.00     0.093 C 
ATOM      8  H42 TRP d   1       8.529 -18.578  34.259  0.00  0.00     0.088 H 
BRANCH   7   9
ATOM      9  N   TRP d   1       8.780 -19.942  35.820  0.00  0.00    -0.346 N 
ATOM     10  C   SER d   1       9.879 -19.421  36.401  0.00  0.00     0.243 C 
ATOM     11  O   SER d   1      10.248 -18.255  36.219  0.00  0.00    -0.271 OA
ATOM     12  H41 TRP d   1       8.557 -20.903  35.985  0.00  0.00     0.163 HD
BRANCH  10  13
ATOM     13  CA  SER d   1      10.693 -20.338  37.323  0.00  0.00     0.109 C 
ATOM     14  H37 SER d   1      10.859 -21.291  36.799  0.00  0.00     0.090 H 
BRANCH  13  15
ATOM     15  N   SER d   1      12.000 -19.745  37.618  0.00  0.00    -0.344 N 
ATOM     16  C   THR d   1      13.151 -20.442  37.690  0.00  0.00     0.243 C 
ATOM     17  O   THR d   1      13.204 -21.664  37.539  0.00  0.00    -0.271 OA
ATOM     18  H36 SER d   1      12.040 -18.758  37.776  0.00  0.00     0.163 HD
BRANCH  16  19
ATOM     19  CA  THR d   1      14.454 -19.662  37.975  0.00  0.00     0.113 C 
ATOM     20  H30 THR d   1      15.217 -20.074  37.298  0.00  0.00     0.091 H 
BRANCH  19  21
ATOM     21  N   THR d   1      14.370 -18.218  37.678  0.00  0.00    -0.344 N 
ATOM     22  C   PHE d   1      14.167 -17.687  36.451  0.00  0.00     0.241 C 
ATOM     23  O   PHE d   1      14.005 -18.367  35.441  0.00  0.00    -0.271 OA
ATOM     24  H29 THR d   1      14.471 -17.583  38.444  0.00  0.00     0.163 HD
BRANCH  22  25
ATOM     25  CA  PHE d   1      14.151 -16.165  36.333  0.00  0.00     0.093 C 
ATOM     26  H21 PHE d   1      14.350 -15.735  37.326  0.00  0.00     0.088 H 
BRANCH  25  27
ATOM     27  N   PHE d   1      15.212 -15.740  35.420  0.00  0.00    -0.346 N 
ATOM     28  C   VAL d   1      16.381 -15.206  35.834  0.00  0.00     0.241 C 
ATOM     29  O   VAL d   1      16.648 -15.003  37.021  0.00  0.00    -0.271 OA
ATOM     30  H20 PHE d   1      15.064 -15.851  34.437  0.00  0.00     0.163 HD
BRANCH  28  31
ATOM     31  CA  VAL d   1      17.388 -14.803  34.747  0.00  0.00     0.092 C 
ATOM     32  H12 VAL d   1      16.874 -14.881  33.778  0.00  0.00     0.088 H 
BRANCH  31  33
ATOM     33  N   VAL d   1      17.759 -13.403  34.939  0.00  0.00    -0.346 N 
ATOM     34  C   THR d   1      17.310 -12.403  34.166  0.00  0.00     0.243 C 
ATOM     35  O   THR d   1      16.561 -12.576  33.198  0.00  0.00    -0.271 OA
ATOM     36  H11 VAL d   1      18.382 -13.178  35.688  0.00  0.00     0.163 HD
BRANCH  34  37
ATOM     37  CA  THR d   1      17.805 -10.986  34.517  0.00  0.00     0.113 C 
ATOM     38  H5  THR d   1      18.639 -11.086  35.227  0.00  0.00     0.091 H 
BRANCH  37  39
ATOM     39  N   THR d   1      18.307 -10.298  33.313  0.00  0.00    -0.346 N 
ATOM     40  C   ACE d   1      19.396 -10.678  32.634  0.00  0.00     0.214 C 
ATOM     41  O   ACE d   1      20.107 -11.645  32.945  0.00  0.00    -0.274 OA
ATOM     42  H4  THR d   1      17.803  -9.499  32.984  0.00  0.00     0.163 HD
BRANCH  40  43
ATOM     43  CH3 ACE d   1      19.733  -9.841  31.404  0.00  0.00    -0.003 C 
ATOM     44  H1  ACE d   1      18.992  -9.035  31.295  0.00  0.00     0.040 H 
ATOM     45  H2  ACE d   1      19.714 -10.480  30.509  0.00  0.00     0.040 H 
ATOM     46  H3  ACE d   1      20.735  -9.404  31.521  0.00  0.00     0.040 H 
ENDBRANCH  40  43
ENDBRANCH  37  39
BRANCH  37  47
ATOM     47  CB  THR d   1      16.698 -10.148  35.199  0.00  0.00     0.060 C 
ATOM     48  H6  THR d   1      15.803 -10.190  34.560  0.00  0.00     0.086 H 
BRANCH  47  49
ATOM     49  OG1 THR d   1      17.115  -8.786  35.300  0.00  0.00    -0.393 OA
ATOM     50  H7  THR d   1      16.431  -8.277  35.719  0.00  0.00     0.210 HD
ENDBRANCH  47  49
BRANCH  47  51
ATOM     51  CG2 THR d   1      16.311 -10.680  36.579  0.00  0.00    -0.050 C 
ATOM     52  H8  THR d   1      15.523 -10.044  37.009  0.00  0.00     0.031 H 
ATOM     53  H9  THR d   1      17.192 -10.668  37.237  0.00  0.00     0.031 H 
ATOM     54  H10 THR d   1      15.939 -11.711  36.483  0.00  0.00     0.031 H 
ENDBRANCH  47  51
ENDBRANCH  37  47
ENDBRANCH  34  37
ENDBRANCH  31  33
BRANCH  31  55
ATOM     55  CB  VAL d   1      18.629 -15.739  34.672  0.00  0.00    -0.033 C 
ATOM     56  H13 VAL d   1      19.203 -15.610  35.601  0.00  0.00     0.042 H 
BRANCH  55  57
ATOM     57  CG1 VAL d   1      18.224 -17.208  34.571  0.00  0.00    -0.071 C 
ATOM     58  H14 VAL d   1      19.127 -17.834  34.520  0.00  0.00     0.028 H 
ATOM     59  H15 VAL d   1      17.620 -17.360  33.664  0.00  0.00     0.028 H 
ATOM     60  H16 VAL d   1      17.633 -17.487  35.456  0.00  0.00     0.028 H 
ENDBRANCH  55  57
BRANCH  55  61
ATOM     61  CG2 VAL d   1      19.533 -15.359  33.501  0.00  0.00    -0.071 C 
ATOM     62  H17 VAL d   1      19.817 -14.300  33.586  0.00  0.00     0.028 H 
ATOM     63  H18 VAL d   1      18.995 -15.520  32.555  0.00  0.00     0.028 H 
ATOM     64  H19 VAL d   1      20.438 -15.984  33.519  0.00  0.00     0.028 H 
ENDBRANCH  55  61
ENDBRANCH  31  55
ENDBRANCH  28  31
ENDBRANCH  25  27
BRANCH  25  65
ATOM     65  CB  PHE d   1      12.773 -15.658  35.855  0.00  0.00    -0.014 C 
ATOM     66  H22 PHE d   1      12.053 -15.809  36.672  0.00  0.00     0.043 H 
ATOM     67  H23 PHE d   1      12.472 -16.260  34.985  0.00  0.00     0.043 H 
BRANCH  65  68
ATOM     68  CG  PHE d   1      12.727 -14.200  35.454  0.00  0.00    -0.056 A 
ATOM     69  CD1 PHE d   1      12.642 -13.197  36.415  0.00  0.00    -0.077 A 
ATOM     70  CE1 PHE d   1      12.601 -11.848  36.041  0.00  0.00    -0.082 A 
ATOM     71  H24 PHE d   1      12.607 -13.463  37.465  0.00  0.00     0.084 H 
ATOM     72  CZ  PHE d   1      12.630 -11.499  34.708  0.00  0.00    -0.083 A 
ATOM     73  H26 PHE d   1      12.546 -11.077  36.801  0.00  0.00     0.083 H 
ATOM     74  CE2 PHE d   1      12.701 -12.480  33.742  0.00  0.00    -0.082 A 
ATOM     75  H28 PHE d   1      12.597 -10.455  34.419  0.00  0.00     0.083 H 
ATOM     76  CD2 PHE d   1      12.751 -13.829  34.113  0.00  0.00    -0.077 A 
ATOM     77  H27 PHE d   1      12.718 -12.206  32.693  0.00  0.00     0.083 H 
ATOM     78  H25 PHE d   1      12.809 -14.594  33.347  0.00  0.00     0.084 H 
ENDBRANCH  65  68
ENDBRANCH  25  65
ENDBRANCH  22  25
ENDBRANCH  19  21
BRANCH  19  79
ATOM     79  CB  THR d   1      14.946 -19.910  39.409  0.00  0.00     0.060 C 
ATOM     80  H31 THR d   1      14.987 -20.998  39.568  0.00  0.00     0.086 H 
BRANCH  79  81
ATOM     81  OG1 THR d   1      14.014 -19.355  40.336  0.00  0.00    -0.393 OA
ATOM     82  H32 THR d   1      13.937 -18.420  40.185  0.00  0.00     0.210 HD
ENDBRANCH  79  81
BRANCH  79  83
ATOM     83  CG2 THR d   1      16.338 -19.353  39.661  0.00  0.00    -0.050 C 
ATOM     84  H33 THR d   1      16.634 -19.561  40.700  0.00  0.00     0.031 H 
ATOM     85  H34 THR d   1      16.334 -18.266  39.491  0.00  0.00     0.031 H 
ATOM     86  H35 THR d   1      17.053 -19.829  38.974  0.00  0.00     0.031 H 
ENDBRANCH  79  83
ENDBRANCH  19  79
ENDBRANCH  16  19
ENDBRANCH  13  15
BRANCH  13  87
ATOM     87  CB  SER d   1       9.927 -20.633  38.614  0.00  0.00     0.044 C 
ATOM     88  H38 SER d   1      10.595 -21.177  39.298  0.00  0.00     0.077 H 
ATOM     89  H39 SER d   1       9.061 -21.265  38.368  0.00  0.00     0.077 H 
BRANCH  87  90
ATOM     90  OG  SER d   1       9.459 -19.468  39.275  0.00  0.00    -0.398 OA
ATOM     91  H40 SER d   1       8.994 -19.718  40.065  0.00  0.00     0.209 HD
ENDBRANCH  87  90
ENDBRANCH  13  87
ENDBRANCH  10  13
ENDBRANCH   7   9
BRANCH   7  92
ATOM     92  CB  TRP d   1       6.971 -20.054  34.127  0.00  0.00    -0.012 C 
ATOM     93  H43 TRP d   1       6.383 -20.675  34.818  0.00  0.00     0.044 H 
ATOM     94  H44 TRP d   1       7.592 -20.701  33.490  0.00  0.00     0.044 H 
BRANCH  92  95
ATOM     95  CG  TRP d   1       6.021 -19.295  33.247  0.00  0.00    -0.028 A 
ATOM     96  CD1 TRP d   1       4.686 -19.115  33.452  0.00  0.00    -0.015 A 
ATOM     97  NE1 TRP d   1       4.155 -18.333  32.453  0.00  0.00    -0.365 N 
ATOM     98  H45 TRP d   1       4.122 -19.530  34.286  0.00  0.00     0.112 H 
ATOM     99  CE2 TRP d   1       5.156 -17.967  31.591  0.00  0.00     0.042 A 
ATOM    100  H46 TRP d   1       3.164 -18.065  32.366  0.00  0.00     0.165 HD
ATOM    101  CD2 TRP d   1       6.351 -18.545  32.069  0.00  0.00    -0.002 A 
ATOM    102  CZ2 TRP d   1       5.115 -17.182  30.435  0.00  0.00    -0.056 A 
ATOM    103  CE3 TRP d   1       7.544 -18.312  31.361  0.00  0.00    -0.070 A 
ATOM    104  CZ3 TRP d   1       7.504 -17.524  30.223  0.00  0.00    -0.082 A 
ATOM    105  H47 TRP d   1       8.479 -18.742  31.701  0.00  0.00     0.084 H 
ATOM    106  CH2 TRP d   1       6.303 -16.970  29.770  0.00  0.00    -0.081 A 
ATOM    107  H49 TRP d   1       8.419 -17.334  29.674  0.00  0.00     0.083 H 
ATOM    108  H50 TRP d   1       6.306 -16.359  28.874  0.00  0.00     0.083 H 
ATOM    109  H48 TRP d   1       4.185 -16.757  30.076  0.00  0.00     0.086 H 
ENDBRANCH  92  95
ENDBRANCH   7  92
ENDBRANCH   4   7
ENDBRANCH   1   3
BRANCH   1 110
ATOM    110  C   GLU d   1       6.689 -16.605  38.477  0.00  0.00     0.241 C 
ATOM    111  O   GLU d   1       6.092 -15.544  38.667  0.00  0.00    -0.271 OA
ATOM    112  N   GLU d   1       8.029 -16.758  38.649  0.00  0.00    -0.346 N 
ATOM    113  H57 GLU d   1       8.414 -17.666  38.483  0.00  0.00     0.163 HD
BRANCH 112 114
ATOM    114  CA  GLU d   1       8.954 -15.697  39.058  0.00  0.00     0.090 C 
ATOM    115  H58 GLU d   1       8.635 -15.309  40.037  0.00  0.00     0.087 H 
BRANCH 114 116
ATOM    116  C   GLU d   1       8.913 -14.551  38.038  0.00  0.00     0.241 C 
ATOM    117  O   GLU d   1       8.809 -13.387  38.436  0.00  0.00    -0.271 OA
ATOM    118  N   TYR d   1       8.945 -14.896  36.726  0.00  0.00    -0.346 N 
ATOM    119  H63 TYR d   1       9.023 -15.870  36.511  0.00  0.00     0.163 HD
BRANCH 118 120
ATOM    120  CA  TYR d   1       8.875 -13.963  35.596  0.00  0.00     0.093 C 
ATOM    121  H64 TYR d   1       9.702 -13.244  35.693  0.00  0.00     0.088 H 
BRANCH 120 122
ATOM    122  C   TYR d   1       7.557 -13.178  35.622  0.00  0.00     0.241 C 
ATOM    123  O   TYR d   1       7.559 -11.972  35.358  0.00  0.00    -0.271 OA
ATOM    124  N   LEU d   1       6.441 -13.871  35.933  0.00  0.00    -0.346 N 
ATOM    125  H72 LEU d   1       6.534 -14.847  36.130  0.00  0.00     0.163 HD
BRANCH 124 126
ATOM    126  CA  LEU d   1       5.103 -13.282  36.000  0.00  0.00     0.089 C 
ATOM    127  H73 LEU d   1       4.959 -12.728  35.060  0.00  0.00     0.087 H 
BRANCH 126 128
ATOM    128  C   LEU d   1       4.926 -12.264  37.138  0.00  0.00     0.241 C 
ATOM    129  O   LEU d   1       4.222 -11.273  36.937  0.00  0.00    -0.271 OA
ATOM    130  N   ASP d   1       5.570 -12.486  38.312  0.00  0.00    -0.346 N 
ATOM    131  H83 ASP d   1       6.111 -13.321  38.408  0.00  0.00     0.163 HD
BRANCH 130 132
ATOM    132  CA  ASP d   1       5.509 -11.554  39.452  0.00  0.00     0.098 C 
ATOM    133  H84 ASP d   1       4.459 -11.271  39.615  0.00  0.00     0.088 H 
BRANCH 132 134
ATOM    134  C   ASP d   1       6.329 -10.296  39.150  0.00  0.00     0.241 C 
ATOM    135  O   ASP d   1       6.036  -9.224  39.690  0.00  0.00    -0.271 OA
ATOM    136  N   TRP d   1       7.377 -10.448  38.312  0.00  0.00    -0.346 N 
ATOM    137  H87 TRP d   1       7.543 -11.365  37.950  0.00  0.00     0.163 HD
BRANCH 136 138
ATOM    138  CA  TRP d   1       8.289  -9.389  37.889  0.00  0.00     0.093 C 
ATOM    139  H88 TRP d   1       8.536  -8.774  38.767  0.00  0.00     0.088 H 
BRANCH 138 140
ATOM    140  C   TRP d   1       7.632  -8.481  36.843  0.00  0.00     0.241 C 
ATOM    141  O   TRP d   1       7.603  -7.260  37.017  0.00  0.00    -0.271 OA
ATOM    142  N   VAL d   1       7.147  -9.076  35.742  0.00  0.00    -0.346 N 
ATOM    143  H97 VAL d   1       7.216 -10.070  35.662  0.00  0.00     0.163 HD
BRANCH 142 144
ATOM    144  CA  VAL d   1       6.522  -8.325  34.657  0.00  0.00     0.092 C 
ATOM    145  H98 VAL d   1       7.117  -7.410  34.519  0.00  0.00     0.088 H 
BRANCH 144 146
ATOM    146  C   VAL d   1       5.101  -7.864  35.055  0.00  0.00     0.238 C 
ATOM    147  O   VAL d   1       4.502  -8.456  35.955  0.00  0.00    -0.271 OA
ATOM    148  N   NH2 d   1       4.753  -6.632  34.665  0.00  0.00    -0.368 N 
ATOM    149 6H10 NH2 d   1       3.847  -6.273  34.891  0.00  0.00     0.159 HD
ATOM    150 7H10 NH2 d   1       5.399  -6.070  34.148  0.00  0.00     0.159 HD
ENDBRANCH 144 146
BRANCH 144 151
ATOM    151  CB  VAL d   1       6.588  -9.093  33.307  0.00  0.00    -0.033 C 
ATOM    152  H99 VAL d   1       7.565  -9.596  33.269  0.00  0.00     0.042 H 
BRANCH 151 153
ATOM    153  CG1 VAL d   1       5.517 -10.183  33.203  0.00  0.00    -0.071 C 
ATOM    154 0H10 VAL d   1       5.607 -10.694  32.233  0.00  0.00     0.028 H 
ATOM    155 1H10 VAL d   1       4.520  -9.726  33.286  0.00  0.00     0.028 H 
ATOM    156 2H10 VAL d   1       5.655 -10.912  34.016  0.00  0.00     0.028 H 
ENDBRANCH 151 153
BRANCH 151 157
ATOM    157  CG2 VAL d   1       6.525  -8.137  32.123  0.00  0.00    -0.071 C 
ATOM    158 3H10 VAL d   1       7.306  -7.369  32.230  0.00  0.00     0.028 H 
ATOM    159 4H10 VAL d   1       5.537  -7.654  32.094  0.00  0.00     0.028 H 
ATOM    160 5H10 VAL d   1       6.687  -8.697  31.190  0.00  0.00     0.028 H 
ENDBRANCH 151 157
ENDBRANCH 144 151
ENDBRANCH 142 144
ENDBRANCH 138 140
BRANCH 138 161
ATOM    161  CB  TRP d   1       9.593 -10.008  37.349  0.00  0.00    -0.012 C 
ATOM    162  H89 TRP d   1       9.326 -10.747  36.579  0.00  0.00     0.044 H 
ATOM    163  H90 TRP d   1      10.101 -10.514  38.183  0.00  0.00     0.044 H 
BRANCH 161 164
ATOM    164  CG  TRP d   1      10.556  -9.033  36.742  0.00  0.00    -0.028 A 
ATOM    165  CD1 TRP d   1      10.570  -8.590  35.452  0.00  0.00    -0.015 A 
ATOM    166  NE1 TRP d   1      11.625  -7.728  35.258  0.00  0.00    -0.365 N 
ATOM    167  H91 TRP d   1       9.851  -8.877  34.687  0.00  0.00     0.112 H 
ATOM    168  CE2 TRP d   1      12.344  -7.634  36.422  0.00  0.00     0.042 A 
ATOM    169  H92 TRP d   1      11.840  -7.233  34.380  0.00  0.00     0.165 HD
ATOM    170  CD2 TRP d   1      11.695  -8.441  37.383  0.00  0.00    -0.002 A 
ATOM    171  CZ2 TRP d   1      13.507  -6.911  36.714  0.00  0.00    -0.056 A 
ATOM    172  CE3 TRP d   1      12.249  -8.537  38.671  0.00  0.00    -0.070 A 
ATOM    173  CZ3 TRP d   1      13.390  -7.809  38.962  0.00  0.00    -0.082 A 
ATOM    174  H93 TRP d   1      11.791  -9.170  39.423  0.00  0.00     0.084 H 
ATOM    175  CH2 TRP d   1      14.010  -7.011  37.990  0.00  0.00    -0.081 A 
ATOM    176  H95 TRP d   1      13.812  -7.857  39.959  0.00  0.00     0.083 H 
ATOM    177  H96 TRP d   1      14.907  -6.460  38.250  0.00  0.00     0.083 H 
ATOM    178  H94 TRP d   1      13.992  -6.297  35.964  0.00  0.00     0.086 H 
ENDBRANCH 161 164
ENDBRANCH 138 161
ENDBRANCH 136 138
ENDBRANCH 132 134
BRANCH 132 179
ATOM    179  CB  ASP d   1       6.059 -12.192  40.743  0.00  0.00     0.043 C 
ATOM    180  H85 ASP d   1       5.717 -11.579  41.590  0.00  0.00     0.052 H 
ATOM    181  H86 ASP d   1       7.157 -12.162  40.688  0.00  0.00     0.052 H 
BRANCH 179 182
ATOM    182  CG  ASP d   1       5.653 -13.625  41.021  0.00  0.00     0.175 C 
ATOM    183  OD1 ASP d   1       4.494 -13.988  40.707  0.00  0.00    -0.648 OA
ATOM    184  OD2 ASP d   1       6.493 -14.384  41.565  0.00  0.00    -0.648 OA
ENDBRANCH 179 182
ENDBRANCH 132 179
ENDBRANCH 130 132
ENDBRANCH 126 128
BRANCH 126 185
ATOM    185  CB  LEU d   1       4.015 -14.365  36.054  0.00  0.00    -0.035 C 
ATOM    186  H74 LEU d   1       3.059 -13.865  36.269  0.00  0.00     0.037 H 
ATOM    187  H75 LEU d   1       4.266 -15.047  36.879  0.00  0.00     0.037 H 
BRANCH 185 188
ATOM    188  CG  LEU d   1       3.820 -15.218  34.788  0.00  0.00    -0.059 C 
ATOM    189  H76 LEU d   1       4.809 -15.584  34.474  0.00  0.00     0.038 H 
BRANCH 188 190
ATOM    190  CD1 LEU d   1       2.949 -16.412  35.075  0.00  0.00    -0.073 C 
ATOM    191  H77 LEU d   1       2.825 -17.005  34.157  0.00  0.00     0.028 H 
ATOM    192  H78 LEU d   1       1.964 -16.071  35.427  0.00  0.00     0.028 H 
ATOM    193  H79 LEU d   1       3.421 -17.033  35.851  0.00  0.00     0.028 H 
ENDBRANCH 188 190
BRANCH 188 194
ATOM    194  CD2 LEU d   1       3.235 -14.404  33.637  0.00  0.00    -0.073 C 
ATOM    195  H80 LEU d   1       3.880 -13.536  33.437  0.00  0.00     0.028 H 
ATOM    196  H81 LEU d   1       2.227 -14.057  33.908  0.00  0.00     0.028 H 
ATOM    197  H82 LEU d   1       3.177 -15.032  32.736  0.00  0.00     0.028 H 
ENDBRANCH 188 194
ENDBRANCH 185 188
ENDBRANCH 126 185
ENDBRANCH 124 126
ENDBRANCH 120 122
BRANCH 120 198
ATOM    198  CB  TYR d   1       9.052 -14.722  34.257  0.00  0.00    -0.014 C 
ATOM    199  H65 TYR d   1       8.576 -15.709  34.357  0.00  0.00     0.043 H 
ATOM    200  H66 TYR d   1      10.129 -14.852  34.077  0.00  0.00     0.043 H 
BRANCH 198 201
ATOM    201  CG  TYR d   1       8.452 -14.029  33.050  0.00  0.00    -0.056 A 
ATOM    202  CD1 TYR d   1       9.124 -12.993  32.410  0.00  0.00    -0.074 A 
ATOM    203  CE1 TYR d   1       8.567 -12.336  31.314  0.00  0.00    -0.051 A 
ATOM    204  H67 TYR d   1      10.100 -12.690  32.771  0.00  0.00     0.084 H 
ATOM    205  CZ  TYR d   1       7.327 -12.726  30.835  0.00  0.00     0.065 A 
ATOM    206  H69 TYR d   1       9.102 -11.523  30.838  0.00  0.00     0.087 H 
ATOM    207  CE2 TYR d   1       6.641 -13.759  31.453  0.00  0.00    -0.051 A 
ATOM    208  CD2 TYR d   1       7.209 -14.409  32.548  0.00  0.00    -0.074 A 
ATOM    209  H70 TYR d   1       5.666 -14.061  31.087  0.00  0.00     0.087 H 
ATOM    210  H68 TYR d   1       6.673 -15.226  33.018  0.00  0.00     0.084 H 
BRANCH 205 211
ATOM    211  OH  TYR d   1       6.781 -12.083  29.752  0.00  0.00    -0.361 OA
ATOM    212  H71 TYR d   1       7.377 -11.407  29.453  0.00  0.00     0.217 HD
ENDBRANCH 205 211
ENDBRANCH 198 201
ENDBRANCH 120 198
ENDBRANCH 118 120
ENDBRANCH 114 116
BRANCH 114 213
ATOM    213  CB  GLU d   1      10.379 -16.247  39.193  0.00  0.00    -0.029 C 
ATOM    214  H59 GLU d   1      10.837 -16.282  38.194  0.00  0.00     0.037 H 
ATOM    215  H60 GLU d   1      10.324 -17.265  39.607  0.00  0.00     0.037 H 
BRANCH 213 216
ATOM    216  CG  GLU d   1      11.256 -15.404  40.097  0.00  0.00     0.018 C 
ATOM    217  H61 GLU d   1      10.932 -15.568  41.135  0.00  0.00     0.049 H 
ATOM    218  H62 GLU d   1      11.106 -14.348  39.828  0.00  0.00     0.049 H 
BRANCH 216 219
ATOM    219  CD  GLU d   1      12.739 -15.703  40.016  0.00  0.00     0.172 C 
ATOM    220  OE1 GLU d   1      13.156 -16.771  40.519  0.00  0.00    -0.648 OA
ATOM    221  OE2 GLU d   1      13.490 -14.856  39.478  0.00  0.00    -0.648 OA
ENDBRANCH 216 219
ENDBRANCH 213 216
ENDBRANCH 114 213
ENDBRANCH 112 114
ENDBRANCH   1 110
BRANCH   1 222
ATOM    222  CB  GLU d   1       5.501 -18.696  39.202  0.00  0.00    -0.029 C 
ATOM    223  H53 GLU d   1       5.141 -18.030  40.000  0.00  0.00     0.037 H 
ATOM    224  H54 GLU d   1       6.396 -19.234  39.549  0.00  0.00     0.037 H 
BRANCH 222 225
ATOM    225  CG  GLU d   1       4.412 -19.723  38.916  0.00  0.00     0.018 C 
ATOM    226  H55 GLU d   1       3.639 -19.227  38.311  0.00  0.00     0.049 H 
ATOM    227  H56 GLU d   1       3.982 -20.029  39.881  0.00  0.00     0.049 H 
BRANCH 225 228
ATOM    228  CD  GLU d   1       4.832 -20.984  38.180  0.00  0.00     0.172 C 
ATOM    229  OE1 GLU d   1       5.963 -21.472  38.416  0.00  0.00    -0.648 OA
ATOM    230  OE2 GLU d   1       4.016 -21.497  37.378  0.00  0.00    -0.648 OA
ENDBRANCH 225 228
ENDBRANCH 222 225
ENDBRANCH   1 222
TORSDOF 62
