REMARK WARNING: 32 MAX_TORS EXCEEDED!!!
REMARK  47 active torsions:
REMARK  status: ('A' for Active; 'I' for Inactive)
REMARK    1  A    between atoms: C_1  and  CH3_3 
REMARK       I    between atoms: C_1  and  N_4 
REMARK    2  A    between atoms: N_4  and  CA_5 
REMARK    3  A    between atoms: CA_5  and  C_6 
REMARK    4  A    between atoms: CA_5  and  CB_8 
REMARK       I    between atoms: C_6  and  N_18 
REMARK    5  A    between atoms: CB_8  and  CG_9 
REMARK    6  A    between atoms: N_18  and  CA_19 
REMARK    7  A    between atoms: CA_19  and  C_20 
REMARK    8  A    between atoms: CA_19  and  CB_22 
REMARK       I    between atoms: C_20  and  N_26 
REMARK    9  A    between atoms: CB_22  and  CG_23 
REMARK       I    between atoms: CG_23  and  ND2_25 
REMARK   10  A    between atoms: N_26  and  CA_27 
REMARK   11  A    between atoms: CA_27  and  C_28 
REMARK   12  A    between atoms: CA_27  and  CB_30 
REMARK       I    between atoms: C_28  and  N_34 
REMARK   13  A    between atoms: CB_30  and  CG_31 
REMARK   14  A    between atoms: CG_31  and  CD1_32 
REMARK   15  A    between atoms: CG_31  and  CD2_33 
REMARK   16  A    between atoms: N_34  and  CA_35 
REMARK   17  A    between atoms: CA_35  and  C_36 
REMARK   18  A    between atoms: CA_35  and  CB_38 
REMARK       I    between atoms: C_36  and  N_41 
REMARK   19  A    between atoms: CB_38  and  CG1_39 
REMARK   20  A    between atoms: CB_38  and  CG2_40 
REMARK   21  A    between atoms: N_41  and  CA_42 
REMARK   22  A    between atoms: CA_42  and  CB_43 
REMARK   23  A    between atoms: CA_42  and  C_51 
REMARK   24  A    between atoms: CB_43  and  CG'_45 
REMARK   25  A    between atoms: CG'_45  and  CG_44 
REMARK   26  A    between atoms: CG_44  and  CD_46 
REMARK   27  A    between atoms: CD_46  and  NE_47 
REMARK       I    between atoms: NE_47  and  CZ_48 
REMARK       I    between atoms: CZ_48  and  NH1_49 
REMARK       I    between atoms: C_51  and  N_53 
REMARK   28  A    between atoms: N_53  and  CA_54 
REMARK   29  A    between atoms: CA_54  and  C_55 
REMARK   30  A    between atoms: CA_54  and  CB_57 
REMARK       I    between atoms: C_55  and  N_61 
REMARK   31  A    between atoms: CB_57  and  CG1_58 
REMARK   32  A    between atoms: CB_57  and  CG2_59 
REMARK   33  A    between atoms: CG1_58  and  CD1_60 
REMARK   34  A    between atoms: N_61  and  CA_62 
REMARK   35  A    between atoms: CA_62  and  C_63 
REMARK       I    between atoms: C_63  and  N_65 
REMARK   36  A    between atoms: N_65  and  CA_66 
REMARK   37  A    between atoms: CA_66  and  C_67 
REMARK   38  A    between atoms: CA_66  and  CB_69 
REMARK       I    between atoms: C_67  and  N_73 
REMARK   39  A    between atoms: CB_69  and  CG_70 
REMARK   40  A    between atoms: CG_70  and  CD1_71 
REMARK   41  A    between atoms: CG_70  and  CD2_72 
REMARK   42  A    between atoms: N_73  and  CA_74 
REMARK   43  A    between atoms: CA_74  and  C_75 
REMARK   44  A    between atoms: CA_74  and  CB_77 
REMARK   45  A    between atoms: CB_77  and  CG_78 
REMARK   46  A    between atoms: CG_78  and  CD1_79 
REMARK   47  A    between atoms: CG_78  and  CD2_80 
ROOT
ATOM      1  CA  HRG d   1       1.484  -8.974  18.930  0.00  0.00     0.089 C 
ATOM      2  H41 HRG d   1       0.795  -8.118  18.874  0.00  0.00     0.087 H 
ENDROOT
BRANCH   1   3
ATOM      3  N   HRG d   1       1.260  -9.638  20.208  0.00  0.00    -0.346 N 
ATOM      4  C   VAL d   1       0.073 -10.159  20.522  0.00  0.00     0.241 C 
ATOM      5  O   VAL d   1      -0.917 -10.102  19.777  0.00  0.00    -0.271 OA
ATOM      6  H40 HRG d   1       2.012  -9.704  20.863  0.00  0.00     0.163 HD
BRANCH   4   7
ATOM      7  CA  VAL d   1      -0.016 -10.843  21.887  0.00  0.00     0.092 C 
ATOM      8  H32 VAL d   1      -0.882 -11.521  21.895  0.00  0.00     0.088 H 
BRANCH   7   9
ATOM      9  N   VAL d   1       1.200 -11.638  22.123  0.00  0.00    -0.346 N 
ATOM     10  C   LEU d   1       1.436 -12.774  21.466  0.00  0.00     0.241 C 
ATOM     11  O   LEU d   1       0.615 -13.275  20.706  0.00  0.00    -0.271 OA
ATOM     12  H31 VAL d   1       1.868 -11.317  22.795  0.00  0.00     0.163 HD
BRANCH  10  13
ATOM     13  CA  LEU d   1       2.817 -13.431  21.655  0.00  0.00     0.089 C 
ATOM     14  H21 LEU d   1       3.048 -13.987  20.735  0.00  0.00     0.087 H 
BRANCH  13  15
ATOM     15  N   LEU d   1       3.875 -12.434  21.850  0.00  0.00    -0.346 N 
ATOM     16  C   ASN d   1       4.229 -11.560  20.917  0.00  0.00     0.241 C 
ATOM     17  O   ASN d   1       3.761 -11.568  19.774  0.00  0.00    -0.271 OA
ATOM     18  H20 LEU d   1       4.352 -12.412  22.728  0.00  0.00     0.163 HD
BRANCH  16  19
ATOM     19  CA  ASN d   1       5.300 -10.530  21.336  0.00  0.00     0.097 C 
ATOM     20  H15 ASN d   1       5.275  -9.716  20.596  0.00  0.00     0.088 H 
BRANCH  19  21
ATOM     21  N   ASN d   1       5.084  -9.922  22.657  0.00  0.00    -0.346 N 
ATOM     22  C   TRP d   1       4.072  -9.102  22.945  0.00  0.00     0.241 C 
ATOM     23  O   TRP d   1       3.129  -8.879  22.184  0.00  0.00    -0.271 OA
ATOM     24  H14 ASN d   1       5.736 -10.136  23.384  0.00  0.00     0.163 HD
BRANCH  22  25
ATOM     25  CA  TRP d   1       4.111  -8.473  24.358  0.00  0.00     0.093 C 
ATOM     26  H5  TRP d   1       3.075  -8.271  24.668  0.00  0.00     0.088 H 
BRANCH  25  27
ATOM     27  N   TRP d   1       4.725  -9.414  25.359  0.00  0.00    -0.348 N 
ATOM     28  C   ACE d   1       4.235 -10.643  25.609  0.00  0.00     0.214 C 
ATOM     29  O   ACE d   1       4.744 -11.400  26.425  0.00  0.00    -0.274 OA
ATOM     30  H4  TRP d   1       5.535  -9.112  25.862  0.00  0.00     0.163 HD
BRANCH  28  31
ATOM     31  CH3 ACE d   1       3.014 -11.148  24.884  0.00  0.00    -0.003 C 
ATOM     32  H1  ACE d   1       2.658 -10.377  24.185  0.00  0.00     0.040 H 
ATOM     33  H2  ACE d   1       2.223 -11.376  25.613  0.00  0.00     0.040 H 
ATOM     34  H3  ACE d   1       3.271 -12.060  24.325  0.00  0.00     0.040 H 
ENDBRANCH  28  31
ENDBRANCH  25  27
BRANCH  25  35
ATOM     35  CB  TRP d   1       4.871  -7.150  24.348  0.00  0.00    -0.012 C 
ATOM     36  H6  TRP d   1       5.021  -6.822  25.387  0.00  0.00     0.044 H 
ATOM     37  H7  TRP d   1       4.269  -6.402  23.811  0.00  0.00     0.044 H 
BRANCH  35  38
ATOM     38  CG  TRP d   1       6.199  -7.257  23.686  0.00  0.00    -0.028 A 
ATOM     39  CD1 TRP d   1       7.386  -7.617  24.256  0.00  0.00    -0.015 A 
ATOM     40  NE1 TRP d   1       8.381  -7.625  23.304  0.00  0.00    -0.365 N 
ATOM     41  H8  TRP d   1       7.526  -7.862  25.308  0.00  0.00     0.112 H 
ATOM     42  CE2 TRP d   1       7.834  -7.279  22.095  0.00  0.00     0.042 A 
ATOM     43  H9  TRP d   1       9.371  -7.853  23.472  0.00  0.00     0.165 HD
ATOM     44  CD2 TRP d   1       6.457  -7.057  22.303  0.00  0.00    -0.002 A 
ATOM     45  CZ2 TRP d   1       8.434  -7.139  20.830  0.00  0.00    -0.056 A 
ATOM     46  CE3 TRP d   1       5.652  -6.699  21.212  0.00  0.00    -0.070 A 
ATOM     47  CZ3 TRP d   1       6.246  -6.561  19.954  0.00  0.00    -0.082 A 
ATOM     48  H10 TRP d   1       4.589  -6.532  21.342  0.00  0.00     0.084 H 
ATOM     49  CH2 TRP d   1       7.625  -6.777  19.780  0.00  0.00    -0.081 A 
ATOM     50  H12 TRP d   1       5.636  -6.284  19.102  0.00  0.00     0.083 H 
ATOM     51  H13 TRP d   1       8.060  -6.655  18.794  0.00  0.00     0.083 H 
ATOM     52  H11 TRP d   1       9.495  -7.310  20.689  0.00  0.00     0.086 H 
ENDBRANCH  35  38
ENDBRANCH  25  35
ENDBRANCH  22  25
ENDBRANCH  19  21
BRANCH  19  53
ATOM     53  CB  ASN d   1       6.693 -11.181  21.287  0.00  0.00     0.036 C 
ATOM     54  H16 ASN d   1       7.452 -10.385  21.303  0.00  0.00     0.051 H 
ATOM     55  H17 ASN d   1       6.780 -11.752  20.351  0.00  0.00     0.051 H 
BRANCH  53  56
ATOM     56  CG  ASN d   1       6.952 -12.123  22.456  0.00  0.00     0.217 C 
ATOM     57  OD1 ASN d   1       6.803 -11.737  23.604  0.00  0.00    -0.274 OA
ATOM     58  ND2 ASN d   1       7.321 -13.354  22.172  0.00  0.00    -0.370 N 
ATOM     59  H18 ASN d   1       7.501 -14.005  22.910  0.00  0.00     0.159 HD
ATOM     60  H19 ASN d   1       7.421 -13.639  21.219  0.00  0.00     0.159 HD
ENDBRANCH  53  56
ENDBRANCH  19  53
ENDBRANCH  16  19
ENDBRANCH  13  15
BRANCH  13  61
ATOM     61  CB  LEU d   1       2.803 -14.436  22.821  0.00  0.00    -0.035 C 
ATOM     62  H22 LEU d   1       2.057 -15.208  22.584  0.00  0.00     0.037 H 
ATOM     63  H23 LEU d   1       2.493 -13.891  23.725  0.00  0.00     0.037 H 
BRANCH  61  64
ATOM     64  CG  LEU d   1       4.127 -15.154  23.144  0.00  0.00    -0.059 C 
ATOM     65  H24 LEU d   1       4.906 -14.386  23.257  0.00  0.00     0.038 H 
BRANCH  64  66
ATOM     66  CD1 LEU d   1       4.021 -15.913  24.456  0.00  0.00    -0.073 C 
ATOM     67  H25 LEU d   1       4.976 -16.417  24.666  0.00  0.00     0.028 H 
ATOM     68  H26 LEU d   1       3.219 -16.663  24.382  0.00  0.00     0.028 H 
ATOM     69  H27 LEU d   1       3.791 -15.209  25.269  0.00  0.00     0.028 H 
ENDBRANCH  64  66
BRANCH  64  70
ATOM     70  CD2 LEU d   1       4.554 -16.088  22.024  0.00  0.00    -0.073 C 
ATOM     71  H28 LEU d   1       4.626 -15.523  21.083  0.00  0.00     0.028 H 
ATOM     72  H29 LEU d   1       3.811 -16.892  21.913  0.00  0.00     0.028 H 
ATOM     73  H30 LEU d   1       5.534 -16.525  22.265  0.00  0.00     0.028 H 
ENDBRANCH  64  70
ENDBRANCH  61  64
ENDBRANCH  13  61
ENDBRANCH  10  13
ENDBRANCH   7   9
BRANCH   7  74
ATOM     74  CB  VAL d   1      -0.226  -9.758  22.972  0.00  0.00    -0.033 C 
ATOM     75  H33 VAL d   1       0.666  -9.115  22.995  0.00  0.00     0.042 H 
BRANCH  74  76
ATOM     76  CG1 VAL d   1      -1.443  -8.889  22.652  0.00  0.00    -0.071 C 
ATOM     77  H34 VAL d   1      -1.568  -8.129  23.438  0.00  0.00     0.028 H 
ATOM     78  H35 VAL d   1      -2.343  -9.520  22.607  0.00  0.00     0.028 H 
ATOM     79  H36 VAL d   1      -1.294  -8.393  21.682  0.00  0.00     0.028 H 
ENDBRANCH  74  76
BRANCH  74  80
ATOM     80  CG2 VAL d   1      -0.398 -10.398  24.344  0.00  0.00    -0.071 C 
ATOM     81  H37 VAL d   1       0.479 -11.022  24.570  0.00  0.00     0.028 H 
ATOM     82  H38 VAL d   1      -1.303 -11.023  24.346  0.00  0.00     0.028 H 
ATOM     83  H39 VAL d   1      -0.494  -9.611  25.106  0.00  0.00     0.028 H 
ENDBRANCH  74  80
ENDBRANCH   7  74
ENDBRANCH   4   7
ENDBRANCH   1   3
BRANCH   1  84
ATOM     84  CB  HRG d   1       2.913  -8.423  18.845  0.00  0.00    -0.038 C 
ATOM     85  H42 HRG d   1       3.615  -9.266  18.926  0.00  0.00     0.036 H 
ATOM     86  H43 HRG d   1       3.070  -7.733  19.687  0.00  0.00     0.036 H 
BRANCH  84  87
ATOM     87  CG' HRG d   1       3.208  -7.673  17.546  0.00  0.00    -0.061 C 
ATOM     88  H46 HRG d   1       3.014  -8.344  16.696  0.00  0.00     0.033 H 
ATOM     89  H47 HRG d   1       4.266  -7.373  17.541  0.00  0.00     0.033 H 
BRANCH  87  90
ATOM     90  CG  HRG d   1       2.342  -6.426  17.397  0.00  0.00    -0.050 C 
ATOM     91  H44 HRG d   1       2.520  -5.759  18.253  0.00  0.00     0.035 H 
ATOM     92  H45 HRG d   1       1.283  -6.723  17.378  0.00  0.00     0.035 H 
BRANCH  90  93
ATOM     93  CD  HRG d   1       2.673  -5.688  16.117  0.00  0.00     0.009 C 
ATOM     94  H48 HRG d   1       2.337  -6.280  15.253  0.00  0.00     0.064 H 
ATOM     95  H49 HRG d   1       3.760  -5.530  16.053  0.00  0.00     0.064 H 
BRANCH  93  96
ATOM     96  NE  HRG d   1       2.000  -4.416  16.121  0.00  0.00    -0.227 N 
ATOM     97  CZ  HRG d   1       0.753  -4.186  15.725  0.00  0.00     0.665 C 
ATOM     98  NH1 HRG d   1      -0.066  -5.122  15.236  0.00  0.00    -0.235 N 
ATOM     99  NH2 HRG d   1       0.349  -3.002  15.828  0.00  0.00    -0.235 N 
ATOM    100  H51 HRG d   1      -1.022  -4.870  14.948  0.00  0.00     0.174 HD
ATOM    101  H52 HRG d   1       0.259  -6.095  15.147  0.00  0.00     0.174 HD
ATOM    102  H53 HRG d   1       0.975  -2.275  16.204  0.00  0.00     0.174 HD
ATOM    103  H54 HRG d   1      -0.608  -2.757  15.537  0.00  0.00     0.174 HD
ATOM    104  H50 HRG d   1       2.537  -3.606  16.464  0.00  0.00     0.177 HD
ENDBRANCH  93  96
ENDBRANCH  90  93
ENDBRANCH  87  90
ENDBRANCH  84  87
ENDBRANCH   1  84
BRANCH   1 105
ATOM    105  C   HRG d   1       1.162  -9.895  17.763  0.00  0.00     0.241 C 
ATOM    106  O   HRG d   1       0.402  -9.502  16.869  0.00  0.00    -0.271 OA
ATOM    107  N   ILE d   1       1.695 -11.123  17.771  0.00  0.00    -0.346 N 
ATOM    108  H55 ILE d   1       2.328 -11.379  18.502  0.00  0.00     0.163 HD
BRANCH 107 109
ATOM    109  CA  ILE d   1       1.363 -12.111  16.715  0.00  0.00     0.092 C 
ATOM    110  H56 ILE d   1       1.362 -11.545  15.772  0.00  0.00     0.088 H 
BRANCH 109 111
ATOM    111  C   ILE d   1      -0.033 -12.775  16.824  0.00  0.00     0.241 C 
ATOM    112  O   ILE d   1      -0.333 -13.672  16.042  0.00  0.00    -0.271 OA
ATOM    113  N   GLY d   1      -0.862 -12.360  17.785  0.00  0.00    -0.351 N 
ATOM    114  H66 GLY d   1      -0.526 -11.698  18.455  0.00  0.00     0.163 HD
BRANCH 113 115
ATOM    115  CA  GLY d   1      -2.243 -12.835  17.897  0.00  0.00     0.069 C 
ATOM    116  H67 GLY d   1      -2.678 -12.847  16.887  0.00  0.00     0.078 H 
ATOM    117  H68 GLY d   1      -2.795 -12.121  18.526  0.00  0.00     0.078 H 
BRANCH 115 118
ATOM    118  C   GLY d   1      -2.423 -14.219  18.497  0.00  0.00     0.236 C 
ATOM    119  O   GLY d   1      -3.326 -14.954  18.104  0.00  0.00    -0.272 OA
ATOM    120  N   LEU d   1      -1.559 -14.573  19.442  0.00  0.00    -0.346 N 
ATOM    121  H69 LEU d   1      -0.806 -13.952  19.660  0.00  0.00     0.163 HD
BRANCH 120 122
ATOM    122  CA  LEU d   1      -1.664 -15.832  20.175  0.00  0.00     0.089 C 
ATOM    123  H70 LEU d   1      -2.240 -16.545  19.567  0.00  0.00     0.087 H 
BRANCH 122 124
ATOM    124  C   LEU d   1      -2.397 -15.624  21.503  0.00  0.00     0.241 C 
ATOM    125  O   LEU d   1      -3.213 -16.465  21.890  0.00  0.00    -0.271 OA
ATOM    126  N   LEU d   1      -2.124 -14.492  22.165  0.00  0.00    -0.345 N 
ATOM    127  H80 LEU d   1      -1.623 -13.777  21.677  0.00  0.00     0.163 HD
BRANCH 126 128
ATOM    128  CA  LEU d   1      -2.511 -14.225  23.565  0.00  0.00     0.096 C 
ATOM    129  H81 LEU d   1      -2.121 -13.226  23.811  0.00  0.00     0.089 H 
BRANCH 128 130
ATOM    130  C   LEU d   1      -1.856 -15.208  24.547  0.00  0.00     0.196 C 
ATOM    131  O   LEU d   1      -0.699 -15.025  24.950  0.00  0.00    -0.646 OA
ATOM    132  OXT LEU d   1      -2.472 -16.202  24.954  0.00  0.00    -0.646 OA
ENDBRANCH 128 130
BRANCH 128 133
ATOM    133  CB  LEU d   1      -4.045 -14.161  23.760  0.00  0.00    -0.034 C 
ATOM    134  H82 LEU d   1      -4.271 -14.614  24.736  0.00  0.00     0.037 H 
ATOM    135  H83 LEU d   1      -4.503 -14.763  22.961  0.00  0.00     0.037 H 
BRANCH 133 136
ATOM    136  CG  LEU d   1      -4.712 -12.774  23.731  0.00  0.00    -0.059 C 
ATOM    137  H84 LEU d   1      -4.410 -12.271  22.801  0.00  0.00     0.038 H 
BRANCH 136 138
ATOM    138  CD1 LEU d   1      -6.230 -12.922  23.728  0.00  0.00    -0.073 C 
ATOM    139  H85 LEU d   1      -6.696 -11.926  23.707  0.00  0.00     0.028 H 
ATOM    140  H86 LEU d   1      -6.548 -13.456  24.635  0.00  0.00     0.028 H 
ATOM    141  H87 LEU d   1      -6.541 -13.491  22.839  0.00  0.00     0.028 H 
ENDBRANCH 136 138
BRANCH 136 142
ATOM    142  CD2 LEU d   1      -4.275 -11.901  24.904  0.00  0.00    -0.073 C 
ATOM    143  H88 LEU d   1      -3.180 -11.800  24.898  0.00  0.00     0.028 H 
ATOM    144  H89 LEU d   1      -4.595 -12.367  25.847  0.00  0.00     0.028 H 
ATOM    145  H90 LEU d   1      -4.735 -10.906  24.812  0.00  0.00     0.028 H 
ENDBRANCH 136 142
ENDBRANCH 133 136
ENDBRANCH 128 133
ENDBRANCH 126 128
ENDBRANCH 122 124
BRANCH 122 146
ATOM    146  CB  LEU d   1      -0.267 -16.412  20.416  0.00  0.00    -0.035 C 
ATOM    147  H71 LEU d   1       0.294 -15.668  21.001  0.00  0.00     0.037 H 
ATOM    148  H72 LEU d   1       0.205 -16.536  19.430  0.00  0.00     0.037 H 
BRANCH 146 149
ATOM    149  CG  LEU d   1      -0.135 -17.751  21.148  0.00  0.00    -0.059 C 
ATOM    150  H73 LEU d   1      -0.653 -17.664  22.114  0.00  0.00     0.038 H 
BRANCH 149 151
ATOM    151  CD1 LEU d   1      -0.775 -18.891  20.375  0.00  0.00    -0.073 C 
ATOM    152  H74 LEU d   1      -0.655 -19.828  20.938  0.00  0.00     0.028 H 
ATOM    153  H75 LEU d   1      -0.287 -18.988  19.394  0.00  0.00     0.028 H 
ATOM    154  H76 LEU d   1      -1.846 -18.683  20.233  0.00  0.00     0.028 H 
ENDBRANCH 149 151
BRANCH 149 155
ATOM    155  CD2 LEU d   1       1.330 -18.046  21.414  0.00  0.00    -0.073 C 
ATOM    156  H77 LEU d   1       1.776 -17.211  21.974  0.00  0.00     0.028 H 
ATOM    157  H78 LEU d   1       1.859 -18.170  20.457  0.00  0.00     0.028 H 
ATOM    158  H79 LEU d   1       1.417 -18.971  22.004  0.00  0.00     0.028 H 
ENDBRANCH 149 155
ENDBRANCH 146 149
ENDBRANCH 122 146
ENDBRANCH 120 122
ENDBRANCH 115 118
ENDBRANCH 113 115
ENDBRANCH 109 111
BRANCH 109 159
ATOM    159  CB  ILE d   1       2.435 -13.222  16.573  0.00  0.00    -0.030 C 
ATOM    160  H57 ILE d   1       2.205 -13.789  15.659  0.00  0.00     0.043 H 
BRANCH 159 161
ATOM    161  CG1 ILE d   1       2.385 -14.212  17.746  0.00  0.00    -0.063 C 
ATOM    162  H58 ILE d   1       1.342 -14.529  17.892  0.00  0.00     0.033 H 
ATOM    163  H59 ILE d   1       2.742 -13.700  18.651  0.00  0.00     0.033 H 
BRANCH 161 164
ATOM    164  CD1 ILE d   1       3.232 -15.438  17.524  0.00  0.00    -0.076 C 
ATOM    165  H63 ILE d   1       3.152 -16.102  18.397  0.00  0.00     0.027 H 
ATOM    166  H64 ILE d   1       4.282 -15.139  17.386  0.00  0.00     0.027 H 
ATOM    167  H65 ILE d   1       2.881 -15.968  16.626  0.00  0.00     0.027 H 
ENDBRANCH 161 164
ENDBRANCH 159 161
BRANCH 159 168
ATOM    168  CG2 ILE d   1       3.824 -12.609  16.394  0.00  0.00    -0.071 C 
ATOM    169  H60 ILE d   1       3.809 -11.909  15.545  0.00  0.00     0.028 H 
ATOM    170  H61 ILE d   1       4.555 -13.408  16.199  0.00  0.00     0.028 H 
ATOM    171  H62 ILE d   1       4.107 -12.069  17.309  0.00  0.00     0.028 H 
ENDBRANCH 159 168
ENDBRANCH 109 159
ENDBRANCH 107 109
ENDBRANCH   1 105
TORSDOF 47
