REMARK WARNING: 32 MAX_TORS EXCEEDED!!!
REMARK  62 active torsions:
REMARK  status: ('A' for Active; 'I' for Inactive)
REMARK    1  A    between atoms: C_1  and  CH3_3 
REMARK       I    between atoms: C_1  and  N_4 
REMARK    2  A    between atoms: N_4  and  CA_5 
REMARK    3  A    between atoms: CA_5  and  C_6 
REMARK    4  A    between atoms: CA_5  and  CB_8 
REMARK       I    between atoms: C_6  and  N_11 
REMARK    5  A    between atoms: CB_8  and  OG1_9 
REMARK    6  A    between atoms: CB_8  and  CG2_10 
REMARK    7  A    between atoms: N_11  and  CA_12 
REMARK    8  A    between atoms: CA_12  and  C_13 
REMARK    9  A    between atoms: CA_12  and  CB_15 
REMARK       I    between atoms: C_13  and  N_18 
REMARK   10  A    between atoms: CB_15  and  CG1_16 
REMARK   11  A    between atoms: CB_15  and  CG2_17 
REMARK   12  A    between atoms: N_18  and  CA_19 
REMARK   13  A    between atoms: CA_19  and  C_20 
REMARK   14  A    between atoms: CA_19  and  CB_22 
REMARK       I    between atoms: C_20  and  N_29 
REMARK   15  A    between atoms: CB_22  and  CG_23 
REMARK   16  A    between atoms: N_29  and  CA_30 
REMARK   17  A    between atoms: CA_30  and  C_31 
REMARK   18  A    between atoms: CA_30  and  CB_33 
REMARK       I    between atoms: C_31  and  N_36 
REMARK   19  A    between atoms: CB_33  and  OG1_34 
REMARK   20  A    between atoms: CB_33  and  CG2_35 
REMARK   21  A    between atoms: N_36  and  CA_37 
REMARK   22  A    between atoms: CA_37  and  C_38 
REMARK   23  A    between atoms: CA_37  and  CB_40 
REMARK       I    between atoms: C_38  and  N_42 
REMARK   24  A    between atoms: CB_40  and  OG_41 
REMARK   25  A    between atoms: N_42  and  CA_43 
REMARK   26  A    between atoms: CA_43  and  C_44 
REMARK   27  A    between atoms: CA_43  and  CB_46 
REMARK       I    between atoms: C_44  and  N_56 
REMARK   28  A    between atoms: CB_46  and  CG_47 
REMARK   29  A    between atoms: N_56  and  CA_57 
REMARK   30  A    between atoms: CA_57  and  C_58 
REMARK   31  A    between atoms: CA_57  and  CB_60 
REMARK       I    between atoms: C_58  and  N_65 
REMARK   32  A    between atoms: CB_60  and  CG_61 
REMARK   33  A    between atoms: CG_61  and  CD_62 
REMARK   34  A    between atoms: N_65  and  CA_66 
REMARK   35  A    between atoms: CA_66  and  C_67 
REMARK   36  A    between atoms: CA_66  and  CB_69 
REMARK       I    between atoms: C_67  and  N_74 
REMARK   37  A    between atoms: CB_69  and  CG_70 
REMARK   38  A    between atoms: CG_70  and  CD_71 
REMARK   39  A    between atoms: N_74  and  CA_75 
REMARK   40  A    between atoms: CA_75  and  C_76 
REMARK   41  A    between atoms: CA_75  and  CB_78 
REMARK       I    between atoms: C_76  and  N_86 
REMARK   42  A    between atoms: CB_78  and  CG_79 
REMARK   43  A    between atoms: CZ_84  and  OH_85 
REMARK   44  A    between atoms: N_86  and  CA_87 
REMARK   45  A    between atoms: CA_87  and  C_88 
REMARK   46  A    between atoms: CA_87  and  CB_90 
REMARK       I    between atoms: C_88  and  N_94 
REMARK   47  A    between atoms: CB_90  and  CG_91 
REMARK   48  A    between atoms: CG_91  and  CD1_92 
REMARK   49  A    between atoms: CG_91  and  CD2_93 
REMARK   50  A    between atoms: N_94  and  CA_95 
REMARK   51  A    between atoms: CA_95  and  C_96 
REMARK   52  A    between atoms: CA_95  and  CB_98 
REMARK       I    between atoms: C_96  and  N_102 
REMARK   53  A    between atoms: CB_98  and  CG_99 
REMARK   54  A    between atoms: N_102  and  CA_103 
REMARK   55  A    between atoms: CA_103  and  C_104 
REMARK   56  A    between atoms: CA_103  and  CB_106 
REMARK       I    between atoms: C_104  and  N_116 
REMARK   57  A    between atoms: CB_106  and  CG_107 
REMARK   58  A    between atoms: N_116  and  CA_117 
REMARK   59  A    between atoms: CA_117  and  C_118 
REMARK   60  A    between atoms: CA_117  and  CB_120 
REMARK       I    between atoms: C_118  and  N_123 
REMARK   61  A    between atoms: CB_120  and  CG1_121 
REMARK   62  A    between atoms: CB_120  and  CG2_122 
ROOT
ATOM      1  CA  GLU d   1       6.366 -17.798  37.843  0.00  0.00     0.090 C 
ATOM      2  H52 GLU d   1       5.402 -17.473  37.425  0.00  0.00     0.087 H 
ENDROOT
BRANCH   1   3
ATOM      3  N   GLU d   1       7.113 -18.516  36.796  0.00  0.00    -0.346 N 
ATOM      4  C   TRP d   1       7.416 -18.019  35.572  0.00  0.00     0.241 C 
ATOM      5  O   TRP d   1       7.069 -16.903  35.178  0.00  0.00    -0.271 OA
ATOM      6  H51 GLU d   1       7.421 -19.444  37.005  0.00  0.00     0.163 HD
BRANCH   4   7
ATOM      7  CA  TRP d   1       8.239 -18.899  34.659  0.00  0.00     0.093 C 
ATOM      8  H42 TRP d   1       8.805 -18.250  33.975  0.00  0.00     0.088 H 
BRANCH   7   9
ATOM      9  N   TRP d   1       9.199 -19.689  35.436  0.00  0.00    -0.346 N 
ATOM     10  C   SER d   1      10.274 -19.161  36.032  0.00  0.00     0.243 C 
ATOM     11  O   SER d   1      10.538 -17.958  35.993  0.00  0.00    -0.271 OA
ATOM     12  H41 TRP d   1       9.042 -20.673  35.525  0.00  0.00     0.163 HD
BRANCH  10  13
ATOM     13  CA  SER d   1      11.161 -20.104  36.840  0.00  0.00     0.109 C 
ATOM     14  H37 SER d   1      11.392 -20.987  36.226  0.00  0.00     0.090 H 
BRANCH  13  15
ATOM     15  N   SER d   1      12.417 -19.429  37.190  0.00  0.00    -0.344 N 
ATOM     16  C   THR d   1      13.548 -20.084  37.506  0.00  0.00     0.243 C 
ATOM     17  O   THR d   1      13.633 -21.318  37.506  0.00  0.00    -0.271 OA
ATOM     18  H36 SER d   1      12.432 -18.429  37.194  0.00  0.00     0.163 HD
BRANCH  16  19
ATOM     19  CA  THR d   1      14.780 -19.238  37.845  0.00  0.00     0.113 C 
ATOM     20  H30 THR d   1      15.597 -19.608  37.208  0.00  0.00     0.091 H 
BRANCH  19  21
ATOM     21  N   THR d   1      14.592 -17.820  37.507  0.00  0.00    -0.344 N 
ATOM     22  C   PHE d   1      14.717 -17.336  36.246  0.00  0.00     0.241 C 
ATOM     23  O   PHE d   1      15.013 -18.040  35.294  0.00  0.00    -0.271 OA
ATOM     24  H29 THR d   1      14.361 -17.182  38.241  0.00  0.00     0.163 HD
BRANCH  22  25
ATOM     25  CA  PHE d   1      14.555 -15.834  36.030  0.00  0.00     0.093 C 
ATOM     26  H21 PHE d   1      14.705 -15.328  36.995  0.00  0.00     0.088 H 
BRANCH  25  27
ATOM     27  N   PHE d   1      15.588 -15.379  35.097  0.00  0.00    -0.346 N 
ATOM     28  C   VAL d   1      16.804 -14.991  35.495  0.00  0.00     0.241 C 
ATOM     29  O   VAL d   1      17.132 -14.900  36.687  0.00  0.00    -0.271 OA
ATOM     30  H20 PHE d   1      15.375 -15.358  34.120  0.00  0.00     0.163 HD
BRANCH  28  31
ATOM     31  CA  VAL d   1      17.775 -14.559  34.406  0.00  0.00     0.092 C 
ATOM     32  H12 VAL d   1      17.249 -14.580  33.440  0.00  0.00     0.088 H 
BRANCH  31  33
ATOM     33  N   VAL d   1      18.137 -13.186  34.709  0.00  0.00    -0.346 N 
ATOM     34  C   THR d   1      17.642 -12.166  34.032  0.00  0.00     0.243 C 
ATOM     35  O   THR d   1      16.875 -12.305  33.086  0.00  0.00    -0.271 OA
ATOM     36  H11 VAL d   1      18.781 -13.007  35.453  0.00  0.00     0.163 HD
BRANCH  34  37
ATOM     37  CA  THR d   1      18.051 -10.768  34.481  0.00  0.00     0.113 C 
ATOM     38  H5  THR d   1      18.918 -10.839  35.154  0.00  0.00     0.091 H 
BRANCH  37  39
ATOM     39  N   THR d   1      18.417  -9.944  33.312  0.00  0.00    -0.346 N 
ATOM     40  C   ACE d   1      19.479 -10.176  32.531  0.00  0.00     0.214 C 
ATOM     41  O   ACE d   1      20.285 -11.107  32.701  0.00  0.00    -0.274 OA
ATOM     42  H4  THR d   1      17.834  -9.162  33.089  0.00  0.00     0.163 HD
BRANCH  40  43
ATOM     43  CH3 ACE d   1      19.648  -9.214  31.367  0.00  0.00    -0.003 C 
ATOM     44  H1  ACE d   1      18.841  -8.467  31.389  0.00  0.00     0.040 H 
ATOM     45  H2  ACE d   1      19.605  -9.773  30.420  0.00  0.00     0.040 H 
ATOM     46  H3  ACE d   1      20.620  -8.706  31.449  0.00  0.00     0.040 H 
ENDBRANCH  40  43
ENDBRANCH  37  39
BRANCH  37  47
ATOM     47  CB  THR d   1      16.861 -10.135  35.243  0.00  0.00     0.060 C 
ATOM     48  H6  THR d   1      15.963 -10.277  34.624  0.00  0.00     0.086 H 
BRANCH  47  49
ATOM     49  OG1 THR d   1      17.059  -8.731  35.412  0.00  0.00    -0.393 OA
ATOM     50  H7  THR d   1      16.320  -8.362  35.881  0.00  0.00     0.210 HD
ENDBRANCH  47  49
BRANCH  47  51
ATOM     51  CG2 THR d   1      16.598 -10.800  36.588  0.00  0.00    -0.050 C 
ATOM     52  H8  THR d   1      15.745 -10.309  37.079  0.00  0.00     0.031 H 
ATOM     53  H9  THR d   1      17.491 -10.707  37.224  0.00  0.00     0.031 H 
ATOM     54  H10 THR d   1      16.368 -11.864  36.432  0.00  0.00     0.031 H 
ENDBRANCH  47  51
ENDBRANCH  37  47
ENDBRANCH  34  37
ENDBRANCH  31  33
BRANCH  31  55
ATOM     55  CB  VAL d   1      19.008 -15.489  34.278  0.00  0.00    -0.033 C 
ATOM     56  H13 VAL d   1      19.592 -15.406  35.206  0.00  0.00     0.042 H 
BRANCH  55  57
ATOM     57  CG1 VAL d   1      18.593 -16.948  34.110  0.00  0.00    -0.071 C 
ATOM     58  H14 VAL d   1      19.491 -17.577  34.023  0.00  0.00     0.028 H 
ATOM     59  H15 VAL d   1      17.982 -17.053  33.201  0.00  0.00     0.028 H 
ATOM     60  H16 VAL d   1      18.007 -17.266  34.985  0.00  0.00     0.028 H 
ENDBRANCH  55  57
BRANCH  55  61
ATOM     61  CG2 VAL d   1      19.898 -15.052  33.114  0.00  0.00    -0.071 C 
ATOM     62  H17 VAL d   1      20.188 -14.000  33.249  0.00  0.00     0.028 H 
ATOM     63  H18 VAL d   1      19.346 -15.161  32.169  0.00  0.00     0.028 H 
ATOM     64  H19 VAL d   1      20.800 -15.681  33.086  0.00  0.00     0.028 H 
ENDBRANCH  55  61
ENDBRANCH  31  55
ENDBRANCH  28  31
ENDBRANCH  25  27
BRANCH  25  65
ATOM     65  CB  PHE d   1      13.150 -15.463  35.514  0.00  0.00    -0.014 C 
ATOM     66  H22 PHE d   1      12.411 -15.714  36.289  0.00  0.00     0.043 H 
ATOM     67  H23 PHE d   1      12.941 -16.047  34.605  0.00  0.00     0.043 H 
BRANCH  65  68
ATOM     68  CG  PHE d   1      13.029 -13.988  35.184  0.00  0.00    -0.056 A 
ATOM     69  CD1 PHE d   1      12.929 -13.037  36.196  0.00  0.00    -0.077 A 
ATOM     70  CE1 PHE d   1      12.866 -11.673  35.893  0.00  0.00    -0.082 A 
ATOM     71  H24 PHE d   1      12.900 -13.358  37.231  0.00  0.00     0.084 H 
ATOM     72  CZ  PHE d   1      12.903 -11.255  34.579  0.00  0.00    -0.083 A 
ATOM     73  H26 PHE d   1      12.788 -10.944  36.691  0.00  0.00     0.083 H 
ATOM     74  CE2 PHE d   1      13.012 -12.185  33.561  0.00  0.00    -0.082 A 
ATOM     75  H28 PHE d   1      12.847 -10.198  34.344  0.00  0.00     0.083 H 
ATOM     76  CD2 PHE d   1      13.076 -13.547  33.863  0.00  0.00    -0.077 A 
ATOM     77  H27 PHE d   1      13.048 -11.857  32.529  0.00  0.00     0.083 H 
ATOM     78  H25 PHE d   1      13.163 -14.270  33.060  0.00  0.00     0.084 H 
ENDBRANCH  65  68
ENDBRANCH  25  65
ENDBRANCH  22  25
ENDBRANCH  19  21
BRANCH  19  79
ATOM     79  CB  THR d   1      15.245 -19.422  39.308  0.00  0.00     0.060 C 
ATOM     80  H31 THR d   1      15.366 -20.500  39.490  0.00  0.00     0.086 H 
BRANCH  79  81
ATOM     81  OG1 THR d   1      14.240 -18.927  40.192  0.00  0.00    -0.393 OA
ATOM     82  H32 THR d   1      14.094 -18.004  40.019  0.00  0.00     0.210 HD
ENDBRANCH  79  81
BRANCH  79  83
ATOM     83  CG2 THR d   1      16.589 -18.748  39.599  0.00  0.00    -0.050 C 
ATOM     84  H33 THR d   1      16.863 -18.915  40.651  0.00  0.00     0.031 H 
ATOM     85  H34 THR d   1      16.506 -17.668  39.409  0.00  0.00     0.031 H 
ATOM     86  H35 THR d   1      17.363 -19.177  38.946  0.00  0.00     0.031 H 
ENDBRANCH  79  83
ENDBRANCH  19  79
ENDBRANCH  16  19
ENDBRANCH  13  15
BRANCH  13  87
ATOM     87  CB  SER d   1      10.432 -20.564  38.108  0.00  0.00     0.044 C 
ATOM     88  H38 SER d   1      11.134 -21.143  38.726  0.00  0.00     0.077 H 
ATOM     89  H39 SER d   1       9.587 -21.204  37.815  0.00  0.00     0.077 H 
BRANCH  87  90
ATOM     90  OG  SER d   1       9.933 -19.480  38.882  0.00  0.00    -0.398 OA
ATOM     91  H40 SER d   1       9.492 -19.819  39.652  0.00  0.00     0.209 HD
ENDBRANCH  87  90
ENDBRANCH  13  87
ENDBRANCH  10  13
ENDBRANCH   7   9
BRANCH   7  92
ATOM     92  CB  TRP d   1       7.330 -19.805  33.814  0.00  0.00    -0.012 C 
ATOM     93  H43 TRP d   1       6.762 -20.454  34.497  0.00  0.00     0.044 H 
ATOM     94  H44 TRP d   1       7.968 -20.423  33.166  0.00  0.00     0.044 H 
BRANCH  92  95
ATOM     95  CG  TRP d   1       6.350 -19.069  32.943  0.00  0.00    -0.028 A 
ATOM     96  CD1 TRP d   1       4.996 -19.024  33.092  0.00  0.00    -0.015 A 
ATOM     97  NE1 TRP d   1       4.439 -18.233  32.116  0.00  0.00    -0.365 N 
ATOM     98  H45 TRP d   1       4.437 -19.540  33.871  0.00  0.00     0.112 H 
ATOM     99  CE2 TRP d   1       5.435 -17.778  31.286  0.00  0.00     0.042 A 
ATOM    100  H46 TRP d   1       3.437 -18.016  32.022  0.00  0.00     0.165 HD
ATOM    101  CD2 TRP d   1       6.657 -18.270  31.790  0.00  0.00    -0.002 A 
ATOM    102  CZ2 TRP d   1       5.368 -16.968  30.146  0.00  0.00    -0.056 A 
ATOM    103  CE3 TRP d   1       7.849 -17.933  31.126  0.00  0.00    -0.070 A 
ATOM    104  CZ3 TRP d   1       7.781 -17.131  29.999  0.00  0.00    -0.082 A 
ATOM    105  H47 TRP d   1       8.804 -18.294  31.489  0.00  0.00     0.084 H 
ATOM    106  CH2 TRP d   1       6.552 -16.661  29.517  0.00  0.00    -0.081 A 
ATOM    107  H49 TRP d   1       8.694 -16.862  29.481  0.00  0.00     0.083 H 
ATOM    108  H50 TRP d   1       6.534 -16.041  28.628  0.00  0.00     0.083 H 
ATOM    109  H48 TRP d   1       4.420 -16.597  29.774  0.00  0.00     0.086 H 
ENDBRANCH  92  95
ENDBRANCH   7  92
ENDBRANCH   4   7
ENDBRANCH   1   3
BRANCH   1 110
ATOM    110  C   GLU d   1       7.161 -16.562  38.273  0.00  0.00     0.241 C 
ATOM    111  O   GLU d   1       6.576 -15.477  38.347  0.00  0.00    -0.271 OA
ATOM    112  N   GLU d   1       8.502 -16.718  38.485  0.00  0.00    -0.346 N 
ATOM    113  H57 GLU d   1       8.887 -17.637  38.396  0.00  0.00     0.163 HD
BRANCH 112 114
ATOM    114  CA  GLU d   1       9.414 -15.620  38.836  0.00  0.00     0.090 C 
ATOM    115  H58 GLU d   1       9.084 -15.220  39.806  0.00  0.00     0.087 H 
BRANCH 114 116
ATOM    116  C   GLU d   1       9.317 -14.481  37.815  0.00  0.00     0.241 C 
ATOM    117  O   GLU d   1       9.119 -13.329  38.206  0.00  0.00    -0.271 OA
ATOM    118  N   TYR d   1       9.352 -14.824  36.516  0.00  0.00    -0.346 N 
ATOM    119  H63 TYR d   1       9.501 -15.786  36.287  0.00  0.00     0.163 HD
BRANCH 118 120
ATOM    120  CA  TYR d   1       9.185 -13.874  35.419  0.00  0.00     0.093 C 
ATOM    121  H64 TYR d   1       9.948 -13.090  35.536  0.00  0.00     0.088 H 
BRANCH 120 122
ATOM    122  C   TYR d   1       7.798 -13.186  35.481  0.00  0.00     0.241 C 
ATOM    123  O   TYR d   1       7.745 -11.971  35.330  0.00  0.00    -0.271 OA
ATOM    124  N   LEU d   1       6.694 -13.948  35.717  0.00  0.00    -0.346 N 
ATOM    125  H72 LEU d   1       6.818 -14.933  35.840  0.00  0.00     0.163 HD
BRANCH 124 126
ATOM    126  CA  LEU d   1       5.324 -13.403  35.802  0.00  0.00     0.089 C 
ATOM    127  H73 LEU d   1       5.153 -12.859  34.861  0.00  0.00     0.087 H 
BRANCH 126 128
ATOM    128  C   LEU d   1       5.135 -12.388  36.939  0.00  0.00     0.241 C 
ATOM    129  O   LEU d   1       4.399 -11.420  36.758  0.00  0.00    -0.271 OA
ATOM    130  N   ASP d   1       5.784 -12.607  38.102  0.00  0.00    -0.346 N 
ATOM    131  H83 ASP d   1       6.353 -13.426  38.179  0.00  0.00     0.163 HD
BRANCH 130 132
ATOM    132  CA  ASP d   1       5.700 -11.704  39.264  0.00  0.00     0.098 C 
ATOM    133  H84 ASP d   1       4.639 -11.464  39.427  0.00  0.00     0.088 H 
BRANCH 132 134
ATOM    134  C   ASP d   1       6.443 -10.399  39.009  0.00  0.00     0.241 C 
ATOM    135  O   ASP d   1       5.968  -9.326  39.388  0.00  0.00    -0.271 OA
ATOM    136  N   TRP d   1       7.596 -10.512  38.342  0.00  0.00    -0.346 N 
ATOM    137  H87 TRP d   1       7.874 -11.440  38.092  0.00  0.00     0.163 HD
BRANCH 136 138
ATOM    138  CA  TRP d   1       8.488  -9.446  37.941  0.00  0.00     0.093 C 
ATOM    139  H88 TRP d   1       8.735  -8.837  38.823  0.00  0.00     0.088 H 
BRANCH 138 140
ATOM    140  C   TRP d   1       7.859  -8.538  36.880  0.00  0.00     0.241 C 
ATOM    141  O   TRP d   1       7.960  -7.306  36.986  0.00  0.00    -0.271 OA
ATOM    142  N   VAL d   1       7.305  -9.147  35.809  0.00  0.00    -0.346 N 
ATOM    143  H97 VAL d   1       7.253 -10.146  35.810  0.00  0.00     0.163 HD
BRANCH 142 144
ATOM    144  CA  VAL d   1       6.776  -8.430  34.647  0.00  0.00     0.092 C 
ATOM    145  H98 VAL d   1       7.472  -7.605  34.435  0.00  0.00     0.088 H 
BRANCH 144 146
ATOM    146  C   VAL d   1       5.412  -7.787  34.918  0.00  0.00     0.238 C 
ATOM    147  O   VAL d   1       4.658  -8.256  35.775  0.00  0.00    -0.271 OA
ATOM    148  N   NH2 d   1       5.188  -6.605  34.328  0.00  0.00    -0.368 N 
ATOM    149 6H10 NH2 d   1       4.316  -6.135  34.466  0.00  0.00     0.159 HD
ATOM    150 7H10 NH2 d   1       5.892  -6.193  33.750  0.00  0.00     0.159 HD
ENDBRANCH 144 146
BRANCH 144 151
ATOM    151  CB  VAL d   1       6.778  -9.352  33.401  0.00  0.00    -0.033 C 
ATOM    152  H99 VAL d   1       7.728  -9.907  33.416  0.00  0.00     0.042 H 
BRANCH 151 153
ATOM    153  CG1 VAL d   1       5.656 -10.391  33.448  0.00  0.00    -0.071 C 
ATOM    154 0H10 VAL d   1       5.699 -11.019  32.546  0.00  0.00     0.028 H 
ATOM    155 1H10 VAL d   1       4.684  -9.879  33.492  0.00  0.00     0.028 H 
ATOM    156 2H10 VAL d   1       5.778 -11.023  34.340  0.00  0.00     0.028 H 
ENDBRANCH 151 153
BRANCH 151 157
ATOM    157  CG2 VAL d   1       6.751  -8.552  32.104  0.00  0.00    -0.071 C 
ATOM    158 3H10 VAL d   1       7.570  -7.818  32.109  0.00  0.00     0.028 H 
ATOM    159 4H10 VAL d   1       5.789  -8.026  32.017  0.00  0.00     0.028 H 
ATOM    160 5H10 VAL d   1       6.875  -9.234  31.250  0.00  0.00     0.028 H 
ENDBRANCH 151 157
ENDBRANCH 144 151
ENDBRANCH 142 144
ENDBRANCH 138 140
BRANCH 138 161
ATOM    161  CB  TRP d   1       9.775 -10.080  37.380  0.00  0.00    -0.012 C 
ATOM    162  H89 TRP d   1       9.495 -10.760  36.562  0.00  0.00     0.044 H 
ATOM    163  H90 TRP d   1      10.254 -10.655  38.186  0.00  0.00     0.044 H 
BRANCH 161 164
ATOM    164  CG  TRP d   1      10.774  -9.095  36.849  0.00  0.00    -0.028 A 
ATOM    165  CD1 TRP d   1      10.780  -8.520  35.614  0.00  0.00    -0.015 A 
ATOM    166  NE1 TRP d   1      11.853  -7.668  35.491  0.00  0.00    -0.365 N 
ATOM    167  H91 TRP d   1      10.041  -8.708  34.836  0.00  0.00     0.112 H 
ATOM    168  CE2 TRP d   1      12.601  -7.723  36.638  0.00  0.00     0.042 A 
ATOM    169  H92 TRP d   1      12.061  -7.083  34.669  0.00  0.00     0.165 HD
ATOM    170  CD2 TRP d   1      11.950  -8.616  37.520  0.00  0.00    -0.002 A 
ATOM    171  CZ2 TRP d   1      13.798  -7.081  36.971  0.00  0.00    -0.056 A 
ATOM    172  CE3 TRP d   1      12.530  -8.871  38.778  0.00  0.00    -0.070 A 
ATOM    173  CZ3 TRP d   1      13.711  -8.225  39.108  0.00  0.00    -0.082 A 
ATOM    174  H93 TRP d   1      12.062  -9.558  39.474  0.00  0.00     0.084 H 
ATOM    175  CH2 TRP d   1      14.333  -7.345  38.210  0.00  0.00    -0.081 A 
ATOM    176  H95 TRP d   1      14.162  -8.403  40.078  0.00  0.00     0.083 H 
ATOM    177  H96 TRP d   1      15.259  -6.861  38.500  0.00  0.00     0.083 H 
ATOM    178  H94 TRP d   1      14.285  -6.402  36.280  0.00  0.00     0.086 H 
ENDBRANCH 161 164
ENDBRANCH 138 161
ENDBRANCH 136 138
ENDBRANCH 132 134
BRANCH 132 179
ATOM    179  CB  ASP d   1       6.235 -12.384  40.539  0.00  0.00     0.043 C 
ATOM    180  H85 ASP d   1       6.284 -11.630  41.338  0.00  0.00     0.052 H 
ATOM    181  H86 ASP d   1       7.246 -12.764  40.330  0.00  0.00     0.052 H 
BRANCH 179 182
ATOM    182  CG  ASP d   1       5.379 -13.545  41.028  0.00  0.00     0.175 C 
ATOM    183  OD1 ASP d   1       4.140 -13.531  40.767  0.00  0.00    -0.648 OA
ATOM    184  OD2 ASP d   1       5.937 -14.456  41.692  0.00  0.00    -0.648 OA
ENDBRANCH 179 182
ENDBRANCH 132 179
ENDBRANCH 130 132
ENDBRANCH 126 128
BRANCH 126 185
ATOM    185  CB  LEU d   1       4.237 -14.504  35.887  0.00  0.00    -0.035 C 
ATOM    186  H74 LEU d   1       3.266 -13.993  35.971  0.00  0.00     0.037 H 
ATOM    187  H75 LEU d   1       4.430 -15.078  36.806  0.00  0.00     0.037 H 
BRANCH 185 188
ATOM    188  CG  LEU d   1       4.113 -15.530  34.727  0.00  0.00    -0.059 C 
ATOM    189  H76 LEU d   1       5.111 -15.957  34.548  0.00  0.00     0.038 H 
BRANCH 188 190
ATOM    190  CD1 LEU d   1       3.175 -16.646  35.094  0.00  0.00    -0.073 C 
ATOM    191  H77 LEU d   1       3.106 -17.357  34.257  0.00  0.00     0.028 H 
ATOM    192  H78 LEU d   1       2.178 -16.232  35.307  0.00  0.00     0.028 H 
ATOM    193  H79 LEU d   1       3.555 -17.166  35.986  0.00  0.00     0.028 H 
ENDBRANCH 188 190
BRANCH 188 194
ATOM    194  CD2 LEU d   1       3.632 -14.891  33.438  0.00  0.00    -0.073 C 
ATOM    195  H80 LEU d   1       4.311 -14.072  33.159  0.00  0.00     0.028 H 
ATOM    196  H81 LEU d   1       2.617 -14.492  33.583  0.00  0.00     0.028 H 
ATOM    197  H82 LEU d   1       3.619 -15.645  32.637  0.00  0.00     0.028 H 
ENDBRANCH 188 194
ENDBRANCH 185 188
ENDBRANCH 126 185
ENDBRANCH 124 126
ENDBRANCH 120 122
BRANCH 120 198
ATOM    198  CB  TYR d   1       9.431 -14.566  34.053  0.00  0.00    -0.014 C 
ATOM    199  H65 TYR d   1       8.972 -15.565  34.086  0.00  0.00     0.043 H 
ATOM    200  H66 TYR d   1      10.517 -14.665  33.908  0.00  0.00     0.043 H 
BRANCH 198 201
ATOM    201  CG  TYR d   1       8.860 -13.821  32.862  0.00  0.00    -0.056 A 
ATOM    202  CD1 TYR d   1       9.474 -12.674  32.370  0.00  0.00    -0.074 A 
ATOM    203  CE1 TYR d   1       8.947 -11.979  31.285  0.00  0.00    -0.051 A 
ATOM    204  H67 TYR d   1      10.382 -12.314  32.841  0.00  0.00     0.084 H 
ATOM    205  CZ  TYR d   1       7.781 -12.425  30.684  0.00  0.00     0.065 A 
ATOM    206  H69 TYR d   1       9.447 -11.092  30.912  0.00  0.00     0.087 H 
ATOM    207  CE2 TYR d   1       7.140 -13.553  31.171  0.00  0.00    -0.051 A 
ATOM    208  CD2 TYR d   1       7.688 -14.250  32.244  0.00  0.00    -0.074 A 
ATOM    209  H70 TYR d   1       6.215 -13.891  30.718  0.00  0.00     0.087 H 
ATOM    210  H68 TYR d   1       7.193 -15.144  32.606  0.00  0.00     0.084 H 
BRANCH 205 211
ATOM    211  OH  TYR d   1       7.257 -11.739  29.613  0.00  0.00    -0.361 OA
ATOM    212  H71 TYR d   1       7.815 -10.998  29.409  0.00  0.00     0.217 HD
ENDBRANCH 205 211
ENDBRANCH 198 201
ENDBRANCH 120 198
ENDBRANCH 118 120
ENDBRANCH 114 116
BRANCH 114 213
ATOM    213  CB  GLU d   1      10.864 -16.098  39.016  0.00  0.00    -0.029 C 
ATOM    214  H59 GLU d   1      11.358 -16.122  38.033  0.00  0.00     0.037 H 
ATOM    215  H60 GLU d   1      10.857 -17.110  39.447  0.00  0.00     0.037 H 
BRANCH 213 216
ATOM    216  CG  GLU d   1      11.639 -15.173  39.937  0.00  0.00     0.018 C 
ATOM    217  H61 GLU d   1      11.154 -15.204  40.924  0.00  0.00     0.049 H 
ATOM    218  H62 GLU d   1      11.566 -14.156  39.524  0.00  0.00     0.049 H 
BRANCH 216 219
ATOM    219  CD  GLU d   1      13.108 -15.478  40.141  0.00  0.00     0.172 C 
ATOM    220  OE1 GLU d   1      13.428 -16.285  41.044  0.00  0.00    -0.648 OA
ATOM    221  OE2 GLU d   1      13.943 -14.855  39.447  0.00  0.00    -0.648 OA
ENDBRANCH 216 219
ENDBRANCH 213 216
ENDBRANCH 114 213
ENDBRANCH 112 114
ENDBRANCH   1 110
BRANCH   1 222
ATOM    222  CB  GLU d   1       6.088 -18.698  39.061  0.00  0.00    -0.029 C 
ATOM    223  H53 GLU d   1       5.646 -18.077  39.853  0.00  0.00     0.037 H 
ATOM    224  H54 GLU d   1       7.046 -19.110  39.410  0.00  0.00     0.037 H 
BRANCH 222 225
ATOM    225  CG  GLU d   1       5.143 -19.861  38.785  0.00  0.00     0.018 C 
ATOM    226  H55 GLU d   1       5.740 -20.690  38.378  0.00  0.00     0.049 H 
ATOM    227  H56 GLU d   1       4.413 -19.530  38.032  0.00  0.00     0.049 H 
BRANCH 225 228
ATOM    228  CD  GLU d   1       4.369 -20.389  39.981  0.00  0.00     0.172 C 
ATOM    229  OE1 GLU d   1       4.924 -20.403  41.106  0.00  0.00    -0.648 OA
ATOM    230  OE2 GLU d   1       3.207 -20.814  39.784  0.00  0.00    -0.648 OA
ENDBRANCH 225 228
ENDBRANCH 222 225
ENDBRANCH   1 222
TORSDOF 62
