REMARK WARNING: 32 MAX_TORS EXCEEDED!!!
REMARK  75 active torsions:
REMARK  status: ('A' for Active; 'I' for Inactive)
REMARK    1  A    between atoms: C_1  and  CH3_3 
REMARK       I    between atoms: C_1  and  N_4 
REMARK    2  A    between atoms: N_4  and  CA_5 
REMARK    3  A    between atoms: CA_5  and  C_6 
REMARK    4  A    between atoms: CA_5  and  CB_8 
REMARK       I    between atoms: C_6  and  N_12 
REMARK    5  A    between atoms: CB_8  and  CG_9 
REMARK    6  A    between atoms: CG_9  and  SD_10 
REMARK    7  A    between atoms: SD_10  and  CE_11 
REMARK    8  A    between atoms: N_12  and  CA_13 
REMARK    9  A    between atoms: CA_13  and  C_14 
REMARK   10  A    between atoms: CA_13  and  CB_16 
REMARK       I    between atoms: C_14  and  N_21 
REMARK   11  A    between atoms: CB_16  and  CG_17 
REMARK   12  A    between atoms: CG_17  and  CD_18 
REMARK   13  A    between atoms: N_21  and  CA_22 
REMARK   14  A    between atoms: CA_22  and  C_23 
REMARK   15  A    between atoms: CA_22  and  CB_25 
REMARK       I    between atoms: C_23  and  N_27 
REMARK   16  A    between atoms: CB_25  and  OG_26 
REMARK   17  A    between atoms: N_27  and  CA_28 
REMARK   18  A    between atoms: CA_28  and  C_29 
REMARK   19  A    between atoms: CA_28  and  CB_31 
REMARK       I    between atoms: C_29  and  N_38 
REMARK   20  A    between atoms: CB_31  and  CG_32 
REMARK   21  A    between atoms: CA_39  and  C_40 
REMARK       I    between atoms: C_40  and  N_45 
REMARK   22  A    between atoms: N_45  and  CA_46 
REMARK   23  A    between atoms: CA_46  and  C_47 
REMARK       I    between atoms: C_47  and  N_49 
REMARK   24  A    between atoms: N_49  and  CA_50 
REMARK   25  A    between atoms: CA_50  and  C_51 
REMARK   26  A    between atoms: CA_50  and  CB_53 
REMARK       I    between atoms: C_51  and  N_63 
REMARK   27  A    between atoms: CB_53  and  CG_54 
REMARK   28  A    between atoms: N_63  and  CA_64 
REMARK   29  A    between atoms: CA_64  and  C_65 
REMARK   30  A    between atoms: CA_64  and  CB_67 
REMARK       I    between atoms: C_65  and  N_71 
REMARK   31  A    between atoms: CB_67  and  CG_68 
REMARK       I    between atoms: CG_68  and  ND2_70 
REMARK   32  A    between atoms: N_71  and  CA_72 
REMARK   33  A    between atoms: CA_72  and  C_73 
REMARK   34  A    between atoms: CA_72  and  CB_75 
REMARK       I    between atoms: C_73  and  N_79 
REMARK   35  A    between atoms: CB_75  and  CG_76 
REMARK   36  A    between atoms: CG_76  and  CD1_77 
REMARK   37  A    between atoms: CG_76  and  CD2_78 
REMARK   38  A    between atoms: N_79  and  CA_80 
REMARK   39  A    between atoms: CA_80  and  C_81 
REMARK   40  A    between atoms: CA_80  and  CB_83 
REMARK       I    between atoms: C_81  and  N_86 
REMARK   41  A    between atoms: CB_83  and  CG1_84 
REMARK   42  A    between atoms: CB_83  and  CG2_85 
REMARK   43  A    between atoms: N_86  and  CA_87 
REMARK   44  A    between atoms: CA_87  and  CB_88 
REMARK   45  A    between atoms: CA_87  and  C_96 
REMARK   46  A    between atoms: CB_88  and  CG'_90 
REMARK   47  A    between atoms: CG'_90  and  CG_89 
REMARK   48  A    between atoms: CG_89  and  CD_91 
REMARK   49  A    between atoms: CD_91  and  NE_92 
REMARK       I    between atoms: NE_92  and  CZ_93 
REMARK       I    between atoms: CZ_93  and  NH1_94 
REMARK       I    between atoms: CZ_93  and  NH2_95 
REMARK       I    between atoms: C_96  and  N_98 
REMARK   50  A    between atoms: N_98  and  CA_99 
REMARK   51  A    between atoms: CA_99  and  C_100 
REMARK   52  A    between atoms: CA_99  and  CB_102 
REMARK       I    between atoms: C_100  and  N_106 
REMARK   53  A    between atoms: CB_102  and  CG1_103 
REMARK   54  A    between atoms: CB_102  and  CG2_104 
REMARK   55  A    between atoms: CG1_103  and  CD1_105 
REMARK   56  A    between atoms: N_106  and  CA_107 
REMARK   57  A    between atoms: CA_107  and  C_108 
REMARK       I    between atoms: C_108  and  N_110 
REMARK   58  A    between atoms: N_110  and  CA_111 
REMARK   59  A    between atoms: CA_111  and  C_112 
REMARK   60  A    between atoms: CA_111  and  CB_114 
REMARK       I    between atoms: C_112  and  N_118 
REMARK   61  A    between atoms: CB_114  and  CG_115 
REMARK   62  A    between atoms: CG_115  and  CD1_116 
REMARK   63  A    between atoms: CG_115  and  CD2_117 
REMARK   64  A    between atoms: N_118  and  CA_119 
REMARK   65  A    between atoms: CA_119  and  C_120 
REMARK   66  A    between atoms: CA_119  and  CB_122 
REMARK       I    between atoms: C_120  and  N_126 
REMARK   67  A    between atoms: CB_122  and  CG_123 
REMARK   68  A    between atoms: CG_123  and  CD1_124 
REMARK   69  A    between atoms: CG_123  and  CD2_125 
REMARK   70  A    between atoms: N_126  and  CA_127 
REMARK   71  A    between atoms: CA_127  and  C_128 
REMARK   72  A    between atoms: CA_127  and  CB_130 
REMARK   73  A    between atoms: CB_130  and  CG_131 
REMARK   74  A    between atoms: CG_131  and  CD_132 
REMARK   75  A    between atoms: CD_132  and  NE_133 
REMARK       I    between atoms: NE_133  and  CZ_134 
REMARK       I    between atoms: CZ_134  and  NH1_135 
REMARK       I    between atoms: CZ_134  and  NH2_136 
ROOT
ATOM      1  CA  LEU d   1     -29.711 -18.299 -26.323  0.00  0.00     0.089 C 
ATOM      2  H60 LEU d   1     -30.070 -18.556 -27.331  0.00  0.00     0.087 H 
ENDROOT
BRANCH   1   3
ATOM      3  N   LEU d   1     -28.668 -19.261 -25.988  0.00  0.00    -0.346 N 
ATOM      4  C   ASN d   1     -27.685 -19.643 -26.831  0.00  0.00     0.241 C 
ATOM      5  O   ASN d   1     -27.552 -19.191 -27.961  0.00  0.00    -0.271 OA
ATOM      6  H59 LEU d   1     -28.682 -19.665 -25.073  0.00  0.00     0.163 HD
BRANCH   4   7
ATOM      7  CA  ASN d   1     -26.685 -20.671 -26.315  0.00  0.00     0.097 C 
ATOM      8  H54 ASN d   1     -25.768 -20.598 -26.919  0.00  0.00     0.088 H 
BRANCH   7   9
ATOM      9  N   ASN d   1     -26.342 -20.417 -24.922  0.00  0.00    -0.346 N 
ATOM     10  C   TRP d   1     -25.814 -19.278 -24.419  0.00  0.00     0.241 C 
ATOM     11  O   TRP d   1     -25.532 -18.290 -25.102  0.00  0.00    -0.271 OA
ATOM     12  H53 ASN d   1     -26.514 -21.158 -24.273  0.00  0.00     0.163 HD
BRANCH  10  13
ATOM     13  CA  TRP d   1     -25.592 -19.268 -22.906  0.00  0.00     0.093 C 
ATOM     14  H44 TRP d   1     -25.615 -18.223 -22.565  0.00  0.00     0.088 H 
BRANCH  13  15
ATOM     15  N   TRP d   1     -26.679 -19.991 -22.218  0.00  0.00    -0.346 N 
ATOM     16  C   GLY d   1     -28.001 -19.700 -22.403  0.00  0.00     0.236 C 
ATOM     17  O   GLY d   1     -28.384 -18.803 -23.162  0.00  0.00    -0.272 OA
ATOM     18  H43 TRP d   1     -26.437 -20.728 -21.587  0.00  0.00     0.163 HD
BRANCH  16  19
ATOM     19  CA  GLY d   1     -29.048 -20.526 -21.673  0.00  0.00     0.069 C 
ATOM     20  H41 GLY d   1     -29.683 -19.834 -21.099  0.00  0.00     0.078 H 
ATOM     21  H42 GLY d   1     -29.658 -21.042 -22.430  0.00  0.00     0.078 H 
BRANCH  19  22
ATOM     22  N   GLY d   1     -28.539 -21.528 -20.754  0.00  0.00    -0.351 N 
ATOM     23  C   PRO d   1     -28.344 -21.304 -19.458  0.00  0.00     0.241 C 
ATOM     24  O   PRO d   1     -28.509 -20.206 -18.899  0.00  0.00    -0.271 OA
ATOM     25  H40 GLY d   1     -28.323 -22.435 -21.115  0.00  0.00     0.163 HD
BRANCH  23  26
ATOM     26  CA  PRO d   1     -27.782 -22.499 -18.696  0.00  0.00     0.091 C 
ATOM     27  N   PRO d   1     -26.503 -22.192 -18.037  0.00  0.00    -0.337 N 
ATOM     28  C   PHE d   1     -25.454 -21.776 -18.786  0.00  0.00     0.243 C 
ATOM     29  CD  PRO d   1     -26.588 -22.449 -16.590  0.00  0.00    -0.001 C 
ATOM     30  O   PHE d   1     -25.560 -21.625 -20.008  0.00  0.00    -0.271 OA
ATOM     31  CG  PRO d   1     -27.752 -23.378 -16.496  0.00  0.00    -0.048 C 
ATOM     32  H38 PRO d   1     -26.774 -21.520 -16.031  0.00  0.00     0.064 H 
ATOM     33  H39 PRO d   1     -25.669 -22.924 -16.216  0.00  0.00     0.064 H 
ATOM     34  CB  PRO d   1     -28.685 -22.939 -17.544  0.00  0.00    -0.036 C 
ATOM     35  H36 PRO d   1     -27.432 -24.415 -16.675  0.00  0.00     0.035 H 
ATOM     36  H37 PRO d   1     -28.224 -23.305 -15.505  0.00  0.00     0.035 H 
ATOM     37  H34 PRO d   1     -29.338 -23.767 -17.856  0.00  0.00     0.036 H 
ATOM     38  H35 PRO d   1     -29.301 -22.099 -17.190  0.00  0.00     0.036 H 
ATOM     39  H33 PRO d   1     -27.649 -23.328 -19.406  0.00  0.00     0.087 H 
BRANCH  28  40
ATOM     40  CA  PHE d   1     -24.107 -21.452 -18.133  0.00  0.00     0.093 C 
ATOM     41  H25 PHE d   1     -23.896 -22.205 -17.359  0.00  0.00     0.088 H 
BRANCH  40  42
ATOM     42  N   PHE d   1     -23.065 -21.527 -19.162  0.00  0.00    -0.346 N 
ATOM     43  C   SER d   1     -21.813 -21.887 -18.910  0.00  0.00     0.243 C 
ATOM     44  O   SER d   1     -21.409 -22.139 -17.778  0.00  0.00    -0.271 OA
ATOM     45  H24 PHE d   1     -23.311 -21.295 -20.103  0.00  0.00     0.163 HD
BRANCH  43  46
ATOM     46  CA  SER d   1     -20.855 -21.943 -20.099  0.00  0.00     0.109 C 
ATOM     47  H20 SER d   1     -21.406 -21.601 -20.987  0.00  0.00     0.090 H 
BRANCH  46  48
ATOM     48  N   SER d   1     -19.713 -21.047 -19.909  0.00  0.00    -0.344 N 
ATOM     49  C   GLU d   1     -19.812 -19.711 -19.996  0.00  0.00     0.241 C 
ATOM     50  O   GLU d   1     -20.865 -19.133 -20.267  0.00  0.00    -0.271 OA
ATOM     51  H19 SER d   1     -18.820 -21.448 -19.705  0.00  0.00     0.163 HD
BRANCH  49  52
ATOM     52  CA  GLU d   1     -18.534 -18.896 -19.765  0.00  0.00     0.090 C 
ATOM     53  H14 GLU d   1     -17.665 -19.524 -20.010  0.00  0.00     0.087 H 
BRANCH  52  54
ATOM     54  N   GLU d   1     -18.535 -17.727 -20.639  0.00  0.00    -0.346 N 
ATOM     55  C   MET d   1     -17.953 -17.709 -21.843  0.00  0.00     0.241 C 
ATOM     56  O   MET d   1     -17.347 -18.680 -22.314  0.00  0.00    -0.271 OA
ATOM     57  H13 GLU d   1     -18.994 -16.897 -20.321  0.00  0.00     0.163 HD
BRANCH  55  58
ATOM     58  CA  MET d   1     -18.102 -16.411 -22.650  0.00  0.00     0.090 C 
ATOM     59  H5  MET d   1     -17.542 -15.620 -22.129  0.00  0.00     0.087 H 
BRANCH  58  60
ATOM     60  N   MET d   1     -17.528 -16.555 -24.003  0.00  0.00    -0.348 N 
ATOM     61  C   ACE d   1     -16.257 -16.271 -24.305  0.00  0.00     0.214 C 
ATOM     62  O   ACE d   1     -15.438 -15.841 -23.489  0.00  0.00    -0.274 OA
ATOM     63  H4  MET d   1     -18.124 -16.884 -24.735  0.00  0.00     0.163 HD
BRANCH  61  64
ATOM     64  CH3 ACE d   1     -15.838 -16.517 -25.759  0.00  0.00    -0.003 C 
ATOM     65  H1  ACE d   1     -16.698 -16.897 -26.329  0.00  0.00     0.040 H 
ATOM     66  H2  ACE d   1     -15.024 -17.257 -25.786  0.00  0.00     0.040 H 
ATOM     67  H3  ACE d   1     -15.491 -15.573 -26.205  0.00  0.00     0.040 H 
ENDBRANCH  61  64
ENDBRANCH  58  60
BRANCH  58  68
ATOM     68  CB  MET d   1     -19.589 -15.981 -22.715  0.00  0.00    -0.030 C 
ATOM     69  H6  MET d   1     -19.671 -15.120 -23.394  0.00  0.00     0.037 H 
ATOM     70  H7  MET d   1     -19.909 -15.684 -21.705  0.00  0.00     0.037 H 
BRANCH  68  71
ATOM     71  CG  MET d   1     -20.523 -17.073 -23.211  0.00  0.00    -0.021 C 
ATOM     72  H8  MET d   1     -20.702 -17.773 -22.382  0.00  0.00     0.049 H 
ATOM     73  H9  MET d   1     -20.023 -17.602 -24.036  0.00  0.00     0.049 H 
BRANCH  71  74
ATOM     74  SD  MET d   1     -22.117 -16.490 -23.804  0.00  0.00    -0.173 SA
BRANCH  74  75
ATOM     75  CE  MET d   1     -21.693 -15.994 -25.433  0.00  0.00    -0.035 C 
ATOM     76  H10 MET d   1     -22.587 -15.603 -25.942  0.00  0.00     0.041 H 
ATOM     77  H11 MET d   1     -21.303 -16.859 -25.990  0.00  0.00     0.041 H 
ATOM     78  H12 MET d   1     -20.924 -15.209 -25.389  0.00  0.00     0.041 H 
ENDBRANCH  74  75
ENDBRANCH  71  74
ENDBRANCH  68  71
ENDBRANCH  58  68
ENDBRANCH  55  58
ENDBRANCH  52  54
BRANCH  52  79
ATOM     79  CB  GLU d   1     -18.425 -18.457 -18.299  0.00  0.00    -0.029 C 
ATOM     80  H15 GLU d   1     -18.636 -19.326 -17.659  0.00  0.00     0.037 H 
ATOM     81  H16 GLU d   1     -19.175 -17.674 -18.113  0.00  0.00     0.037 H 
BRANCH  79  82
ATOM     82  CG  GLU d   1     -17.056 -17.908 -17.930  0.00  0.00     0.018 C 
ATOM     83  H17 GLU d   1     -17.154 -16.829 -17.739  0.00  0.00     0.049 H 
ATOM     84  H18 GLU d   1     -16.376 -18.070 -18.779  0.00  0.00     0.049 H 
BRANCH  82  85
ATOM     85  CD  GLU d   1     -16.451 -18.558 -16.702  0.00  0.00     0.172 C 
ATOM     86  OE1 GLU d   1     -16.749 -18.093 -15.578  0.00  0.00    -0.648 OA
ATOM     87  OE2 GLU d   1     -15.701 -19.549 -16.864  0.00  0.00    -0.648 OA
ENDBRANCH  82  85
ENDBRANCH  79  82
ENDBRANCH  52  79
ENDBRANCH  49  52
ENDBRANCH  46  48
BRANCH  46  88
ATOM     88  CB  SER d   1     -20.380 -23.369 -20.366  0.00  0.00     0.044 C 
ATOM     89  H21 SER d   1     -19.552 -23.603 -19.681  0.00  0.00     0.077 H 
ATOM     90  H22 SER d   1     -20.027 -23.438 -21.405  0.00  0.00     0.077 H 
BRANCH  88  91
ATOM     91  OG  SER d   1     -21.418 -24.312 -20.170  0.00  0.00    -0.398 OA
ATOM     92  H23 SER d   1     -21.088 -25.186 -20.344  0.00  0.00     0.209 HD
ENDBRANCH  88  91
ENDBRANCH  46  88
ENDBRANCH  43  46
ENDBRANCH  40  42
BRANCH  40  93
ATOM     93  CB  PHE d   1     -24.135 -20.065 -17.463  0.00  0.00    -0.014 C 
ATOM     94  H26 PHE d   1     -23.147 -19.877 -17.018  0.00  0.00     0.043 H 
ATOM     95  H27 PHE d   1     -24.898 -20.080 -16.670  0.00  0.00     0.043 H 
BRANCH  93  96
ATOM     96  CG  PHE d   1     -24.453 -18.930 -18.402  0.00  0.00    -0.056 A 
ATOM     97  CD1 PHE d   1     -23.442 -18.283 -19.105  0.00  0.00    -0.077 A 
ATOM     98  CE1 PHE d   1     -23.735 -17.248 -19.994  0.00  0.00    -0.082 A 
ATOM     99  H28 PHE d   1     -22.412 -18.587 -18.960  0.00  0.00     0.084 H 
ATOM    100  CZ  PHE d   1     -25.039 -16.842 -20.172  0.00  0.00    -0.083 A 
ATOM    101  H30 PHE d   1     -22.936 -16.764 -20.544  0.00  0.00     0.083 H 
ATOM    102  CE2 PHE d   1     -26.058 -17.470 -19.483  0.00  0.00    -0.082 A 
ATOM    103  H32 PHE d   1     -25.265 -16.029 -20.853  0.00  0.00     0.083 H 
ATOM    104  CD2 PHE d   1     -25.763 -18.505 -18.588  0.00  0.00    -0.077 A 
ATOM    105  H31 PHE d   1     -27.086 -17.162 -19.635  0.00  0.00     0.083 H 
ATOM    106  H29 PHE d   1     -26.565 -18.980 -18.034  0.00  0.00     0.084 H 
ENDBRANCH  93  96
ENDBRANCH  40  93
ENDBRANCH  28  40
ENDBRANCH  23  26
ENDBRANCH  19  22
ENDBRANCH  16  19
ENDBRANCH  13  15
BRANCH  13 107
ATOM    107  CB  TRP d   1     -24.208 -19.845 -22.559  0.00  0.00    -0.012 C 
ATOM    108  H45 TRP d   1     -24.179 -20.039 -21.477  0.00  0.00     0.044 H 
ATOM    109  H46 TRP d   1     -23.448 -19.093 -22.817  0.00  0.00     0.044 H 
BRANCH 107 110
ATOM    110  CG  TRP d   1     -23.864 -21.124 -23.275  0.00  0.00    -0.028 A 
ATOM    111  CD1 TRP d   1     -24.029 -22.395 -22.809  0.00  0.00    -0.015 A 
ATOM    112  NE1 TRP d   1     -23.618 -23.302 -23.757  0.00  0.00    -0.365 N 
ATOM    113  H47 TRP d   1     -24.428 -22.654 -21.829  0.00  0.00     0.112 H 
ATOM    114  CE2 TRP d   1     -23.161 -22.624 -24.859  0.00  0.00     0.042 A 
ATOM    115  H48 TRP d   1     -23.648 -24.327 -23.656  0.00  0.00     0.165 HD
ATOM    116  CD2 TRP d   1     -23.283 -21.245 -24.582  0.00  0.00    -0.002 A 
ATOM    117  CZ2 TRP d   1     -22.625 -23.100 -26.065  0.00  0.00    -0.056 A 
ATOM    118  CE3 TRP d   1     -22.888 -20.317 -25.568  0.00  0.00    -0.070 A 
ATOM    119  CZ3 TRP d   1     -22.395 -20.790 -26.774  0.00  0.00    -0.082 A 
ATOM    120  H49 TRP d   1     -22.969 -19.252 -25.386  0.00  0.00     0.084 H 
ATOM    121  CH2 TRP d   1     -22.245 -22.163 -27.005  0.00  0.00    -0.081 A 
ATOM    122  H51 TRP d   1     -22.121 -20.086 -27.551  0.00  0.00     0.083 H 
ATOM    123  H52 TRP d   1     -21.820 -22.498 -27.944  0.00  0.00     0.083 H 
ATOM    124  H50 TRP d   1     -22.514 -24.162 -26.252  0.00  0.00     0.086 H 
ENDBRANCH 107 110
ENDBRANCH  13 107
ENDBRANCH  10  13
ENDBRANCH   7   9
BRANCH   7 125
ATOM    125  CB  ASN d   1     -27.258 -22.085 -26.461  0.00  0.00     0.036 C 
ATOM    126  H55 ASN d   1     -26.427 -22.798 -26.354  0.00  0.00     0.051 H 
ATOM    127  H56 ASN d   1     -27.689 -22.172 -27.470  0.00  0.00     0.051 H 
BRANCH 125 128
ATOM    128  CG  ASN d   1     -28.322 -22.467 -25.472  0.00  0.00     0.217 C 
ATOM    129  OD1 ASN d   1     -28.092 -22.514 -24.261  0.00  0.00    -0.274 OA
ATOM    130  ND2 ASN d   1     -29.492 -22.823 -25.974  0.00  0.00    -0.370 N 
ATOM    131  H57 ASN d   1     -30.238 -23.088 -25.363  0.00  0.00     0.159 HD
ATOM    132  H58 ASN d   1     -29.631 -22.828 -26.964  0.00  0.00     0.159 HD
ENDBRANCH 125 128
ENDBRANCH   7 125
ENDBRANCH   4   7
ENDBRANCH   1   3
BRANCH   1 133
ATOM    133  C   LEU d   1     -29.186 -16.876 -26.397  0.00  0.00     0.241 C 
ATOM    134  O   LEU d   1     -29.773 -16.052 -27.099  0.00  0.00    -0.271 OA
ATOM    135  N   VAL d   1     -28.075 -16.584 -25.707  0.00  0.00    -0.346 N 
ATOM    136  H70 VAL d   1     -27.636 -17.274 -25.132  0.00  0.00     0.163 HD
BRANCH 135 137
ATOM    137  CA  VAL d   1     -27.521 -15.245 -25.811  0.00  0.00     0.092 C 
ATOM    138  H71 VAL d   1     -28.356 -14.598 -26.119  0.00  0.00     0.088 H 
BRANCH 137 139
ATOM    139  C   VAL d   1     -26.525 -15.229 -26.962  0.00  0.00     0.241 C 
ATOM    140  O   VAL d   1     -26.413 -14.225 -27.664  0.00  0.00    -0.271 OA
ATOM    141  N   HRG d   1     -25.856 -16.369 -27.195  0.00  0.00    -0.346 N 
ATOM    142  H79 HRG d   1     -26.036 -17.156 -26.605  0.00  0.00     0.163 HD
BRANCH 141 143
ATOM    143  CA  HRG d   1     -24.879 -16.514 -28.268  0.00  0.00     0.089 C 
ATOM    144  H80 HRG d   1     -24.117 -15.734 -28.122  0.00  0.00     0.087 H 
BRANCH 143 145
ATOM    145  CB  HRG d   1     -24.153 -17.858 -28.184  0.00  0.00    -0.038 C 
ATOM    146  H81 HRG d   1     -24.900 -18.665 -28.217  0.00  0.00     0.036 H 
ATOM    147  H82 HRG d   1     -23.605 -17.904 -27.231  0.00  0.00     0.036 H 
BRANCH 145 148
ATOM    148  CG' HRG d   1     -23.164 -18.061 -29.327  0.00  0.00    -0.061 C 
ATOM    149  H85 HRG d   1     -23.696 -17.904 -30.277  0.00  0.00     0.033 H 
ATOM    150  H86 HRG d   1     -22.791 -19.095 -29.282  0.00  0.00     0.033 H 
BRANCH 148 151
ATOM    151  CG  HRG d   1     -21.962 -17.114 -29.287  0.00  0.00    -0.050 C 
ATOM    152  H83 HRG d   1     -21.287 -17.415 -28.472  0.00  0.00     0.035 H 
ATOM    153  H84 HRG d   1     -22.313 -16.086 -29.112  0.00  0.00     0.035 H 
BRANCH 151 154
ATOM    154  CD  HRG d   1     -21.211 -17.174 -30.615  0.00  0.00     0.009 C 
ATOM    155  H87 HRG d   1     -21.865 -16.771 -31.402  0.00  0.00     0.064 H 
ATOM    156  H88 HRG d   1     -20.977 -18.226 -30.835  0.00  0.00     0.064 H 
BRANCH 154 157
ATOM    157  NE  HRG d   1     -19.965 -16.415 -30.618  0.00  0.00    -0.227 N 
ATOM    158  CZ  HRG d   1     -19.896 -15.088 -30.769  0.00  0.00     0.665 C 
ATOM    159  NH1 HRG d   1     -20.895 -14.397 -31.327  0.00  0.00    -0.235 N 
ATOM    160  NH2 HRG d   1     -18.874 -14.468 -30.362  0.00  0.00    -0.235 N 
ATOM    161  H90 HRG d   1     -20.819 -13.375 -31.432  0.00  0.00     0.174 HD
ATOM    162  H91 HRG d   1     -21.741 -14.886 -31.651  0.00  0.00     0.174 HD
ATOM    163  H92 HRG d   1     -18.096 -14.986 -29.930  0.00  0.00     0.174 HD
ATOM    164  H93 HRG d   1     -18.819 -13.444 -30.462  0.00  0.00     0.174 HD
ATOM    165  H89 HRG d   1     -19.083 -16.934 -30.496  0.00  0.00     0.177 HD
ENDBRANCH 154 157
ENDBRANCH 151 154
ENDBRANCH 148 151
ENDBRANCH 145 148
ENDBRANCH 143 145
BRANCH 143 166
ATOM    166  C   HRG d   1     -25.519 -16.253 -29.619  0.00  0.00     0.241 C 
ATOM    167  O   HRG d   1     -24.953 -15.527 -30.428  0.00  0.00    -0.271 OA
ATOM    168  N   ILE d   1     -26.718 -16.793 -29.836  0.00  0.00    -0.346 N 
ATOM    169  H94 ILE d   1     -27.124 -17.348 -29.110  0.00  0.00     0.163 HD
BRANCH 168 170
ATOM    170  CA  ILE d   1     -27.471 -16.619 -31.074  0.00  0.00     0.092 C 
ATOM    171  H95 ILE d   1     -26.733 -16.546 -31.886  0.00  0.00     0.088 H 
BRANCH 170 172
ATOM    172  C   ILE d   1     -28.253 -15.297 -31.077  0.00  0.00     0.241 C 
ATOM    173  O   ILE d   1     -28.978 -15.014 -32.021  0.00  0.00    -0.271 OA
ATOM    174  N   GLY d   1     -28.086 -14.506 -30.024  0.00  0.00    -0.351 N 
ATOM    175 5H10 GLY d   1     -27.488 -14.823 -29.288  0.00  0.00     0.163 HD
BRANCH 174 176
ATOM    176  CA  GLY d   1     -28.722 -13.203 -29.877  0.00  0.00     0.069 C 
ATOM    177 6H10 GLY d   1     -28.555 -12.645 -30.810  0.00  0.00     0.078 H 
ATOM    178 7H10 GLY d   1     -28.225 -12.683 -29.045  0.00  0.00     0.078 H 
BRANCH 176 179
ATOM    179  C   GLY d   1     -30.212 -13.193 -29.598  0.00  0.00     0.236 C 
ATOM    180  O   GLY d   1     -30.875 -12.194 -29.886  0.00  0.00    -0.272 OA
ATOM    181  N   LEU d   1     -30.757 -14.284 -29.037  0.00  0.00    -0.346 N 
ATOM    182 8H10 LEU d   1     -30.178 -15.078 -28.853  0.00  0.00     0.163 HD
BRANCH 181 183
ATOM    183  CA  LEU d   1     -32.180 -14.340 -28.687  0.00  0.00     0.089 C 
ATOM    184 9H10 LEU d   1     -32.757 -13.856 -29.489  0.00  0.00     0.087 H 
BRANCH 183 185
ATOM    185  C   LEU d   1     -32.391 -13.567 -27.393  0.00  0.00     0.241 C 
ATOM    186  O   LEU d   1     -33.321 -12.763 -27.313  0.00  0.00    -0.271 OA
ATOM    187  N   LEU d   1     -31.512 -13.795 -26.394  0.00  0.00    -0.346 N 
ATOM    188 9H11 LEU d   1     -30.775 -14.452 -26.553  0.00  0.00     0.163 HD
BRANCH 187 189
ATOM    189  CA  LEU d   1     -31.581 -13.131 -25.089  0.00  0.00     0.089 C 
ATOM    190 0H12 LEU d   1     -32.511 -12.544 -25.063  0.00  0.00     0.087 H 
BRANCH 189 191
ATOM    191  C   LEU d   1     -30.424 -12.171 -24.889  0.00  0.00     0.241 C 
ATOM    192  O   LEU d   1     -29.335 -12.397 -25.422  0.00  0.00    -0.271 OA
ATOM    193  N   ARG d   1     -30.677 -11.076 -24.149  0.00  0.00    -0.345 N 
ATOM    194 0H13 ARG d   1     -31.602 -10.963 -23.787  0.00  0.00     0.163 HD
BRANCH 193 195
ATOM    195  CA  ARG d   1     -29.691 -10.035 -23.835  0.00  0.00     0.096 C 
ATOM    196 1H13 ARG d   1     -28.994  -9.945 -24.681  0.00  0.00     0.089 H 
BRANCH 195 197
ATOM    197  C   ARG d   1     -28.901 -10.430 -22.586  0.00  0.00     0.196 C 
ATOM    198  O   ARG d   1     -27.805 -10.975 -22.694  0.00  0.00    -0.646 OA
ATOM    199  OXT ARG d   1     -29.358 -10.204 -21.468  0.00  0.00    -0.646 OA
ENDBRANCH 195 197
BRANCH 195 200
ATOM    200  CB  ARG d   1     -30.377  -8.673 -23.619  0.00  0.00    -0.035 C 
ATOM    201 2H13 ARG d   1     -29.637  -7.981 -23.192  0.00  0.00     0.036 H 
ATOM    202 3H13 ARG d   1     -31.202  -8.814 -22.905  0.00  0.00     0.036 H 
BRANCH 200 203
ATOM    203  CG  ARG d   1     -30.946  -8.039 -24.882  0.00  0.00    -0.047 C 
ATOM    204 4H13 ARG d   1     -31.660  -8.736 -25.345  0.00  0.00     0.035 H 
ATOM    205 5H13 ARG d   1     -30.124  -7.835 -25.584  0.00  0.00     0.035 H 
BRANCH 203 206
ATOM    206  CD  ARG d   1     -31.659  -6.739 -24.561  0.00  0.00     0.009 C 
ATOM    207 6H13 ARG d   1     -30.925  -6.018 -24.172  0.00  0.00     0.064 H 
ATOM    208 7H13 ARG d   1     -32.424  -6.933 -23.794  0.00  0.00     0.064 H 
BRANCH 206 209
ATOM    209  NE  ARG d   1     -32.307  -6.165 -25.740  0.00  0.00    -0.227 N 
ATOM    210  CZ  ARG d   1     -33.012  -5.038 -25.736  0.00  0.00     0.665 C 
ATOM    211  NH1 ARG d   1     -33.168  -4.348 -24.613  0.00  0.00    -0.235 N 
ATOM    212  NH2 ARG d   1     -33.564  -4.591 -26.855  0.00  0.00    -0.235 N 
ATOM    213 9H13 ARG d   1     -33.715  -3.475 -24.616  0.00  0.00     0.174 HD
ATOM    214 0H14 ARG d   1     -32.742  -4.685 -23.738  0.00  0.00     0.174 HD
ATOM    215 1H14 ARG d   1     -33.449  -5.118 -27.732  0.00  0.00     0.174 HD
ATOM    216 2H14 ARG d   1     -34.108  -3.716 -26.847  0.00  0.00     0.174 HD
ATOM    217 8H13 ARG d   1     -32.211  -6.668 -26.634  0.00  0.00     0.177 HD
ENDBRANCH 206 209
ENDBRANCH 203 206
ENDBRANCH 200 203
ENDBRANCH 195 200
ENDBRANCH 193 195
ENDBRANCH 189 191
BRANCH 189 218
ATOM    218  CB  LEU d   1     -31.641 -14.157 -23.942  0.00  0.00    -0.035 C 
ATOM    219 1H12 LEU d   1     -31.862 -13.605 -23.016  0.00  0.00     0.037 H 
ATOM    220 2H12 LEU d   1     -30.648 -14.623 -23.863  0.00  0.00     0.037 H 
BRANCH 218 221
ATOM    221  CG  LEU d   1     -32.678 -15.293 -24.063  0.00  0.00    -0.059 C 
ATOM    222 3H12 LEU d   1     -32.410 -15.897 -24.942  0.00  0.00     0.038 H 
BRANCH 221 223
ATOM    223  CD1 LEU d   1     -32.629 -16.185 -22.852  0.00  0.00    -0.073 C 
ATOM    224 4H12 LEU d   1     -33.374 -16.987 -22.957  0.00  0.00     0.028 H 
ATOM    225 5H12 LEU d   1     -32.852 -15.594 -21.952  0.00  0.00     0.028 H 
ATOM    226 6H12 LEU d   1     -31.625 -16.626 -22.762  0.00  0.00     0.028 H 
ENDBRANCH 221 223
BRANCH 221 227
ATOM    227  CD2 LEU d   1     -34.109 -14.762 -24.278  0.00  0.00    -0.073 C 
ATOM    228 7H12 LEU d   1     -34.130 -14.112 -25.165  0.00  0.00     0.028 H 
ATOM    229 8H12 LEU d   1     -34.423 -14.186 -23.395  0.00  0.00     0.028 H 
ATOM    230 9H12 LEU d   1     -34.796 -15.608 -24.427  0.00  0.00     0.028 H 
ENDBRANCH 221 227
ENDBRANCH 218 221
ENDBRANCH 189 218
ENDBRANCH 187 189
ENDBRANCH 183 185
BRANCH 183 231
ATOM    231  CB  LEU d   1     -32.686 -15.792 -28.540  0.00  0.00    -0.035 C 
ATOM    232 0H11 LEU d   1     -32.128 -16.257 -27.714  0.00  0.00     0.037 H 
ATOM    233 1H11 LEU d   1     -32.460 -16.320 -29.478  0.00  0.00     0.037 H 
BRANCH 231 234
ATOM    234  CG  LEU d   1     -34.174 -15.977 -28.253  0.00  0.00    -0.059 C 
ATOM    235 2H11 LEU d   1     -34.454 -15.308 -27.426  0.00  0.00     0.038 H 
BRANCH 234 236
ATOM    236  CD1 LEU d   1     -35.010 -15.623 -29.467  0.00  0.00    -0.073 C 
ATOM    237 3H11 LEU d   1     -36.075 -15.765 -29.233  0.00  0.00     0.028 H 
ATOM    238 4H11 LEU d   1     -34.730 -16.274 -30.308  0.00  0.00     0.028 H 
ATOM    239 5H11 LEU d   1     -34.832 -14.573 -29.741  0.00  0.00     0.028 H 
ENDBRANCH 234 236
BRANCH 234 240
ATOM    240  CD2 LEU d   1     -34.466 -17.402 -27.845  0.00  0.00    -0.073 C 
ATOM    241 6H11 LEU d   1     -33.861 -17.663 -26.964  0.00  0.00     0.028 H 
ATOM    242 7H11 LEU d   1     -34.216 -18.079 -28.675  0.00  0.00     0.028 H 
ATOM    243 8H11 LEU d   1     -35.533 -17.502 -27.599  0.00  0.00     0.028 H 
ENDBRANCH 234 240
ENDBRANCH 231 234
ENDBRANCH 183 231
ENDBRANCH 181 183
ENDBRANCH 176 179
ENDBRANCH 174 176
ENDBRANCH 170 172
BRANCH 170 244
ATOM    244  CB  ILE d   1     -28.353 -17.860 -31.393  0.00  0.00    -0.030 C 
ATOM    245  H96 ILE d   1     -28.852 -17.661 -32.353  0.00  0.00     0.043 H 
BRANCH 244 246
ATOM    246  CG1 ILE d   1     -29.474 -18.072 -30.344  0.00  0.00    -0.063 C 
ATOM    247  H97 ILE d   1     -29.926 -17.094 -30.120  0.00  0.00     0.033 H 
ATOM    248  H98 ILE d   1     -29.018 -18.483 -29.431  0.00  0.00     0.033 H 
BRANCH 246 249
ATOM    249  CD1 ILE d   1     -30.572 -19.010 -30.789  0.00  0.00    -0.076 C 
ATOM    250 2H10 ILE d   1     -31.321 -19.103 -29.989  0.00  0.00     0.027 H 
ATOM    251 3H10 ILE d   1     -30.143 -19.999 -31.006  0.00  0.00     0.027 H 
ATOM    252 4H10 ILE d   1     -31.051 -18.610 -31.695  0.00  0.00     0.027 H 
ENDBRANCH 246 249
ENDBRANCH 244 246
BRANCH 244 253
ATOM    253  CG2 ILE d   1     -27.491 -19.116 -31.589  0.00  0.00    -0.071 C 
ATOM    254  H99 ILE d   1     -26.713 -18.913 -32.340  0.00  0.00     0.028 H 
ATOM    255 0H10 ILE d   1     -28.125 -19.946 -31.933  0.00  0.00     0.028 H 
ATOM    256 1H10 ILE d   1     -27.017 -19.388 -30.634  0.00  0.00     0.028 H 
ENDBRANCH 244 253
ENDBRANCH 170 244
ENDBRANCH 168 170
ENDBRANCH 143 166
ENDBRANCH 141 143
ENDBRANCH 137 139
BRANCH 137 257
ATOM    257  CB  VAL d   1     -26.995 -14.605 -24.491  0.00  0.00    -0.033 C 
ATOM    258  H72 VAL d   1     -26.955 -13.517 -24.649  0.00  0.00     0.042 H 
BRANCH 257 259
ATOM    259  CG1 VAL d   1     -27.951 -14.869 -23.338  0.00  0.00    -0.071 C 
ATOM    260  H73 VAL d   1     -27.556 -14.407 -22.421  0.00  0.00     0.028 H 
ATOM    261  H74 VAL d   1     -28.053 -15.954 -23.187  0.00  0.00     0.028 H 
ATOM    262  H75 VAL d   1     -28.935 -14.437 -23.571  0.00  0.00     0.028 H 
ENDBRANCH 257 259
BRANCH 257 263
ATOM    263  CG2 VAL d   1     -25.593 -15.061 -24.135  0.00  0.00    -0.071 C 
ATOM    264  H76 VAL d   1     -24.917 -14.862 -24.980  0.00  0.00     0.028 H 
ATOM    265  H77 VAL d   1     -25.602 -16.140 -23.919  0.00  0.00     0.028 H 
ATOM    266  H78 VAL d   1     -25.243 -14.512 -23.248  0.00  0.00     0.028 H 
ENDBRANCH 257 263
ENDBRANCH 137 257
ENDBRANCH 135 137
ENDBRANCH   1 133
BRANCH   1 267
ATOM    267  CB  LEU d   1     -30.914 -18.427 -25.374  0.00  0.00    -0.035 C 
ATOM    268  H61 LEU d   1     -31.671 -17.690 -25.680  0.00  0.00     0.037 H 
ATOM    269  H62 LEU d   1     -30.571 -18.198 -24.354  0.00  0.00     0.037 H 
BRANCH 267 270
ATOM    270  CG  LEU d   1     -31.577 -19.814 -25.355  0.00  0.00    -0.059 C 
ATOM    271  H63 LEU d   1     -30.790 -20.530 -25.076  0.00  0.00     0.038 H 
BRANCH 270 272
ATOM    272  CD1 LEU d   1     -32.647 -19.911 -24.263  0.00  0.00    -0.073 C 
ATOM    273  H64 LEU d   1     -33.098 -20.914 -24.280  0.00  0.00     0.028 H 
ATOM    274  H65 LEU d   1     -33.426 -19.156 -24.445  0.00  0.00     0.028 H 
ATOM    275  H66 LEU d   1     -32.185 -19.733 -23.280  0.00  0.00     0.028 H 
ENDBRANCH 270 272
BRANCH 270 276
ATOM    276  CD2 LEU d   1     -32.078 -20.256 -26.776  0.00  0.00    -0.073 C 
ATOM    277  H67 LEU d   1     -31.257 -20.158 -27.501  0.00  0.00     0.028 H 
ATOM    278  H68 LEU d   1     -32.917 -19.616 -27.084  0.00  0.00     0.028 H 
ATOM    279  H69 LEU d   1     -32.411 -21.304 -26.738  0.00  0.00     0.028 H 
ENDBRANCH 270 276
ENDBRANCH 267 270
ENDBRANCH   1 267
TORSDOF 75
