REMARK  9 active torsions:
REMARK  status: ('A' for Active; 'I' for Inactive)
REMARK    1  A    between atoms: C14_13  and  C15_1 
REMARK    2  A    between atoms: C14_13  and  C19_2 
REMARK    3  A    between atoms: C33_7  and  C36_19 
REMARK    4  A    between atoms: C2_9  and  C3_10 
REMARK       I    between atoms: N7_11  and  C2_9 
REMARK    5  A    between atoms: N25_15  and  C26_16 
REMARK    6  A    between atoms: C39_21  and  C50_29 
REMARK    7  A    between atoms: C41_23  and  N42_24 
REMARK    8  A    between atoms: N56_33  and  C57_34 
REMARK    9  A    between atoms: C57_34  and  C60_35 
ROOT
ATOM      1  C34 9EM d   1      38.596  12.788  35.854  0.00  0.00    -0.071 A 
ATOM      2  C27 9EM d   1      40.996  13.021  35.844  0.00  0.00    -0.057 A 
ATOM      3  C33 9EM d   1      38.510  13.481  34.649  0.00  0.00    -0.005 A 
ATOM      4  C26 9EM d   1      40.920  13.714  34.634  0.00  0.00     0.038 A 
ATOM      5  C29 9EM d   1      39.832  12.560  36.448  0.00  0.00    -0.080 A 
ATOM      6  C31 9EM d   1      39.675  13.941  34.040  0.00  0.00    -0.045 A 
ATOM      7  H9  9EM d   1      37.694  12.424  36.332  0.00  0.00     0.084 H 
ATOM      8  H10 9EM d   1      41.958  12.843  36.310  0.00  0.00     0.086 H 
ATOM      9  H16 9EM d   1      39.888  12.020  37.386  0.00  0.00     0.083 H 
ATOM     10  H17 9EM d   1      39.616  14.478  33.100  0.00  0.00     0.088 H 
ENDROOT
BRANCH   3  11
ATOM     11  C36 9EM d   1      37.209  13.760  34.002  0.00  0.00     0.070 A 
ATOM     12  C37 9EM d   1      36.209  12.888  33.645  0.00  0.00    -0.040 A 
ATOM     13  C39 9EM d   1      35.144  13.622  33.056  0.00  0.00     0.027 A 
ATOM     14  H18 9EM d   1      36.229  11.809  33.790  0.00  0.00     0.088 H 
ATOM     15  C40 9EM d   1      35.513  14.983  33.056  0.00  0.00     0.117 A 
ATOM     16  C41 9EM d   1      34.970  16.244  32.647  0.00  0.00     0.152 A 
ATOM     17  N49 9EM d   1      36.762  15.044  33.632  0.00  0.00    -0.228 N 
ATOM     18  N45 9EM d   1      35.660  17.362  32.840  0.00  0.00    -0.221 NA
ATOM     19  C46 9EM d   1      36.862  17.279  33.414  0.00  0.00     0.108 A 
ATOM     20  N48 9EM d   1      37.481  16.216  33.828  0.00  0.00    -0.160 NA
ATOM     21  H21 9EM d   1      37.390  18.221  33.552  0.00  0.00     0.149 H 
BRANCH  13  22
ATOM     22  C50 9EM d   1      33.894  13.054  32.559  0.00  0.00     0.067 A 
ATOM     23  C51 9EM d   1      32.621  13.589  32.763  0.00  0.00    -0.036 A 
ATOM     24  C53 9EM d   1      31.759  12.706  32.120  0.00  0.00     0.024 A 
ATOM     25  H22 9EM d   1      32.360  14.497  33.305  0.00  0.00     0.089 H 
ATOM     26  N55 9EM d   1      32.398  11.692  31.550  0.00  0.00    -0.184 NA
ATOM     27  H23 9EM d   1      30.678  12.833  32.088  0.00  0.00     0.117 H 
ATOM     28  N56 9EM d   1      33.721  11.920  31.828  0.00  0.00    -0.261 N 
BRANCH  28  29
ATOM     29  C57 9EM d   1      34.725  10.996  31.326  0.00  0.00     0.107 C 
ATOM     30  H24 9EM d   1      34.459   9.974  31.633  0.00  0.00     0.081 H 
ATOM     31  H25 9EM d   1      35.704  11.263  31.751  0.00  0.00     0.081 H 
BRANCH  29  32
ATOM     32  C60 9EM d   1      34.807  11.054  29.828  0.00  0.00     0.405 C 
ATOM     33  F61 9EM d   1      35.053  12.291  29.409  0.00  0.00    -0.169 F 
ATOM     34  F62 9EM d   1      33.662  10.687  29.258  0.00  0.00    -0.169 F 
ATOM     35  F63 9EM d   1      35.751  10.263  29.321  0.00  0.00    -0.169 F 
ENDBRANCH  29  32
ENDBRANCH  28  29
ENDBRANCH  13  22
BRANCH  16  36
ATOM     36  N42 9EM d   1      33.761  16.335  32.058  0.00  0.00    -0.382 N 
ATOM     37  H19 9EM d   1      33.395  17.255  31.774  0.00  0.00     0.157 HD
ATOM     38  H20 9EM d   1      33.204  15.485  31.892  0.00  0.00     0.157 HD
ENDBRANCH  16  36
ENDBRANCH   3  11
BRANCH   4  39
ATOM     39  N25 9EM d   1      42.096  14.203  33.992  0.00  0.00    -0.314 N 
ATOM     40  C23 9EM d   1      43.072  13.385  33.474  0.00  0.00     0.252 C 
ATOM     41  C14 9EM d   1      44.308  14.010  32.790  0.00  0.00     0.109 C 
ATOM     42  O24 9EM d   1      42.971  12.166  33.544  0.00  0.00    -0.270 OA
ATOM     43  N7  9EM d   1      44.406  15.501  32.927  0.00  0.00    -0.333 N 
ATOM     44  C2  9EM d   1      45.195  16.318  32.116  0.00  0.00     0.216 C 
ATOM     45  C8  9EM d   1      43.598  16.091  34.005  0.00  0.00     0.014 C 
ATOM     46  O1  9EM d   1      45.895  15.864  31.227  0.00  0.00    -0.274 OA
ATOM     47  C11 9EM d   1      42.161  15.669  33.930  0.00  0.00     0.018 C 
ATOM     48  H14 9EM d   1      44.011  15.772  34.973  0.00  0.00     0.067 H 
ATOM     49  H15 9EM d   1      43.650  17.187  33.928  0.00  0.00     0.067 H 
ATOM     50  H7  9EM d   1      41.721  16.019  32.984  0.00  0.00     0.067 H 
ATOM     51  H8  9EM d   1      41.604  16.100  34.775  0.00  0.00     0.067 H 
BRANCH  41  52
ATOM     52  C15 9EM d   1      44.221  13.603  31.319  0.00  0.00    -0.045 C 
ATOM     53  H1  9EM d   1      44.150  12.508  31.245  0.00  0.00     0.031 H 
ATOM     54  H2  9EM d   1      45.121  13.949  30.789  0.00  0.00     0.031 H 
ATOM     55  H3  9EM d   1      43.330  14.059  30.864  0.00  0.00     0.031 H 
ENDBRANCH  41  52
BRANCH  41  56
ATOM     56  C19 9EM d   1      45.548  13.347  33.389  0.00  0.00    -0.045 C 
ATOM     57  H4  9EM d   1      45.635  13.624  34.450  0.00  0.00     0.031 H 
ATOM     58  H5  9EM d   1      46.443  13.686  32.847  0.00  0.00     0.031 H 
ATOM     59  H6  9EM d   1      45.458  12.254  33.301  0.00  0.00     0.031 H 
ENDBRANCH  41  56
BRANCH  44  60
ATOM     60  C3  9EM d   1      45.173  17.796  32.373  0.00  0.00    -0.003 C 
ATOM     61  H11 9EM d   1      44.489  18.013  33.206  0.00  0.00     0.040 H 
ATOM     62  H12 9EM d   1      44.828  18.320  31.470  0.00  0.00     0.040 H 
ATOM     63  H13 9EM d   1      46.186  18.138  32.632  0.00  0.00     0.040 H 
ENDBRANCH  44  60
ENDBRANCH   4  39
TORSDOF 9
