REMARK  2 active torsions:
REMARK  status: ('A' for Active; 'I' for Inactive)
REMARK    1  A    between atoms: N1_6  and  C11_2 
REMARK       I    between atoms: C8_5  and  N1_6 
REMARK       I    between atoms: N7_13  and  C8_5 
REMARK    2  A    between atoms: C4_7  and  N7_13 
ROOT
ATOM      1  C8  9EG d   1      37.531 -12.114   1.317  0.00  0.00     0.325 C 
ATOM      2  N1  9EG d   1      36.566 -12.792   0.641  0.00  0.00    -0.309 N 
ATOM      3  N7  9EG d   1      37.183 -10.900   1.781  0.00  0.00    -0.309 N 
ATOM      4  O9  9EG d   1      38.663 -12.542   1.431  0.00  0.00    -0.247 OA
ATOM      5  H2  9EG d   1      35.620 -12.605   0.905  0.00  0.00     0.170 HD
ATOM      6  H7  9EG d   1      36.211 -10.681   1.693  0.00  0.00     0.170 HD
ENDROOT
BRANCH   2   7
ATOM      7  C11 9EG d   1      36.753 -13.702  -0.362  0.00  0.00     0.038 A 
ATOM      8  C12 9EG d   1      37.966 -14.291  -0.694  0.00  0.00    -0.034 A 
ATOM      9  C13 9EG d   1      38.037 -15.188  -1.760  0.00  0.00     0.058 A 
ATOM     10  H1  9EG d   1      38.858 -14.054  -0.125  0.00  0.00     0.089 H 
ATOM     11 CL2  9EG d   1      39.633 -15.897  -2.164  0.00  0.00    -0.082 Cl
ATOM     12  C14 9EG d   1      36.936 -15.497  -2.526  0.00  0.00     0.055 A 
ATOM     13  C15 9EG d   1      35.713 -14.920  -2.198  0.00  0.00    -0.058 A 
ATOM     14 CL3  9EG d   1      37.023 -16.617  -3.932  0.00  0.00    -0.083 Cl
ATOM     15  C16 9EG d   1      35.643 -14.030  -1.128  0.00  0.00    -0.055 A 
ATOM     16  H8  9EG d   1      34.824 -15.160  -2.769  0.00  0.00     0.086 H 
ATOM     17  H9  9EG d   1      34.688 -13.578  -0.885  0.00  0.00     0.087 H 
ENDBRANCH   2   7
BRANCH   3  18
ATOM     18  C4  9EG d   1      37.938  -9.921   2.351  0.00  0.00     0.036 A 
ATOM     19  C5  9EG d   1      37.245  -8.818   2.869  0.00  0.00    -0.056 A 
ATOM     20  C6  9EG d   1      37.904  -7.753   3.472  0.00  0.00    -0.060 A 
ATOM     21  H3  9EG d   1      36.164  -8.795   2.797  0.00  0.00     0.087 H 
ATOM     22  C1  9EG d   1      39.272  -7.803   3.580  0.00  0.00     0.034 A 
ATOM     23  H4  9EG d   1      37.350  -6.901   3.849  0.00  0.00     0.086 H 
ATOM     24 CL1  9EG d   1      40.131  -6.451   4.315  0.00  0.00    -0.084 Cl
ATOM     25  C2  9EG d   1      39.980  -8.883   3.094  0.00  0.00    -0.060 A 
ATOM     26  C3  9EG d   1      39.320  -9.944   2.480  0.00  0.00    -0.056 A 
ATOM     27  H5  9EG d   1      41.059  -8.906   3.191  0.00  0.00     0.086 H 
ATOM     28  H6  9EG d   1      39.886 -10.788   2.103  0.00  0.00     0.087 H 
ENDBRANCH   3  18
TORSDOF 2
