REMARK WARNING: 32 MAX_TORS EXCEEDED!!!
REMARK  44 active torsions:
REMARK  status: ('A' for Active; 'I' for Inactive)
REMARK    1  A    between atoms: CA_2  and  N_1 
REMARK    2  A    between atoms: C_3  and  CA_2 
REMARK    3  A    between atoms: CA_2  and  CB_5 
REMARK       I    between atoms: N_6  and  C_3 
REMARK    4  A    between atoms: CA_7  and  N_6 
REMARK    5  A    between atoms: C_8  and  CA_7 
REMARK    6  A    between atoms: CA_7  and  CB_10 
REMARK       I    between atoms: N_22  and  C_8 
REMARK    7  A    between atoms: CB_10  and  OG1_11 
REMARK    8  A    between atoms: CB_10  and  CG2_12 
REMARK    9  A    between atoms: CH_14  and  CH3_15 
REMARK       I    between atoms: NZ_16  and  CH_14 
REMARK   10  A    between atoms: CE_17  and  NZ_16 
REMARK   11  A    between atoms: CD_18  and  CE_17 
REMARK   12  A    between atoms: CG_19  and  CD_18 
REMARK   13  A    between atoms: CB_20  and  CG_19 
REMARK   14  A    between atoms: CA_21  and  CB_20 
REMARK   15  A    between atoms: CA_21  and  N_22 
REMARK   16  A    between atoms: C_23  and  CA_21 
REMARK       I    between atoms: N_25  and  C_23 
REMARK   17  A    between atoms: CA_26  and  N_25 
REMARK   18  A    between atoms: C_27  and  CA_26 
REMARK   19  A    between atoms: CA_26  and  CB_29 
REMARK       I    between atoms: N_30  and  C_27 
REMARK   20  A    between atoms: CA_31  and  N_30 
REMARK   21  A    between atoms: C_32  and  CA_31 
REMARK   22  A    between atoms: CA_31  and  CB_34 
REMARK       I    between atoms: N_35  and  C_32 
REMARK   23  A    between atoms: CA_36  and  N_35 
REMARK   24  A    between atoms: C_37  and  CA_36 
REMARK   25  A    between atoms: CA_36  and  CB_39 
REMARK       I    between atoms: N_55  and  C_37 
REMARK   26  A    between atoms: CB_39  and  CG_40 
REMARK   27  A    between atoms: CG_40  and  CD_41 
REMARK   28  A    between atoms: CD_41  and  NE_42 
REMARK       I    between atoms: NE_42  and  CZ_43 
REMARK       I    between atoms: CZ_43  and  NH1_44 
REMARK   29  A    between atoms: CH_47  and  CH3_48 
REMARK       I    between atoms: NZ_49  and  CH_47 
REMARK   30  A    between atoms: CE_50  and  NZ_49 
REMARK   31  A    between atoms: CD_51  and  CE_50 
REMARK   32  A    between atoms: CG_52  and  CD_51 
REMARK   33  A    between atoms: CB_53  and  CG_52 
REMARK   34  A    between atoms: CA_54  and  CB_53 
REMARK   35  A    between atoms: CA_54  and  N_55 
REMARK   36  A    between atoms: CA_54  and  C_56 
REMARK       I    between atoms: C_56  and  N_58 
REMARK   37  A    between atoms: N_58  and  CA_59 
REMARK   38  A    between atoms: CA_59  and  C_60 
REMARK   39  A    between atoms: CA_59  and  CB_62 
REMARK       I    between atoms: C_60  and  N_64 
REMARK   40  A    between atoms: CB_62  and  OG_63 
REMARK   41  A    between atoms: N_64  and  CA_65 
REMARK   42  A    between atoms: CA_65  and  C_66 
REMARK   43  A    between atoms: CA_65  and  CB_68 
REMARK       I    between atoms: C_66  and  N_69 
REMARK   44  A    between atoms: CA_70  and  C_71 
ROOT
ATOM      1  CA  ARG d   1      10.258  15.218 -18.124  0.00  0.00     0.089 C 
ATOM      2  H40 ARG d   1      11.170  15.712 -18.490  0.00  0.00     0.087 H 
ENDROOT
BRANCH   1   3
ATOM      3  N   ARG d   1       9.242  15.265 -19.191  0.00  0.00    -0.346 N 
ATOM      4  C   ALA d   1       9.315  16.134 -20.195  0.00  0.00     0.240 C 
ATOM      5  O   ALA d   1      10.160  17.030 -20.228  0.00  0.00    -0.271 OA
ATOM      6  H39 ARG d   1       8.475  14.624 -19.159  0.00  0.00     0.163 HD
BRANCH   4   7
ATOM      7  CA  ALA d   1       8.275  16.026 -21.323  0.00  0.00     0.086 C 
ATOM      8  H35 ALA d   1       8.642  16.694 -22.116  0.00  0.00     0.086 H 
BRANCH   7   9
ATOM      9  N   ALA d   1       8.113  14.712 -21.973  0.00  0.00    -0.346 N 
ATOM     10  C   ALA d   1       7.470  13.687 -21.408  0.00  0.00     0.240 C 
ATOM     11  O   ALA d   1       7.278  13.590 -20.195  0.00  0.00    -0.271 OA
ATOM     12  H34 ALA d   1       8.505  14.582 -22.884  0.00  0.00     0.163 HD
BRANCH  10  13
ATOM     13  CA  ALA d   1       6.992  12.579 -22.337  0.00  0.00     0.086 C 
ATOM     14  H30 ALA d   1       5.962  12.324 -22.045  0.00  0.00     0.086 H 
BRANCH  13  15
ATOM     15  N   ALA d   1       6.958  13.019 -23.737  0.00  0.00    -0.346 N 
ATOM     16  C   ALY d   1       6.009  13.827 -24.184  0.00  0.00     0.241 C 
ATOM     17  O   ALY d   1       5.233  14.402 -23.433  0.00  0.00    -0.271 OA
ATOM     18  H29 ALA d   1       7.667  12.702 -24.367  0.00  0.00     0.163 HD
BRANCH  16  19
ATOM     19  CA  ALY d   1       5.896  13.988 -25.670  0.00  0.00     0.089 C 
ATOM     20  H27 ALY d   1       6.564  13.276 -26.177  0.00  0.00     0.087 H 
BRANCH  19  21
ATOM     21  CB  ALY d   1       6.212  15.399 -26.157  0.00  0.00    -0.038 C 
ATOM     22  H25 ALY d   1       5.967  16.099 -25.345  0.00  0.00     0.036 H 
ATOM     23  H26 ALY d   1       7.290  15.449 -26.371  0.00  0.00     0.036 H 
BRANCH  21  24
ATOM     24  CG  ALY d   1       5.461  15.855 -27.414  0.00  0.00    -0.061 C 
ATOM     25  H23 ALY d   1       5.693  15.169 -28.242  0.00  0.00     0.033 H 
ATOM     26  H24 ALY d   1       4.379  15.837 -27.215  0.00  0.00     0.033 H 
BRANCH  24  27
ATOM     27  CD  ALY d   1       5.876  17.270 -27.804  0.00  0.00    -0.050 C 
ATOM     28  H21 ALY d   1       5.970  17.882 -26.895  0.00  0.00     0.035 H 
ATOM     29  H22 ALY d   1       6.845  17.232 -28.323  0.00  0.00     0.035 H 
BRANCH  27  30
ATOM     30  CE  ALY d   1       4.847  17.896 -28.720  0.00  0.00    -0.005 C 
ATOM     31  H19 ALY d   1       4.511  17.136 -29.440  0.00  0.00     0.064 H 
ATOM     32  H20 ALY d   1       3.993  18.228 -28.112  0.00  0.00     0.064 H 
BRANCH  30  33
ATOM     33  NZ  ALY d   1       5.352  19.017 -29.445  0.00  0.00    -0.361 N 
ATOM     34  CH  ALY d   1       4.638  19.724 -30.334  0.00  0.00     0.213 C 
ATOM     35  OH  ALY d   1       3.468  19.482 -30.616  0.00  0.00    -0.274 OA
ATOM     36  H18 ALY d   1       6.299  19.293 -29.280  0.00  0.00     0.162 HD
BRANCH  34  37
ATOM     37  CH3 ALY d   1       5.399  20.847 -31.021  0.00  0.00    -0.003 C 
ATOM     38  H15 ALY d   1       6.424  20.892 -30.624  0.00  0.00     0.040 H 
ATOM     39  H16 ALY d   1       4.890  21.804 -30.832  0.00  0.00     0.040 H 
ATOM     40  H17 ALY d   1       5.434  20.657 -32.104  0.00  0.00     0.040 H 
ENDBRANCH  34  37
ENDBRANCH  30  33
ENDBRANCH  27  30
ENDBRANCH  24  27
ENDBRANCH  21  24
ENDBRANCH  19  21
BRANCH  19  41
ATOM     41  N   ALY d   1       4.532  13.691 -25.949  0.00  0.00    -0.346 N 
ATOM     42  C   THR d   1       4.154  12.954 -26.987  0.00  0.00     0.243 C 
ATOM     43  O   THR d   1       4.929  12.645 -27.913  0.00  0.00    -0.271 OA
ATOM     44  H28 ALY d   1       3.829  14.053 -25.337  0.00  0.00     0.163 HD
BRANCH  42  45
ATOM     45  CA  THR d   1       2.648  12.571 -26.996  0.00  0.00     0.113 C 
ATOM     46  H9  THR d   1       2.068  13.506 -27.009  0.00  0.00     0.091 H 
BRANCH  45  47
ATOM     47  N   THR d   1       2.221  11.782 -28.146  0.00  0.00    -0.344 N 
ATOM     48  C   ALA d   1       1.219  12.136 -28.942  0.00  0.00     0.248 C 
ATOM     49  O   ALA d   1       0.659  13.214 -28.857  0.00  0.00    -0.271 OA
ATOM     50  H8  THR d   1       2.708  10.931 -28.345  0.00  0.00     0.163 HD
BRANCH  48  51
ATOM     51  CA  ALA d   1       0.740  11.088 -29.965  0.00  0.00     0.172 C 
ATOM     52  H4  ALA d   1       1.570  10.391 -30.151  0.00  0.00     0.098 H 
BRANCH  51  53
ATOM     53  N   ALA d   1      -0.429  10.295 -29.415  0.00  0.00    -0.067 N 
ATOM     54  H1  ALA d   1      -0.726   9.617 -30.099  0.00  0.00     0.275 HD
ATOM     55  H2  ALA d   1      -1.192  10.921 -29.209  0.00  0.00     0.275 HD
ATOM     56  H3  ALA d   1      -0.146   9.821 -28.572  0.00  0.00     0.275 HD
ENDBRANCH  51  53
BRANCH  51  57
ATOM     57  CB  ALA d   1       0.360  11.740 -31.295  0.00  0.00    -0.042 C 
ATOM     58  H5  ALA d   1       1.217  12.311 -31.681  0.00  0.00     0.030 H 
ATOM     59  H6  ALA d   1      -0.493  12.418 -31.141  0.00  0.00     0.030 H 
ATOM     60  H7  ALA d   1       0.082  10.960 -32.020  0.00  0.00     0.030 H 
ENDBRANCH  51  57
ENDBRANCH  48  51
ENDBRANCH  45  47
BRANCH  45  61
ATOM     61  CB  THR d   1       2.327  11.809 -25.682  0.00  0.00     0.060 C 
ATOM     62  H10 THR d   1       2.794  12.339 -24.839  0.00  0.00     0.086 H 
BRANCH  61  63
ATOM     63  OG1 THR d   1       2.855  10.491 -25.768  0.00  0.00    -0.393 OA
ATOM     64  H11 THR d   1       2.661  10.020 -24.966  0.00  0.00     0.210 HD
ENDBRANCH  61  63
BRANCH  61  65
ATOM     65  CG2 THR d   1       0.818  11.709 -25.436  0.00  0.00    -0.050 C 
ATOM     66  H12 THR d   1       0.635  11.164 -24.498  0.00  0.00     0.031 H 
ATOM     67  H13 THR d   1       0.345  11.171 -26.271  0.00  0.00     0.031 H 
ATOM     68  H14 THR d   1       0.391  12.720 -25.362  0.00  0.00     0.031 H 
ENDBRANCH  61  65
ENDBRANCH  45  61
ENDBRANCH  42  45
ENDBRANCH  19  41
ENDBRANCH  16  19
ENDBRANCH  13  15
BRANCH  13  69
ATOM     69  CB  ALA d   1       7.842  11.321 -22.177  0.00  0.00    -0.049 C 
ATOM     70  H31 ALA d   1       7.849  11.015 -21.120  0.00  0.00     0.030 H 
ATOM     71  H32 ALA d   1       8.871  11.530 -22.505  0.00  0.00     0.030 H 
ATOM     72  H33 ALA d   1       7.418  10.512 -22.790  0.00  0.00     0.030 H 
ENDBRANCH  13  69
ENDBRANCH  10  13
ENDBRANCH   7   9
BRANCH   7  73
ATOM     73  CB  ALA d   1       6.920  16.589 -20.878  0.00  0.00    -0.049 C 
ATOM     74  H36 ALA d   1       7.069  17.567 -20.398  0.00  0.00     0.030 H 
ATOM     75  H37 ALA d   1       6.452  15.897 -20.163  0.00  0.00     0.030 H 
ATOM     76  H38 ALA d   1       6.266  16.707 -21.755  0.00  0.00     0.030 H 
ENDBRANCH   7  73
ENDBRANCH   4   7
ENDBRANCH   1   3
BRANCH   1  77
ATOM     77  C   ARG d   1      10.606  13.750 -17.829  0.00  0.00     0.241 C 
ATOM     78  O   ARG d   1      10.233  12.864 -18.606  0.00  0.00    -0.271 OA
ATOM     79  N   ALY d   1      11.351  13.499 -16.753  0.00  0.00    -0.346 N 
ATOM     80  H65 ALY d   1      11.716  14.274 -16.237  0.00  0.00     0.163 HD
BRANCH  79  81
ATOM     81  CA  ALY d   1      11.663  12.141 -16.286  0.00  0.00     0.089 C 
ATOM     82  H64 ALY d   1      11.673  11.475 -17.161  0.00  0.00     0.087 H 
BRANCH  81  83
ATOM     83  CB  ALY d   1      13.044  12.110 -15.625  0.00  0.00    -0.038 C 
ATOM     84  H62 ALY d   1      13.776  12.528 -16.332  0.00  0.00     0.036 H 
ATOM     85  H63 ALY d   1      13.009  12.735 -14.721  0.00  0.00     0.036 H 
BRANCH  83  86
ATOM     86  CG  ALY d   1      13.511  10.703 -15.222  0.00  0.00    -0.061 C 
ATOM     87  H60 ALY d   1      13.490  10.611 -14.126  0.00  0.00     0.033 H 
ATOM     88  H61 ALY d   1      12.839   9.954 -15.666  0.00  0.00     0.033 H 
BRANCH  86  89
ATOM     89  CD  ALY d   1      14.932  10.471 -15.723  0.00  0.00    -0.050 C 
ATOM     90  H58 ALY d   1      14.921  10.491 -16.823  0.00  0.00     0.035 H 
ATOM     91  H59 ALY d   1      15.570  11.285 -15.348  0.00  0.00     0.035 H 
BRANCH  89  92
ATOM     92  CE  ALY d   1      15.534   9.132 -15.268  0.00  0.00    -0.005 C 
ATOM     93  H56 ALY d   1      15.089   8.863 -14.299  0.00  0.00     0.064 H 
ATOM     94  H57 ALY d   1      15.278   8.365 -16.014  0.00  0.00     0.064 H 
BRANCH  92  95
ATOM     95  NZ  ALY d   1      16.986   9.160 -15.116  0.00  0.00    -0.361 N 
ATOM     96  CH  ALY d   1      17.692   8.078 -14.767  0.00  0.00     0.213 C 
ATOM     97  OH  ALY d   1      17.215   6.941 -14.559  0.00  0.00    -0.274 OA
ATOM     98  H55 ALY d   1      17.471  10.019 -15.279  0.00  0.00     0.162 HD
BRANCH  96  99
ATOM     99  CH3 ALY d   1      19.164   8.372 -14.635  0.00  0.00    -0.003 C 
ATOM    100  H52 ALY d   1      19.348   9.432 -14.865  0.00  0.00     0.040 H 
ATOM    101  H53 ALY d   1      19.728   7.741 -15.337  0.00  0.00     0.040 H 
ATOM    102  H54 ALY d   1      19.490   8.158 -13.607  0.00  0.00     0.040 H 
ENDBRANCH  96  99
ENDBRANCH  92  95
ENDBRANCH  89  92
ENDBRANCH  86  89
ENDBRANCH  83  86
ENDBRANCH  81  83
BRANCH  81 103
ATOM    103  C   ALY d   1      10.649  11.618 -15.304  0.00  0.00     0.241 C 
ATOM    104  O   ALY d   1      10.375  12.235 -14.271  0.00  0.00    -0.271 OA
ATOM    105  N   SER d   1      10.126  10.436 -15.618  0.00  0.00    -0.344 N 
ATOM    106  H66 SER d   1      10.480   9.968 -16.428  0.00  0.00     0.163 HD
BRANCH 105 107
ATOM    107  CA  SER d   1       9.069   9.779 -14.856  0.00  0.00     0.109 C 
ATOM    108  H67 SER d   1       8.494  10.541 -14.309  0.00  0.00     0.090 H 
BRANCH 107 109
ATOM    109  C   SER d   1       9.699   8.823 -13.835  0.00  0.00     0.243 C 
ATOM    110  O   SER d   1      10.906   8.886 -13.601  0.00  0.00    -0.271 OA
ATOM    111  N   ALA d   1       8.876   7.975 -13.217  0.00  0.00    -0.346 N 
ATOM    112  H71 ALA d   1       7.918   7.951 -13.502  0.00  0.00     0.163 HD
BRANCH 111 113
ATOM    113  CA  ALA d   1       9.303   7.080 -12.145  0.00  0.00     0.086 C 
ATOM    114  H72 ALA d   1      10.395   6.958 -12.185  0.00  0.00     0.086 H 
BRANCH 113 115
ATOM    115  C   ALA d   1       8.638   5.712 -12.331  0.00  0.00     0.243 C 
ATOM    116  O   ALA d   1       7.880   5.533 -13.291  0.00  0.00    -0.271 OA
ATOM    117  N   PRO d   1       8.932   4.738 -11.436  0.00  0.00    -0.336 N 
ATOM    118  CA  PRO d   1       8.193   3.449 -11.416  0.00  0.00     0.098 C 
ATOM    119  CD  PRO d   1      10.181   4.658 -10.651  0.00  0.00    -0.001 C 
ATOM    120  CB  PRO d   1       9.099   2.523 -10.581  0.00  0.00    -0.035 C 
ATOM    121  H76 PRO d   1       8.109   3.070 -12.445  0.00  0.00     0.089 H 
ATOM    122  CG  PRO d   1      10.438   3.185 -10.545  0.00  0.00    -0.048 C 
ATOM    123  H77 PRO d   1       9.174   1.533 -11.054  0.00  0.00     0.036 H 
ATOM    124  H78 PRO d   1       8.699   2.413  -9.562  0.00  0.00     0.036 H 
ATOM    125  H79 PRO d   1      11.055   2.844 -11.390  0.00  0.00     0.035 H 
ATOM    126  H80 PRO d   1      10.952   2.955  -9.600  0.00  0.00     0.035 H 
ATOM    127  H81 PRO d   1      10.048   5.106  -9.655  0.00  0.00     0.064 H 
ATOM    128  H82 PRO d   1      11.006   5.164 -11.174  0.00  0.00     0.064 H 
BRANCH 118 129
ATOM    129  C   PRO d   1       6.774   3.486 -10.814  0.00  0.00     0.196 C 
ATOM    130  O   PRO d   1       6.401   4.436 -10.130  0.00  0.00    -0.646 OA
ATOM    131  OXT PRO d   1       5.982   2.566 -11.004  0.00  0.00    -0.646 OA
ENDBRANCH 118 129
ENDBRANCH 113 115
BRANCH 113 132
ATOM    132  CB  ALA d   1       8.917   7.688 -10.797  0.00  0.00    -0.049 C 
ATOM    133  H73 ALA d   1       9.237   7.016  -9.987  0.00  0.00     0.030 H 
ATOM    134  H74 ALA d   1       7.826   7.821 -10.754  0.00  0.00     0.030 H 
ATOM    135  H75 ALA d   1       9.410   8.664 -10.680  0.00  0.00     0.030 H 
ENDBRANCH 113 132
ENDBRANCH 111 113
ENDBRANCH 107 109
BRANCH 107 136
ATOM    136  CB  SER d   1       8.116   9.056 -15.831  0.00  0.00     0.044 C 
ATOM    137  H68 SER d   1       7.233   8.701 -15.278  0.00  0.00     0.077 H 
ATOM    138  H69 SER d   1       8.638   8.197 -16.278  0.00  0.00     0.077 H 
BRANCH 136 139
ATOM    139  OG  SER d   1       7.699   9.936 -16.861  0.00  0.00    -0.398 OA
ATOM    140  H70 SER d   1       7.114   9.476 -17.451  0.00  0.00     0.209 HD
ENDBRANCH 136 139
ENDBRANCH 107 136
ENDBRANCH 105 107
ENDBRANCH  81 103
ENDBRANCH  79  81
ENDBRANCH   1  77
BRANCH   1 141
ATOM    141  CB  ARG d   1       9.771  16.002 -16.880  0.00  0.00    -0.036 C 
ATOM    142  H41 ARG d   1       9.972  17.069 -17.055  0.00  0.00     0.036 H 
ATOM    143  H42 ARG d   1      10.354  15.656 -16.014  0.00  0.00     0.036 H 
BRANCH 141 144
ATOM    144  CG  ARG d   1       8.285  15.855 -16.534  0.00  0.00    -0.048 C 
ATOM    145  H43 ARG d   1       8.024  14.786 -16.531  0.00  0.00     0.035 H 
ATOM    146  H44 ARG d   1       7.688  16.376 -17.297  0.00  0.00     0.035 H 
BRANCH 144 147
ATOM    147  CD  ARG d   1       7.960  16.449 -15.159  0.00  0.00     0.009 C 
ATOM    148  H45 ARG d   1       7.954  17.546 -15.245  0.00  0.00     0.064 H 
ATOM    149  H46 ARG d   1       8.744  16.141 -14.452  0.00  0.00     0.064 H 
BRANCH 147 150
ATOM    150  NE  ARG d   1       6.659  16.016 -14.629  0.00  0.00    -0.227 N 
ATOM    151  CZ  ARG d   1       6.377  14.800 -14.141  0.00  0.00     0.665 C 
ATOM    152  NH1 ARG d   1       7.306  13.838 -14.101  0.00  0.00    -0.235 N 
ATOM    153  NH2 ARG d   1       5.143  14.542 -13.691  0.00  0.00    -0.235 N 
ATOM    154  H48 ARG d   1       7.070  12.910 -13.722  0.00  0.00     0.174 HD
ATOM    155  H49 ARG d   1       8.257  14.026 -14.449  0.00  0.00     0.174 HD
ATOM    156  H50 ARG d   1       4.421  15.276 -13.718  0.00  0.00     0.174 HD
ATOM    157  H51 ARG d   1       4.915  13.609 -13.318  0.00  0.00     0.174 HD
ATOM    158  H47 ARG d   1       5.897  16.709 -14.633  0.00  0.00     0.177 HD
ENDBRANCH 147 150
ENDBRANCH 144 147
ENDBRANCH 141 144
ENDBRANCH   1 141
TORSDOF 44
