REMARK  14 active torsions:
REMARK  status: ('A' for Active; 'I' for Inactive)
REMARK    1  A    between atoms: C6_5  and  N1_21 
REMARK    2  A    between atoms: C10_7  and  N2_27 
REMARK    3  A    between atoms: N5_30  and  C12_9 
REMARK    4  A    between atoms: N5_30  and  C14_11 
REMARK    5  A    between atoms: C21_12  and  O2_37 
REMARK    6  A    between atoms: O2_37  and  C22_13 
REMARK    7  A    between atoms: C25_15  and  C26_16 
REMARK       I    between atoms: N7_18  and  C25_15 
REMARK    8  A    between atoms: C26_16  and  C27_17 
REMARK    9  A    between atoms: C24_19  and  N7_18 
REMARK   10  A    between atoms: N_22  and  C1_23 
REMARK   11  A    between atoms: C1_23  and  C_24 
REMARK       I    between atoms: C15_31  and  N5_30 
REMARK       I    between atoms: N6_33  and  C15_31 
REMARK   12  A    between atoms: C16_34  and  N6_33 
REMARK   13  A    between atoms: C18_39  and  O1_42 
REMARK   14  A    between atoms: O1_42  and  C19_43 
ROOT
ATOM      1  C6  9ES d   1      20.543 -24.514  -6.508  0.00  0.00     0.032 A 
ATOM      2  C9  9ES d   1      18.523 -26.277  -7.569  0.00  0.00     0.060 A 
ATOM      3  C24 9ES d   1      18.309 -25.626  -6.233  0.00  0.00     0.064 A 
ATOM      4  C28 9ES d   1      19.365 -24.798  -5.766  0.00  0.00    -0.029 A 
ATOM      5  C8  9ES d   1      19.694 -25.943  -8.272  0.00  0.00    -0.053 A 
ATOM      6  C7  9ES d   1      20.688 -25.093  -7.775  0.00  0.00    -0.055 A 
ATOM      7  N2  9ES d   1      17.575 -26.912  -8.300  0.00  0.00    -0.339 N 
ATOM      8  H23 9ES d   1      19.266 -24.355  -4.782  0.00  0.00     0.090 H 
ATOM      9  H30 9ES d   1      19.835 -26.370  -9.258  0.00  0.00     0.087 H 
ATOM     10  H31 9ES d   1      21.569 -24.883  -8.370  0.00  0.00     0.087 H 
ATOM     11  H32 9ES d   1      17.332 -27.878  -8.037  0.00  0.00     0.167 HD
ENDROOT
BRANCH   3  12
ATOM     12  N7  9ES d   1      17.235 -25.712  -5.391  0.00  0.00    -0.325 N 
ATOM     13  C25 9ES d   1      16.071 -26.371  -5.431  0.00  0.00     0.221 C 
ATOM     14  O3  9ES d   1      15.528 -26.705  -4.383  0.00  0.00    -0.273 OA
ATOM     15  H22 9ES d   1      17.343 -25.161  -4.563  0.00  0.00     0.169 HD
BRANCH  13  16
ATOM     16  C26 9ES d   1      15.385 -26.837  -6.673  0.00  0.00     0.006 C 
ATOM     17  H17 9ES d   1      15.873 -27.762  -7.013  0.00  0.00     0.046 H 
ATOM     18  H18 9ES d   1      15.495 -26.059  -7.443  0.00  0.00     0.046 H 
BRANCH  16  19
ATOM     19  C27 9ES d   1      13.905 -27.118  -6.483  0.00  0.00    -0.068 C 
ATOM     20  H19 9ES d   1      13.470 -27.455  -7.436  0.00  0.00     0.028 H 
ATOM     21  H20 9ES d   1      13.397 -26.200  -6.153  0.00  0.00     0.028 H 
ATOM     22  H21 9ES d   1      13.775 -27.903  -5.723  0.00  0.00     0.028 H 
ENDBRANCH  16  19
ENDBRANCH  13  16
ENDBRANCH   3  12
BRANCH   7  23
ATOM     23  C10 9ES d   1      16.928 -26.363  -9.349  0.00  0.00     0.133 A 
ATOM     24  C11 9ES d   1      17.098 -25.094  -9.918  0.00  0.00     0.006 A 
ATOM     25  C12 9ES d   1      16.334 -24.742 -11.027  0.00  0.00     0.138 A 
ATOM     26  H9  9ES d   1      17.815 -24.396  -9.500  0.00  0.00     0.095 H 
ATOM     27  N3  9ES d   1      15.479 -25.678 -11.478  0.00  0.00    -0.224 NA
ATOM     28  C13 9ES d   1      15.345 -26.887 -10.928  0.00  0.00     0.091 A 
ATOM     29  N4  9ES d   1      16.022 -27.251  -9.845  0.00  0.00    -0.224 NA
ATOM     30  H10 9ES d   1      14.661 -27.595 -11.381  0.00  0.00     0.146 H 
BRANCH  25  31
ATOM     31  N5  9ES d   1      16.409 -23.520 -11.773  0.00  0.00    -0.288 N 
ATOM     32  C15 9ES d   1      15.788 -23.373 -12.990  0.00  0.00     0.328 C 
ATOM     33  O   9ES d   1      15.810 -22.327 -13.594  0.00  0.00    -0.246 OA
ATOM     34  N6  9ES d   1      15.138 -24.438 -13.472  0.00  0.00    -0.305 N 
ATOM     35  H33 9ES d   1      15.104 -25.243 -12.880  0.00  0.00     0.171 HD
BRANCH  31  36
ATOM     36  C14 9ES d   1      17.100 -22.437 -11.064  0.00  0.00    -0.008 C 
ATOM     37  H11 9ES d   1      17.508 -22.820 -10.117  0.00  0.00     0.057 H 
ATOM     38  H12 9ES d   1      16.390 -21.624 -10.855  0.00  0.00     0.057 H 
ATOM     39  H13 9ES d   1      17.921 -22.055 -11.689  0.00  0.00     0.057 H 
ENDBRANCH  31  36
BRANCH  34  40
ATOM     40  C16 9ES d   1      14.512 -24.550 -14.691  0.00  0.00     0.085 A 
ATOM     41  C23 9ES d   1      15.138 -25.285 -15.747  0.00  0.00     0.096 A 
ATOM     42  C21 9ES d   1      14.669 -25.338 -17.097  0.00  0.00     0.095 A 
ATOM     43 CL1  9ES d   1      16.576 -26.220 -15.361  0.00  0.00    -0.079 Cl
ATOM     44  C20 9ES d   1      13.570 -24.597 -17.487  0.00  0.00    -0.015 A 
ATOM     45  C18 9ES d   1      12.898 -23.826 -16.534  0.00  0.00     0.095 A 
ATOM     46  H34 9ES d   1      13.234 -24.613 -18.517  0.00  0.00     0.092 H 
ATOM     47  C17 9ES d   1      13.387 -23.748 -15.157  0.00  0.00     0.096 A 
ATOM     48 CL   9ES d   1      12.540 -22.833 -13.927  0.00  0.00    -0.079 Cl
BRANCH  42  49
ATOM     49  O2  9ES d   1      15.387 -26.160 -17.913  0.00  0.00    -0.354 OA
BRANCH  49  50
ATOM     50  C22 9ES d   1      14.908 -26.439 -19.217  0.00  0.00     0.010 C 
ATOM     51  H14 9ES d   1      15.610 -27.114 -19.729  0.00  0.00     0.066 H 
ATOM     52  H15 9ES d   1      14.822 -25.501 -19.785  0.00  0.00     0.066 H 
ATOM     53  H16 9ES d   1      13.920 -26.919 -19.150  0.00  0.00     0.066 H 
ENDBRANCH  49  50
ENDBRANCH  42  49
BRANCH  45  54
ATOM     54  O1  9ES d   1      11.792 -23.120 -16.817  0.00  0.00    -0.354 OA
BRANCH  54  55
ATOM     55  C19 9ES d   1      11.124 -23.211 -18.107  0.00  0.00     0.010 C 
ATOM     56  H35 9ES d   1      10.246 -22.549 -18.113  0.00  0.00     0.066 H 
ATOM     57  H36 9ES d   1      10.802 -24.248 -18.281  0.00  0.00     0.066 H 
ATOM     58  H37 9ES d   1      11.819 -22.904 -18.902  0.00  0.00     0.066 H 
ENDBRANCH  54  55
ENDBRANCH  45  54
ENDBRANCH  34  40
ENDBRANCH  25  31
ENDBRANCH   7  23
BRANCH   1  59
ATOM     59  N1  9ES d   1      21.610 -23.712  -6.003  0.00  0.00    -0.378 N 
ATOM     60  C3  9ES d   1      21.982 -23.863  -4.573  0.00  0.00     0.018 C 
ATOM     61  C2  9ES d   1      22.484 -22.533  -4.012  0.00  0.00     0.098 C 
ATOM     62  H3  9ES d   1      21.100 -24.188  -4.001  0.00  0.00     0.066 H 
ATOM     63  H4  9ES d   1      22.777 -24.618  -4.483  0.00  0.00     0.066 H 
ATOM     64  N   9ES d   1      23.685 -22.182  -4.799  0.00  0.00    -0.068 N 
ATOM     65  H1  9ES d   1      22.743 -22.641  -2.948  0.00  0.00     0.078 H 
ATOM     66  H2  9ES d   1      21.713 -21.756  -4.125  0.00  0.00     0.078 H 
ATOM     67  C5  9ES d   1      23.251 -21.795  -6.162  0.00  0.00     0.098 C 
ATOM     68  H24 9ES d   1      24.266 -23.002  -4.870  0.00  0.00     0.280 HD
ATOM     69  C4  9ES d   1      22.422 -22.868  -6.902  0.00  0.00     0.018 C 
ATOM     70  H7  9ES d   1      22.640 -20.884  -6.082  0.00  0.00     0.078 H 
ATOM     71  H8  9ES d   1      24.149 -21.582  -6.761  0.00  0.00     0.078 H 
ATOM     72  H5  9ES d   1      23.113 -23.518  -7.459  0.00  0.00     0.066 H 
ATOM     73  H6  9ES d   1      21.747 -22.361  -7.607  0.00  0.00     0.066 H 
BRANCH  64  74
ATOM     74  C1  9ES d   1      24.493 -21.113  -4.164  0.00  0.00     0.080 C 
ATOM     75  H25 9ES d   1      24.001 -20.791  -3.234  0.00  0.00     0.075 H 
ATOM     76  H26 9ES d   1      24.570 -20.259  -4.853  0.00  0.00     0.075 H 
BRANCH  74  77
ATOM     77  C   9ES d   1      25.883 -21.621  -3.843  0.00  0.00    -0.053 C 
ATOM     78  H27 9ES d   1      26.468 -20.817  -3.373  0.00  0.00     0.029 H 
ATOM     79  H28 9ES d   1      26.380 -21.942  -4.771  0.00  0.00     0.029 H 
ATOM     80  H29 9ES d   1      25.811 -22.474  -3.152  0.00  0.00     0.029 H 
ENDBRANCH  74  77
ENDBRANCH  64  74
ENDBRANCH   1  59
TORSDOF 14
