REMARK  8 active torsions:
REMARK  status: ('A' for Active; 'I' for Inactive)
REMARK    1  A    between atoms: C17_2  and  N21_25 
REMARK    2  A    between atoms: C17_2  and  C28_28 
REMARK    3  A    between atoms: C16_3  and  C20_6 
REMARK    4  A    between atoms: C16_3  and  C22_7 
REMARK    5  A    between atoms: N10_21  and  C15_4 
REMARK    6  A    between atoms: C5_16  and  C11_10 
REMARK       I    between atoms: C11_10  and  N12_22 
REMARK    7  A    between atoms: C6_17  and  N10_21 
REMARK    8  A    between atoms: C8_19  and  C14_24 
ROOT
ATOM      1  C1  9J4 d   1      -1.121 -15.357  -3.597  0.00  0.00     0.086 A 
ATOM      2  N2  9J4 d   1      -2.408 -14.970  -3.227  0.00  0.00    -0.242 N 
ATOM      3  N3  9J4 d   1      -2.872 -13.687  -3.086  0.00  0.00    -0.179 NA
ATOM      4  C4  9J4 d   1      -1.984 -12.787  -3.347  0.00  0.00     0.040 A 
ATOM      5  C5  9J4 d   1      -0.639 -12.981  -3.754  0.00  0.00     0.079 A 
ATOM      6  C6  9J4 d   1      -0.179 -14.308  -3.883  0.00  0.00     0.074 A 
ATOM      7  C7  9J4 d   1      -1.137 -16.754  -3.618  0.00  0.00    -0.041 A 
ATOM      8  C8  9J4 d   1      -2.474 -17.175  -3.259  0.00  0.00    -0.006 A 
ATOM      9  C9  9J4 d   1      -3.220 -16.044  -3.038  0.00  0.00     0.015 A 
ATOM     10  H15 9J4 d   1      -2.307 -11.752  -3.242  0.00  0.00     0.119 H 
ATOM     11  H16 9J4 d   1      -0.298 -17.405  -3.860  0.00  0.00     0.088 H 
ATOM     12  H17 9J4 d   1      -4.273 -16.013  -2.761  0.00  0.00     0.116 H 
ENDROOT
BRANCH   6  13
ATOM     13  N10 9J4 d   1       1.096 -14.550  -4.181  0.00  0.00    -0.382 N 
ATOM     14  H18 9J4 d   1       1.760 -13.805  -3.927  0.00  0.00     0.160 HD
BRANCH  13  15
ATOM     15  C15 9J4 d   1       1.678 -15.717  -4.813  0.00  0.00     0.019 C 
ATOM     16  C16 9J4 d   1       2.186 -15.520  -6.245  0.00  0.00     0.005 C 
ATOM     17  C17 9J4 d   1       2.899 -16.933  -6.355  0.00  0.00     0.129 C 
ATOM     18  C18 9J4 d   1       3.706 -17.030  -5.042  0.00  0.00    -0.032 C 
ATOM     19  C19 9J4 d   1       2.896 -16.205  -4.030  0.00  0.00    -0.043 C 
ATOM     20  H1  9J4 d   1       4.713 -16.606  -5.172  0.00  0.00     0.036 H 
ATOM     21  H2  9J4 d   1       3.789 -18.076  -4.713  0.00  0.00     0.036 H 
ATOM     22  H4  9J4 d   1       3.487 -15.353  -3.662  0.00  0.00     0.036 H 
ATOM     23  H5  9J4 d   1       2.586 -16.830  -3.180  0.00  0.00     0.036 H 
ATOM     24  H3  9J4 d   1       0.908 -16.503  -4.822  0.00  0.00     0.073 H 
BRANCH  16  25
ATOM     25  C20 9J4 d   1       3.099 -14.291  -6.474  0.00  0.00    -0.065 C 
ATOM     26  H6  9J4 d   1       3.401 -14.251  -7.531  0.00  0.00     0.028 H 
ATOM     27  H7  9J4 d   1       3.994 -14.376  -5.840  0.00  0.00     0.028 H 
ATOM     28  H8  9J4 d   1       2.551 -13.373  -6.214  0.00  0.00     0.028 H 
ENDBRANCH  16  25
BRANCH  16  29
ATOM     29  C22 9J4 d   1       1.018 -15.353  -7.230  0.00  0.00    -0.065 C 
ATOM     30  H9  9J4 d   1       0.323 -16.199  -7.122  0.00  0.00     0.028 H 
ATOM     31  H10 9J4 d   1       1.407 -15.327  -8.259  0.00  0.00     0.028 H 
ATOM     32  H11 9J4 d   1       0.488 -14.413  -7.015  0.00  0.00     0.028 H 
ENDBRANCH  16  29
BRANCH  17  33
ATOM     33  N21 9J4 d   1       3.856 -17.027  -7.479  0.00  0.00    -0.070 N 
ATOM     34  H21 9J4 d   1       4.271 -17.945  -7.491  0.00  0.00     0.275 HD
ATOM     35  H22 9J4 d   1       4.578 -16.333  -7.364  0.00  0.00     0.275 HD
ATOM     36  H23 9J4 d   1       3.371 -16.866  -8.348  0.00  0.00     0.275 HD
ENDBRANCH  17  33
BRANCH  17  37
ATOM     37  C28 9J4 d   1       1.983 -18.139  -6.529  0.00  0.00    -0.045 C 
ATOM     38  H26 9J4 d   1       1.232 -18.148  -5.726  0.00  0.00     0.030 H 
ATOM     39  H27 9J4 d   1       2.579 -19.062  -6.483  0.00  0.00     0.030 H 
ATOM     40  H28 9J4 d   1       1.477 -18.078  -7.504  0.00  0.00     0.030 H 
ENDBRANCH  17  37
ENDBRANCH  13  15
ENDBRANCH   6  13
BRANCH   5  41
ATOM     41  C11 9J4 d   1       0.256 -11.804  -3.999  0.00  0.00     0.253 C 
ATOM     42  N12 9J4 d   1      -0.151 -10.611  -3.577  0.00  0.00    -0.366 N 
ATOM     43  H19 9J4 d   1       0.423  -9.806  -3.725  0.00  0.00     0.159 HD
ATOM     44  H20 9J4 d   1      -1.031 -10.519  -3.111  0.00  0.00     0.159 HD
ATOM     45  O13 9J4 d   1       1.350 -11.928  -4.575  0.00  0.00    -0.268 OA
ENDBRANCH   5  41
BRANCH   8  46
ATOM     46  C14 9J4 d   1      -3.018 -18.548  -3.081  0.00  0.00    -0.025 A 
ATOM     47  C23 9J4 d   1      -4.122 -18.772  -2.253  0.00  0.00    -0.072 A 
ATOM     48  C24 9J4 d   1      -4.687 -20.036  -2.151  0.00  0.00    -0.082 A 
ATOM     49  H12 9J4 d   1      -4.541 -17.950  -1.685  0.00  0.00     0.084 H 
ATOM     50  C25 9J4 d   1      -4.165 -21.094  -2.873  0.00  0.00    -0.083 A 
ATOM     51  H13 9J4 d   1      -5.541 -20.195  -1.503  0.00  0.00     0.083 H 
ATOM     52  C26 9J4 d   1      -3.075 -20.888  -3.699  0.00  0.00    -0.082 A 
ATOM     53  H24 9J4 d   1      -4.608 -22.080  -2.792  0.00  0.00     0.083 H 
ATOM     54  C27 9J4 d   1      -2.497 -19.625  -3.798  0.00  0.00    -0.072 A 
ATOM     55  H25 9J4 d   1      -2.669 -21.714  -4.272  0.00  0.00     0.083 H 
ATOM     56  H14 9J4 d   1      -1.635 -19.477  -4.438  0.00  0.00     0.084 H 
ENDBRANCH   8  46
TORSDOF 8
