REMARK  6 active torsions:
REMARK  status: ('A' for Active; 'I' for Inactive)
REMARK    1  A    between atoms: CBD_1  and  NBC_2 
REMARK       I    between atoms: NBC_2  and  CBA_3 
REMARK    2  A    between atoms: CBA_3  and  CAC_5 
REMARK    3  A    between atoms: CAE_10  and  CAG_11 
REMARK       I    between atoms: NAP_17  and  CAQ_18 
REMARK    4  A    between atoms: CAQ_18  and  CAS_20 
REMARK    5  A    between atoms: CAO_21  and  CBE_22 
REMARK       I    between atoms: NAM_24  and  CAT_25 
REMARK    6  A    between atoms: CAT_25  and  CAV_27 
ROOT
ATOM      1  CAG 9GY d   1       8.759  18.828  -6.756  0.00  0.00    -0.024 A 
ATOM      2  CAH 9GY d   1      10.085  18.684  -6.300  0.00  0.00    -0.044 A 
ATOM      3  CAI 9GY d   1      11.060  18.031  -7.077  0.00  0.00     0.065 A 
ATOM      4  CAL 9GY d   1       8.486  18.361  -8.049  0.00  0.00    -0.070 A 
ATOM      5  CAK 9GY d   1       9.457  17.763  -8.861  0.00  0.00    -0.054 A 
ATOM      6  CAJ 9GY d   1      10.763  17.590  -8.368  0.00  0.00     0.064 A 
ATOM      7  NAP 9GY d   1      11.782  17.026  -9.076  0.00  0.00    -0.310 N 
ATOM      8  CAQ 9GY d   1      11.698  15.902  -9.833  0.00  0.00     0.220 C 
ATOM      9  OAR 9GY d   1      12.667  15.462 -10.446  0.00  0.00    -0.273 OA
ATOM     10  CAO 9GY d   1      13.144  17.696  -9.001  0.00  0.00     0.032 C 
ATOM     11  CAN 9GY d   1      13.288  18.522  -7.695  0.00  0.00     0.022 C 
ATOM     12  NAM 9GY d   1      12.368  17.914  -6.683  0.00  0.00    -0.308 N 
ATOM     13  CAT 9GY d   1      12.902  17.508  -5.496  0.00  0.00     0.282 C 
ATOM     14  OAU 9GY d   1      14.125  17.619  -5.340  0.00  0.00    -0.265 OA
ATOM     15  H9  9GY d   1      10.359  19.084  -5.331  0.00  0.00     0.088 H 
ATOM     16  H10 9GY d   1       7.479  18.468  -8.437  0.00  0.00     0.084 H 
ATOM     17  H11 9GY d   1       9.204  17.436  -9.863  0.00  0.00     0.087 H 
ATOM     18  H15 9GY d   1      13.906  16.903  -8.978  0.00  0.00     0.075 H 
ATOM     19  H19 9GY d   1      13.007  19.570  -7.879  0.00  0.00     0.068 H 
ATOM     20  H20 9GY d   1      14.326  18.479  -7.334  0.00  0.00     0.068 H 
ENDROOT
BRANCH   1  21
ATOM     21  CAE 9GY d   1       7.740  19.458  -6.000  0.00  0.00    -0.025 A 
ATOM     22  CAD 9GY d   1       6.376  19.207  -6.256  0.00  0.00    -0.057 A 
ATOM     23  CAC 9GY d   1       5.365  19.880  -5.541  0.00  0.00     0.032 A 
ATOM     24  H5  9GY d   1       6.101  18.484  -7.016  0.00  0.00     0.086 H 
ATOM     25  CAB 9GY d   1       5.730  20.801  -4.551  0.00  0.00    -0.068 A 
ATOM     26  CAA 9GY d   1       7.077  21.071  -4.275  0.00  0.00    -0.081 A 
ATOM     27  H6  9GY d   1       4.958  21.314  -3.989  0.00  0.00     0.085 H 
ATOM     28  CAF 9GY d   1       8.072  20.413  -5.023  0.00  0.00    -0.072 A 
ATOM     29  H7  9GY d   1       7.349  21.776  -3.498  0.00  0.00     0.083 H 
ATOM     30  H8  9GY d   1       9.115  20.647  -4.842  0.00  0.00     0.084 H 
BRANCH  23  31
ATOM     31  CBA 9GY d   1       3.990  19.629  -5.743  0.00  0.00     0.251 C 
ATOM     32  NBC 9GY d   1       3.217  20.700  -5.949  0.00  0.00    -0.361 N 
ATOM     33  H4  9GY d   1       3.615  21.616  -6.005  0.00  0.00     0.162 HD
ATOM     34  OBB 9GY d   1       3.533  18.489  -5.692  0.00  0.00    -0.268 OA
BRANCH  32  35
ATOM     35  CBD 9GY d   1       1.753  20.496  -6.092  0.00  0.00    -0.018 C 
ATOM     36  H1  9GY d   1       1.262  21.467  -6.255  0.00  0.00     0.056 H 
ATOM     37  H2  9GY d   1       1.356  20.033  -5.176  0.00  0.00     0.056 H 
ATOM     38  H3  9GY d   1       1.557  19.837  -6.951  0.00  0.00     0.056 H 
ENDBRANCH  32  35
ENDBRANCH  23  31
ENDBRANCH   1  21
BRANCH  13  39
ATOM     39  CAV 9GY d   1      12.237  16.865  -4.525  0.00  0.00     0.142 A 
ATOM     40  OAW 9GY d   1      10.960  16.370  -4.588  0.00  0.00    -0.317 OA
ATOM     41  CAX 9GY d   1      10.745  15.746  -3.345  0.00  0.00     0.020 A 
ATOM     42  CAY 9GY d   1      11.863  15.875  -2.623  0.00  0.00    -0.059 A 
ATOM     43  H21 9GY d   1       9.831  15.247  -3.028  0.00  0.00     0.123 H 
ATOM     44  CAZ 9GY d   1      12.763  16.553  -3.335  0.00  0.00    -0.043 A 
ATOM     45  H22 9GY d   1      12.014  15.489  -1.616  0.00  0.00     0.086 H 
ATOM     46  H23 9GY d   1      13.767  16.812  -3.001  0.00  0.00     0.088 H 
ENDBRANCH  13  39
BRANCH   8  47
ATOM     47  CAS 9GY d   1      10.339  15.153  -9.936  0.00  0.00    -0.002 C 
ATOM     48  H12 9GY d   1      10.454  14.272 -10.585  0.00  0.00     0.040 H 
ATOM     49  H13 9GY d   1       9.581  15.826 -10.363  0.00  0.00     0.040 H 
ATOM     50  H14 9GY d   1      10.021  14.831  -8.934  0.00  0.00     0.040 H 
ENDBRANCH   8  47
BRANCH  10  51
ATOM     51  CBE 9GY d   1      13.407  18.558 -10.249  0.00  0.00    -0.055 C 
ATOM     52  H16 9GY d   1      14.398  19.029 -10.167  0.00  0.00     0.030 H 
ATOM     53  H17 9GY d   1      12.635  19.338 -10.325  0.00  0.00     0.030 H 
ATOM     54  H18 9GY d   1      13.376  17.923 -11.146  0.00  0.00     0.030 H 
ENDBRANCH  10  51
TORSDOF 6
