REMARK  9 active torsions:
REMARK  status: ('A' for Active; 'I' for Inactive)
REMARK       I    between atoms: C13_9  and  N3_2 
REMARK    1  A    between atoms: C18_20  and  C6_5 
REMARK    2  A    between atoms: C8_7  and  O4_27 
REMARK       I    between atoms: N4_23  and  C13_9 
REMARK    3  A    between atoms: O3_26  and  C15_10 
REMARK    4  A    between atoms: C18_20  and  C17_11 
REMARK    5  A    between atoms: C17_11  and  O5_28 
REMARK    6  A    between atoms: C9_15  and  O3_26 
REMARK    7  A    between atoms: O5_28  and  C16_19 
REMARK    8  A    between atoms: C18_20  and  N4_23 
REMARK    9  A    between atoms: O4_27  and  C19_21 
ROOT
ATOM      1  C18 9GJ d   1      24.860   3.279  23.082  0.00  0.00     0.060 C 
ATOM      2  H16 9GJ d   1      23.999   2.626  23.285  0.00  0.00     0.083 H 
ENDROOT
BRANCH   1   3
ATOM      3  C6  9GJ d   1      24.401   4.387  22.197  0.00  0.00    -0.030 A 
ATOM      4  C1  9GJ d   1      23.656   4.062  21.076  0.00  0.00    -0.072 A 
ATOM      5  C2  9GJ d   1      23.210   5.040  20.215  0.00  0.00    -0.047 A 
ATOM      6  H8  9GJ d   1      23.421   3.023  20.873  0.00  0.00     0.084 H 
ATOM      7  C8  9GJ d   1      23.509   6.359  20.484  0.00  0.00     0.116 A 
ATOM      8  H9  9GJ d   1      22.631   4.776  19.337  0.00  0.00     0.087 H 
ATOM      9  C10 9GJ d   1      24.251   6.691  21.591  0.00  0.00     0.150 A 
ATOM     10  C3  9GJ d   1      24.693   5.713  22.457  0.00  0.00    -0.035 A 
ATOM     11  F1  9GJ d   1      24.548   7.974  21.830  0.00  0.00    -0.203 F 
ATOM     12  H10 9GJ d   1      25.266   5.982  23.337  0.00  0.00     0.089 H 
BRANCH   7  13
ATOM     13  O4  9GJ d   1      23.100   7.344  19.607  0.00  0.00    -0.252 OA
BRANCH  13  14
ATOM     14  C19 9GJ d   1      21.857   7.928  19.945  0.00  0.00     0.530 C 
ATOM     15  F2  9GJ d   1      21.781   8.388  21.214  0.00  0.00    -0.144 F 
ATOM     16  F3  9GJ d   1      20.890   7.013  19.725  0.00  0.00    -0.144 F 
ATOM     17  F4  9GJ d   1      21.723   9.015  19.148  0.00  0.00    -0.144 F 
ENDBRANCH  13  14
ENDBRANCH   7  13
ENDBRANCH   1   3
BRANCH   1  18
ATOM     18  C17 9GJ d   1      25.947   2.467  22.407  0.00  0.00     0.042 C 
ATOM     19  H6  9GJ d   1      25.556   2.038  21.473  0.00  0.00     0.077 H 
ATOM     20  H7  9GJ d   1      26.266   1.655  23.078  0.00  0.00     0.077 H 
BRANCH  18  21
ATOM     21  O5  9GJ d   1      27.061   3.303  22.113  0.00  0.00    -0.394 OA
BRANCH  21  22
ATOM     22  C16 9GJ d   1      28.108   2.526  21.539  0.00  0.00     0.004 C 
ATOM     23  H13 9GJ d   1      28.966   3.176  21.314  0.00  0.00     0.066 H 
ATOM     24  H14 9GJ d   1      27.750   2.057  20.611  0.00  0.00     0.066 H 
ATOM     25  H15 9GJ d   1      28.417   1.745  22.249  0.00  0.00     0.066 H 
ENDBRANCH  21  22
ENDBRANCH  18  21
ENDBRANCH   1  18
BRANCH   1  26
ATOM     26  N4  9GJ d   1      25.379   3.751  24.328  0.00  0.00    -0.332 N 
ATOM     27  C13 9GJ d   1      24.695   3.560  25.495  0.00  0.00     0.325 C 
ATOM     28  N3  9GJ d   1      25.365   3.893  26.665  0.00  0.00    -0.273 N 
ATOM     29  O2  9GJ d   1      23.558   3.121  25.481  0.00  0.00    -0.247 OA
ATOM     30  C11 9GJ d   1      26.469   4.782  26.722  0.00  0.00     0.161 A 
ATOM     31  C14 9GJ d   1      24.702   3.569  27.917  0.00  0.00     0.080 C 
ATOM     32  N1  9GJ d   1      26.963   5.367  25.619  0.00  0.00    -0.238 NA
ATOM     33  C7  9GJ d   1      27.051   5.035  27.946  0.00  0.00     0.084 A 
ATOM     34  C5  9GJ d   1      28.008   6.198  25.706  0.00  0.00     0.037 A 
ATOM     35  C9  9GJ d   1      28.629   6.489  26.899  0.00  0.00     0.088 A 
ATOM     36  H2  9GJ d   1      28.381   6.661  24.799  0.00  0.00     0.119 H 
ATOM     37  C4  9GJ d   1      28.131   5.886  28.041  0.00  0.00    -0.020 A 
ATOM     38  H1  9GJ d   1      28.588   6.082  29.004  0.00  0.00     0.091 H 
ATOM     39  N2  9GJ d   1      26.588   4.432  29.118  0.00  0.00    -0.322 N 
ATOM     40  C12 9GJ d   1      25.404   3.750  29.227  0.00  0.00     0.240 C 
ATOM     41  H17 9GJ d   1      27.161   4.503  29.935  0.00  0.00     0.169 HD
ATOM     42  O1  9GJ d   1      24.941   3.317  30.277  0.00  0.00    -0.271 OA
ATOM     43  H11 9GJ d   1      24.420   2.507  27.857  0.00  0.00     0.079 H 
ATOM     44  H12 9GJ d   1      23.794   4.188  27.960  0.00  0.00     0.079 H 
ATOM     45  H18 9GJ d   1      26.257   4.229  24.345  0.00  0.00     0.165 HD
BRANCH  35  46
ATOM     46  O3  9GJ d   1      29.700   7.375  26.855  0.00  0.00    -0.354 OA
BRANCH  46  47
ATOM     47  C15 9GJ d   1      30.589   7.209  27.954  0.00  0.00     0.010 C 
ATOM     48  H3  9GJ d   1      31.414   7.931  27.870  0.00  0.00     0.066 H 
ATOM     49  H4  9GJ d   1      30.994   6.186  27.946  0.00  0.00     0.066 H 
ATOM     50  H5  9GJ d   1      30.045   7.381  28.895  0.00  0.00     0.066 H 
ENDBRANCH  46  47
ENDBRANCH  35  46
ENDBRANCH   1  26
TORSDOF 9
