REMARK  12 active torsions:
REMARK  status: ('A' for Active; 'I' for Inactive)
REMARK    1  A    between atoms: C7_3  and  N5_13 
REMARK    2  A    between atoms: C10_4  and  C17_7 
REMARK    3  A    between atoms: C15_6  and  C16_20 
REMARK       I    between atoms: C17_7  and  N19_22 
REMARK    4  A    between atoms: C20_8  and  C22_9 
REMARK    5  A    between atoms: N19_22  and  C20_8 
REMARK    6  A    between atoms: C20_8  and  C33_32 
REMARK    7  A    between atoms: C2_12  and  C1_11 
REMARK    8  A    between atoms: C25_24  and  O26_25 
REMARK    9  A    between atoms: O26_25  and  C27_26 
REMARK   10  A    between atoms: C33_32  and  C34_33 
REMARK   11  A    between atoms: C33_32  and  C35_34 
REMARK   12  A    between atoms: C33_32  and  O36_35 
ROOT
ATOM      1  C17 9GA d   1       9.976   3.600  67.633  0.00  0.00     0.257 C 
ATOM      2  O18 9GA d   1       8.907   3.037  67.536  0.00  0.00    -0.267 OA
ATOM      3  N19 9GA d   1      10.722   3.885  66.562  0.00  0.00    -0.345 N 
ATOM      4  H12 9GA d   1      11.576   4.372  66.742  0.00  0.00     0.163 HD
ENDROOT
BRANCH   3   5
ATOM      5  C20 9GA d   1      10.448   3.576  65.168  0.00  0.00     0.067 C 
ATOM      6  H2  9GA d   1       9.773   2.709  65.121  0.00  0.00     0.085 H 
BRANCH   5   7
ATOM      7  C22 9GA d   1       9.817   4.684  64.356  0.00  0.00    -0.032 A 
ATOM      8  C23 9GA d   1      10.126   6.024  64.567  0.00  0.00    -0.072 A 
ATOM      9  C24 9GA d   1       9.575   7.006  63.757  0.00  0.00    -0.050 A 
ATOM     10  H13 9GA d   1      10.801   6.302  65.368  0.00  0.00     0.084 H 
ATOM     11  C25 9GA d   1       8.696   6.636  62.735  0.00  0.00     0.078 A 
ATOM     12  H3  9GA d   1       9.823   8.049  63.915  0.00  0.00     0.087 H 
ATOM     13  C31 9GA d   1       8.383   5.294  62.514  0.00  0.00    -0.050 A 
ATOM     14  C32 9GA d   1       8.934   4.323  63.329  0.00  0.00    -0.072 A 
ATOM     15  H14 9GA d   1       7.713   5.015  61.709  0.00  0.00     0.087 H 
ATOM     16  H15 9GA d   1       8.683   3.280  63.174  0.00  0.00     0.084 H 
BRANCH  11  17
ATOM     17  O26 9GA d   1       8.143   7.588  61.939  0.00  0.00    -0.255 OA
BRANCH  17  18
ATOM     18  C27 9GA d   1       7.033   8.319  62.453  0.00  0.00     0.530 C 
ATOM     19  F28 9GA d   1       7.360   9.071  63.582  0.00  0.00    -0.144 F 
ATOM     20  F29 9GA d   1       6.618   9.171  61.448  0.00  0.00    -0.144 F 
ATOM     21  F30 9GA d   1       6.040   7.426  62.801  0.00  0.00    -0.144 F 
ENDBRANCH  17  18
ENDBRANCH  11  17
ENDBRANCH   5   7
BRANCH   5  22
ATOM     22  C33 9GA d   1      11.856   3.186  64.601  0.00  0.00     0.075 C 
BRANCH  22  23
ATOM     23  C34 9GA d   1      12.474   2.056  65.435  0.00  0.00    -0.046 C 
ATOM     24  H16 9GA d   1      13.460   1.795  65.024  0.00  0.00     0.031 H 
ATOM     25  H17 9GA d   1      11.817   1.174  65.401  0.00  0.00     0.031 H 
ATOM     26  H18 9GA d   1      12.587   2.389  66.477  0.00  0.00     0.031 H 
ENDBRANCH  22  23
BRANCH  22  27
ATOM     27  C35 9GA d   1      11.794   2.709  63.141  0.00  0.00    -0.046 C 
ATOM     28  H19 9GA d   1      11.354   3.500  62.515  0.00  0.00     0.031 H 
ATOM     29  H20 9GA d   1      11.173   1.803  63.077  0.00  0.00     0.031 H 
ATOM     30  H21 9GA d   1      12.810   2.483  62.786  0.00  0.00     0.031 H 
ENDBRANCH  22  27
BRANCH  22  31
ATOM     31  O36 9GA d   1      12.792   4.276  64.629  0.00  0.00    -0.388 OA
ATOM     32  H22 9GA d   1      13.618   3.992  64.256  0.00  0.00     0.210 HD
ENDBRANCH  22  31
ENDBRANCH   5  22
ENDBRANCH   3   5
BRANCH   1  33
ATOM     33  C10 9GA d   1      10.582   3.939  68.935  0.00  0.00     0.099 A 
ATOM     34  C9  9GA d   1      11.697   4.771  69.162  0.00  0.00     0.170 A 
ATOM     35  N8  9GA d   1      12.460   5.506  68.345  0.00  0.00    -0.208 NA
ATOM     36  N13 9GA d   1      11.954   4.748  70.515  0.00  0.00    -0.225 N 
ATOM     37  C7  9GA d   1      13.490   6.212  68.803  0.00  0.00     0.161 A 
ATOM     38  C15 9GA d   1      13.782   6.223  70.201  0.00  0.00     0.004 A 
ATOM     39  C14 9GA d   1      12.995   5.478  71.037  0.00  0.00     0.015 A 
ATOM     40  H8  9GA d   1      13.192   5.464  72.108  0.00  0.00     0.115 H 
ATOM     41  N12 9GA d   1      11.016   3.903  71.101  0.00  0.00    -0.178 NA
ATOM     42  C11 9GA d   1      10.210   3.419  70.188  0.00  0.00     0.041 A 
ATOM     43  H7  9GA d   1       9.388   2.728  70.369  0.00  0.00     0.119 H 
BRANCH  37  44
ATOM     44  N5  9GA d   1      14.145   6.981  67.840  0.00  0.00    -0.207 N 
ATOM     45  C4  9GA d   1      14.200   6.741  66.513  0.00  0.00     0.092 A 
ATOM     46  N3  9GA d   1      14.823   7.737  65.965  0.00  0.00    -0.225 NA
ATOM     47  H1  9GA d   1      13.796   5.871  65.998  0.00  0.00     0.146 H 
ATOM     48  C2  9GA d   1      15.147   8.653  66.876  0.00  0.00     0.144 A 
ATOM     49  N6  9GA d   1      14.731   8.240  68.037  0.00  0.00    -0.150 NA
BRANCH  48  50
ATOM     50  C1  9GA d   1      15.883   9.945  66.612  0.00  0.00    -0.018 C 
ATOM     51  H4  9GA d   1      16.107  10.027  65.538  0.00  0.00     0.038 H 
ATOM     52  H5  9GA d   1      16.822   9.955  67.184  0.00  0.00     0.038 H 
ATOM     53  H6  9GA d   1      15.256  10.794  66.921  0.00  0.00     0.038 H 
ENDBRANCH  48  50
ENDBRANCH  37  44
BRANCH  38  54
ATOM     54  C16 9GA d   1      14.922   6.984  70.837  0.00  0.00    -0.046 C 
ATOM     55  H9  9GA d   1      15.472   7.537  70.061  0.00  0.00     0.033 H 
ATOM     56  H10 9GA d   1      15.602   6.277  71.335  0.00  0.00     0.033 H 
ATOM     57  H11 9GA d   1      14.522   7.692  71.578  0.00  0.00     0.033 H 
ENDBRANCH  38  54
ENDBRANCH   1  33
TORSDOF 12
