REMARK  14 active torsions:
REMARK  status: ('A' for Active; 'I' for Inactive)
REMARK    1  A    between atoms: C16_20  and  C15_3 
REMARK    2  A    between atoms: C19_23  and  C20_4 
REMARK    3  A    between atoms: C20_4  and  N21_24 
REMARK       I    between atoms: N21_24  and  C22_5 
REMARK    4  A    between atoms: C22_5  and  O24_26 
REMARK    5  A    between atoms: C16_20  and  C26_6 
REMARK    6  A    between atoms: C02_9  and  C01_8 
REMARK    7  A    between atoms: C03_10  and  C02_9 
REMARK    8  A    between atoms: C09_16  and  C07_14 
REMARK    9  A    between atoms: C16_20  and  O17_21 
REMARK   10  A    between atoms: C18_22  and  C16_20 
REMARK   11  A    between atoms: C18_22  and  C19_23 
REMARK   12  A    between atoms: O24_26  and  C25_27 
REMARK       I    between atoms: N31_30  and  C33_32 
REMARK   13  A    between atoms: C33_32  and  C35_34 
REMARK   14  A    between atoms: C35_34  and  C36_35 
ROOT
ATOM      1  C16 9G7 d   1      30.300  -8.856 -15.170  0.00  0.00     0.091 C 
ENDROOT
BRANCH   1   2
ATOM      2  C15 9G7 d   1      31.810  -8.913 -15.512  0.00  0.00    -0.009 A 
ATOM      3  C09 9G7 d   1      32.796  -9.279 -14.546  0.00  0.00     0.022 A 
ATOM      4  C10 9G7 d   1      34.124  -9.281 -14.965  0.00  0.00     0.128 A 
ATOM      5  F11 9G7 d   1      35.070  -9.627 -14.062  0.00  0.00    -0.205 F 
ATOM      6  C12 9G7 d   1      34.532  -8.951 -16.228  0.00  0.00    -0.045 A 
ATOM      7  C13 9G7 d   1      33.573  -8.591 -17.152  0.00  0.00    -0.079 A 
ATOM      8  H16 9G7 d   1      35.582  -8.972 -16.496  0.00  0.00     0.088 H 
ATOM      9  C14 9G7 d   1      32.232  -8.569 -16.802  0.00  0.00    -0.073 A 
ATOM     10  H1  9G7 d   1      33.870  -8.323 -18.159  0.00  0.00     0.083 H 
ATOM     11  H17 9G7 d   1      31.495  -8.280 -17.542  0.00  0.00     0.084 H 
BRANCH   3  12
ATOM     12  C07 9G7 d   1      32.535  -9.678 -13.123  0.00  0.00    -0.022 A 
ATOM     13  C06 9G7 d   1      32.401 -11.024 -12.768  0.00  0.00    -0.072 A 
ATOM     14  C05 9G7 d   1      32.190 -11.387 -11.444  0.00  0.00    -0.082 A 
ATOM     15  H14 9G7 d   1      32.462 -11.790 -13.532  0.00  0.00     0.084 H 
ATOM     16  C04 9G7 d   1      32.140 -10.420 -10.453  0.00  0.00    -0.077 A 
ATOM     17  H13 9G7 d   1      32.064 -12.432 -11.185  0.00  0.00     0.083 H 
ATOM     18  C03 9G7 d   1      32.292  -9.077 -10.766  0.00  0.00    -0.058 A 
ATOM     19  H12 9G7 d   1      31.980 -10.716  -9.422  0.00  0.00     0.084 H 
ATOM     20  C08 9G7 d   1      32.502  -8.721 -12.104  0.00  0.00    -0.066 A 
ATOM     21  H15 9G7 d   1      32.643  -7.676 -12.356  0.00  0.00     0.085 H 
BRANCH  18  22
ATOM     22  C02 9G7 d   1      32.245  -8.012  -9.673  0.00  0.00    -0.044 C 
ATOM     23  H10 9G7 d   1      32.426  -8.505  -8.707  0.00  0.00     0.039 H 
ATOM     24  H11 9G7 d   1      33.047  -7.285  -9.869  0.00  0.00     0.039 H 
BRANCH  22  25
ATOM     25  C01 9G7 d   1      30.933  -7.255  -9.579  0.00  0.00    -0.073 C 
ATOM     26  H7  9G7 d   1      30.994  -6.514  -8.768  0.00  0.00     0.028 H 
ATOM     27  H8  9G7 d   1      30.116  -7.961  -9.369  0.00  0.00     0.028 H 
ATOM     28  H9  9G7 d   1      30.737  -6.741 -10.531  0.00  0.00     0.028 H 
ENDBRANCH  22  25
ENDBRANCH  18  22
ENDBRANCH   3  12
ENDBRANCH   1   2
BRANCH   1  29
ATOM     29  C26 9G7 d   1      29.680 -10.307 -14.904  0.00  0.00    -0.004 C 
ATOM     30  C28 9G7 d   1      30.030 -11.404 -15.905  0.00  0.00    -0.056 C 
ATOM     31  C29 9G7 d   1      29.490 -12.760 -15.446  0.00  0.00    -0.050 C 
ATOM     32  H5  9G7 d   1      31.124 -11.467 -16.002  0.00  0.00     0.033 H 
ATOM     33  H6  9G7 d   1      29.590 -11.154 -16.881  0.00  0.00     0.033 H 
ATOM     34  C30 9G7 d   1      27.986 -12.709 -15.210  0.00  0.00    -0.002 C 
ATOM     35  H27 9G7 d   1      29.990 -13.045 -14.509  0.00  0.00     0.035 H 
ATOM     36  H28 9G7 d   1      29.705 -13.511 -16.220  0.00  0.00     0.035 H 
ATOM     37  N31 9G7 d   1      27.608 -11.595 -14.264  0.00  0.00    -0.352 N 
ATOM     38  H29 9G7 d   1      27.660 -13.668 -14.781  0.00  0.00     0.064 H 
ATOM     39  H30 9G7 d   1      27.479 -12.547 -16.173  0.00  0.00     0.064 H 
ATOM     40  C32 9G7 d   1      28.092 -10.323 -14.826  0.00  0.00     0.004 C 
ATOM     41  C33 9G7 d   1      26.921 -11.811 -13.099  0.00  0.00     0.220 C 
ATOM     42  H31 9G7 d   1      27.680 -10.196 -15.838  0.00  0.00     0.065 H 
ATOM     43  H32 9G7 d   1      27.754  -9.495 -14.186  0.00  0.00     0.065 H 
ATOM     44  O34 9G7 d   1      26.571 -12.935 -12.765  0.00  0.00    -0.273 OA
ATOM     45  H4  9G7 d   1      30.071 -10.620 -13.925  0.00  0.00     0.047 H 
BRANCH  41  46
ATOM     46  C35 9G7 d   1      26.550 -10.626 -12.209  0.00  0.00     0.013 C 
ATOM     47  H33 9G7 d   1      25.457 -10.503 -12.246  0.00  0.00     0.047 H 
ATOM     48  H34 9G7 d   1      27.034  -9.728 -12.620  0.00  0.00     0.047 H 
BRANCH  46  49
ATOM     49  C36 9G7 d   1      26.961 -10.753 -10.743  0.00  0.00    -0.043 C 
ATOM     50  C37 9G7 d   1      28.394 -10.278 -10.528  0.00  0.00    -0.039 C 
ATOM     51  C38 9G7 d   1      28.762 -10.137  -9.063  0.00  0.00     0.082 C 
ATOM     52  H36 9G7 d   1      28.515  -9.299 -11.015  0.00  0.00     0.035 H 
ATOM     53  H37 9G7 d   1      29.077 -11.005 -10.992  0.00  0.00     0.035 H 
ATOM     54  N39 9G7 d   1      27.824  -9.237  -8.370  0.00  0.00    -0.075 N 
ATOM     55  H38 9G7 d   1      29.779  -9.726  -8.985  0.00  0.00     0.075 H 
ATOM     56  H39 9G7 d   1      28.729 -11.128  -8.586  0.00  0.00     0.075 H 
ATOM     57  C40 9G7 d   1      26.522  -9.790  -8.372  0.00  0.00     0.082 C 
ATOM     58  H40 9G7 d   1      27.808  -8.346  -8.842  0.00  0.00     0.277 HD
ATOM     59  H41 9G7 d   1      28.129  -9.108  -7.418  0.00  0.00     0.277 HD
ATOM     60  C41 9G7 d   1      26.006  -9.943  -9.827  0.00  0.00    -0.039 C 
ATOM     61  H42 9G7 d   1      25.845  -9.126  -7.814  0.00  0.00     0.075 H 
ATOM     62  H43 9G7 d   1      26.546 -10.778  -7.890  0.00  0.00     0.075 H 
ATOM     63  H44 9G7 d   1      25.033 -10.456  -9.799  0.00  0.00     0.035 H 
ATOM     64  H45 9G7 d   1      25.879  -8.939 -10.258  0.00  0.00     0.035 H 
ATOM     65  H35 9G7 d   1      26.900 -11.814 -10.460  0.00  0.00     0.040 H 
ENDBRANCH  46  49
ENDBRANCH  41  46
ENDBRANCH   1  29
BRANCH   1  66
ATOM     66  O17 9G7 d   1      29.591  -8.589 -16.384  0.00  0.00    -0.384 OA
ATOM     67  H18 9G7 d   1      28.656  -8.608 -16.214  0.00  0.00     0.211 HD
ENDBRANCH   1  66
BRANCH   1  68
ATOM     68  C18 9G7 d   1      29.922  -7.745 -14.164  0.00  0.00    -0.030 C 
ATOM     69  H19 9G7 d   1      30.199  -8.094 -13.158  0.00  0.00     0.038 H 
ATOM     70  H20 9G7 d   1      28.833  -7.601 -14.215  0.00  0.00     0.038 H 
BRANCH  68  71
ATOM     71  C19 9G7 d   1      30.584  -6.383 -14.385  0.00  0.00    -0.047 C 
ATOM     72  H21 9G7 d   1      31.652  -6.540 -14.595  0.00  0.00     0.035 H 
ATOM     73  H22 9G7 d   1      30.108  -5.895 -15.249  0.00  0.00     0.035 H 
BRANCH  71  74
ATOM     74  C20 9G7 d   1      30.453  -5.475 -13.181  0.00  0.00    -0.003 C 
ATOM     75  H2  9G7 d   1      30.962  -4.525 -13.399  0.00  0.00     0.064 H 
ATOM     76  H3  9G7 d   1      30.936  -5.960 -12.320  0.00  0.00     0.064 H 
BRANCH  74  77
ATOM     77  N21 9G7 d   1      29.065  -5.192 -12.839  0.00  0.00    -0.337 N 
ATOM     78  C22 9G7 d   1      28.393  -4.181 -13.405  0.00  0.00     0.360 C 
ATOM     79  O23 9G7 d   1      28.907  -3.253 -13.988  0.00  0.00    -0.239 OA
ATOM     80  H23 9G7 d   1      28.602  -5.767 -12.165  0.00  0.00     0.164 HD
BRANCH  78  81
ATOM     81  O24 9G7 d   1      27.073  -4.325 -13.232  0.00  0.00    -0.309 OA
BRANCH  81  82
ATOM     82  C25 9G7 d   1      26.253  -3.211 -13.676  0.00  0.00     0.015 C 
ATOM     83  H24 9G7 d   1      25.193  -3.437 -13.486  0.00  0.00     0.067 H 
ATOM     84  H25 9G7 d   1      26.406  -3.049 -14.753  0.00  0.00     0.067 H 
ATOM     85  H26 9G7 d   1      26.538  -2.303 -13.125  0.00  0.00     0.067 H 
ENDBRANCH  81  82
ENDBRANCH  78  81
ENDBRANCH  74  77
ENDBRANCH  71  74
ENDBRANCH  68  71
ENDBRANCH   1  68
TORSDOF 14
