REMARK  4 active torsions:
REMARK  status: ('A' for Active; 'I' for Inactive)
REMARK    1  A    between atoms: C3_3  and  O3_7 
REMARK    2  A    between atoms: C4_4  and  O4_8 
REMARK    3  A    between atoms: C5_5  and  C6_6 
REMARK    4  A    between atoms: C6_6  and  O6_10 
ROOT
ATOM      1  C1  G2F d   1      42.410  64.477  61.606  0.00  0.00     0.051 C 
ATOM      2  C2  G2F d   1      43.519  63.982  60.622  0.00  0.00     0.126 C 
ATOM      3  C3  G2F d   1      44.789  63.648  61.460  0.00  0.00     0.094 C 
ATOM      4  C4  G2F d   1      45.178  64.906  62.296  0.00  0.00     0.090 C 
ATOM      5  C5  G2F d   1      43.955  65.292  63.196  0.00  0.00     0.086 C 
ATOM      6  O5  G2F d   1      42.855  65.584  62.351  0.00  0.00    -0.378 OA
ATOM      7  F2  G2F d   1      43.108  62.863  59.986  0.00  0.00    -0.244 F 
ATOM      8  H1  G2F d   1      42.150  63.660  62.296  0.00  0.00     0.078 H 
ATOM      9  H2  G2F d   1      41.520  64.766  61.029  0.00  0.00     0.078 H 
ATOM     10  H3  G2F d   1      43.745  64.767  59.885  0.00  0.00     0.099 H 
ATOM     11  H4  G2F d   1      44.621  62.773  62.105  0.00  0.00     0.091 H 
ATOM     12  H5  G2F d   1      45.477  65.741  61.645  0.00  0.00     0.091 H 
ATOM     13  H6  G2F d   1      43.714  64.463  63.878  0.00  0.00     0.090 H 
ENDROOT
BRANCH   5  14
ATOM     14  C6  G2F d   1      44.256  66.608  64.018  0.00  0.00     0.043 C 
ATOM     15  H7  G2F d   1      45.042  66.410  64.762  0.00  0.00     0.078 H 
ATOM     16  H8  G2F d   1      43.342  66.943  64.530  0.00  0.00     0.078 H 
BRANCH  14  17
ATOM     17  O6  G2F d   1      44.688  67.597  63.127  0.00  0.00    -0.398 OA
ATOM     18  H11 G2F d   1      44.007  67.763  62.485  0.00  0.00     0.209 HD
ENDBRANCH  14  17
ENDBRANCH   5  14
BRANCH   4  19
ATOM     19  O4  G2F d   1      46.216  64.529  63.161  0.00  0.00    -0.390 OA
ATOM     20  H10 G2F d   1      46.980  64.286  62.651  0.00  0.00     0.210 HD
ENDBRANCH   4  19
BRANCH   3  21
ATOM     21  O3  G2F d   1      45.846  63.434  60.562  0.00  0.00    -0.390 OA
ATOM     22  H9  G2F d   1      45.656  62.673  60.026  0.00  0.00     0.210 HD
ENDBRANCH   3  21
TORSDOF 4
