REMARK WARNING: 32 MAX_TORS EXCEEDED!!!
REMARK  37 active torsions:
REMARK  status: ('A' for Active; 'I' for Inactive)
REMARK    1  A    between atoms: N_1  and  CA_2 
REMARK    2  A    between atoms: CA_2  and  C_3 
REMARK    3  A    between atoms: CA_2  and  CB_5 
REMARK       I    between atoms: C_3  and  N_6 
REMARK    4  A    between atoms: N_6  and  CA_7 
REMARK    5  A    between atoms: CA_7  and  C_8 
REMARK    6  A    between atoms: CA_7  and  CB_10 
REMARK       I    between atoms: C_8  and  N_12 
REMARK    7  A    between atoms: CB_10  and  OG_11 
REMARK    8  A    between atoms: N_12  and  CA_13 
REMARK    9  A    between atoms: CA_13  and  C_14 
REMARK   10  A    between atoms: CA_13  and  CB_16 
REMARK       I    between atoms: C_14  and  N_21 
REMARK   11  A    between atoms: CB_16  and  CG_17 
REMARK   12  A    between atoms: CG_17  and  CD_18 
REMARK   13  A    between atoms: CD_18  and  CE_19 
REMARK   14  A    between atoms: CE_19  and  NZ_20 
REMARK   15  A    between atoms: N_21  and  CA_22 
REMARK   16  A    between atoms: CA_22  and  C_23 
REMARK   17  A    between atoms: CA_22  and  CB_25 
REMARK       I    between atoms: C_23  and  N_32 
REMARK   18  A    between atoms: CB_25  and  CG_26 
REMARK   19  A    between atoms: CG_26  and  CD_27 
REMARK   20  A    between atoms: CD_27  and  NE_28 
REMARK       I    between atoms: NE_28  and  CZ_29 
REMARK       I    between atoms: CZ_29  and  NH1_30 
REMARK       I    between atoms: CZ_29  and  NH2_31 
REMARK   21  A    between atoms: N_32  and  CA_33 
REMARK   22  A    between atoms: CA_33  and  C_34 
REMARK   23  A    between atoms: CA_33  and  CB_36 
REMARK       I    between atoms: C_34  and  N_41 
REMARK   24  A    between atoms: CB_36  and  CG_37 
REMARK   25  A    between atoms: CG_37  and  CD_38 
REMARK       I    between atoms: CD_38  and  NE2_40 
REMARK   26  A    between atoms: N_41  and  CA_42 
REMARK   27  A    between atoms: CA_42  and  C_43 
REMARK   28  A    between atoms: CA_42  and  CB_45 
REMARK       I    between atoms: C_43  and  N_52 
REMARK   29  A    between atoms: CB_45  and  CG_46 
REMARK   30  A    between atoms: CG_46  and  CD_47 
REMARK   31  A    between atoms: CD_47  and  NE_48 
REMARK       I    between atoms: NE_48  and  CZ_49 
REMARK       I    between atoms: CZ_49  and  NH1_50 
REMARK       I    between atoms: CZ_49  and  NH2_51 
REMARK   32  A    between atoms: N_52  and  CA_53 
REMARK   33  A    between atoms: CA_53  and  C_54 
REMARK   34  A    between atoms: CA_53  and  CB_56 
REMARK   35  A    between atoms: CB_56  and  CG_57 
REMARK   36  A    between atoms: CG_57  and  CD_58 
REMARK   37  A    between atoms: CD_58  and  NE_59 
REMARK       I    between atoms: NE_59  and  CZ_60 
REMARK       I    between atoms: CZ_60  and  NH1_61 
REMARK       I    between atoms: CZ_60  and  NH2_62 
ROOT
ATOM      1  C   ARG d   1     -44.023  56.629 214.199  0.00  0.00     0.241 C 
ATOM      2  O   ARG d   1     -45.000  56.952 214.884  0.00  0.00    -0.271 OA
ATOM      3  N   GLN d   1     -43.757  55.372 213.857  0.00  0.00    -0.346 N 
ATOM      4  H39 GLN d   1     -43.032  55.188 213.193  0.00  0.00     0.163 HD
ENDROOT
BRANCH   1   5
ATOM      5  CA  ARG d   1     -43.048  57.684 213.708  0.00  0.00     0.089 C 
ATOM      6  H27 ARG d   1     -42.248  57.187 213.139  0.00  0.00     0.087 H 
BRANCH   5   7
ATOM      7  N   ARG d   1     -43.705  58.647 212.823  0.00  0.00    -0.346 N 
ATOM      8  C   LYS d   1     -43.162  59.040 211.672  0.00  0.00     0.241 C 
ATOM      9  O   LYS d   1     -42.041  58.678 211.298  0.00  0.00    -0.271 OA
ATOM     10  H26 ARG d   1     -44.592  59.023 213.092  0.00  0.00     0.163 HD
BRANCH   8  11
ATOM     11  CA  LYS d   1     -43.996  60.002 210.827  0.00  0.00     0.089 C 
ATOM     12  H14 LYS d   1     -44.520  60.692 211.505  0.00  0.00     0.087 H 
BRANCH  11  13
ATOM     13  N   LYS d   1     -43.138  60.778 209.956  0.00  0.00    -0.346 N 
ATOM     14  C   SER d   1     -43.067  62.102 210.034  0.00  0.00     0.243 C 
ATOM     15  O   SER d   1     -43.707  62.770 210.840  0.00  0.00    -0.271 OA
ATOM     16  H13 LYS d   1     -42.582  60.302 209.275  0.00  0.00     0.163 HD
BRANCH  14  17
ATOM     17  CA  SER d   1     -42.149  62.774 209.042  0.00  0.00     0.109 C 
ATOM     18  H9  SER d   1     -41.135  62.807 209.466  0.00  0.00     0.090 H 
BRANCH  17  19
ATOM     19  N   SER d   1     -42.101  62.028 207.786  0.00  0.00    -0.344 N 
ATOM     20  C   SER d   1     -41.079  61.244 207.446  0.00  0.00     0.248 C 
ATOM     21  O   SER d   1     -40.100  61.052 208.171  0.00  0.00    -0.271 OA
ATOM     22  H8  SER d   1     -42.871  62.110 207.153  0.00  0.00     0.163 HD
BRANCH  20  23
ATOM     23  CA  SER d   1     -41.179  60.576 206.079  0.00  0.00     0.172 C 
ATOM     24  H4  SER d   1     -42.078  60.957 205.573  0.00  0.00     0.098 H 
BRANCH  23  25
ATOM     25  N   SER d   1     -40.018  60.906 205.253  0.00  0.00    -0.067 N 
ATOM     26  H1  SER d   1     -40.105  60.455 204.356  0.00  0.00     0.275 HD
ATOM     27  H2  SER d   1     -39.178  60.586 205.710  0.00  0.00     0.275 HD
ATOM     28  H3  SER d   1     -39.971  61.904 205.124  0.00  0.00     0.275 HD
ENDBRANCH  23  25
BRANCH  23  29
ATOM     29  CB  SER d   1     -41.324  59.070 206.239  0.00  0.00    -0.042 C 
ATOM     30  H5  SER d   1     -42.203  58.850 206.863  0.00  0.00     0.030 H 
ATOM     31  H6  SER d   1     -40.422  58.664 206.720  0.00  0.00     0.030 H 
ATOM     32  H7  SER d   1     -41.452  58.607 205.250  0.00  0.00     0.030 H 
ENDBRANCH  23  29
ENDBRANCH  20  23
ENDBRANCH  17  19
BRANCH  17  33
ATOM     33  CB  SER d   1     -42.627  64.201 208.800  0.00  0.00     0.044 C 
ATOM     34  H10 SER d   1     -41.797  64.802 208.401  0.00  0.00     0.077 H 
ATOM     35  H11 SER d   1     -42.972  64.637 209.749  0.00  0.00     0.077 H 
BRANCH  33  36
ATOM     36  OG  SER d   1     -43.696  64.196 207.867  0.00  0.00    -0.398 OA
ATOM     37  H12 SER d   1     -44.413  63.677 208.212  0.00  0.00     0.209 HD
ENDBRANCH  33  36
ENDBRANCH  17  33
ENDBRANCH  14  17
ENDBRANCH  11  13
BRANCH  11  38
ATOM     38  CB  LYS d   1     -45.046  59.246 210.004  0.00  0.00    -0.038 C 
ATOM     39  H15 LYS d   1     -45.519  58.495 210.654  0.00  0.00     0.036 H 
ATOM     40  H16 LYS d   1     -44.534  58.740 209.172  0.00  0.00     0.036 H 
BRANCH  38  41
ATOM     41  CG  LYS d   1     -46.147  60.137 209.419  0.00  0.00    -0.061 C 
ATOM     42  H17 LYS d   1     -45.692  60.869 208.735  0.00  0.00     0.033 H 
ATOM     43  H18 LYS d   1     -46.654  60.667 210.238  0.00  0.00     0.033 H 
BRANCH  41  44
ATOM     44  CD  LYS d   1     -47.171  59.307 208.652  0.00  0.00    -0.043 C 
ATOM     45  H19 LYS d   1     -47.715  58.668 209.363  0.00  0.00     0.035 H 
ATOM     46  H20 LYS d   1     -46.642  58.676 207.923  0.00  0.00     0.035 H 
BRANCH  44  47
ATOM     47  CE  LYS d   1     -48.170  60.177 207.913  0.00  0.00     0.080 C 
ATOM     48  H21 LYS d   1     -47.643  60.738 207.127  0.00  0.00     0.075 H 
ATOM     49  H22 LYS d   1     -48.625  60.882 208.625  0.00  0.00     0.075 H 
BRANCH  47  50
ATOM     50  NZ  LYS d   1     -49.245  59.363 207.286  0.00  0.00    -0.079 N 
ATOM     51  H23 LYS d   1     -49.889  59.971 206.805  0.00  0.00     0.274 HD
ATOM     52  H24 LYS d   1     -49.737  58.849 208.000  0.00  0.00     0.274 HD
ATOM     53  H25 LYS d   1     -48.837  58.717 206.628  0.00  0.00     0.274 HD
ENDBRANCH  47  50
ENDBRANCH  44  47
ENDBRANCH  41  44
ENDBRANCH  38  41
ENDBRANCH  11  38
ENDBRANCH   8  11
ENDBRANCH   5   7
BRANCH   5  54
ATOM     54  CB  ARG d   1     -42.427  58.375 214.923  0.00  0.00    -0.036 C 
ATOM     55  H28 ARG d   1     -41.968  57.600 215.554  0.00  0.00     0.036 H 
ATOM     56  H29 ARG d   1     -43.236  58.870 215.480  0.00  0.00     0.036 H 
BRANCH  54  57
ATOM     57  CG  ARG d   1     -41.377  59.406 214.620  0.00  0.00    -0.048 C 
ATOM     58  H30 ARG d   1     -41.782  60.151 213.919  0.00  0.00     0.035 H 
ATOM     59  H31 ARG d   1     -40.500  58.918 214.170  0.00  0.00     0.035 H 
BRANCH  57  60
ATOM     60  CD  ARG d   1     -40.974  60.087 215.907  0.00  0.00     0.009 C 
ATOM     61  H32 ARG d   1     -40.633  59.323 216.621  0.00  0.00     0.064 H 
ATOM     62  H33 ARG d   1     -41.848  60.611 216.320  0.00  0.00     0.064 H 
BRANCH  60  63
ATOM     63  NE  ARG d   1     -39.902  61.050 215.701  0.00  0.00    -0.227 N 
ATOM     64  CZ  ARG d   1     -39.324  61.729 216.684  0.00  0.00     0.665 C 
ATOM     65  NH1 ARG d   1     -39.737  61.542 217.929  0.00  0.00    -0.235 N 
ATOM     66  NH2 ARG d   1     -38.346  62.592 216.424  0.00  0.00    -0.235 N 
ATOM     67  H35 ARG d   1     -39.297  62.062 218.701  0.00  0.00     0.174 HD
ATOM     68  H36 ARG d   1     -40.498  60.876 218.125  0.00  0.00     0.174 HD
ATOM     69  H37 ARG d   1     -38.029  62.734 215.454  0.00  0.00     0.174 HD
ATOM     70  H38 ARG d   1     -37.906  63.119 217.192  0.00  0.00     0.174 HD
ATOM     71  H34 ARG d   1     -39.574  61.214 214.738  0.00  0.00     0.177 HD
ENDBRANCH  60  63
ENDBRANCH  57  60
ENDBRANCH  54  57
ENDBRANCH   5  54
ENDBRANCH   1   5
BRANCH   3  72
ATOM     72  CA  GLN d   1     -44.502  54.252 214.432  0.00  0.00     0.090 C 
ATOM     73  H40 GLN d   1     -45.565  54.528 214.498  0.00  0.00     0.087 H 
BRANCH  72  74
ATOM     74  C   GLN d   1     -43.972  53.986 215.826  0.00  0.00     0.241 C 
ATOM     75  O   GLN d   1     -42.772  54.118 216.064  0.00  0.00    -0.271 OA
ATOM     76  N   ARG d   1     -44.858  53.644 216.758  0.00  0.00    -0.346 N 
ATOM     77  H47 ARG d   1     -45.832  53.626 216.532  0.00  0.00     0.163 HD
BRANCH  76  78
ATOM     78  CA  ARG d   1     -44.425  53.295 218.105  0.00  0.00     0.089 C 
ATOM     79  H48 ARG d   1     -43.489  53.833 218.315  0.00  0.00     0.087 H 
BRANCH  78  80
ATOM     80  C   ARG d   1     -44.146  51.794 218.181  0.00  0.00     0.241 C 
ATOM     81  O   ARG d   1     -45.050  50.979 217.995  0.00  0.00    -0.271 OA
ATOM     82  N   ARG d   1     -42.886  51.463 218.475  0.00  0.00    -0.345 N 
ATOM     83  H60 ARG d   1     -42.288  52.197 218.798  0.00  0.00     0.163 HD
BRANCH  82  84
ATOM     84  CA  ARG d   1     -42.291  50.113 218.368  0.00  0.00     0.096 C 
ATOM     85  H61 ARG d   1     -41.256  50.182 218.734  0.00  0.00     0.089 H 
BRANCH  84  86
ATOM     86  C   ARG d   1     -42.250  49.640 216.915  0.00  0.00     0.196 C 
ATOM     87  O   ARG d   1     -41.179  49.577 216.288  0.00  0.00    -0.646 OA
ATOM     88  OXT ARG d   1     -43.286  49.304 216.317  0.00  0.00    -0.646 OA
ENDBRANCH  84  86
BRANCH  84  89
ATOM     89  CB  ARG d   1     -43.020  49.061 219.222  0.00  0.00    -0.035 C 
ATOM     90  H62 ARG d   1     -42.407  48.147 219.217  0.00  0.00     0.036 H 
ATOM     91  H63 ARG d   1     -43.988  48.856 218.741  0.00  0.00     0.036 H 
BRANCH  89  92
ATOM     92  CG  ARG d   1     -43.296  49.420 220.672  0.00  0.00    -0.047 C 
ATOM     93  H64 ARG d   1     -43.157  48.512 221.278  0.00  0.00     0.035 H 
ATOM     94  H65 ARG d   1     -44.342  49.753 220.745  0.00  0.00     0.035 H 
BRANCH  92  95
ATOM     95  CD  ARG d   1     -42.416  50.512 221.257  0.00  0.00     0.009 C 
ATOM     96  H66 ARG d   1     -42.422  51.381 220.582  0.00  0.00     0.064 H 
ATOM     97  H67 ARG d   1     -41.388  50.133 221.357  0.00  0.00     0.064 H 
BRANCH  95  98
ATOM     98  NE  ARG d   1     -42.908  50.924 222.578  0.00  0.00    -0.227 N 
ATOM     99  CZ  ARG d   1     -42.777  50.196 223.686  0.00  0.00     0.665 C 
ATOM    100  NH1 ARG d   1     -42.161  49.018 223.647  0.00  0.00    -0.235 N 
ATOM    101  NH2 ARG d   1     -43.251  50.642 224.838  0.00  0.00    -0.235 N 
ATOM    102  H69 ARG d   1     -42.063  48.459 224.507  0.00  0.00     0.174 HD
ATOM    103  H70 ARG d   1     -41.782  48.664 222.757  0.00  0.00     0.174 HD
ATOM    104  H71 ARG d   1     -43.730  51.553 224.880  0.00  0.00     0.174 HD
ATOM    105  H72 ARG d   1     -43.141  50.078 225.693  0.00  0.00     0.174 HD
ATOM    106  H68 ARG d   1     -43.385  51.834 222.653  0.00  0.00     0.177 HD
ENDBRANCH  95  98
ENDBRANCH  92  95
ENDBRANCH  89  92
ENDBRANCH  84  89
ENDBRANCH  82  84
ENDBRANCH  78  80
BRANCH  78 107
ATOM    107  CB  ARG d   1     -45.456  53.714 219.157  0.00  0.00    -0.036 C 
ATOM    108  H49 ARG d   1     -46.408  53.202 218.953  0.00  0.00     0.036 H 
ATOM    109  H50 ARG d   1     -45.606  54.802 219.101  0.00  0.00     0.036 H 
BRANCH 107 110
ATOM    110  CG  ARG d   1     -44.986  53.350 220.549  0.00  0.00    -0.048 C 
ATOM    111  H51 ARG d   1     -43.929  53.644 220.636  0.00  0.00     0.035 H 
ATOM    112  H52 ARG d   1     -45.074  52.259 220.660  0.00  0.00     0.035 H 
BRANCH 110 113
ATOM    113  CD  ARG d   1     -45.743  53.996 221.693  0.00  0.00     0.009 C 
ATOM    114  H53 ARG d   1     -46.791  53.663 221.675  0.00  0.00     0.064 H 
ATOM    115  H54 ARG d   1     -45.704  55.090 221.588  0.00  0.00     0.064 H 
BRANCH 113 116
ATOM    116  NE  ARG d   1     -45.125  53.603 222.962  0.00  0.00    -0.227 N 
ATOM    117  CZ  ARG d   1     -45.539  53.987 224.169  0.00  0.00     0.665 C 
ATOM    118  NH1 ARG d   1     -46.587  54.796 224.305  0.00  0.00    -0.235 N 
ATOM    119  NH2 ARG d   1     -44.897  53.557 225.248  0.00  0.00    -0.235 N 
ATOM    120  H56 ARG d   1     -46.896  55.085 225.244  0.00  0.00     0.174 HD
ATOM    121  H57 ARG d   1     -47.089  55.133 223.471  0.00  0.00     0.174 HD
ATOM    122  H58 ARG d   1     -44.085  52.931 225.149  0.00  0.00     0.174 HD
ATOM    123  H59 ARG d   1     -45.211  53.849 226.185  0.00  0.00     0.174 HD
ATOM    124  H55 ARG d   1     -44.306  52.980 222.918  0.00  0.00     0.177 HD
ENDBRANCH 113 116
ENDBRANCH 110 113
ENDBRANCH 107 110
ENDBRANCH  78 107
ENDBRANCH  76  78
ENDBRANCH  72  74
BRANCH  72 125
ATOM    125  CB  GLN d   1     -44.379  52.998 213.566  0.00  0.00    -0.030 C 
ATOM    126  H41 GLN d   1     -43.310  52.774 213.436  0.00  0.00     0.037 H 
ATOM    127  H42 GLN d   1     -44.830  53.212 212.586  0.00  0.00     0.037 H 
BRANCH 125 128
ATOM    128  CG  GLN d   1     -45.054  51.768 214.139  0.00  0.00     0.011 C 
ATOM    129  H43 GLN d   1     -46.140  51.856 213.988  0.00  0.00     0.047 H 
ATOM    130  H44 GLN d   1     -44.836  51.712 215.216  0.00  0.00     0.047 H 
BRANCH 128 131
ATOM    131  CD  GLN d   1     -44.570  50.497 213.476  0.00  0.00     0.215 C 
ATOM    132  OE1 GLN d   1     -43.494  50.472 212.884  0.00  0.00    -0.274 OA
ATOM    133  NE2 GLN d   1     -45.354  49.435 213.577  0.00  0.00    -0.370 N 
ATOM    134  H45 GLN d   1     -45.081  48.570 213.157  0.00  0.00     0.159 HD
ATOM    135  H46 GLN d   1     -46.220  49.498 214.074  0.00  0.00     0.159 HD
ENDBRANCH 128 131
ENDBRANCH 125 128
ENDBRANCH  72 125
ENDBRANCH   3  72
TORSDOF 37
