REMARK  10 active torsions:
REMARK  status: ('A' for Active; 'I' for Inactive)
REMARK    1  A    between atoms: C8_27  and  N1_2 
REMARK    2  A    between atoms: O1_33  and  C13_7 
REMARK    3  A    between atoms: C14_8  and  C24_19 
REMARK    4  A    between atoms: C17_11  and  N3_31 
REMARK    5  A    between atoms: O2_34  and  C2_14 
REMARK    6  A    between atoms: C25_20  and  C26_21 
REMARK       I    between atoms: N3_31  and  C25_20 
REMARK    7  A    between atoms: N3_31  and  C27_22 
REMARK    8  A    between atoms: C3_23  and  O1_33 
REMARK    9  A    between atoms: C7_26  and  C8_27 
REMARK   10  A    between atoms: C7_26  and  O2_34 
ROOT
ATOM      1  C13 9JP d   1     844.375 -33.242 144.866  0.00  0.00     0.085 A 
ATOM      2  C14 9JP d   1     843.703 -34.121 145.710  0.00  0.00    -0.017 A 
ATOM      3  C15 9JP d   1     842.782 -33.638 146.690  0.00  0.00    -0.013 A 
ATOM      4  C16 9JP d   1     842.545 -32.232 146.796  0.00  0.00     0.002 A 
ATOM      5  C17 9JP d   1     843.241 -31.341 145.914  0.00  0.00     0.050 A 
ATOM      6  C18 9JP d   1     844.132 -31.871 144.966  0.00  0.00    -0.023 A 
ATOM      7  C19 9JP d   1     842.084 -34.514 147.574  0.00  0.00    -0.051 A 
ATOM      8  C20 9JP d   1     841.186 -34.048 148.530  0.00  0.00     0.045 A 
ATOM      9  C21 9JP d   1     840.962 -32.682 148.632  0.00  0.00    -0.062 A 
ATOM     10  C22 9JP d   1     841.620 -31.789 147.783  0.00  0.00    -0.069 A 
ATOM     11  C23 9JP d   1     840.500 -34.995 149.408  0.00  0.00     0.099 C 
ATOM     12  N4  9JP d   1     839.959 -35.752 150.103  0.00  0.00    -0.191 NA
ATOM     13  H5  9JP d   1     844.646 -31.195 144.292  0.00  0.00     0.091 H 
ATOM     14  H6  9JP d   1     842.259 -35.581 147.498  0.00  0.00     0.087 H 
ATOM     15  H7  9JP d   1     840.270 -32.305 149.377  0.00  0.00     0.085 H 
ATOM     16  H8  9JP d   1     841.420 -30.728 147.879  0.00  0.00     0.085 H 
ENDROOT
BRANCH   2  17
ATOM     17  C24 9JP d   1     843.970 -35.619 145.584  0.00  0.00    -0.048 C 
ATOM     18  H9  9JP d   1     844.702 -35.795 144.781  0.00  0.00     0.033 H 
ATOM     19  H10 9JP d   1     843.031 -36.140 145.345  0.00  0.00     0.033 H 
ATOM     20  H11 9JP d   1     844.370 -36.002 146.535  0.00  0.00     0.033 H 
ENDBRANCH   2  17
BRANCH   1  21
ATOM     21  O1  9JP d   1     845.237 -33.809 143.953  0.00  0.00    -0.307 OA
BRANCH  21  22
ATOM     22  C3  9JP d   1     846.563 -33.486 143.731  0.00  0.00     0.109 A 
ATOM     23  C4  9JP d   1     847.525 -33.309 144.738  0.00  0.00    -0.048 A 
ATOM     24  C5  9JP d   1     848.848 -32.995 144.405  0.00  0.00    -0.080 A 
ATOM     25  H1  9JP d   1     847.242 -33.416 145.779  0.00  0.00     0.087 H 
ATOM     26  C6  9JP d   1     849.236 -32.861 143.073  0.00  0.00    -0.080 A 
ATOM     27  H17 9JP d   1     849.580 -32.854 145.193  0.00  0.00     0.083 H 
ATOM     28  C1  9JP d   1     848.280 -33.044 142.076  0.00  0.00    -0.048 A 
ATOM     29  H18 9JP d   1     850.261 -32.619 142.818  0.00  0.00     0.083 H 
ATOM     30  C2  9JP d   1     846.957 -33.360 142.395  0.00  0.00     0.102 A 
ATOM     31  H2  9JP d   1     848.567 -32.940 141.036  0.00  0.00     0.087 H 
BRANCH  30  32
ATOM     32  O2  9JP d   1     846.067 -33.518 141.352  0.00  0.00    -0.347 OA
BRANCH  32  33
ATOM     33  C7  9JP d   1     846.436 -33.894 140.039  0.00  0.00     0.041 C 
ATOM     34  H19 9JP d   1     846.681 -32.998 139.450  0.00  0.00     0.077 H 
ATOM     35  H20 9JP d   1     847.311 -34.560 140.074  0.00  0.00     0.077 H 
BRANCH  33  36
ATOM     36  C8  9JP d   1     845.247 -34.629 139.398  0.00  0.00     0.024 C 
ATOM     37  H21 9JP d   1     844.361 -33.977 139.429  0.00  0.00     0.068 H 
ATOM     38  H22 9JP d   1     845.491 -34.866 138.352  0.00  0.00     0.068 H 
BRANCH  36  39
ATOM     39  N1  9JP d   1     844.953 -35.875 140.117  0.00  0.00    -0.308 N 
ATOM     40  C12 9JP d   1     843.961 -35.948 141.059  0.00  0.00    -0.011 A 
ATOM     41  C11 9JP d   1     843.655 -37.058 141.754  0.00  0.00    -0.002 A 
ATOM     42  H4  9JP d   1     843.382 -35.048 141.258  0.00  0.00     0.112 H 
ATOM     43  C10 9JP d   1     844.421 -38.262 141.504  0.00  0.00     0.250 A 
ATOM     44  H3  9JP d   1     842.850 -37.052 142.488  0.00  0.00     0.094 H 
ATOM     45  N2  9JP d   1     845.390 -38.104 140.557  0.00  0.00    -0.275 N 
ATOM     46  O4  9JP d   1     844.218 -39.324 142.086  0.00  0.00    -0.268 OA
ATOM     47  C9  9JP d   1     845.724 -36.988 139.833  0.00  0.00     0.329 A 
ATOM     48  H23 9JP d   1     845.935 -38.919 140.363  0.00  0.00     0.173 HD
ATOM     49  O3  9JP d   1     846.641 -37.024 139.010  0.00  0.00    -0.246 OA
ENDBRANCH  36  39
ENDBRANCH  33  36
ENDBRANCH  32  33
ENDBRANCH  30  32
ENDBRANCH  21  22
ENDBRANCH   1  21
BRANCH   5  50
ATOM     50  N3  9JP d   1     843.053 -29.931 145.967  0.00  0.00    -0.319 N 
ATOM     51  C25 9JP d   1     843.829 -29.109 146.744  0.00  0.00     0.252 C 
ATOM     52  O5  9JP d   1     843.681 -27.878 146.805  0.00  0.00    -0.270 OA
BRANCH  51  53
ATOM     53  C26 9JP d   1     844.949 -29.730 147.584  0.00  0.00     0.132 C 
ATOM     54  F1  9JP d   1     845.622 -28.798 148.260  0.00  0.00    -0.246 F 
ATOM     55  H12 9JP d   1     845.644 -30.261 146.917  0.00  0.00     0.097 H 
ATOM     56  H13 9JP d   1     844.509 -30.442 148.298  0.00  0.00     0.097 H 
ENDBRANCH  51  53
BRANCH  50  57
ATOM     57  C27 9JP d   1     841.970 -29.387 145.144  0.00  0.00    -0.011 C 
ATOM     58  H14 9JP d   1     841.474 -30.206 144.602  0.00  0.00     0.057 H 
ATOM     59  H15 9JP d   1     842.384 -28.668 144.422  0.00  0.00     0.057 H 
ATOM     60  H16 9JP d   1     841.239 -28.879 145.790  0.00  0.00     0.057 H 
ENDBRANCH  50  57
ENDBRANCH   5  50
TORSDOF 10
