REMARK  10 active torsions:
REMARK  status: ('A' for Active; 'I' for Inactive)
REMARK    1  A    between atoms: C8_32  and  N1_1 
REMARK    2  A    between atoms: C2_2  and  O2_34 
REMARK    3  A    between atoms: C17_18  and  N3_4 
REMARK       I    between atoms: N3_4  and  C25_26 
REMARK    4  A    between atoms: N3_4  and  C27_28 
REMARK    5  A    between atoms: C7_8  and  C8_32 
REMARK    6  A    between atoms: O2_34  and  C7_8 
REMARK    7  A    between atoms: O1_33  and  C13_14 
REMARK    8  A    between atoms: C14_15  and  C24_25 
REMARK    9  A    between atoms: C25_26  and  C26_27 
REMARK   10  A    between atoms: C3_30  and  O1_33 
ROOT
ATOM      1  N4  9KG d   1     839.365 -36.717 150.028  0.00  0.00    -0.191 NA
ATOM      2  C13 9KG d   1     843.633 -34.166 144.705  0.00  0.00     0.085 A 
ATOM      3  C14 9KG d   1     843.013 -35.065 145.569  0.00  0.00    -0.017 A 
ATOM      4  C15 9KG d   1     842.075 -34.603 146.539  0.00  0.00    -0.013 A 
ATOM      5  C16 9KG d   1     841.774 -33.204 146.602  0.00  0.00     0.002 A 
ATOM      6  C17 9KG d   1     842.430 -32.305 145.696  0.00  0.00     0.050 A 
ATOM      7  C18 9KG d   1     843.335 -32.808 144.755  0.00  0.00    -0.023 A 
ATOM      8  C19 9KG d   1     841.430 -35.495 147.443  0.00  0.00    -0.051 A 
ATOM      9  C20 9KG d   1     840.518 -35.033 148.387  0.00  0.00     0.045 A 
ATOM     10  C21 9KG d   1     840.233 -33.675 148.449  0.00  0.00    -0.062 A 
ATOM     11  C22 9KG d   1     840.834 -32.770 147.580  0.00  0.00    -0.069 A 
ATOM     12  C23 9KG d   1     839.874 -35.970 149.302  0.00  0.00     0.099 C 
ATOM     13  H9  9KG d   1     843.811 -32.130 144.055  0.00  0.00     0.091 H 
ATOM     14  H10 9KG d   1     841.654 -36.554 147.395  0.00  0.00     0.087 H 
ATOM     15  H11 9KG d   1     839.528 -33.313 149.189  0.00  0.00     0.085 H 
ATOM     16  H12 9KG d   1     840.583 -31.718 147.648  0.00  0.00     0.085 H 
ENDROOT
BRANCH   3  17
ATOM     17  C24 9KG d   1     843.342 -36.554 145.490  0.00  0.00    -0.048 C 
ATOM     18  H13 9KG d   1     844.078 -36.725 144.691  0.00  0.00     0.033 H 
ATOM     19  H14 9KG d   1     842.425 -37.121 145.271  0.00  0.00     0.033 H 
ATOM     20  H15 9KG d   1     843.760 -36.889 146.451  0.00  0.00     0.033 H 
ENDBRANCH   3  17
BRANCH   2  21
ATOM     21  O1  9KG d   1     844.511 -34.659 143.773  0.00  0.00    -0.307 OA
BRANCH  21  22
ATOM     22  C3  9KG d   1     845.860 -34.401 143.613  0.00  0.00     0.109 A 
ATOM     23  C2  9KG d   1     846.280 -34.280 142.279  0.00  0.00     0.102 A 
ATOM     24  C1  9KG d   1     847.623 -34.030 141.987  0.00  0.00    -0.048 A 
ATOM     25  C6  9KG d   1     848.561 -33.909 143.006  0.00  0.00    -0.080 A 
ATOM     26  H6  9KG d   1     847.937 -33.929 140.954  0.00  0.00     0.087 H 
ATOM     27  C5  9KG d   1     848.155 -34.037 144.331  0.00  0.00    -0.080 A 
ATOM     28  H3  9KG d   1     849.601 -33.716 142.770  0.00  0.00     0.083 H 
ATOM     29  C4  9KG d   1     846.816 -34.286 144.640  0.00  0.00    -0.048 A 
ATOM     30  H22 9KG d   1     848.883 -33.943 145.129  0.00  0.00     0.083 H 
ATOM     31  H2  9KG d   1     846.511 -34.391 145.675  0.00  0.00     0.087 H 
BRANCH  23  32
ATOM     32  O2  9KG d   1     845.423 -34.378 141.198  0.00  0.00    -0.347 OA
BRANCH  32  33
ATOM     33  C7  9KG d   1     845.747 -35.092 140.019  0.00  0.00     0.041 C 
ATOM     34  H4  9KG d   1     846.162 -34.401 139.271  0.00  0.00     0.077 H 
ATOM     35  H5  9KG d   1     846.489 -35.870 140.251  0.00  0.00     0.077 H 
BRANCH  33  36
ATOM     36  C8  9KG d   1     844.470 -35.745 139.465  0.00  0.00     0.024 C 
ATOM     37  H23 9KG d   1     843.629 -35.045 139.575  0.00  0.00     0.068 H 
ATOM     38  H24 9KG d   1     844.616 -35.979 138.400  0.00  0.00     0.068 H 
BRANCH  36  39
ATOM     39  N1  9KG d   1     844.167 -36.982 140.194  0.00  0.00    -0.308 N 
ATOM     40  C9  9KG d   1     844.929 -38.094 139.889  0.00  0.00     0.329 A 
ATOM     41  N2  9KG d   1     844.607 -39.216 140.611  0.00  0.00    -0.275 N 
ATOM     42  O3  9KG d   1     845.831 -38.134 139.048  0.00  0.00    -0.246 OA
ATOM     43  C10 9KG d   1     843.657 -39.384 141.576  0.00  0.00     0.250 A 
ATOM     44  H1  9KG d   1     845.148 -40.030 140.399  0.00  0.00     0.173 HD
ATOM     45  C11 9KG d   1     842.899 -38.177 141.847  0.00  0.00    -0.002 A 
ATOM     46  O4  9KG d   1     843.475 -40.456 142.144  0.00  0.00    -0.268 OA
ATOM     47  C12 9KG d   1     843.190 -37.057 141.156  0.00  0.00    -0.011 A 
ATOM     48  H7  9KG d   1     842.108 -38.176 142.596  0.00  0.00     0.094 H 
ATOM     49  H8  9KG d   1     842.616 -36.158 141.374  0.00  0.00     0.112 H 
ENDBRANCH  36  39
ENDBRANCH  33  36
ENDBRANCH  32  33
ENDBRANCH  23  32
ENDBRANCH  21  22
ENDBRANCH   2  21
BRANCH   6  50
ATOM     50  N3  9KG d   1     842.154 -30.916 145.699  0.00  0.00    -0.318 N 
ATOM     51  C25 9KG d   1     842.750 -30.017 146.548  0.00  0.00     0.246 C 
ATOM     52  O5  9KG d   1     842.468 -28.812 146.510  0.00  0.00    -0.268 OA
BRANCH  51  53
ATOM     53  C26 9KG d   1     843.735 -30.495 147.504  0.00  0.00    -0.026 C 
ATOM     54  C28 9KG d   1     844.399 -29.655 148.321  0.00  0.00    -0.116 C 
ATOM     55  H20 9KG d   1     845.131 -30.046 149.026  0.00  0.00     0.067 H 
ATOM     56  H21 9KG d   1     844.204 -28.584 148.277  0.00  0.00     0.067 H 
ATOM     57  H16 9KG d   1     843.942 -31.563 147.561  0.00  0.00     0.090 H 
ENDBRANCH  51  53
BRANCH  50  58
ATOM     58  C27 9KG d   1     841.149 -30.514 144.705  0.00  0.00    -0.011 C 
ATOM     59  H17 9KG d   1     840.815 -31.398 144.143  0.00  0.00     0.057 H 
ATOM     60  H18 9KG d   1     841.591 -29.784 144.011  0.00  0.00     0.057 H 
ATOM     61  H19 9KG d   1     840.288 -30.059 145.217  0.00  0.00     0.057 H 
ENDBRANCH  50  58
ENDBRANCH   6  50
TORSDOF 10
