REMARK  9 active torsions:
REMARK  status: ('A' for Active; 'I' for Inactive)
REMARK    1  A    between atoms: O2_25  and  C2_2 
REMARK    2  A    between atoms: C7_5  and  O2_25 
REMARK    3  A    between atoms: C8_26  and  C7_5 
REMARK    4  A    between atoms: O1_24  and  C13_8 
REMARK    5  A    between atoms: C14_9  and  C24_17 
REMARK    6  A    between atoms: C17_12  and  N3_35 
REMARK    7  A    between atoms: C25_18  and  C26_19 
REMARK       I    between atoms: N3_35  and  C25_18 
REMARK    8  A    between atoms: C3_21  and  O1_24 
REMARK    9  A    between atoms: N1_27  and  C8_26 
ROOT
ATOM      1  C13 9KD d   1     461.968   3.118 122.020  0.00  0.00     0.085 A 
ATOM      2  C14 9KD d   1     462.691   2.710 123.160  0.00  0.00    -0.017 A 
ATOM      3  C15 9KD d   1     462.591   3.435 124.368  0.00  0.00    -0.013 A 
ATOM      4  C16 9KD d   1     461.752   4.582 124.437  0.00  0.00     0.002 A 
ATOM      5  C17 9KD d   1     461.025   4.996 123.289  0.00  0.00     0.048 A 
ATOM      6  C19 9KD d   1     463.322   3.025 125.508  0.00  0.00    -0.051 A 
ATOM      7  C21 9KD d   1     462.400   4.874 126.784  0.00  0.00    -0.062 A 
ATOM      8  C22 9KD d   1     461.668   5.294 125.658  0.00  0.00    -0.069 A 
ATOM      9  C23 9KD d   1     463.983   3.311 127.879  0.00  0.00     0.099 C 
ATOM     10  C18 9KD d   1     461.135   4.254 122.090  0.00  0.00    -0.023 A 
ATOM     11  C20 9KD d   1     463.228   3.740 126.713  0.00  0.00     0.045 A 
ATOM     12  N4  9KD d   1     464.582   2.970 128.806  0.00  0.00    -0.191 NA
ATOM     13  H6  9KD d   1     463.961   2.151 125.451  0.00  0.00     0.087 H 
ATOM     14  H7  9KD d   1     462.325   5.428 127.712  0.00  0.00     0.085 H 
ATOM     15  H8  9KD d   1     461.034   6.171 125.726  0.00  0.00     0.085 H 
ATOM     16  H21 9KD d   1     460.573   4.562 121.216  0.00  0.00     0.091 H 
ENDROOT
BRANCH   2  17
ATOM     17  C24 9KD d   1     463.585   1.483 123.067  0.00  0.00    -0.048 C 
ATOM     18  H9  9KD d   1     463.526   1.063 122.052  0.00  0.00     0.033 H 
ATOM     19  H10 9KD d   1     463.251   0.730 123.796  0.00  0.00     0.033 H 
ATOM     20  H11 9KD d   1     464.624   1.769 123.286  0.00  0.00     0.033 H 
ENDBRANCH   2  17
BRANCH   1  21
ATOM     21  O1  9KD d   1     462.100   2.375 120.873  0.00  0.00    -0.307 OA
BRANCH  21  22
ATOM     22  C3  9KD d   1     461.825   2.905 119.640  0.00  0.00     0.109 A 
ATOM     23  C2  9KD d   1     460.551   2.723 119.058  0.00  0.00     0.102 A 
ATOM     24  C1  9KD d   1     460.294   3.270 117.777  0.00  0.00    -0.048 A 
ATOM     25  C6  9KD d   1     461.298   3.980 117.093  0.00  0.00    -0.080 A 
ATOM     26  H1  9KD d   1     459.319   3.141 117.321  0.00  0.00     0.087 H 
ATOM     27  C5  9KD d   1     462.568   4.150 117.677  0.00  0.00    -0.080 A 
ATOM     28  H16 9KD d   1     461.093   4.397 116.114  0.00  0.00     0.083 H 
ATOM     29  C4  9KD d   1     462.831   3.608 118.949  0.00  0.00    -0.048 A 
ATOM     30  H15 9KD d   1     463.341   4.697 117.148  0.00  0.00     0.083 H 
ATOM     31  H2  9KD d   1     463.810   3.732 119.398  0.00  0.00     0.087 H 
BRANCH  23  32
ATOM     32  O2  9KD d   1     459.618   2.019 119.784  0.00  0.00    -0.347 OA
BRANCH  32  33
ATOM     33  C7  9KD d   1     458.478   1.547 119.080  0.00  0.00     0.041 C 
ATOM     34  H3  9KD d   1     458.797   0.958 118.208  0.00  0.00     0.077 H 
ATOM     35  H4  9KD d   1     457.870   2.399 118.743  0.00  0.00     0.077 H 
BRANCH  33  36
ATOM     36  C8  9KD d   1     457.656   0.666 120.028  0.00  0.00     0.024 C 
ATOM     37  H17 9KD d   1     456.894   0.135 119.438  0.00  0.00     0.068 H 
ATOM     38  H18 9KD d   1     457.162   1.315 120.767  0.00  0.00     0.068 H 
BRANCH  36  39
ATOM     39  N1  9KD d   1     458.450  -0.311 120.735  0.00  0.00    -0.308 N 
ATOM     40  C9  9KD d   1     458.795  -1.502 120.055  0.00  0.00     0.329 A 
ATOM     41  N2  9KD d   1     459.554  -2.427 120.758  0.00  0.00    -0.275 N 
ATOM     42  O3  9KD d   1     458.460  -1.741 118.897  0.00  0.00    -0.246 OA
ATOM     43  C10 9KD d   1     460.000  -2.282 122.068  0.00  0.00     0.250 A 
ATOM     44  H19 9KD d   1     459.802  -3.271 120.282  0.00  0.00     0.173 HD
ATOM     45  C11 9KD d   1     459.611  -1.035 122.716  0.00  0.00    -0.002 A 
ATOM     46  O4  9KD d   1     460.667  -3.171 122.589  0.00  0.00    -0.268 OA
ATOM     47  C12 9KD d   1     458.870  -0.124 122.042  0.00  0.00    -0.011 A 
ATOM     48  H5  9KD d   1     459.916  -0.836 123.742  0.00  0.00     0.094 H 
ATOM     49  H20 9KD d   1     458.591   0.798 122.550  0.00  0.00     0.112 H 
ENDBRANCH  36  39
ENDBRANCH  33  36
ENDBRANCH  32  33
ENDBRANCH  23  32
ENDBRANCH  21  22
ENDBRANCH   1  21
BRANCH   5  50
ATOM     50  N3  9KD d   1     460.181   6.142 123.380  0.00  0.00    -0.323 N 
ATOM     51  C25 9KD d   1     458.981   6.188 123.985  0.00  0.00     0.244 C 
ATOM     52  O5  9KD d   1     458.456   5.222 124.535  0.00  0.00    -0.268 OA
ATOM     53  H22 9KD d   1     460.511   6.986 122.957  0.00  0.00     0.169 HD
BRANCH  51  54
ATOM     54  C26 9KD d   1     458.368   7.500 123.912  0.00  0.00    -0.026 C 
ATOM     55  C27 9KD d   1     457.162   7.677 124.478  0.00  0.00    -0.116 C 
ATOM     56  H13 9KD d   1     456.679   8.652 124.438  0.00  0.00     0.067 H 
ATOM     57  H14 9KD d   1     456.667   6.845 124.977  0.00  0.00     0.067 H 
ATOM     58  H12 9KD d   1     458.873   8.323 123.410  0.00  0.00     0.090 H 
ENDBRANCH  51  54
ENDBRANCH   5  50
TORSDOF 9
