REMARK  10 active torsions:
REMARK  status: ('A' for Active; 'I' for Inactive)
REMARK    1  A    between atoms: C25_2  and  C26_1 
REMARK       I    between atoms: N3_8  and  C25_2 
REMARK    2  A    between atoms: N3_8  and  C27_3 
REMARK    3  A    between atoms: C14_27  and  C24_5 
REMARK    4  A    between atoms: C17_33  and  N3_8 
REMARK    5  A    between atoms: C2_12  and  O2_24 
REMARK    6  A    between atoms: C7_13  and  C8_18 
REMARK    7  A    between atoms: O2_24  and  C7_13 
REMARK    8  A    between atoms: O1_25  and  C3_17 
REMARK    9  A    between atoms: C8_18  and  N1_26 
REMARK   10  A    between atoms: C13_23  and  O1_25 
ROOT
ATOM      1  N4  9K7 d   1     840.478 -36.038 150.352  0.00  0.00    -0.191 NA
ATOM      2  C22 9K7 d   1     841.677 -32.215 147.541  0.00  0.00    -0.069 A 
ATOM      3  C21 9K7 d   1     841.132 -33.079 148.509  0.00  0.00    -0.062 A 
ATOM      4  C23 9K7 d   1     840.928 -35.326 149.555  0.00  0.00     0.099 C 
ATOM      5  C20 9K7 d   1     841.497 -34.433 148.551  0.00  0.00     0.045 A 
ATOM      6  C13 9K7 d   1     844.484 -33.728 144.730  0.00  0.00     0.085 A 
ATOM      7  C14 9K7 d   1     843.917 -34.575 145.700  0.00  0.00    -0.017 A 
ATOM      8  C15 9K7 d   1     842.985 -34.058 146.631  0.00  0.00    -0.013 A 
ATOM      9  C19 9K7 d   1     842.423 -34.913 147.610  0.00  0.00    -0.051 A 
ATOM     10  C16 9K7 d   1     842.610 -32.683 146.586  0.00  0.00     0.002 A 
ATOM     11  C17 9K7 d   1     843.180 -31.823 145.599  0.00  0.00     0.050 A 
ATOM     12  C18 9K7 d   1     844.103 -32.370 144.675  0.00  0.00    -0.023 A 
ATOM     13  H9  9K7 d   1     841.377 -31.174 147.527  0.00  0.00     0.085 H 
ATOM     14  H10 9K7 d   1     840.421 -32.694 149.231  0.00  0.00     0.085 H 
ATOM     15  H22 9K7 d   1     842.713 -35.957 147.634  0.00  0.00     0.087 H 
ATOM     16  H23 9K7 d   1     844.527 -31.732 143.908  0.00  0.00     0.091 H 
ENDROOT
BRANCH   7  17
ATOM     17  C24 9K7 d   1     844.326 -36.044 145.734  0.00  0.00    -0.048 C 
ATOM     18  H6  9K7 d   1     845.054 -36.240 144.933  0.00  0.00     0.033 H 
ATOM     19  H7  9K7 d   1     843.438 -36.675 145.585  0.00  0.00     0.033 H 
ATOM     20  H8  9K7 d   1     844.781 -36.275 146.708  0.00  0.00     0.033 H 
ENDBRANCH   7  17
BRANCH  11  21
ATOM     21  N3  9K7 d   1     842.838 -30.429 145.488  0.00  0.00    -0.321 N 
ATOM     22  C25 9K7 d   1     843.606 -29.421 145.981  0.00  0.00     0.237 C 
ATOM     23  O5  9K7 d   1     843.286 -28.237 145.865  0.00  0.00    -0.272 OA
BRANCH  22  24
ATOM     24  C26 9K7 d   1     844.919 -29.765 146.690  0.00  0.00     0.076 C 
ATOM     25 CL1  9K7 d   1     844.858 -29.779 148.474  0.00  0.00    -0.121 Cl
ATOM     26  H1  9K7 d   1     845.672 -29.024 146.384  0.00  0.00     0.070 H 
ATOM     27  H2  9K7 d   1     845.231 -30.765 146.355  0.00  0.00     0.070 H 
ENDBRANCH  22  24
BRANCH  21  28
ATOM     28  C27 9K7 d   1     841.583 -30.106 144.798  0.00  0.00    -0.011 C 
ATOM     29  H3  9K7 d   1     841.443 -29.015 144.783  0.00  0.00     0.057 H 
ATOM     30  H4  9K7 d   1     840.742 -30.576 145.328  0.00  0.00     0.057 H 
ATOM     31  H5  9K7 d   1     841.624 -30.484 143.766  0.00  0.00     0.057 H 
ENDBRANCH  21  28
ENDBRANCH  11  21
BRANCH   6  32
ATOM     32  O1  9K7 d   1     845.370 -34.282 143.839  0.00  0.00    -0.307 OA
BRANCH  32  33
ATOM     33  C3  9K7 d   1     846.682 -33.908 143.678  0.00  0.00     0.109 A 
ATOM     34  C2  9K7 d   1     847.127 -33.764 142.355  0.00  0.00     0.102 A 
ATOM     35  C1  9K7 d   1     848.471 -33.393 142.096  0.00  0.00    -0.048 A 
ATOM     36  C6  9K7 d   1     849.361 -33.182 143.167  0.00  0.00    -0.080 A 
ATOM     37  H11 9K7 d   1     848.813 -33.272 141.075  0.00  0.00     0.087 H 
ATOM     38  C5  9K7 d   1     848.911 -33.339 144.493  0.00  0.00    -0.080 A 
ATOM     39  H14 9K7 d   1     850.389 -32.900 142.972  0.00  0.00     0.083 H 
ATOM     40  C4  9K7 d   1     847.574 -33.706 144.753  0.00  0.00    -0.048 A 
ATOM     41  H15 9K7 d   1     849.596 -33.177 145.318  0.00  0.00     0.083 H 
ATOM     42  H16 9K7 d   1     847.233 -33.832 145.774  0.00  0.00     0.087 H 
BRANCH  34  43
ATOM     43  O2  9K7 d   1     846.155 -33.996 141.409  0.00  0.00    -0.347 OA
BRANCH  43  44
ATOM     44  C7  9K7 d   1     846.522 -34.458 140.125  0.00  0.00     0.041 C 
ATOM     45  H12 9K7 d   1     846.787 -33.604 139.484  0.00  0.00     0.077 H 
ATOM     46  H13 9K7 d   1     847.384 -35.137 140.207  0.00  0.00     0.077 H 
BRANCH  44  47
ATOM     47  C8  9K7 d   1     845.326 -35.208 139.521  0.00  0.00     0.024 C 
ATOM     48  H17 9K7 d   1     845.543 -35.446 138.469  0.00  0.00     0.068 H 
ATOM     49  H18 9K7 d   1     844.433 -34.568 139.576  0.00  0.00     0.068 H 
BRANCH  47  50
ATOM     50  N1  9K7 d   1     845.077 -36.429 140.240  0.00  0.00    -0.308 N 
ATOM     51  C9  9K7 d   1     845.877 -37.547 139.916  0.00  0.00     0.329 A 
ATOM     52  N2  9K7 d   1     845.630 -38.715 140.624  0.00  0.00    -0.275 N 
ATOM     53  O3  9K7 d   1     846.756 -37.524 139.056  0.00  0.00    -0.246 OA
ATOM     54  C10 9K7 d   1     844.670 -38.872 141.618  0.00  0.00     0.250 A 
ATOM     55  H21 9K7 d   1     846.191 -39.512 140.400  0.00  0.00     0.173 HD
ATOM     56  C11 9K7 d   1     843.880 -37.682 141.908  0.00  0.00    -0.002 A 
ATOM     57  O4  9K7 d   1     844.545 -39.957 142.173  0.00  0.00    -0.268 OA
ATOM     58  C12 9K7 d   1     844.109 -36.535 141.226  0.00  0.00    -0.011 A 
ATOM     59  H19 9K7 d   1     843.106 -37.715 142.673  0.00  0.00     0.094 H 
ATOM     60  H20 9K7 d   1     843.507 -35.659 141.462  0.00  0.00     0.112 H 
ENDBRANCH  47  50
ENDBRANCH  44  47
ENDBRANCH  43  44
ENDBRANCH  34  43
ENDBRANCH  32  33
ENDBRANCH   6  32
TORSDOF 10
