REMARK  10 active torsions:
REMARK  status: ('A' for Active; 'I' for Inactive)
REMARK    1  A    between atoms: C8_27  and  N1_2 
REMARK    2  A    between atoms: O1_33  and  C13_7 
REMARK    3  A    between atoms: C14_8  and  C24_19 
REMARK    4  A    between atoms: C17_11  and  N3_31 
REMARK    5  A    between atoms: O2_34  and  C2_14 
REMARK    6  A    between atoms: C25_20  and  C26_21 
REMARK       I    between atoms: N3_31  and  C25_20 
REMARK    7  A    between atoms: N3_31  and  C27_22 
REMARK    8  A    between atoms: C3_23  and  O1_33 
REMARK    9  A    between atoms: C7_26  and  C8_27 
REMARK   10  A    between atoms: C7_26  and  O2_34 
ROOT
ATOM      1  C13 9JP d   1     844.850 -31.035 145.516  0.00  0.00     0.085 A 
ATOM      2  C14 9JP d   1     844.184 -31.941 146.342  0.00  0.00    -0.017 A 
ATOM      3  C15 9JP d   1     843.329 -31.479 147.385  0.00  0.00    -0.013 A 
ATOM      4  C16 9JP d   1     843.155 -30.070 147.570  0.00  0.00     0.002 A 
ATOM      5  C17 9JP d   1     843.850 -29.167 146.701  0.00  0.00     0.050 A 
ATOM      6  C18 9JP d   1     844.673 -29.666 145.692  0.00  0.00    -0.023 A 
ATOM      7  C19 9JP d   1     842.641 -32.380 148.247  0.00  0.00    -0.051 A 
ATOM      8  C20 9JP d   1     841.812 -31.913 149.260  0.00  0.00     0.045 A 
ATOM      9  C21 9JP d   1     841.646 -30.545 149.440  0.00  0.00    -0.062 A 
ATOM     10  C22 9JP d   1     842.297 -29.632 148.618  0.00  0.00    -0.069 A 
ATOM     11  C23 9JP d   1     841.121 -32.856 150.129  0.00  0.00     0.099 C 
ATOM     12  N4  9JP d   1     840.573 -33.606 150.819  0.00  0.00    -0.191 NA
ATOM     13  H5  9JP d   1     845.184 -28.974 145.032  0.00  0.00     0.091 H 
ATOM     14  H6  9JP d   1     842.766 -33.448 148.111  0.00  0.00     0.087 H 
ATOM     15  H7  9JP d   1     841.000 -30.185 150.232  0.00  0.00     0.085 H 
ATOM     16  H8  9JP d   1     842.149 -28.570 148.778  0.00  0.00     0.085 H 
ENDROOT
BRANCH   2  17
ATOM     17  C24 9JP d   1     844.373 -33.444 146.141  0.00  0.00    -0.048 C 
ATOM     18  H9  9JP d   1     845.060 -33.618 145.299  0.00  0.00     0.033 H 
ATOM     19  H10 9JP d   1     843.401 -33.910 145.923  0.00  0.00     0.033 H 
ATOM     20  H11 9JP d   1     844.795 -33.886 147.056  0.00  0.00     0.033 H 
ENDBRANCH   2  17
BRANCH   1  21
ATOM     21  O1  9JP d   1     845.648 -31.563 144.525  0.00  0.00    -0.307 OA
BRANCH  21  22
ATOM     22  C3  9JP d   1     846.963 -31.239 144.293  0.00  0.00     0.109 A 
ATOM     23  C4  9JP d   1     847.843 -30.952 145.344  0.00  0.00    -0.048 A 
ATOM     24  C5  9JP d   1     849.174 -30.637 145.069  0.00  0.00    -0.080 A 
ATOM     25  H1  9JP d   1     847.491 -30.975 146.369  0.00  0.00     0.087 H 
ATOM     26  C6  9JP d   1     849.630 -30.613 143.753  0.00  0.00    -0.080 A 
ATOM     27  H17 9JP d   1     849.855 -30.410 145.881  0.00  0.00     0.083 H 
ATOM     28  C1  9JP d   1     848.757 -30.903 142.705  0.00  0.00    -0.048 A 
ATOM     29  H18 9JP d   1     850.665 -30.369 143.543  0.00  0.00     0.083 H 
ATOM     30  C2  9JP d   1     847.423 -31.221 142.965  0.00  0.00     0.102 A 
ATOM     31  H2  9JP d   1     849.116 -30.881 141.683  0.00  0.00     0.087 H 
BRANCH  30  32
ATOM     32  O2  9JP d   1     846.623 -31.493 141.873  0.00  0.00    -0.347 OA
BRANCH  32  33
ATOM     33  C7  9JP d   1     847.140 -31.900 140.622  0.00  0.00     0.041 C 
ATOM     34  H19 9JP d   1     847.386 -31.020 140.009  0.00  0.00     0.077 H 
ATOM     35  H20 9JP d   1     848.043 -32.511 140.766  0.00  0.00     0.077 H 
BRANCH  33  36
ATOM     36  C8  9JP d   1     846.044 -32.729 139.940  0.00  0.00     0.024 C 
ATOM     37  H21 9JP d   1     845.129 -32.123 139.868  0.00  0.00     0.068 H 
ATOM     38  H22 9JP d   1     846.380 -33.007 138.930  0.00  0.00     0.068 H 
BRANCH  36  39
ATOM     39  N1  9JP d   1     845.751 -33.950 140.699  0.00  0.00    -0.308 N 
ATOM     40  C12 9JP d   1     844.733 -34.026 141.616  0.00  0.00    -0.011 A 
ATOM     41  C11 9JP d   1     844.441 -35.130 142.330  0.00  0.00    -0.002 A 
ATOM     42  H4  9JP d   1     844.123 -33.138 141.776  0.00  0.00     0.112 H 
ATOM     43  C10 9JP d   1     845.240 -36.323 142.132  0.00  0.00     0.250 A 
ATOM     44  H3  9JP d   1     843.619 -35.126 143.044  0.00  0.00     0.094 H 
ATOM     45  N2  9JP d   1     846.228 -36.156 141.207  0.00  0.00    -0.275 N 
ATOM     46  O4  9JP d   1     845.053 -37.378 142.731  0.00  0.00    -0.268 OA
ATOM     47  C9  9JP d   1     846.555 -35.049 140.464  0.00  0.00     0.329 A 
ATOM     48  H23 9JP d   1     846.800 -36.960 141.046  0.00  0.00     0.173 HD
ATOM     49  O3  9JP d   1     847.494 -35.090 139.667  0.00  0.00    -0.246 OA
ENDBRANCH  36  39
ENDBRANCH  33  36
ENDBRANCH  32  33
ENDBRANCH  30  32
ENDBRANCH  21  22
ENDBRANCH   1  21
BRANCH   5  50
ATOM     50  N3  9JP d   1     843.729 -27.767 146.811  0.00  0.00    -0.319 N 
ATOM     51  C25 9JP d   1     844.597 -27.031 147.561  0.00  0.00     0.252 C 
ATOM     52  O5  9JP d   1     844.503 -25.803 147.666  0.00  0.00    -0.270 OA
BRANCH  51  53
ATOM     53  C26 9JP d   1     845.736 -27.742 148.309  0.00  0.00     0.132 C 
ATOM     54  F1  9JP d   1     846.283 -26.931 149.215  0.00  0.00    -0.246 F 
ATOM     55  H12 9JP d   1     846.507 -28.048 147.586  0.00  0.00     0.097 H 
ATOM     56  H13 9JP d   1     845.335 -28.632 148.816  0.00  0.00     0.097 H 
ENDBRANCH  51  53
BRANCH  50  57
ATOM     57  C27 9JP d   1     842.617 -27.169 146.066  0.00  0.00    -0.011 C 
ATOM     58  H14 9JP d   1     842.061 -27.959 145.541  0.00  0.00     0.057 H 
ATOM     59  H15 9JP d   1     843.011 -26.449 145.333  0.00  0.00     0.057 H 
ATOM     60  H16 9JP d   1     841.945 -26.650 146.765  0.00  0.00     0.057 H 
ENDBRANCH  50  57
ENDBRANCH   5  50
TORSDOF 10
