REMARK  11 active torsions:
REMARK  status: ('A' for Active; 'I' for Inactive)
REMARK    1  A    between atoms: C8_15  and  N1_1 
REMARK    2  A    between atoms: C2_2  and  O2_14 
REMARK    3  A    between atoms: C17_23  and  N3_4 
REMARK       I    between atoms: N3_4  and  C25_33 
REMARK    4  A    between atoms: N3_4  and  C27_36 
REMARK    5  A    between atoms: O2_14  and  C7_8 
REMARK    6  A    between atoms: C7_8  and  C8_15 
REMARK    7  A    between atoms: O1_13  and  C3_11 
REMARK    8  A    between atoms: C13_19  and  O1_13 
REMARK    9  A    between atoms: C14_20  and  C24_32 
REMARK   10  A    between atoms: C25_33  and  C26_35 
REMARK   11  A    between atoms: C26_35  and  C28_37 
ROOT
ATOM      1  N4  9J1 d   1     839.847 -32.663 151.340  0.00  0.00    -0.191 NA
ATOM      2  C13 9J1 d   1     844.080 -30.411 145.852  0.00  0.00     0.085 A 
ATOM      3  C14 9J1 d   1     843.406 -31.271 146.745  0.00  0.00    -0.017 A 
ATOM      4  C15 9J1 d   1     842.580 -30.733 147.764  0.00  0.00    -0.013 A 
ATOM      5  C16 9J1 d   1     842.424 -29.323 147.885  0.00  0.00     0.002 A 
ATOM      6  C17 9J1 d   1     843.105 -28.464 146.977  0.00  0.00     0.050 A 
ATOM      7  C18 9J1 d   1     843.918 -29.018 145.967  0.00  0.00    -0.023 A 
ATOM      8  C19 9J1 d   1     841.904 -31.590 148.667  0.00  0.00    -0.051 A 
ATOM      9  C20 9J1 d   1     841.083 -31.066 149.684  0.00  0.00     0.045 A 
ATOM     10  C21 9J1 d   1     840.931 -29.673 149.806  0.00  0.00    -0.062 A 
ATOM     11  C22 9J1 d   1     841.595 -28.809 148.914  0.00  0.00    -0.069 A 
ATOM     12  C23 9J1 d   1     840.395 -31.955 150.605  0.00  0.00     0.099 C 
ATOM     13  H12 9J1 d   1     844.425 -28.362 145.269  0.00  0.00     0.091 H 
ATOM     14  H13 9J1 d   1     842.020 -32.664 148.574  0.00  0.00     0.087 H 
ATOM     15  H14 9J1 d   1     840.302 -29.264 150.588  0.00  0.00     0.085 H 
ATOM     16  H15 9J1 d   1     841.471 -27.737 149.015  0.00  0.00     0.085 H 
ENDROOT
BRANCH   3  17
ATOM     17  C24 9J1 d   1     843.586 -32.778 146.595  0.00  0.00    -0.048 C 
ATOM     18  H16 9J1 d   1     844.260 -32.984 145.751  0.00  0.00     0.033 H 
ATOM     19  H17 9J1 d   1     842.609 -33.247 146.407  0.00  0.00     0.033 H 
ATOM     20  H18 9J1 d   1     844.019 -33.189 147.519  0.00  0.00     0.033 H 
ENDBRANCH   3  17
BRANCH   2  21
ATOM     21  O1  9J1 d   1     844.860 -30.959 144.864  0.00  0.00    -0.307 OA
BRANCH  21  22
ATOM     22  C3  9J1 d   1     846.196 -30.688 144.722  0.00  0.00     0.109 A 
ATOM     23  C2  9J1 d   1     846.747 -30.728 143.427  0.00  0.00     0.102 A 
ATOM     24  C1  9J1 d   1     848.127 -30.459 143.250  0.00  0.00    -0.048 A 
ATOM     25  C6  9J1 d   1     848.935 -30.163 144.363  0.00  0.00    -0.080 A 
ATOM     26  H6  9J1 d   1     848.560 -30.481 142.257  0.00  0.00     0.087 H 
ATOM     27  C5  9J1 d   1     848.376 -30.132 145.654  0.00  0.00    -0.080 A 
ATOM     28  H3  9J1 d   1     849.991 -29.958 144.226  0.00  0.00     0.083 H 
ATOM     29  C4  9J1 d   1     847.005 -30.397 145.835  0.00  0.00    -0.048 A 
ATOM     30  H7  9J1 d   1     849.001 -29.904 146.510  0.00  0.00     0.083 H 
ATOM     31  H2  9J1 d   1     846.574 -30.377 146.829  0.00  0.00     0.087 H 
BRANCH  23  32
ATOM     32  O2  9J1 d   1     845.860 -31.027 142.417  0.00  0.00    -0.347 OA
BRANCH  32  33
ATOM     33  C7  9J1 d   1     846.348 -31.350 141.131  0.00  0.00     0.041 C 
ATOM     34  H4  9J1 d   1     847.282 -31.924 141.216  0.00  0.00     0.077 H 
ATOM     35  H5  9J1 d   1     846.534 -30.430 140.557  0.00  0.00     0.077 H 
BRANCH  33  36
ATOM     36  C8  9J1 d   1     845.274 -32.195 140.434  0.00  0.00     0.024 C 
ATOM     37  H8  9J1 d   1     844.373 -31.581 140.289  0.00  0.00     0.068 H 
ATOM     38  H9  9J1 d   1     845.655 -32.523 139.456  0.00  0.00     0.068 H 
BRANCH  36  39
ATOM     39  N1  9J1 d   1     844.930 -33.355 141.216  0.00  0.00    -0.308 N 
ATOM     40  C9  9J1 d   1     845.686 -34.527 140.995  0.00  0.00     0.329 A 
ATOM     41  N2  9J1 d   1     845.349 -35.638 141.757  0.00  0.00    -0.275 N 
ATOM     42  O3  9J1 d   1     846.604 -34.597 140.178  0.00  0.00    -0.246 OA
ATOM     43  C10 9J1 d   1     844.338 -35.692 142.710  0.00  0.00     0.250 A 
ATOM     44  H1  9J1 d   1     845.880 -36.472 141.607  0.00  0.00     0.173 HD
ATOM     45  C11 9J1 d   1     843.597 -34.451 142.891  0.00  0.00    -0.002 A 
ATOM     46  O4  9J1 d   1     844.130 -36.735 143.322  0.00  0.00    -0.268 OA
ATOM     47  C12 9J1 d   1     843.911 -33.359 142.157  0.00  0.00    -0.011 A 
ATOM     48  H10 9J1 d   1     842.788 -34.402 143.619  0.00  0.00     0.094 H 
ATOM     49  H11 9J1 d   1     843.340 -32.445 142.311  0.00  0.00     0.112 H 
ENDBRANCH  36  39
ENDBRANCH  33  36
ENDBRANCH  32  33
ENDBRANCH  23  32
ENDBRANCH  21  22
ENDBRANCH   2  21
BRANCH   6  50
ATOM     50  N3  9J1 d   1     843.000 -27.041 147.024  0.00  0.00    -0.321 N 
ATOM     51  C25 9J1 d   1     843.853 -26.275 147.752  0.00  0.00     0.223 C 
ATOM     52  O5  9J1 d   1     843.769 -25.046 147.796  0.00  0.00    -0.273 OA
BRANCH  51  53
ATOM     53  C26 9J1 d   1     844.963 -26.967 148.560  0.00  0.00     0.006 C 
ATOM     54  H19 9J1 d   1     845.505 -27.656 147.896  0.00  0.00     0.046 H 
ATOM     55  H20 9J1 d   1     844.500 -27.536 149.380  0.00  0.00     0.046 H 
BRANCH  53  56
ATOM     56  C28 9J1 d   1     845.965 -25.972 149.158  0.00  0.00    -0.068 C 
ATOM     57  H24 9J1 d   1     846.733 -26.520 149.723  0.00  0.00     0.028 H 
ATOM     58  H25 9J1 d   1     845.438 -25.281 149.832  0.00  0.00     0.028 H 
ATOM     59  H26 9J1 d   1     846.443 -25.401 148.348  0.00  0.00     0.028 H 
ENDBRANCH  53  56
ENDBRANCH  51  53
BRANCH  50  60
ATOM     60  C27 9J1 d   1     841.922 -26.436 146.236  0.00  0.00    -0.011 C 
ATOM     61  H21 9J1 d   1     841.352 -27.227 145.726  0.00  0.00     0.057 H 
ATOM     62  H22 9J1 d   1     842.353 -25.754 145.488  0.00  0.00     0.057 H 
ATOM     63  H23 9J1 d   1     841.252 -25.873 146.903  0.00  0.00     0.057 H 
ENDBRANCH  50  60
ENDBRANCH   6  50
TORSDOF 11
