REMARK  9 active torsions:
REMARK  status: ('A' for Active; 'I' for Inactive)
REMARK    1  A    between atoms: O2_25  and  C2_2 
REMARK    2  A    between atoms: C7_5  and  O2_25 
REMARK    3  A    between atoms: C8_26  and  C7_5 
REMARK    4  A    between atoms: O1_24  and  C13_8 
REMARK    5  A    between atoms: C14_9  and  C24_17 
REMARK    6  A    between atoms: C17_12  and  N3_35 
REMARK    7  A    between atoms: C25_18  and  C26_19 
REMARK       I    between atoms: N3_35  and  C25_18 
REMARK    8  A    between atoms: C3_21  and  O1_24 
REMARK    9  A    between atoms: N1_27  and  C8_26 
ROOT
ATOM      1  C13 9KD d   1     843.502 -26.765 143.999  0.00  0.00     0.085 A 
ATOM      2  C14 9KD d   1     842.640 -27.432 144.915  0.00  0.00    -0.017 A 
ATOM      3  C15 9KD d   1     841.580 -26.722 145.531  0.00  0.00    -0.013 A 
ATOM      4  C16 9KD d   1     841.342 -25.344 145.264  0.00  0.00     0.002 A 
ATOM      5  C17 9KD d   1     842.195 -24.664 144.345  0.00  0.00     0.048 A 
ATOM      6  C19 9KD d   1     840.739 -27.406 146.439  0.00  0.00    -0.051 A 
ATOM      7  C21 9KD d   1     839.420 -25.421 146.839  0.00  0.00    -0.062 A 
ATOM      8  C22 9KD d   1     840.251 -24.717 145.930  0.00  0.00    -0.069 A 
ATOM      9  C23 9KD d   1     838.852 -27.575 148.015  0.00  0.00     0.099 C 
ATOM     10  C18 9KD d   1     843.248 -25.399 143.743  0.00  0.00    -0.023 A 
ATOM     11  C20 9KD d   1     839.665 -26.784 147.095  0.00  0.00     0.045 A 
ATOM     12  N4  9KD d   1     838.223 -28.224 148.740  0.00  0.00    -0.191 NA
ATOM     13  H6  9KD d   1     840.932 -28.454 146.637  0.00  0.00     0.087 H 
ATOM     14  H7  9KD d   1     838.601 -24.912 147.334  0.00  0.00     0.085 H 
ATOM     15  H8  9KD d   1     840.049 -23.670 145.737  0.00  0.00     0.085 H 
ATOM     16  H21 9KD d   1     843.896 -24.882 143.045  0.00  0.00     0.091 H 
ENDROOT
BRANCH   2  17
ATOM     17  C24 9KD d   1     842.805 -28.906 145.268  0.00  0.00    -0.048 C 
ATOM     18  H9  9KD d   1     843.662 -29.321 144.718  0.00  0.00     0.033 H 
ATOM     19  H10 9KD d   1     841.892 -29.454 144.992  0.00  0.00     0.033 H 
ATOM     20  H11 9KD d   1     842.980 -29.007 146.349  0.00  0.00     0.033 H 
ENDBRANCH   2  17
BRANCH   1  21
ATOM     21  O1  9KD d   1     844.569 -27.370 143.358  0.00  0.00    -0.307 OA
BRANCH  21  22
ATOM     22  C3  9KD d   1     845.598 -26.568 142.883  0.00  0.00     0.109 A 
ATOM     23  C2  9KD d   1     845.601 -26.195 141.523  0.00  0.00     0.102 A 
ATOM     24  C1  9KD d   1     846.635 -25.368 141.008  0.00  0.00    -0.048 A 
ATOM     25  C6  9KD d   1     847.671 -24.913 141.846  0.00  0.00    -0.080 A 
ATOM     26  H1  9KD d   1     846.626 -25.085 139.962  0.00  0.00     0.087 H 
ATOM     27  C5  9KD d   1     847.673 -25.284 143.203  0.00  0.00    -0.080 A 
ATOM     28  H16 9KD d   1     848.459 -24.283 141.450  0.00  0.00     0.083 H 
ATOM     29  C4  9KD d   1     846.645 -26.107 143.719  0.00  0.00    -0.048 A 
ATOM     30  H15 9KD d   1     848.466 -24.938 143.856  0.00  0.00     0.083 H 
ATOM     31  H2  9KD d   1     846.658 -26.388 144.766  0.00  0.00     0.087 H 
BRANCH  23  32
ATOM     32  O2  9KD d   1     844.549 -26.679 140.780  0.00  0.00    -0.347 OA
BRANCH  32  33
ATOM     33  C7  9KD d   1     844.688 -26.734 139.368  0.00  0.00     0.041 C 
ATOM     34  H3  9KD d   1     845.592 -27.306 139.111  0.00  0.00     0.077 H 
ATOM     35  H4  9KD d   1     844.774 -25.713 138.968  0.00  0.00     0.077 H 
BRANCH  33  36
ATOM     36  C8  9KD d   1     843.457 -27.420 138.757  0.00  0.00     0.024 C 
ATOM     37  H17 9KD d   1     843.659 -27.637 137.698  0.00  0.00     0.068 H 
ATOM     38  H18 9KD d   1     842.595 -26.741 138.835  0.00  0.00     0.068 H 
BRANCH  36  39
ATOM     39  N1  9KD d   1     843.143 -28.653 139.435  0.00  0.00    -0.308 N 
ATOM     40  C9  9KD d   1     843.830 -29.825 139.048  0.00  0.00     0.329 A 
ATOM     41  N2  9KD d   1     843.502 -30.993 139.727  0.00  0.00    -0.275 N 
ATOM     42  O3  9KD d   1     844.679 -29.842 138.161  0.00  0.00    -0.246 OA
ATOM     43  C10 9KD d   1     842.560 -31.098 140.747  0.00  0.00     0.250 A 
ATOM     44  H19 9KD d   1     843.983 -31.828 139.460  0.00  0.00     0.173 HD
ATOM     45  C11 9KD d   1     841.887 -29.853 141.097  0.00  0.00    -0.002 A 
ATOM     46  O4  9KD d   1     842.355 -32.188 141.275  0.00  0.00    -0.268 OA
ATOM     47  C12 9KD d   1     842.200 -28.711 140.443  0.00  0.00    -0.011 A 
ATOM     48  H5  9KD d   1     841.134 -29.842 141.883  0.00  0.00     0.094 H 
ATOM     49  H20 9KD d   1     841.684 -27.794 140.724  0.00  0.00     0.112 H 
ENDBRANCH  36  39
ENDBRANCH  33  36
ENDBRANCH  32  33
ENDBRANCH  23  32
ENDBRANCH  21  22
ENDBRANCH   1  21
BRANCH   5  50
ATOM     50  N3  9KD d   1     841.987 -23.269 144.057  0.00  0.00    -0.323 N 
ATOM     51  C25 9KD d   1     842.910 -22.304 143.841  0.00  0.00     0.244 C 
ATOM     52  O5  9KD d   1     844.122 -22.503 143.854  0.00  0.00    -0.268 OA
ATOM     53  H22 9KD d   1     841.033 -22.974 144.010  0.00  0.00     0.169 HD
BRANCH  51  54
ATOM     54  C26 9KD d   1     842.337 -20.989 143.593  0.00  0.00    -0.026 C 
ATOM     55  C27 9KD d   1     843.097 -19.894 143.789  0.00  0.00    -0.116 C 
ATOM     56  H13 9KD d   1     842.682 -18.904 143.608  0.00  0.00     0.067 H 
ATOM     57  H14 9KD d   1     844.126 -19.999 144.129  0.00  0.00     0.067 H 
ATOM     58  H12 9KD d   1     841.307 -20.892 143.253  0.00  0.00     0.090 H 
ENDBRANCH  51  54
ENDBRANCH   5  50
TORSDOF 9
