REMARK  10 active torsions:
REMARK  status: ('A' for Active; 'I' for Inactive)
REMARK    1  A    between atoms: C25_2  and  C26_1 
REMARK       I    between atoms: N3_8  and  C25_2 
REMARK    2  A    between atoms: N3_8  and  C27_3 
REMARK    3  A    between atoms: C14_27  and  C24_5 
REMARK    4  A    between atoms: C17_33  and  N3_8 
REMARK    5  A    between atoms: C2_12  and  O2_24 
REMARK    6  A    between atoms: C7_13  and  C8_18 
REMARK    7  A    between atoms: O2_24  and  C7_13 
REMARK    8  A    between atoms: O1_25  and  C3_17 
REMARK    9  A    between atoms: C8_18  and  N1_26 
REMARK   10  A    between atoms: C13_23  and  O1_25 
ROOT
ATOM      1  N4  9HY d   1     -35.953 -43.617  43.358  0.00  0.00    -0.191 NA
ATOM      2  C22 9HY d   1     -34.028 -39.737  41.109  0.00  0.00    -0.069 A 
ATOM      3  C21 9HY d   1     -34.732 -40.602  41.965  0.00  0.00    -0.062 A 
ATOM      4  C23 9HY d   1     -35.378 -42.897  42.658  0.00  0.00     0.099 C 
ATOM      5  C20 9HY d   1     -34.654 -41.994  41.778  0.00  0.00     0.045 A 
ATOM      6  C13 9HY d   1     -31.656 -41.334  37.958  0.00  0.00     0.085 A 
ATOM      7  C14 9HY d   1     -32.369 -42.193  38.819  0.00  0.00    -0.017 A 
ATOM      8  C15 9HY d   1     -33.155 -41.650  39.864  0.00  0.00    -0.013 A 
ATOM      9  C19 9HY d   1     -33.869 -42.512  40.733  0.00  0.00    -0.051 A 
ATOM     10  C16 9HY d   1     -33.232 -40.241  40.048  0.00  0.00     0.002 A 
ATOM     11  C17 9HY d   1     -32.508 -39.379  39.175  0.00  0.00     0.050 A 
ATOM     12  C18 9HY d   1     -31.739 -39.938  38.133  0.00  0.00    -0.023 A 
ATOM     13  H10 9HY d   1     -34.094 -38.666  41.262  0.00  0.00     0.085 H 
ATOM     14  H11 9HY d   1     -35.335 -40.196  42.769  0.00  0.00     0.085 H 
ATOM     15  H23 9HY d   1     -33.809 -43.585  40.590  0.00  0.00     0.087 H 
ATOM     16  H24 9HY d   1     -31.203 -39.283  37.456  0.00  0.00     0.091 H 
ENDROOT
BRANCH   7  17
ATOM     17  C24 9HY d   1     -32.278 -43.701  38.610  0.00  0.00    -0.048 C 
ATOM     18  H7  9HY d   1     -31.622 -43.913  37.753  0.00  0.00     0.033 H 
ATOM     19  H8  9HY d   1     -33.282 -44.105  38.413  0.00  0.00     0.033 H 
ATOM     20  H9  9HY d   1     -31.864 -44.172  39.514  0.00  0.00     0.033 H 
ENDBRANCH   7  17
BRANCH  11  21
ATOM     21  N3  9HY d   1     -32.545 -37.956  39.293  0.00  0.00    -0.322 N 
ATOM     22  C25 9HY d   1     -31.537 -37.201  39.812  0.00  0.00     0.220 C 
ATOM     23  O5  9HY d   1     -31.634 -35.976  39.881  0.00  0.00    -0.274 OA
BRANCH  22  24
ATOM     24  C26 9HY d   1     -30.229 -37.802  40.333  0.00  0.00    -0.002 C 
ATOM     25  H1  9HY d   1     -29.576 -36.996  40.700  0.00  0.00     0.040 H 
ATOM     26  H2  9HY d   1     -29.724 -38.342  39.519  0.00  0.00     0.040 H 
ATOM     27  H3  9HY d   1     -30.448 -38.500  41.155  0.00  0.00     0.040 H 
ENDBRANCH  22  24
BRANCH  21  28
ATOM     28  C27 9HY d   1     -33.764 -37.298  38.807  0.00  0.00    -0.011 C 
ATOM     29  H4  9HY d   1     -33.676 -36.211  38.950  0.00  0.00     0.057 H 
ATOM     30  H5  9HY d   1     -34.632 -37.672  39.370  0.00  0.00     0.057 H 
ATOM     31  H6  9HY d   1     -33.898 -37.518  37.737  0.00  0.00     0.057 H 
ENDBRANCH  21  28
ENDBRANCH  11  21
BRANCH   6  32
ATOM     32  O1  9HY d   1     -30.915 -41.894  36.946  0.00  0.00    -0.307 OA
BRANCH  32  33
ATOM     33  C3  9HY d   1     -29.562 -41.698  36.823  0.00  0.00     0.109 A 
ATOM     34  C2  9HY d   1     -29.024 -41.830  35.532  0.00  0.00     0.102 A 
ATOM     35  C1  9HY d   1     -27.636 -41.646  35.324  0.00  0.00    -0.048 A 
ATOM     36  C6  9HY d   1     -26.802 -41.337  36.416  0.00  0.00    -0.080 A 
ATOM     37  H12 9HY d   1     -27.217 -41.742  34.329  0.00  0.00     0.087 H 
ATOM     38  C5  9HY d   1     -27.346 -41.211  37.709  0.00  0.00    -0.080 A 
ATOM     39  H15 9HY d   1     -25.738 -41.196  36.261  0.00  0.00     0.083 H 
ATOM     40  C4  9HY d   1     -28.727 -41.392  37.917  0.00  0.00    -0.048 A 
ATOM     41  H16 9HY d   1     -26.700 -40.974  38.547  0.00  0.00     0.083 H 
ATOM     42  H17 9HY d   1     -29.145 -41.297  38.912  0.00  0.00     0.087 H 
BRANCH  34  43
ATOM     43  O2  9HY d   1     -29.938 -42.132  34.553  0.00  0.00    -0.347 OA
BRANCH  43  44
ATOM     44  C7  9HY d   1     -29.497 -42.437  33.245  0.00  0.00     0.041 C 
ATOM     45  H13 9HY d   1     -29.326 -41.509  32.679  0.00  0.00     0.077 H 
ATOM     46  H14 9HY d   1     -28.564 -43.018  33.288  0.00  0.00     0.077 H 
BRANCH  44  47
ATOM     47  C8  9HY d   1     -30.603 -43.266  32.575  0.00  0.00     0.024 C 
ATOM     48  H18 9HY d   1     -30.276 -43.557  31.566  0.00  0.00     0.068 H 
ATOM     49  H19 9HY d   1     -31.517 -42.658  32.503  0.00  0.00     0.068 H 
BRANCH  47  50
ATOM     50  N1  9HY d   1     -30.883 -44.456  33.345  0.00  0.00    -0.308 N 
ATOM     51  C9  9HY d   1     -30.080 -45.595  33.112  0.00  0.00     0.329 A 
ATOM     52  N2  9HY d   1     -30.370 -46.721  33.867  0.00  0.00    -0.275 N 
ATOM     53  O3  9HY d   1     -29.163 -45.637  32.295  0.00  0.00    -0.246 OA
ATOM     54  C10 9HY d   1     -31.371 -46.821  34.827  0.00  0.00     0.250 A 
ATOM     55  H22 9HY d   1     -29.809 -47.533  33.707  0.00  0.00     0.173 HD
ATOM     56  C11 9HY d   1     -32.160 -45.612  35.022  0.00  0.00    -0.002 A 
ATOM     57  O4  9HY d   1     -31.531 -47.875  35.433  0.00  0.00    -0.268 OA
ATOM     58  C12 9HY d   1     -31.893 -44.505  34.291  0.00  0.00    -0.011 A 
ATOM     59  H20 9HY d   1     -32.965 -45.599  35.756  0.00  0.00     0.094 H 
ATOM     60  H21 9HY d   1     -32.498 -43.614  34.454  0.00  0.00     0.112 H 
ENDBRANCH  47  50
ENDBRANCH  44  47
ENDBRANCH  43  44
ENDBRANCH  34  43
ENDBRANCH  32  33
ENDBRANCH   6  32
TORSDOF 10
