REMARK  11 active torsions:
REMARK  status: ('A' for Active; 'I' for Inactive)
REMARK    1  A    between atoms: C8_15  and  N1_1 
REMARK    2  A    between atoms: C2_2  and  O2_14 
REMARK    3  A    between atoms: C17_23  and  N3_4 
REMARK       I    between atoms: N3_4  and  C25_33 
REMARK    4  A    between atoms: N3_4  and  C27_36 
REMARK    5  A    between atoms: O2_14  and  C7_8 
REMARK    6  A    between atoms: C7_8  and  C8_15 
REMARK    7  A    between atoms: O1_13  and  C3_11 
REMARK    8  A    between atoms: C13_19  and  O1_13 
REMARK    9  A    between atoms: C14_20  and  C24_32 
REMARK   10  A    between atoms: C25_33  and  C26_35 
REMARK   11  A    between atoms: C26_35  and  C28_37 
ROOT
ATOM      1  N4  9J1 d   1      45.249 -45.593  43.478  0.00  0.00    -0.191 NA
ATOM      2  C13 9J1 d   1      49.331 -43.010  38.050  0.00  0.00     0.085 A 
ATOM      3  C14 9J1 d   1      48.686 -43.921  38.912  0.00  0.00    -0.017 A 
ATOM      4  C15 9J1 d   1      47.871 -43.440  39.967  0.00  0.00    -0.013 A 
ATOM      5  C16 9J1 d   1      47.695 -42.039  40.155  0.00  0.00     0.002 A 
ATOM      6  C17 9J1 d   1      48.345 -41.131  39.276  0.00  0.00     0.050 A 
ATOM      7  C18 9J1 d   1      49.147 -41.628  38.229  0.00  0.00    -0.023 A 
ATOM      8  C19 9J1 d   1      47.225 -44.345  40.840  0.00  0.00    -0.051 A 
ATOM      9  C20 9J1 d   1      46.416 -43.881  41.892  0.00  0.00     0.045 A 
ATOM     10  C21 9J1 d   1      46.243 -42.498  42.083  0.00  0.00    -0.062 A 
ATOM     11  C22 9J1 d   1      46.876 -41.584  41.220  0.00  0.00    -0.069 A 
ATOM     12  C23 9J1 d   1      45.765 -44.831  42.776  0.00  0.00     0.099 C 
ATOM     13  H12 9J1 d   1      49.630 -40.933  37.551  0.00  0.00     0.091 H 
ATOM     14  H13 9J1 d   1      47.355 -45.411  40.696  0.00  0.00     0.087 H 
ATOM     15  H14 9J1 d   1      45.622 -42.136  42.895  0.00  0.00     0.085 H 
ATOM     16  H15 9J1 d   1      46.736 -40.520  41.371  0.00  0.00     0.085 H 
ENDROOT
BRANCH   3  17
ATOM     17  C24 9J1 d   1      48.884 -45.419  38.693  0.00  0.00    -0.048 C 
ATOM     18  H16 9J1 d   1      49.546 -45.579  37.829  0.00  0.00     0.033 H 
ATOM     19  H17 9J1 d   1      47.910 -45.893  38.501  0.00  0.00     0.033 H 
ATOM     20  H18 9J1 d   1      49.338 -45.864  39.591  0.00  0.00     0.033 H 
ENDBRANCH   3  17
BRANCH   2  21
ATOM     21  O1  9J1 d   1      50.099 -43.493  37.022  0.00  0.00    -0.307 OA
BRANCH  21  22
ATOM     22  C3  9J1 d   1      51.459 -43.329  36.944  0.00  0.00     0.109 A 
ATOM     23  C2  9J1 d   1      52.073 -43.557  35.698  0.00  0.00     0.102 A 
ATOM     24  C1  9J1 d   1      53.475 -43.405  35.569  0.00  0.00    -0.048 A 
ATOM     25  C6  9J1 d   1      54.243 -43.031  36.687  0.00  0.00    -0.080 A 
ATOM     26  H6  9J1 d   1      53.955 -43.576  34.612  0.00  0.00     0.087 H 
ATOM     27  C5  9J1 d   1      53.622 -42.807  37.930  0.00  0.00    -0.080 A 
ATOM     28  H3  9J1 d   1      55.316 -42.915  36.591  0.00  0.00     0.083 H 
ATOM     29  C4  9J1 d   1      52.228 -42.957  38.062  0.00  0.00    -0.048 A 
ATOM     30  H7  9J1 d   1      54.218 -42.518  38.788  0.00  0.00     0.083 H 
ATOM     31  H2  9J1 d   1      51.750 -42.787  39.020  0.00  0.00     0.087 H 
BRANCH  23  32
ATOM     32  O2  9J1 d   1      51.214 -43.918  34.686  0.00  0.00    -0.347 OA
BRANCH  32  33
ATOM     33  C7  9J1 d   1      51.718 -44.185  33.395  0.00  0.00     0.041 C 
ATOM     34  H4  9J1 d   1      52.664 -44.741  33.464  0.00  0.00     0.077 H 
ATOM     35  H5  9J1 d   1      51.884 -43.244  32.849  0.00  0.00     0.077 H 
BRANCH  33  36
ATOM     36  C8  9J1 d   1      50.657 -45.030  32.683  0.00  0.00     0.024 C 
ATOM     37  H8  9J1 d   1      49.742 -44.431  32.559  0.00  0.00     0.068 H 
ATOM     38  H9  9J1 d   1      51.037 -45.328  31.695  0.00  0.00     0.068 H 
BRANCH  36  39
ATOM     39  N1  9J1 d   1      50.348 -46.213  33.447  0.00  0.00    -0.308 N 
ATOM     40  C9  9J1 d   1      51.157 -47.344  33.214  0.00  0.00     0.329 A 
ATOM     41  N2  9J1 d   1      50.864 -48.481  33.951  0.00  0.00    -0.275 N 
ATOM     42  O3  9J1 d   1      52.083 -47.354  32.406  0.00  0.00    -0.246 OA
ATOM     43  C10 9J1 d   1      49.849 -48.599  34.894  0.00  0.00     0.250 A 
ATOM     44  H1  9J1 d   1      51.433 -49.288  33.790  0.00  0.00     0.173 HD
ATOM     45  C11 9J1 d   1      49.051 -47.396  35.091  0.00  0.00    -0.002 A 
ATOM     46  O4  9J1 d   1      49.687 -49.662  35.481  0.00  0.00    -0.268 OA
ATOM     47  C12 9J1 d   1      49.322 -46.278  34.379  0.00  0.00    -0.011 A 
ATOM     48  H10 9J1 d   1      48.235 -47.397  35.812  0.00  0.00     0.094 H 
ATOM     49  H11 9J1 d   1      48.710 -45.393  34.544  0.00  0.00     0.112 H 
ENDBRANCH  36  39
ENDBRANCH  33  36
ENDBRANCH  32  33
ENDBRANCH  23  32
ENDBRANCH  21  22
ENDBRANCH   2  21
BRANCH   6  50
ATOM     50  N3  9J1 d   1      48.222 -39.715  39.387  0.00  0.00    -0.321 N 
ATOM     51  C25 9J1 d   1      49.105 -38.979  40.109  0.00  0.00     0.223 C 
ATOM     52  O5  9J1 d   1      49.022 -37.755  40.219  0.00  0.00    -0.273 OA
BRANCH  51  53
ATOM     53  C26 9J1 d   1      50.252 -39.709  40.825  0.00  0.00     0.006 C 
ATOM     54  H19 9J1 d   1      50.759 -40.364  40.101  0.00  0.00     0.046 H 
ATOM     55  H20 9J1 d   1      49.829 -40.319  41.637  0.00  0.00     0.046 H 
BRANCH  53  56
ATOM     56  C28 9J1 d   1      51.283 -38.744  41.421  0.00  0.00    -0.068 C 
ATOM     57  H24 9J1 d   1      52.078 -39.319  41.919  0.00  0.00     0.028 H 
ATOM     58  H25 9J1 d   1      50.791 -38.088  42.154  0.00  0.00     0.028 H 
ATOM     59  H26 9J1 d   1      51.721 -38.133  40.618  0.00  0.00     0.028 H 
ENDBRANCH  53  56
ENDBRANCH  51  53
BRANCH  50  60
ATOM     60  C27 9J1 d   1      47.101 -39.092  38.676  0.00  0.00    -0.011 C 
ATOM     61  H21 9J1 d   1      46.517 -39.868  38.160  0.00  0.00     0.057 H 
ATOM     62  H22 9J1 d   1      47.488 -38.374  37.938  0.00  0.00     0.057 H 
ATOM     63  H23 9J1 d   1      46.457 -38.566  39.396  0.00  0.00     0.057 H 
ENDBRANCH  50  60
ENDBRANCH   6  50
TORSDOF 11
