REMARK  10 active torsions:
REMARK  status: ('A' for Active; 'I' for Inactive)
REMARK    1  A    between atoms: C25_2  and  C26_1 
REMARK       I    between atoms: N3_8  and  C25_2 
REMARK    2  A    between atoms: N3_8  and  C27_3 
REMARK    3  A    between atoms: C14_27  and  C24_5 
REMARK    4  A    between atoms: C17_33  and  N3_8 
REMARK    5  A    between atoms: C2_12  and  O2_24 
REMARK    6  A    between atoms: C7_13  and  C8_18 
REMARK    7  A    between atoms: O2_24  and  C7_13 
REMARK    8  A    between atoms: O1_25  and  C3_17 
REMARK    9  A    between atoms: C8_18  and  N1_26 
REMARK   10  A    between atoms: C13_23  and  O1_25 
ROOT
ATOM      1  N4  9HY d   1     -35.970 -44.233  43.419  0.00  0.00    -0.191 NA
ATOM      2  C22 9HY d   1     -34.207 -40.289  41.147  0.00  0.00    -0.069 A 
ATOM      3  C21 9HY d   1     -34.869 -41.181  42.010  0.00  0.00    -0.062 A 
ATOM      4  C23 9HY d   1     -35.427 -43.494  42.712  0.00  0.00     0.099 C 
ATOM      5  C20 9HY d   1     -34.744 -42.568  41.824  0.00  0.00     0.045 A 
ATOM      6  C13 9HY d   1     -31.805 -41.802  37.976  0.00  0.00     0.085 A 
ATOM      7  C14 9HY d   1     -32.480 -42.686  38.844  0.00  0.00    -0.017 A 
ATOM      8  C15 9HY d   1     -33.276 -42.173  39.897  0.00  0.00    -0.013 A 
ATOM      9  C19 9HY d   1     -33.951 -43.058  40.771  0.00  0.00    -0.051 A 
ATOM     10  C16 9HY d   1     -33.404 -40.766  40.080  0.00  0.00     0.002 A 
ATOM     11  C17 9HY d   1     -32.721 -39.880  39.199  0.00  0.00     0.050 A 
ATOM     12  C18 9HY d   1     -31.940 -40.411  38.151  0.00  0.00    -0.023 A 
ATOM     13  H10 9HY d   1     -34.312 -39.221  41.300  0.00  0.00     0.085 H 
ATOM     14  H11 9HY d   1     -35.477 -40.797  42.821  0.00  0.00     0.085 H 
ATOM     15  H23 9HY d   1     -33.855 -44.128  40.627  0.00  0.00     0.087 H 
ATOM     16  H24 9HY d   1     -31.435 -39.737  37.469  0.00  0.00     0.091 H 
ENDROOT
BRANCH   7  17
ATOM     17  C24 9HY d   1     -32.335 -44.189  38.633  0.00  0.00    -0.048 C 
ATOM     18  H7  9HY d   1     -31.680 -44.377  37.770  0.00  0.00     0.033 H 
ATOM     19  H8  9HY d   1     -33.325 -44.630  38.445  0.00  0.00     0.033 H 
ATOM     20  H9  9HY d   1     -31.895 -44.645  39.532  0.00  0.00     0.033 H 
ENDBRANCH   7  17
BRANCH  11  21
ATOM     21  N3  9HY d   1     -32.808 -38.460  39.318  0.00  0.00    -0.322 N 
ATOM     22  C25 9HY d   1     -31.827 -37.682  39.856  0.00  0.00     0.220 C 
ATOM     23  O5  9HY d   1     -31.952 -36.460  39.931  0.00  0.00    -0.274 OA
BRANCH  22  24
ATOM     24  C26 9HY d   1     -30.517 -38.270  40.389  0.00  0.00    -0.002 C 
ATOM     25  H1  9HY d   1     -29.881 -37.459  40.773  0.00  0.00     0.040 H 
ATOM     26  H2  9HY d   1     -29.993 -38.794  39.576  0.00  0.00     0.040 H 
ATOM     27  H3  9HY d   1     -30.737 -38.979  41.201  0.00  0.00     0.040 H 
ENDBRANCH  22  24
BRANCH  21  28
ATOM     28  C27 9HY d   1     -34.039 -37.841  38.814  0.00  0.00    -0.011 C 
ATOM     29  H4  9HY d   1     -33.988 -36.752  38.960  0.00  0.00     0.057 H 
ATOM     30  H5  9HY d   1     -34.903 -38.244  39.362  0.00  0.00     0.057 H 
ATOM     31  H6  9HY d   1     -34.148 -38.062  37.742  0.00  0.00     0.057 H 
ENDBRANCH  21  28
ENDBRANCH  11  21
BRANCH   6  32
ATOM     32  O1  9HY d   1     -31.054 -42.332  36.955  0.00  0.00    -0.307 OA
BRANCH  32  33
ATOM     33  C3  9HY d   1     -29.699 -42.141  36.850  0.00  0.00     0.109 A 
ATOM     34  C2  9HY d   1     -29.131 -42.355  35.584  0.00  0.00     0.102 A 
ATOM     35  C1  9HY d   1     -27.740 -42.180  35.396  0.00  0.00    -0.048 A 
ATOM     36  C6  9HY d   1     -26.933 -41.796  36.482  0.00  0.00    -0.080 A 
ATOM     37  H12 9HY d   1     -27.298 -42.341  34.419  0.00  0.00     0.087 H 
ATOM     38  C5  9HY d   1     -27.507 -41.584  37.749  0.00  0.00    -0.080 A 
ATOM     39  H15 9HY d   1     -25.866 -41.663  36.343  0.00  0.00     0.083 H 
ATOM     40  C4  9HY d   1     -28.891 -41.757  37.939  0.00  0.00    -0.048 A 
ATOM     41  H16 9HY d   1     -26.881 -41.286  38.582  0.00  0.00     0.083 H 
ATOM     42  H17 9HY d   1     -29.332 -41.596  38.916  0.00  0.00     0.087 H 
BRANCH  34  43
ATOM     43  O2  9HY d   1     -30.018 -42.725  34.605  0.00  0.00    -0.347 OA
BRANCH  43  44
ATOM     44  C7  9HY d   1     -29.563 -42.957  33.287  0.00  0.00     0.041 C 
ATOM     45  H13 9HY d   1     -29.442 -42.002  32.755  0.00  0.00     0.077 H 
ATOM     46  H14 9HY d   1     -28.601 -43.490  33.307  0.00  0.00     0.077 H 
BRANCH  44  47
ATOM     47  C8  9HY d   1     -30.628 -43.817  32.591  0.00  0.00     0.024 C 
ATOM     48  H18 9HY d   1     -30.272 -44.090  31.587  0.00  0.00     0.068 H 
ATOM     49  H19 9HY d   1     -31.560 -43.239  32.505  0.00  0.00     0.068 H 
BRANCH  47  50
ATOM     50  N1  9HY d   1     -30.884 -45.021  33.348  0.00  0.00    -0.308 N 
ATOM     51  C9  9HY d   1     -30.046 -46.136  33.120  0.00  0.00     0.329 A 
ATOM     52  N2  9HY d   1     -30.315 -47.276  33.864  0.00  0.00    -0.275 N 
ATOM     53  O3  9HY d   1     -29.115 -46.143  32.316  0.00  0.00    -0.246 OA
ATOM     54  C10 9HY d   1     -31.329 -47.411  34.805  0.00  0.00     0.250 A 
ATOM     55  H22 9HY d   1     -29.728 -48.070  33.709  0.00  0.00     0.173 HD
ATOM     56  C11 9HY d   1     -32.157 -46.228  34.995  0.00  0.00    -0.002 A 
ATOM     57  O4  9HY d   1     -31.472 -48.473  35.402  0.00  0.00    -0.268 OA
ATOM     58  C12 9HY d   1     -31.908 -45.108  34.278  0.00  0.00    -0.011 A 
ATOM     59  H20 9HY d   1     -32.975 -46.245  35.713  0.00  0.00     0.094 H 
ATOM     60  H21 9HY d   1     -32.540 -44.236  34.439  0.00  0.00     0.112 H 
ENDBRANCH  47  50
ENDBRANCH  44  47
ENDBRANCH  43  44
ENDBRANCH  34  43
ENDBRANCH  32  33
ENDBRANCH   6  32
TORSDOF 10
