REMARK  10 active torsions:
REMARK  status: ('A' for Active; 'I' for Inactive)
REMARK    1  A    between atoms: O16_21  and  C17_2 
REMARK    2  A    between atoms: C18_5  and  C19_6 
REMARK    3  A    between atoms: C23_8  and  C24_24 
REMARK    4  A    between atoms: B02_10  and  O01_9 
REMARK    5  A    between atoms: B02_10  and  O03_11 
REMARK    6  A    between atoms: N04_12  and  S05_13 
REMARK    7  A    between atoms: S05_13  and  C07_15 
REMARK    8  A    between atoms: C07_15  and  C08_16 
REMARK    9  A    between atoms: C15_20  and  O16_21 
REMARK   10  A    between atoms: N20_22  and  O21_23 
ROOT
ATOM      1  C12 9JA d   1      -1.176  17.289  10.233  0.00  0.00    -0.027 A 
ATOM      2  C14 9JA d   1      -0.096  16.006  11.999  0.00  0.00    -0.050 A 
ATOM      3  C13 9JA d   1      -0.168  16.371  10.655  0.00  0.00    -0.073 A 
ATOM      4  B02 9JA d   1      -3.232  18.862  10.625  0.00  0.00     0.637 B 
ATOM      5  N04 9JA d   1      -3.012  19.297   9.186  0.00  0.00    -0.119 N 
ATOM      6  N10 9JA d   1      -2.297  18.517   8.281  0.00  0.00     0.011 N 
ATOM      7  C11 9JA d   1      -1.230  17.669   8.744  0.00  0.00     0.125 C 
ATOM      8  C15 9JA d   1      -1.006  16.522  12.923  0.00  0.00     0.076 A 
ATOM      9  C30 9JA d   1      -1.993  17.425  12.510  0.00  0.00    -0.046 A 
ATOM     10  C31 9JA d   1      -2.071  17.800  11.127  0.00  0.00     0.010 A 
ATOM     11  H1  9JA d   1       0.673  15.316  12.329  0.00  0.00     0.087 H 
ATOM     12  H2  9JA d   1       0.534  15.962   9.938  0.00  0.00     0.084 H 
ATOM     13  H15 9JA d   1      -1.894  19.149   7.607  0.00  0.00     0.306 HD
ATOM     14  H16 9JA d   1      -2.966  17.918   7.822  0.00  0.00     0.306 HD
ATOM     15  H17 9JA d   1      -1.293  16.731   8.173  0.00  0.00     0.086 H 
ATOM     16  H18 9JA d   1      -0.285  18.180   8.507  0.00  0.00     0.086 H 
ATOM     17  H22 9JA d   1      -2.692  17.837  13.229  0.00  0.00     0.087 H 
ENDROOT
BRANCH   8  18
ATOM     18  O16 9JA d   1      -0.888  16.135  14.290  0.00  0.00    -0.310 OA
BRANCH  18  19
ATOM     19  C17 9JA d   1      -1.856  15.176  14.696  0.00  0.00     0.087 A 
ATOM     20  C18 9JA d   1      -1.962  14.923  16.061  0.00  0.00     0.018 A 
ATOM     21  C22 9JA d   1      -2.886  14.001  16.535  0.00  0.00    -0.054 A 
ATOM     22  C23 9JA d   1      -3.708  13.336  15.630  0.00  0.00     0.048 A 
ATOM     23  H4  9JA d   1      -2.966  13.802  17.598  0.00  0.00     0.086 H 
ATOM     24  C28 9JA d   1      -3.601  13.589  14.266  0.00  0.00    -0.066 A 
ATOM     25  C29 9JA d   1      -2.672  14.509  13.790  0.00  0.00    -0.049 A 
ATOM     26  H20 9JA d   1      -4.246  13.066  13.569  0.00  0.00     0.084 H 
ATOM     27  H21 9JA d   1      -2.586  14.703  12.727  0.00  0.00     0.087 H 
BRANCH  20  28
ATOM     28  C19 9JA d   1      -1.050  15.669  17.017  0.00  0.00     0.041 C 
ATOM     29  N20 9JA d   1      -0.919  15.243  18.258  0.00  0.00    -0.148 NA
ATOM     30  H3  9JA d   1      -0.507  16.551  16.680  0.00  0.00     0.119 H 
BRANCH  29  31
ATOM     31  O21 9JA d   1      -0.090  15.918  19.123  0.00  0.00    -0.266 OA
ATOM     32  H19 9JA d   1      -0.104  15.491  19.971  0.00  0.00     0.247 HD
ENDBRANCH  29  31
ENDBRANCH  20  28
BRANCH  22  33
ATOM     33  C24 9JA d   1      -4.736  12.313  16.118  0.00  0.00     0.417 C 
ATOM     34  F25 9JA d   1      -4.271  11.693  17.217  0.00  0.00    -0.166 F 
ATOM     35  F26 9JA d   1      -4.946  11.413  15.148  0.00  0.00    -0.166 F 
ATOM     36  F27 9JA d   1      -5.882  12.950  16.402  0.00  0.00    -0.166 F 
ENDBRANCH  22  33
ENDBRANCH  18  19
ENDBRANCH   8  18
BRANCH   4  37
ATOM     37  O01 9JA d   1      -4.748  18.184  10.770  0.00  0.00    -0.410 OA
ATOM     38  H6  9JA d   1      -4.803  17.412  10.219  0.00  0.00     0.188 HD
ENDBRANCH   4  37
BRANCH   4  39
ATOM     39  O03 9JA d   1      -3.203  20.206  11.613  0.00  0.00    -0.410 OA
ATOM     40  H7  9JA d   1      -3.873  20.818  11.333  0.00  0.00     0.188 HD
ENDBRANCH   4  39
BRANCH   5  41
ATOM     41  S05 9JA d   1      -3.623  20.737   8.674  0.00  0.00     0.242 S 
ATOM     42  O06 9JA d   1      -3.940  20.662   7.268  0.00  0.00    -0.205 OA
ATOM     43  O09 9JA d   1      -4.901  20.976   9.280  0.00  0.00    -0.205 OA
BRANCH  41  44
ATOM     44  C07 9JA d   1      -2.461  22.036   9.027  0.00  0.00     0.043 C 
ATOM     45  H10 9JA d   1      -2.409  22.198  10.114  0.00  0.00     0.058 H 
ATOM     46  H11 9JA d   1      -2.785  22.964   8.533  0.00  0.00     0.058 H 
BRANCH  44  47
ATOM     47  C08 9JA d   1      -1.099  21.639   8.510  0.00  0.00    -0.062 C 
ATOM     48  H12 9JA d   1      -0.377  22.440   8.726  0.00  0.00     0.028 H 
ATOM     49  H13 9JA d   1      -1.152  21.477   7.423  0.00  0.00     0.028 H 
ATOM     50  H14 9JA d   1      -0.776  20.711   9.004  0.00  0.00     0.028 H 
ENDBRANCH  44  47
ENDBRANCH  41  44
ENDBRANCH   5  41
TORSDOF 10
