REMARK  17 active torsions:
REMARK  status: ('A' for Active; 'I' for Inactive)
REMARK    1  A    between atoms: C15_5  and  C16_6 
REMARK    2  A    between atoms: C16_6  and  C18_7 
REMARK    3  A    between atoms: C16_6  and  O17_22 
REMARK    4  A    between atoms: C16_6  and  C26_26 
REMARK    5  A    between atoms: C18_7  and  C19_8 
REMARK    6  A    between atoms: C19_8  and  C20_23 
REMARK    7  A    between atoms: C20_23  and  N21_9 
REMARK       I    between atoms: N21_9  and  C22_24 
REMARK    8  A    between atoms: C22_24  and  O24_11 
REMARK    9  A    between atoms: O24_11  and  C25_25 
REMARK   10  A    between atoms: C02_13  and  C01_12 
REMARK   11  A    between atoms: C03_14  and  C02_13 
REMARK   12  A    between atoms: C07_18  and  C09_20 
REMARK       I    between atoms: N31_30  and  C33_32 
REMARK   13  A    between atoms: C33_32  and  C35_34 
REMARK   14  A    between atoms: C35_34  and  C36_35 
REMARK   15  A    between atoms: C36_35  and  O38_36 
REMARK   16  A    between atoms: C36_35  and  C39_37 
REMARK   17  A    between atoms: C39_37  and  N40_38 
ROOT
ATOM      1  C16 9JD d   1      25.522  41.343  14.272  0.00  0.00     0.091 C 
ENDROOT
BRANCH   1   2
ATOM      2  C15 9JD d   1      24.078  41.247  14.817  0.00  0.00    -0.009 A 
ATOM      3  C14 9JD d   1      23.825  41.537  16.155  0.00  0.00    -0.073 A 
ATOM      4  C13 9JD d   1      22.541  41.472  16.672  0.00  0.00    -0.079 A 
ATOM      5  H3  9JD d   1      24.647  41.819  16.804  0.00  0.00     0.084 H 
ATOM      6  C12 9JD d   1      21.475  41.125  15.864  0.00  0.00    -0.045 A 
ATOM      7  H2  9JD d   1      22.371  41.695  17.719  0.00  0.00     0.083 H 
ATOM      8  C10 9JD d   1      21.728  40.850  14.548  0.00  0.00     0.128 A 
ATOM      9  H1  9JD d   1      20.468  41.072  16.261  0.00  0.00     0.088 H 
ATOM     10  C09 9JD d   1      22.991  40.901  13.979  0.00  0.00     0.022 A 
ATOM     11  F11 9JD d   1      20.691  40.510  13.749  0.00  0.00    -0.205 F 
BRANCH  10  12
ATOM     12  C07 9JD d   1      23.159  40.576  12.530  0.00  0.00    -0.022 A 
ATOM     13  C06 9JD d   1      22.900  39.296  12.050  0.00  0.00    -0.072 A 
ATOM     14  C05 9JD d   1      23.069  39.004  10.709  0.00  0.00    -0.082 A 
ATOM     15  H16 9JD d   1      22.564  38.523  12.731  0.00  0.00     0.084 H 
ATOM     16  C04 9JD d   1      23.506  39.980   9.833  0.00  0.00    -0.077 A 
ATOM     17  H15 9JD d   1      22.858  38.006  10.343  0.00  0.00     0.083 H 
ATOM     18  C03 9JD d   1      23.783  41.260  10.283  0.00  0.00    -0.058 A 
ATOM     19  H14 9JD d   1      23.633  39.741   8.783  0.00  0.00     0.084 H 
ATOM     20  C08 9JD d   1      23.600  41.544  11.631  0.00  0.00    -0.066 A 
ATOM     21  H17 9JD d   1      23.806  42.545  11.992  0.00  0.00     0.085 H 
BRANCH  18  22
ATOM     22  C02 9JD d   1      24.247  42.299   9.357  0.00  0.00    -0.044 C 
ATOM     23  H12 9JD d   1      24.890  43.002   9.907  0.00  0.00     0.039 H 
ATOM     24  H13 9JD d   1      24.827  41.823   8.553  0.00  0.00     0.039 H 
BRANCH  22  25
ATOM     25  C01 9JD d   1      23.122  43.054   8.752  0.00  0.00    -0.073 C 
ATOM     26  H9  9JD d   1      23.519  43.819   8.068  0.00  0.00     0.028 H 
ATOM     27  H10 9JD d   1      22.538  43.541   9.547  0.00  0.00     0.028 H 
ATOM     28  H11 9JD d   1      22.475  42.362   8.193  0.00  0.00     0.028 H 
ENDBRANCH  22  25
ENDBRANCH  18  22
ENDBRANCH  10  12
ENDBRANCH   1   2
BRANCH   1  29
ATOM     29  C18 9JD d   1      25.813  42.660  13.518  0.00  0.00    -0.030 C 
ATOM     30  H4  9JD d   1      25.792  42.441  12.440  0.00  0.00     0.038 H 
ATOM     31  H5  9JD d   1      26.821  42.994  13.804  0.00  0.00     0.038 H 
BRANCH  29  32
ATOM     32  C19 9JD d   1      24.844  43.821  13.778  0.00  0.00    -0.047 C 
ATOM     33  H6  9JD d   1      25.045  44.237  14.776  0.00  0.00     0.035 H 
ATOM     34  H7  9JD d   1      23.813  43.440  13.741  0.00  0.00     0.035 H 
BRANCH  32  35
ATOM     35  C20 9JD d   1      24.999  44.919  12.749  0.00  0.00    -0.003 C 
ATOM     36  H19 9JD d   1      24.460  45.812  13.100  0.00  0.00     0.064 H 
ATOM     37  H20 9JD d   1      24.563  44.578  11.799  0.00  0.00     0.064 H 
BRANCH  35  38
ATOM     38  N21 9JD d   1      26.390  45.271  12.525  0.00  0.00    -0.337 N 
ATOM     39  C22 9JD d   1      26.907  46.420  12.977  0.00  0.00     0.360 C 
ATOM     40  O23 9JD d   1      26.255  47.356  13.388  0.00  0.00    -0.239 OA
ATOM     41  H8  9JD d   1      26.977  44.638  12.020  0.00  0.00     0.164 HD
BRANCH  39  42
ATOM     42  O24 9JD d   1      28.243  46.401  12.914  0.00  0.00    -0.309 OA
BRANCH  42  43
ATOM     43  C25 9JD d   1      28.906  47.615  13.341  0.00  0.00     0.015 C 
ATOM     44  H21 9JD d   1      29.995  47.490  13.249  0.00  0.00     0.067 H 
ATOM     45  H22 9JD d   1      28.649  47.824  14.390  0.00  0.00     0.067 H 
ATOM     46  H23 9JD d   1      28.578  48.453  12.709  0.00  0.00     0.067 H 
ENDBRANCH  42  43
ENDBRANCH  39  42
ENDBRANCH  35  38
ENDBRANCH  32  35
ENDBRANCH  29  32
ENDBRANCH   1  29
BRANCH   1  47
ATOM     47  O17 9JD d   1      26.424  41.275  15.380  0.00  0.00    -0.384 OA
ATOM     48  H18 9JD d   1      26.282  42.023  15.949  0.00  0.00     0.211 HD
ENDBRANCH   1  47
BRANCH   1  49
ATOM     49  C26 9JD d   1      26.018  39.982  13.572  0.00  0.00    -0.004 C 
ATOM     50  C28 9JD d   1      25.999  38.739  14.467  0.00  0.00    -0.056 C 
ATOM     51  C29 9JD d   1      26.535  37.504  13.742  0.00  0.00    -0.050 C 
ATOM     52  H25 9JD d   1      24.963  38.544  14.783  0.00  0.00     0.033 H 
ATOM     53  H26 9JD d   1      26.623  38.929  15.353  0.00  0.00     0.033 H 
ATOM     54  C30 9JD d   1      27.870  37.797  13.083  0.00  0.00    -0.002 C 
ATOM     55  H27 9JD d   1      25.813  37.198  12.971  0.00  0.00     0.035 H 
ATOM     56  H28 9JD d   1      26.664  36.688  14.468  0.00  0.00     0.035 H 
ATOM     57  N31 9JD d   1      27.795  39.023  12.281  0.00  0.00    -0.352 N 
ATOM     58  H29 9JD d   1      28.143  36.955  12.430  0.00  0.00     0.064 H 
ATOM     59  H30 9JD d   1      28.637  37.921  13.861  0.00  0.00     0.064 H 
ATOM     60  C32 9JD d   1      27.372  40.158  13.099  0.00  0.00     0.004 C 
ATOM     61  C33 9JD d   1      28.074  39.063  10.958  0.00  0.00     0.222 C 
ATOM     62  H31 9JD d   1      28.046  40.248  13.964  0.00  0.00     0.065 H 
ATOM     63  H32 9JD d   1      27.425  41.076  12.495  0.00  0.00     0.065 H 
ATOM     64  O34 9JD d   1      28.418  38.061  10.351  0.00  0.00    -0.273 OA
ATOM     65  H24 9JD d   1      25.358  39.790  12.713  0.00  0.00     0.047 H 
BRANCH  61  66
ATOM     66  C35 9JD d   1      27.951  40.388  10.228  0.00  0.00     0.035 C 
ATOM     67  H33 9JD d   1      28.315  41.192  10.885  0.00  0.00     0.051 H 
ATOM     68  H34 9JD d   1      26.893  40.564   9.986  0.00  0.00     0.051 H 
BRANCH  66  69
ATOM     69  C36 9JD d   1      28.759  40.401   8.941  0.00  0.00     0.066 C 
ATOM     70  H35 9JD d   1      28.645  39.444   8.410  0.00  0.00     0.086 H 
BRANCH  69  71
ATOM     71  O38 9JD d   1      30.125  40.659   9.265  0.00  0.00    -0.393 OA
ATOM     72  H36 9JD d   1      30.642  40.670   8.468  0.00  0.00     0.210 HD
ENDBRANCH  69  71
BRANCH  69  73
ATOM     73  C39 9JD d   1      28.334  41.592   8.040  0.00  0.00     0.103 C 
ATOM     74  H37 9JD d   1      29.242  42.131   7.734  0.00  0.00     0.079 H 
ATOM     75  H38 9JD d   1      27.694  42.260   8.635  0.00  0.00     0.079 H 
BRANCH  73  76
ATOM     76  N40 9JD d   1      27.601  41.214   6.834  0.00  0.00    -0.077 N 
ATOM     77  H39 9JD d   1      27.365  42.042   6.311  0.00  0.00     0.274 HD
ATOM     78  H40 9JD d   1      26.756  40.728   7.093  0.00  0.00     0.274 HD
ATOM     79  H41 9JD d   1      28.175  40.610   6.267  0.00  0.00     0.274 HD
ENDBRANCH  73  76
ENDBRANCH  69  73
ENDBRANCH  66  69
ENDBRANCH  61  66
ENDBRANCH   1  49
TORSDOF 17
