REMARK  12 active torsions:
REMARK  status: ('A' for Active; 'I' for Inactive)
REMARK       I    between atoms: N1_1  and  C5_4 
REMARK    1  A    between atoms: N3_2  and  C20_12 
REMARK       I    between atoms: C21_13  and  N3_2 
REMARK    2  A    between atoms: C5_4  and  C6_5 
REMARK    3  A    between atoms: C6_5  and  C7_6 
REMARK    4  A    between atoms: C7_6  and  C8_7 
REMARK    5  A    between atoms: C7_6  and  C9_36 
REMARK    6  A    between atoms: C22_14  and  C21_13 
REMARK    7  A    between atoms: C23_29  and  C22_14 
REMARK    8  A    between atoms: N5_39  and  C26_16 
REMARK    9  A    between atoms: N_18  and  C1_21 
REMARK   10  A    between atoms: C1_21  and  C2_28 
REMARK   11  A    between atoms: C2_28  and  O1_40 
REMARK   12  A    between atoms: N4_38  and  C23_29 
ROOT
ATOM      1  C17 9QD d   1      90.734 -54.230 152.551  0.00  0.00     0.069 A 
ATOM      2  C20 9QD d   1      95.243 -53.545 151.257  0.00  0.00     0.036 A 
ATOM      3  N   9QD d   1      90.463 -55.052 151.517  0.00  0.00    -0.305 N 
ATOM      4  C   9QD d   1      91.449 -55.384 150.562  0.00  0.00     0.261 A 
ATOM      5  O   9QD d   1      91.219 -56.156 149.600  0.00  0.00    -0.267 OA
ATOM      6  C18 9QD d   1      92.968 -53.884 151.917  0.00  0.00     0.076 A 
ATOM      7  C19 9QD d   1      94.198 -53.292 152.137  0.00  0.00    -0.028 A 
ATOM      8  C29 9QD d   1      95.072 -54.395 150.160  0.00  0.00    -0.056 A 
ATOM      9  C30 9QD d   1      93.850 -55.012 149.887  0.00  0.00    -0.063 A 
ATOM     10  C31 9QD d   1      92.785 -54.779 150.746  0.00  0.00     0.061 A 
ATOM     11  N2  9QD d   1      91.934 -53.666 152.754  0.00  0.00    -0.243 NA
ATOM     12  H14 9QD d   1      89.936 -54.012 153.259  0.00  0.00     0.143 H 
ATOM     13  H31 9QD d   1      94.346 -52.637 152.988  0.00  0.00     0.090 H 
ATOM     14  H38 9QD d   1      95.913 -54.580 149.502  0.00  0.00     0.086 H 
ATOM     15  H41 9QD d   1      93.736 -55.658 149.024  0.00  0.00     0.085 H 
ENDROOT
BRANCH   3  16
ATOM     16  C1  9QD d   1      89.124 -55.609 151.409  0.00  0.00     0.032 C 
ATOM     17  H24 9QD d   1      88.732 -55.818 152.415  0.00  0.00     0.069 H 
ATOM     18  H25 9QD d   1      89.161 -56.543 150.829  0.00  0.00     0.069 H 
BRANCH  16  19
ATOM     19  C2  9QD d   1      88.217 -54.614 150.709  0.00  0.00     0.077 C 
ATOM     20  C16 9QD d   1      88.610 -54.494 149.243  0.00  0.00    -0.020 C 
ATOM     21  C15 9QD d   1      87.711 -53.557 148.441  0.00  0.00     0.000 C 
ATOM     22  H29 9QD d   1      89.641 -54.115 149.190  0.00  0.00     0.040 H 
ATOM     23  H30 9QD d   1      88.563 -55.494 148.788  0.00  0.00     0.040 H 
ATOM     24  N1  9QD d   1      86.323 -53.959 148.646  0.00  0.00    -0.352 N 
ATOM     25  H12 9QD d   1      87.852 -52.522 148.786  0.00  0.00     0.064 H 
ATOM     26  H13 9QD d   1      87.963 -53.625 147.373  0.00  0.00     0.064 H 
ATOM     27  C4  9QD d   1      85.877 -54.085 150.032  0.00  0.00     0.000 C 
ATOM     28  C5  9QD d   1      85.456 -54.144 147.638  0.00  0.00     0.220 C 
ATOM     29  C3  9QD d   1      86.774 -55.084 150.760  0.00  0.00    -0.020 C 
ATOM     30  H2  9QD d   1      84.837 -54.442 150.053  0.00  0.00     0.064 H 
ATOM     31  H3  9QD d   1      85.939 -53.105 150.529  0.00  0.00     0.064 H 
ATOM     32  H39 9QD d   1      86.693 -56.068 150.275  0.00  0.00     0.040 H 
ATOM     33  H40 9QD d   1      86.454 -55.165 151.809  0.00  0.00     0.040 H 
ATOM     34  O2  9QD d   1      84.265 -54.218 147.856  0.00  0.00    -0.273 OA
BRANCH  28  35
ATOM     35  C6  9QD d   1      85.964 -54.270 146.208  0.00  0.00     0.016 C 
ATOM     36  H4  9QD d   1      87.059 -54.168 146.199  0.00  0.00     0.048 H 
ATOM     37  H5  9QD d   1      85.517 -53.477 145.590  0.00  0.00     0.048 H 
BRANCH  35  38
ATOM     38  C7  9QD d   1      85.574 -55.644 145.637  0.00  0.00    -0.024 C 
ATOM     39  H6  9QD d   1      84.488 -55.774 145.756  0.00  0.00     0.047 H 
BRANCH  38  40
ATOM     40  C8  9QD d   1      85.921 -55.831 144.159  0.00  0.00    -0.068 C 
ATOM     41  H7  9QD d   1      85.610 -56.835 143.833  0.00  0.00     0.028 H 
ATOM     42  H8  9QD d   1      87.007 -55.721 144.020  0.00  0.00     0.028 H 
ATOM     43  H9  9QD d   1      85.396 -55.072 143.560  0.00  0.00     0.028 H 
ENDBRANCH  38  40
BRANCH  38  44
ATOM     44  C9  9QD d   1      86.282 -56.676 146.412  0.00  0.00    -0.054 A 
ATOM     45  C10 9QD d   1      85.582 -57.435 147.340  0.00  0.00    -0.076 A 
ATOM     46  C11 9QD d   1      86.260 -58.413 148.079  0.00  0.00    -0.082 A 
ATOM     47  H10 9QD d   1      84.521 -57.272 147.491  0.00  0.00     0.084 H 
ATOM     48  C12 9QD d   1      87.625 -58.617 147.899  0.00  0.00    -0.083 A 
ATOM     49  H26 9QD d   1      85.717 -59.016 148.797  0.00  0.00     0.083 H 
ATOM     50  C13 9QD d   1      88.323 -57.835 146.979  0.00  0.00    -0.082 A 
ATOM     51  H27 9QD d   1      88.142 -59.379 148.470  0.00  0.00     0.083 H 
ATOM     52  C14 9QD d   1      87.649 -56.866 146.228  0.00  0.00    -0.076 A 
ATOM     53  H11 9QD d   1      89.389 -57.978 146.846  0.00  0.00     0.083 H 
ATOM     54  H28 9QD d   1      88.189 -56.265 145.505  0.00  0.00     0.084 H 
ENDBRANCH  38  44
ENDBRANCH  35  38
ENDBRANCH  28  35
BRANCH  19  55
ATOM     55  O1  9QD d   1      88.340 -53.361 151.384  0.00  0.00    -0.388 OA
ATOM     56  H44 9QD d   1      89.241 -53.064 151.336  0.00  0.00     0.210 HD
ENDBRANCH  19  55
ENDBRANCH  16  19
ENDBRANCH   3  16
BRANCH   2  57
ATOM     57  N3  9QD d   1      96.452 -52.972 151.463  0.00  0.00    -0.327 N 
ATOM     58  C21 9QD d   1      96.652 -52.020 152.372  0.00  0.00     0.223 C 
ATOM     59  O3  9QD d   1      95.880 -51.098 152.569  0.00  0.00    -0.273 OA
ATOM     60  H1  9QD d   1      97.227 -53.276 150.909  0.00  0.00     0.169 HD
BRANCH  58  61
ATOM     61  C22 9QD d   1      97.940 -52.090 153.153  0.00  0.00     0.032 C 
ATOM     62  H15 9QD d   1      98.217 -53.143 153.307  0.00  0.00     0.049 H 
ATOM     63  H16 9QD d   1      97.802 -51.601 154.129  0.00  0.00     0.049 H 
BRANCH  61  64
ATOM     64  C23 9QD d   1      99.050 -51.382 152.384  0.00  0.00     0.091 C 
ATOM     65  H32 9QD d   1      98.803 -50.316 152.273  0.00  0.00     0.076 H 
ATOM     66  H33 9QD d   1      99.161 -51.838 151.389  0.00  0.00     0.076 H 
BRANCH  64  67
ATOM     67  N4  9QD d   1     100.307 -51.525 153.139  0.00  0.00    -0.067 N 
ATOM     68  C24 9QD d   1     101.096 -52.653 152.614  0.00  0.00     0.106 C 
ATOM     69  C25 9QD d   1     102.379 -52.813 153.421  0.00  0.00     0.105 C 
ATOM     70  H17 9QD d   1     100.503 -53.577 152.686  0.00  0.00     0.078 H 
ATOM     71  H18 9QD d   1     101.350 -52.461 151.561  0.00  0.00     0.078 H 
ATOM     72  N5  9QD d   1     103.145 -51.561 153.353  0.00  0.00    -0.072 N 
ATOM     73  H34 9QD d   1     102.978 -53.635 153.002  0.00  0.00     0.078 H 
ATOM     74  H35 9QD d   1     102.130 -53.037 154.469  0.00  0.00     0.078 H 
ATOM     75  C27 9QD d   1     102.344 -50.454 153.901  0.00  0.00     0.105 C 
ATOM     76  H43 9QD d   1     103.367 -51.364 152.390  0.00  0.00     0.279 HD
ATOM     77  C28 9QD d   1     101.086 -50.280 153.060  0.00  0.00     0.106 C 
ATOM     78  H36 9QD d   1     102.063 -50.682 154.940  0.00  0.00     0.078 H 
ATOM     79  H37 9QD d   1     102.934 -49.526 153.876  0.00  0.00     0.078 H 
ATOM     80  H22 9QD d   1     101.362 -50.078 152.014  0.00  0.00     0.078 H 
ATOM     81  H23 9QD d   1     100.490 -49.442 153.450  0.00  0.00     0.078 H 
ATOM     82  H42 9QD d   1     100.085 -51.708 154.105  0.00  0.00     0.280 HD
BRANCH  72  83
ATOM     83  C26 9QD d   1     104.394 -51.686 154.119  0.00  0.00     0.066 C 
ATOM     84  H19 9QD d   1     104.993 -52.513 153.710  0.00  0.00     0.068 H 
ATOM     85  H20 9QD d   1     104.158 -51.890 155.174  0.00  0.00     0.068 H 
ATOM     86  H21 9QD d   1     104.965 -50.748 154.046  0.00  0.00     0.068 H 
ENDBRANCH  72  83
ENDBRANCH  64  67
ENDBRANCH  61  64
ENDBRANCH  58  61
ENDBRANCH   2  57
TORSDOF 12
