REMARK  6 active torsions:
REMARK  status: ('A' for Active; 'I' for Inactive)
REMARK    1  A    between atoms: C04_4  and  C07_7 
REMARK    2  A    between atoms: C07_7  and  C08_8 
REMARK    3  A    between atoms: C08_8  and  C09_9 
REMARK       I    between atoms: C09_9  and  N11_11 
REMARK    4  A    between atoms: C14_14  and  C17_17 
REMARK    5  A    between atoms: C14_14  and  O30_30 
REMARK    6  A    between atoms: C17_17  and  N18_18 
ROOT
ATOM      1  C09 9QA d   1     105.196  -8.887  93.948  0.00  0.00     0.220 C 
ATOM      2  O10 9QA d   1     105.413 -10.036  93.779  0.00  0.00    -0.273 OA
ATOM      3  N11 9QA d   1     105.471  -8.301  95.253  0.00  0.00    -0.352 N 
ATOM      4  C12 9QA d   1     106.016  -9.084  96.418  0.00  0.00     0.000 C 
ATOM      5  C13 9QA d   1     107.261  -8.431  97.011  0.00  0.00    -0.020 C 
ATOM      6  C14 9QA d   1     106.976  -7.028  97.428  0.00  0.00     0.077 C 
ATOM      7  C15 9QA d   1     106.481  -6.223  96.291  0.00  0.00    -0.020 C 
ATOM      8  C16 9QA d   1     105.252  -6.855  95.639  0.00  0.00     0.000 C 
ATOM      9  H10 9QA d   1     106.275 -10.097  96.076  0.00  0.00     0.064 H 
ATOM     10  H11 9QA d   1     105.242  -9.147  97.197  0.00  0.00     0.064 H 
ATOM     11  H12 9QA d   1     108.061  -8.427  96.256  0.00  0.00     0.040 H 
ATOM     12  H13 9QA d   1     107.588  -9.008  97.888  0.00  0.00     0.040 H 
ATOM     13  H14 9QA d   1     107.280  -6.140  95.539  0.00  0.00     0.040 H 
ATOM     14  H15 9QA d   1     106.214  -5.220  96.655  0.00  0.00     0.040 H 
ATOM     15  H16 9QA d   1     104.413  -6.804  96.348  0.00  0.00     0.064 H 
ATOM     16  H17 9QA d   1     105.002  -6.284  94.733  0.00  0.00     0.064 H 
ENDROOT
BRANCH   6  17
ATOM     17  C17 9QA d   1     108.242  -6.382  97.999  0.00  0.00     0.032 C 
ATOM     18  H18 9QA d   1     108.919  -6.111  97.175  0.00  0.00     0.069 H 
ATOM     19  H19 9QA d   1     108.746  -7.094  98.669  0.00  0.00     0.069 H 
BRANCH  17  20
ATOM     20  N18 9QA d   1     107.883  -5.183  98.746  0.00  0.00    -0.305 N 
ATOM     21  C19 9QA d   1     107.505  -5.295 100.020  0.00  0.00     0.069 A 
ATOM     22  N20 9QA d   1     107.160  -4.240 100.755  0.00  0.00    -0.243 NA
ATOM     23  H20 9QA d   1     107.478  -6.284 100.475  0.00  0.00     0.143 H 
ATOM     24  C21 9QA d   1     107.191  -2.987 100.206  0.00  0.00     0.075 A 
ATOM     25  C22 9QA d   1     106.824  -1.848 100.987  0.00  0.00    -0.033 A 
ATOM     26  C26 9QA d   1     107.574  -2.827  98.907  0.00  0.00     0.061 A 
ATOM     27  C23 9QA d   1     106.858  -0.578 100.423  0.00  0.00     0.036 A 
ATOM     28  H21 9QA d   1     106.519  -1.974 102.019  0.00  0.00     0.089 H 
ATOM     29  C24 9QA d   1     107.250  -0.414  99.092  0.00  0.00    -0.061 A 
ATOM     30 CL1  9QA d   1     106.399   0.844 101.401  0.00  0.00    -0.084 Cl
ATOM     31  C25 9QA d   1     107.608  -1.525  98.329  0.00  0.00    -0.064 A 
ATOM     32  H22 9QA d   1     107.276   0.577  98.653  0.00  0.00     0.086 H 
ATOM     33  H23 9QA d   1     107.912  -1.398  97.296  0.00  0.00     0.085 H 
ATOM     34  C27 9QA d   1     107.932  -3.990  98.167  0.00  0.00     0.261 A 
ATOM     35  O28 9QA d   1     108.266  -3.885  97.037  0.00  0.00    -0.267 OA
ENDBRANCH  17  20
ENDBRANCH   6  17
BRANCH   6  36
ATOM     36  O30 9QA d   1     105.942  -7.068  98.451  0.00  0.00    -0.388 OA
ATOM     37  H24 9QA d   1     105.749  -6.184  98.739  0.00  0.00     0.210 HD
ENDBRANCH   6  36
BRANCH   1  38
ATOM     38  C08 9QA d   1     104.646  -8.057  92.787  0.00  0.00     0.013 C 
ATOM     39  H8  9QA d   1     103.758  -8.561  92.377  0.00  0.00     0.047 H 
ATOM     40  H9  9QA d   1     104.362  -7.063  93.163  0.00  0.00     0.047 H 
BRANCH  38  41
ATOM     41  C07 9QA d   1     105.680  -7.889  91.671  0.00  0.00    -0.033 C 
ATOM     42  H6  9QA d   1     105.757  -8.835  91.116  0.00  0.00     0.040 H 
ATOM     43  H7  9QA d   1     105.341  -7.092  90.993  0.00  0.00     0.040 H 
BRANCH  41  44
ATOM     44  C04 9QA d   1     107.068  -7.520  92.207  0.00  0.00    -0.058 A 
ATOM     45  C03 9QA d   1     107.440  -6.189  92.320  0.00  0.00    -0.077 A 
ATOM     46  C02 9QA d   1     108.698  -5.860  92.805  0.00  0.00    -0.082 A 
ATOM     47  H3  9QA d   1     106.749  -5.406  92.030  0.00  0.00     0.084 H 
ATOM     48  C01 9QA d   1     109.584  -6.861  93.173  0.00  0.00    -0.083 A 
ATOM     49  H2  9QA d   1     108.988  -4.819  92.896  0.00  0.00     0.083 H 
ATOM     50  C06 9QA d   1     109.214  -8.191  93.059  0.00  0.00    -0.082 A 
ATOM     51  H1  9QA d   1     110.567  -6.603  93.550  0.00  0.00     0.083 H 
ATOM     52  C05 9QA d   1     107.960  -8.521  92.573  0.00  0.00    -0.077 A 
ATOM     53  H5  9QA d   1     109.906  -8.973  93.350  0.00  0.00     0.083 H 
ATOM     54  H4  9QA d   1     107.674  -9.562  92.478  0.00  0.00     0.084 H 
ENDBRANCH  41  44
ENDBRANCH  38  41
ENDBRANCH   1  38
TORSDOF 6
