REMARK  12 active torsions:
REMARK  status: ('A' for Active; 'I' for Inactive)
REMARK    1  A    between atoms: NAS_24  and  C6_3 
REMARK    2  A    between atoms: CAJ_14  and  C7_4 
REMARK    3  A    between atoms: NAR_23  and  C1_7 
REMARK    4  A    between atoms: C2_8  and  NAR_23 
REMARK    5  A    between atoms: OAT_26  and  CAB_9 
REMARK    6  A    between atoms: OAU_27  and  CAC_10 
REMARK    7  A    between atoms: NBC_25  and  CAD_11 
REMARK    8  A    between atoms: CAK_15  and  CAJ_14 
REMARK    9  A    between atoms: NAR_23  and  CAK_15 
REMARK   10  A    between atoms: CAW_20  and  OAT_26 
REMARK   11  A    between atoms: CAX_21  and  OAU_27 
REMARK   12  A    between atoms: CBB_22  and  NAS_24 
ROOT
ATOM      1  C4  9HJ d   1       7.466  14.805  28.089  0.00  0.00     0.092 A 
ATOM      2  C5  9HJ d   1       6.131  15.186  28.130  0.00  0.00     0.042 A 
ATOM      3  C6  9HJ d   1       5.779  16.494  27.793  0.00  0.00     0.155 A 
ATOM      4  N1  9HJ d   1       6.736  17.378  27.432  0.00  0.00    -0.044 NA
ATOM      5  N3  9HJ d   1       8.403  15.724  27.730  0.00  0.00    -0.062 NA
ATOM      6  C2  9HJ d   1       8.042  16.993  27.404  0.00  0.00     0.726 A 
ATOM      7  CAE 9HJ d   1       7.811  13.493  28.427  0.00  0.00    -0.019 A 
ATOM      8  CAF 9HJ d   1       5.152  14.259  28.496  0.00  0.00    -0.032 A 
ATOM      9  CAW 9HJ d   1       6.826  12.574  28.798  0.00  0.00     0.103 A 
ATOM     10  CAX 9HJ d   1       5.499  12.952  28.834  0.00  0.00     0.102 A 
ATOM     11  H16 9HJ d   1       8.850  13.186  28.401  0.00  0.00     0.091 H 
ATOM     12  H17 9HJ d   1       4.111  14.560  28.517  0.00  0.00     0.089 H 
ENDROOT
BRANCH   3  13
ATOM     13  NAS 9HJ d   1       4.456  16.778  27.843  0.00  0.00    -0.369 N 
ATOM     14  H31 9HJ d   1       3.878  15.973  28.124  0.00  0.00     0.161 HD
BRANCH  13  15
ATOM     15  CBB 9HJ d   1       3.671  17.990  27.582  0.00  0.00     0.014 C 
ATOM     16  CAL 9HJ d   1       3.542  18.194  26.083  0.00  0.00    -0.024 C 
ATOM     17  CAN 9HJ d   1       2.421  19.211  25.893  0.00  0.00     0.085 C 
ATOM     18  H22 9HJ d   1       4.484  18.581  25.667  0.00  0.00     0.038 H 
ATOM     19  H23 9HJ d   1       3.285  17.245  25.589  0.00  0.00     0.038 H 
ATOM     20  NBC 9HJ d   1       2.704  20.475  26.602  0.00  0.00    -0.075 N 
ATOM     21  H26 9HJ d   1       1.484  18.786  26.283  0.00  0.00     0.076 H 
ATOM     22  H27 9HJ d   1       2.309  19.422  24.819  0.00  0.00     0.076 H 
ATOM     23  CAO 9HJ d   1       3.144  20.303  28.006  0.00  0.00     0.085 C 
ATOM     24  H32 9HJ d   1       3.435  20.959  26.104  0.00  0.00     0.279 HD
ATOM     25  CAM 9HJ d   1       4.265  19.270  28.144  0.00  0.00    -0.024 C 
ATOM     26  H28 9HJ d   1       3.507  21.270  28.384  0.00  0.00     0.076 H 
ATOM     27  H29 9HJ d   1       2.284  19.974  28.608  0.00  0.00     0.076 H 
ATOM     28  H24 9HJ d   1       4.545  19.138  29.200  0.00  0.00     0.038 H 
ATOM     29  H25 9HJ d   1       5.149  19.576  27.565  0.00  0.00     0.038 H 
ATOM     30  H30 9HJ d   1       2.673  17.847  28.022  0.00  0.00     0.072 H 
BRANCH  20  31
ATOM     31  CAD 9HJ d   1       1.479  21.289  26.579  0.00  0.00     0.066 C 
ATOM     32  H13 9HJ d   1       1.146  21.421  25.539  0.00  0.00     0.068 H 
ATOM     33  H14 9HJ d   1       1.684  22.273  27.026  0.00  0.00     0.068 H 
ATOM     34  H15 9HJ d   1       0.691  20.782  27.155  0.00  0.00     0.068 H 
ENDBRANCH  20  31
ENDBRANCH  13  15
ENDBRANCH   3  13
BRANCH   6  35
ATOM     35  NAR 9HJ d   1       9.026  17.928  27.040  0.00  0.00    -0.218 N 
BRANCH  35  36
ATOM     36  C1  9HJ d   1       8.638  19.302  26.758  0.00  0.00    -0.002 C 
ATOM     37  H4  9HJ d   1       9.530  19.888  26.492  0.00  0.00     0.057 H 
ATOM     38  H5  9HJ d   1       8.165  19.740  27.649  0.00  0.00     0.057 H 
ATOM     39  H6  9HJ d   1       7.926  19.317  25.920  0.00  0.00     0.057 H 
ENDBRANCH  35  36
BRANCH  35  40
ATOM     40  CAK 9HJ d   1      10.426  17.557  26.952  0.00  0.00     0.011 C 
ATOM     41  H20 9HJ d   1      10.530  16.520  26.599  0.00  0.00     0.065 H 
ATOM     42  H21 9HJ d   1      10.963  18.232  26.270  0.00  0.00     0.065 H 
BRANCH  40  43
ATOM     43  CAJ 9HJ d   1      10.960  17.695  28.372  0.00  0.00    -0.053 C 
ATOM     44  H18 9HJ d   1      10.212  18.218  28.986  0.00  0.00     0.034 H 
ATOM     45  H19 9HJ d   1      11.138  16.692  28.786  0.00  0.00     0.034 H 
BRANCH  43  46
ATOM     46  C7  9HJ d   1      12.256  18.477  28.402  0.00  0.00    -0.075 C 
ATOM     47  H1  9HJ d   1      12.612  18.557  29.440  0.00  0.00     0.027 H 
ATOM     48  H2  9HJ d   1      12.086  19.484  27.994  0.00  0.00     0.027 H 
ATOM     49  H3  9HJ d   1      13.012  17.958  27.794  0.00  0.00     0.027 H 
ENDBRANCH  43  46
ENDBRANCH  40  43
ENDBRANCH  35  40
ENDBRANCH   6  35
BRANCH  10  50
ATOM     50  OAU 9HJ d   1       4.573  12.006  29.199  0.00  0.00    -0.353 OA
BRANCH  50  51
ATOM     51  CAC 9HJ d   1       3.208  12.375  29.425  0.00  0.00     0.010 C 
ATOM     52  H10 9HJ d   1       2.629  11.483  29.706  0.00  0.00     0.066 H 
ATOM     53  H11 9HJ d   1       2.788  12.809  28.506  0.00  0.00     0.066 H 
ATOM     54  H12 9HJ d   1       3.158  13.116  30.237  0.00  0.00     0.066 H 
ENDBRANCH  50  51
ENDBRANCH  10  50
BRANCH   9  55
ATOM     55  OAT 9HJ d   1       7.145  11.282  29.128  0.00  0.00    -0.353 OA
BRANCH  55  56
ATOM     56  CAB 9HJ d   1       8.510  10.863  29.177  0.00  0.00     0.010 C 
ATOM     57  H7  9HJ d   1       8.557   9.801  29.458  0.00  0.00     0.066 H 
ATOM     58  H8  9HJ d   1       9.052  11.464  29.922  0.00  0.00     0.066 H 
ATOM     59  H9  9HJ d   1       8.972  11.002  28.188  0.00  0.00     0.066 H 
ENDBRANCH  55  56
ENDBRANCH   9  55
TORSDOF 12
