REMARK  12 active torsions:
REMARK  status: ('A' for Active; 'I' for Inactive)
REMARK    1  A    between atoms: NAS_24  and  C6_3 
REMARK    2  A    between atoms: CAJ_14  and  C7_4 
REMARK    3  A    between atoms: NAR_23  and  C1_7 
REMARK    4  A    between atoms: C2_8  and  NAR_23 
REMARK    5  A    between atoms: OAT_26  and  CAB_9 
REMARK    6  A    between atoms: OAU_27  and  CAC_10 
REMARK    7  A    between atoms: NBC_25  and  CAD_11 
REMARK    8  A    between atoms: CAK_15  and  CAJ_14 
REMARK    9  A    between atoms: NAR_23  and  CAK_15 
REMARK   10  A    between atoms: CAW_20  and  OAT_26 
REMARK   11  A    between atoms: CAX_21  and  OAU_27 
REMARK   12  A    between atoms: CBB_22  and  NAS_24 
ROOT
ATOM      1  C4  9HJ d   1     -21.018 -14.974   3.073  0.00  0.00     0.092 A 
ATOM      2  C5  9HJ d   1     -21.215 -13.762   2.424  0.00  0.00     0.042 A 
ATOM      3  C6  9HJ d   1     -21.963 -12.765   3.038  0.00  0.00     0.155 A 
ATOM      4  N1  9HJ d   1     -22.505 -12.978   4.262  0.00  0.00    -0.044 NA
ATOM      5  N3  9HJ d   1     -21.570 -15.157   4.298  0.00  0.00    -0.062 NA
ATOM      6  C2  9HJ d   1     -22.301 -14.168   4.879  0.00  0.00     0.726 A 
ATOM      7  CAE 9HJ d   1     -20.275 -15.980   2.456  0.00  0.00    -0.019 A 
ATOM      8  CAF 9HJ d   1     -20.662 -13.530   1.160  0.00  0.00    -0.032 A 
ATOM      9  CAW 9HJ d   1     -19.709 -15.749   1.199  0.00  0.00     0.103 A 
ATOM     10  CAX 9HJ d   1     -19.915 -14.541   0.552  0.00  0.00     0.102 A 
ATOM     11  H16 9HJ d   1     -20.137 -16.936   2.949  0.00  0.00     0.091 H 
ATOM     12  H17 9HJ d   1     -20.811 -12.580   0.660  0.00  0.00     0.089 H 
ENDROOT
BRANCH   3  13
ATOM     13  NAS 9HJ d   1     -22.087 -11.627   2.311  0.00  0.00    -0.369 N 
ATOM     14  H31 9HJ d   1     -21.619 -11.672   1.394  0.00  0.00     0.161 HD
BRANCH  13  15
ATOM     15  CBB 9HJ d   1     -22.750 -10.349   2.565  0.00  0.00     0.014 C 
ATOM     16  CAL 9HJ d   1     -22.297  -9.760   3.887  0.00  0.00    -0.024 C 
ATOM     17  CAN 9HJ d   1     -22.706  -8.297   3.812  0.00  0.00     0.085 C 
ATOM     18  H22 9HJ d   1     -22.798 -10.261   4.728  0.00  0.00     0.038 H 
ATOM     19  H23 9HJ d   1     -21.207  -9.854   4.001  0.00  0.00     0.038 H 
ATOM     20  NBC 9HJ d   1     -24.153  -8.143   3.557  0.00  0.00    -0.075 N 
ATOM     21  H26 9HJ d   1     -22.148  -7.813   2.997  0.00  0.00     0.076 H 
ATOM     22  H27 9HJ d   1     -22.459  -7.809   4.766  0.00  0.00     0.076 H 
ATOM     23  CAO 9HJ d   1     -24.696  -8.983   2.466  0.00  0.00     0.085 C 
ATOM     24  H32 9HJ d   1     -24.652  -8.364   4.404  0.00  0.00     0.279 HD
ATOM     25  CAM 9HJ d   1     -24.262 -10.441   2.590  0.00  0.00    -0.024 C 
ATOM     26  H28 9HJ d   1     -25.795  -8.937   2.497  0.00  0.00     0.076 H 
ATOM     27  H29 9HJ d   1     -24.339  -8.588   1.504  0.00  0.00     0.076 H 
ATOM     28  H24 9HJ d   1     -24.636 -11.038   1.745  0.00  0.00     0.038 H 
ATOM     29  H25 9HJ d   1     -24.616 -10.880   3.534  0.00  0.00     0.038 H 
ATOM     30  H30 9HJ d   1     -22.463  -9.661   1.756  0.00  0.00     0.072 H 
BRANCH  20  31
ATOM     31  CAD 9HJ d   1     -24.371  -6.739   3.197  0.00  0.00     0.066 C 
ATOM     32  H13 9HJ d   1     -23.976  -6.091   3.993  0.00  0.00     0.068 H 
ATOM     33  H14 9HJ d   1     -25.449  -6.555   3.075  0.00  0.00     0.068 H 
ATOM     34  H15 9HJ d   1     -23.852  -6.518   2.252  0.00  0.00     0.068 H 
ENDBRANCH  20  31
ENDBRANCH  13  15
ENDBRANCH   3  13
BRANCH   6  35
ATOM     35  NAR 9HJ d   1     -22.875 -14.402   6.128  0.00  0.00    -0.218 N 
BRANCH  35  36
ATOM     36  C1  9HJ d   1     -23.423 -13.289   6.892  0.00  0.00    -0.002 C 
ATOM     37  H4  9HJ d   1     -23.830 -13.662   7.843  0.00  0.00     0.057 H 
ATOM     38  H5  9HJ d   1     -24.226 -12.807   6.314  0.00  0.00     0.057 H 
ATOM     39  H6  9HJ d   1     -22.628 -12.557   7.095  0.00  0.00     0.057 H 
ENDBRANCH  35  36
BRANCH  35  40
ATOM     40  CAK 9HJ d   1     -22.959 -15.776   6.612  0.00  0.00     0.011 C 
ATOM     41  H20 9HJ d   1     -23.995 -16.141   6.556  0.00  0.00     0.065 H 
ATOM     42  H21 9HJ d   1     -22.306 -16.434   6.020  0.00  0.00     0.065 H 
BRANCH  40  43
ATOM     43  CAJ 9HJ d   1     -22.489 -15.722   8.062  0.00  0.00    -0.053 C 
ATOM     44  H18 9HJ d   1     -21.491 -15.259   8.087  0.00  0.00     0.034 H 
ATOM     45  H19 9HJ d   1     -23.195 -15.102   8.634  0.00  0.00     0.034 H 
BRANCH  43  46
ATOM     46  C7  9HJ d   1     -22.402 -17.089   8.726  0.00  0.00    -0.075 C 
ATOM     47  H1  9HJ d   1     -22.058 -16.971   9.764  0.00  0.00     0.027 H 
ATOM     48  H2  9HJ d   1     -21.691 -17.720   8.174  0.00  0.00     0.027 H 
ATOM     49  H3  9HJ d   1     -23.394 -17.563   8.720  0.00  0.00     0.027 H 
ENDBRANCH  43  46
ENDBRANCH  40  43
ENDBRANCH  35  40
ENDBRANCH   6  35
BRANCH  10  50
ATOM     50  OAU 9HJ d   1     -19.351 -14.363  -0.678  0.00  0.00    -0.353 OA
BRANCH  50  51
ATOM     51  CAC 9HJ d   1     -19.709 -13.277  -1.517  0.00  0.00     0.010 C 
ATOM     52  H10 9HJ d   1     -19.134 -13.332  -2.453  0.00  0.00     0.066 H 
ATOM     53  H11 9HJ d   1     -19.487 -12.329  -1.005  0.00  0.00     0.066 H 
ATOM     54  H12 9HJ d   1     -20.784 -13.328  -1.744  0.00  0.00     0.066 H 
ENDBRANCH  50  51
ENDBRANCH  10  50
BRANCH   9  55
ATOM     55  OAT 9HJ d   1     -18.957 -16.718   0.570  0.00  0.00    -0.353 OA
BRANCH  55  56
ATOM     56  CAB 9HJ d   1     -18.775 -17.999   1.184  0.00  0.00     0.010 C 
ATOM     57  H7  9HJ d   1     -18.151 -18.631   0.535  0.00  0.00     0.066 H 
ATOM     58  H8  9HJ d   1     -19.754 -18.478   1.330  0.00  0.00     0.066 H 
ATOM     59  H9  9HJ d   1     -18.280 -17.872   2.158  0.00  0.00     0.066 H 
ENDBRANCH  55  56
ENDBRANCH   9  55
TORSDOF 12
