REMARK  7 active torsions:
REMARK  status: ('A' for Active; 'I' for Inactive)
REMARK       I    between atoms: N2_5  and  C12_14 
REMARK    1  A    between atoms: C1_12  and  N_9 
REMARK    2  A    between atoms: C_10  and  O_11 
REMARK    3  A    between atoms: C_10  and  C1_12 
REMARK    4  A    between atoms: C12_14  and  C13_15 
REMARK    5  A    between atoms: C13_15  and  C14_16 
REMARK    6  A    between atoms: C14_16  and  C15_17 
REMARK    7  A    between atoms: C14_16  and  C16_18 
ROOT
ATOM      1  N2  9HS d   1      69.870 -56.450 178.573  0.00  0.00    -0.352 N 
ATOM      2  C10 9HS d   1      72.108 -57.044 179.162  0.00  0.00    -0.020 C 
ATOM      3  C   9HS d   1      71.614 -57.526 180.522  0.00  0.00     0.077 C 
ATOM      4  C11 9HS d   1      71.224 -55.920 178.636  0.00  0.00     0.000 C 
ATOM      5  C12 9HS d   1      69.203 -56.546 177.425  0.00  0.00     0.220 C 
ATOM      6  C22 9HS d   1      69.290 -56.873 179.841  0.00  0.00     0.000 C 
ATOM      7  C23 9HS d   1      70.172 -57.992 180.381  0.00  0.00    -0.020 C 
ATOM      8  O2  9HS d   1      68.889 -55.585 176.743  0.00  0.00    -0.273 OA
ATOM      9  H4  9HS d   1      72.086 -57.883 178.451  0.00  0.00     0.040 H 
ATOM     10  H5  9HS d   1      73.139 -56.675 179.262  0.00  0.00     0.040 H 
ATOM     11  H10 9HS d   1      71.262 -55.057 179.317  0.00  0.00     0.064 H 
ATOM     12  H11 9HS d   1      71.558 -55.612 177.634  0.00  0.00     0.064 H 
ATOM     13  H23 9HS d   1      68.266 -57.242 179.684  0.00  0.00     0.064 H 
ATOM     14  H24 9HS d   1      69.272 -56.031 180.548  0.00  0.00     0.064 H 
ATOM     15  H25 9HS d   1      69.796 -58.303 181.367  0.00  0.00     0.040 H 
ATOM     16  H26 9HS d   1      70.135 -58.846 179.688  0.00  0.00     0.040 H 
ENDROOT
BRANCH   5  17
ATOM     17  C13 9HS d   1      68.852 -57.945 176.989  0.00  0.00     0.016 C 
ATOM     18  H12 9HS d   1      67.862 -57.947 176.509  0.00  0.00     0.048 H 
ATOM     19  H13 9HS d   1      68.837 -58.613 177.863  0.00  0.00     0.048 H 
BRANCH  17  20
ATOM     20  C14 9HS d   1      69.911 -58.425 175.990  0.00  0.00    -0.024 C 
ATOM     21  H14 9HS d   1      70.701 -57.660 175.975  0.00  0.00     0.047 H 
BRANCH  20  22
ATOM     22  C15 9HS d   1      69.327 -58.528 174.583  0.00  0.00    -0.068 C 
ATOM     23  H15 9HS d   1      70.106 -58.874 173.887  0.00  0.00     0.028 H 
ATOM     24  H16 9HS d   1      68.963 -57.540 174.264  0.00  0.00     0.028 H 
ATOM     25  H17 9HS d   1      68.492 -59.244 174.584  0.00  0.00     0.028 H 
ENDBRANCH  20  22
BRANCH  20  26
ATOM     26  C16 9HS d   1      70.562 -59.722 176.332  0.00  0.00    -0.054 A 
ATOM     27  C17 9HS d   1      69.965 -60.712 177.113  0.00  0.00    -0.076 A 
ATOM     28  C18 9HS d   1      70.644 -61.895 177.380  0.00  0.00    -0.082 A 
ATOM     29  H18 9HS d   1      68.969 -60.558 177.513  0.00  0.00     0.084 H 
ATOM     30  C19 9HS d   1      71.915 -62.103 176.862  0.00  0.00    -0.083 A 
ATOM     31  H19 9HS d   1      70.180 -62.658 177.995  0.00  0.00     0.083 H 
ATOM     32  C20 9HS d   1      72.509 -61.124 176.077  0.00  0.00    -0.082 A 
ATOM     33  H20 9HS d   1      72.442 -63.027 177.070  0.00  0.00     0.083 H 
ATOM     34  C21 9HS d   1      71.833 -59.940 175.813  0.00  0.00    -0.076 A 
ATOM     35  H21 9HS d   1      73.501 -61.284 175.670  0.00  0.00     0.083 H 
ATOM     36  H22 9HS d   1      72.300 -59.180 175.197  0.00  0.00     0.084 H 
ENDBRANCH  20  26
ENDBRANCH  17  20
ENDBRANCH   5  17
BRANCH   3  37
ATOM     37  O   9HS d   1      71.645 -56.425 181.437  0.00  0.00    -0.388 OA
ATOM     38  H7  9HS d   1      72.535 -56.102 181.512  0.00  0.00     0.210 HD
ENDBRANCH   3  37
BRANCH   3  39
ATOM     39  C1  9HS d   1      72.478 -58.662 181.069  0.00  0.00     0.032 C 
ATOM     40  H8  9HS d   1      72.113 -58.944 182.068  0.00  0.00     0.069 H 
ATOM     41  H9  9HS d   1      72.404 -59.528 180.394  0.00  0.00     0.069 H 
BRANCH  39  42
ATOM     42  N   9HS d   1      73.882 -58.250 181.170  0.00  0.00    -0.307 N 
ATOM     43  C9  9HS d   1      74.752 -58.658 180.230  0.00  0.00     0.046 A 
ATOM     44  N1  9HS d   1      76.056 -58.326 180.239  0.00  0.00    -0.351 N 
ATOM     45  H2  9HS d   1      74.383 -59.288 179.422  0.00  0.00     0.140 H 
ATOM     46  C8  9HS d   1      76.598 -57.553 181.205  0.00  0.00     0.050 A 
ATOM     47  H3  9HS d   1      76.662 -58.674 179.482  0.00  0.00     0.166 HD
ATOM     48  C7  9HS d   1      77.944 -57.215 181.209  0.00  0.00    -0.035 A 
ATOM     49  C3  9HS d   1      75.732 -57.049 182.290  0.00  0.00     0.059 A 
ATOM     50  C6  9HS d   1      78.450 -56.414 182.229  0.00  0.00     0.036 A 
ATOM     51  H1  9HS d   1      78.598 -57.573 180.422  0.00  0.00     0.089 H 
ATOM     52  C5  9HS d   1      77.628 -55.940 183.253  0.00  0.00    -0.061 A 
ATOM     53 CL   9HS d   1      80.191 -55.984 182.225  0.00  0.00    -0.084 Cl
ATOM     54  C4  9HS d   1      76.272 -56.253 183.289  0.00  0.00    -0.064 A 
ATOM     55  H27 9HS d   1      78.052 -55.318 184.033  0.00  0.00     0.086 H 
ATOM     56  H6  9HS d   1      75.645 -55.878 184.090  0.00  0.00     0.085 H 
ATOM     57  C2  9HS d   1      74.303 -57.435 182.241  0.00  0.00     0.261 A 
ATOM     58  O1  9HS d   1      73.503 -57.053 183.120  0.00  0.00    -0.267 OA
ENDBRANCH  39  42
ENDBRANCH   3  39
TORSDOF 7
