REMARK  7 active torsions:
REMARK  status: ('A' for Active; 'I' for Inactive)
REMARK    1  A    between atoms: C14_2  and  C17_24 
REMARK    2  A    between atoms: C5_3  and  O1_18 
REMARK    3  A    between atoms: C6_4  and  C7_6 
REMARK    4  A    between atoms: N4_21  and  C11_5 
REMARK    5  A    between atoms: N1_12  and  C8_7 
REMARK    6  A    between atoms: C9_8  and  N4_21 
REMARK    7  A    between atoms: N1_12  and  C3_14 
REMARK       I    between atoms: C17_24  and  N5_26 
ROOT
ATOM      1  C8  9JS d   1      25.922  54.025  28.625  0.00  0.00     0.192 C 
ATOM      2  C9  9JS d   1      27.589  52.640  29.762  0.00  0.00     0.192 C 
ATOM      3  C10 9JS d   1      26.713  53.741  29.765  0.00  0.00     0.264 C 
ATOM      4  N2  9JS d   1      25.921  53.270  27.524  0.00  0.00    -0.171 NA
ATOM      5  N3  9JS d   1      27.543  51.678  28.852  0.00  0.00    -0.171 NA
ATOM      6  S1  9JS d   1      26.852  51.904  27.425  0.00  0.00     0.120 SA
ATOM      7  O2  9JS d   1      26.576  54.413  30.812  0.00  0.00    -0.280 OA
ENDROOT
BRANCH   1   8
ATOM      8  N1  9JS d   1      25.122  55.132  28.612  0.00  0.00    -0.337 N 
ATOM      9  H7  9JS d   1      25.323  55.817  29.355  0.00  0.00     0.167 HD
BRANCH   8  10
ATOM     10  C3  9JS d   1      24.056  55.496  27.742  0.00  0.00     0.036 A 
ATOM     11  C4  9JS d   1      23.663  56.826  27.751  0.00  0.00    -0.025 A 
ATOM     12  C5  9JS d   1      22.613  57.241  26.945  0.00  0.00     0.073 A 
ATOM     13  H1  9JS d   1      24.175  57.540  28.386  0.00  0.00     0.091 H 
ATOM     14  C6  9JS d   1      21.964  56.348  26.091  0.00  0.00    -0.029 A 
ATOM     15  C1  9JS d   1      22.371  55.016  26.098  0.00  0.00    -0.072 A 
ATOM     16  C2  9JS d   1      23.403  54.591  26.915  0.00  0.00    -0.057 A 
ATOM     17  H8  9JS d   1      21.872  54.302  25.453  0.00  0.00     0.084 H 
ATOM     18  H9  9JS d   1      23.703  53.549  26.910  0.00  0.00     0.086 H 
BRANCH  12  19
ATOM     19  O1  9JS d   1      22.226  58.543  27.000  0.00  0.00    -0.360 OA
ATOM     20  H10 9JS d   1      22.768  59.007  27.627  0.00  0.00     0.217 HD
ENDBRANCH  12  19
BRANCH  14  21
ATOM     21  C7  9JS d   1      20.823  56.809  25.228  0.00  0.00    -0.049 C 
ATOM     22  H2  9JS d   1      20.449  55.963  24.632  0.00  0.00     0.033 H 
ATOM     23  H3  9JS d   1      21.171  57.606  24.555  0.00  0.00     0.033 H 
ATOM     24  H4  9JS d   1      20.014  57.194  25.865  0.00  0.00     0.033 H 
ENDBRANCH  14  21
ENDBRANCH   8  10
ENDBRANCH   1   8
BRANCH   2  25
ATOM     25  N4  9JS d   1      28.366  52.379  30.827  0.00  0.00    -0.337 N 
ATOM     26  H11 9JS d   1      28.232  53.001  31.637  0.00  0.00     0.167 HD
BRANCH  25  27
ATOM     27  C11 9JS d   1      29.351  51.360  30.992  0.00  0.00     0.033 A 
ATOM     28  C12 9JS d   1      30.205  50.976  29.944  0.00  0.00    -0.056 A 
ATOM     29  C13 9JS d   1      31.182  50.022  30.156  0.00  0.00    -0.066 A 
ATOM     30  H5  9JS d   1      30.097  51.430  28.966  0.00  0.00     0.086 H 
ATOM     31  C14 9JS d   1      31.353  49.446  31.411  0.00  0.00     0.032 A 
ATOM     32  H6  9JS d   1      31.822  49.719  29.335  0.00  0.00     0.085 H 
ATOM     33  C15 9JS d   1      30.537  49.862  32.457  0.00  0.00    -0.066 A 
ATOM     34  C16 9JS d   1      29.535  50.790  32.254  0.00  0.00    -0.056 A 
ATOM     35  H12 9JS d   1      30.690  49.451  33.448  0.00  0.00     0.085 H 
ATOM     36  H13 9JS d   1      28.889  51.077  33.076  0.00  0.00     0.086 H 
BRANCH  31  37
ATOM     37  C17 9JS d   1      32.423  48.433  31.670  0.00  0.00     0.249 C 
ATOM     38  O3  9JS d   1      32.487  47.891  32.781  0.00  0.00    -0.268 OA
ATOM     39  N5  9JS d   1      33.296  48.166  30.708  0.00  0.00    -0.366 N 
ATOM     40  H14 9JS d   1      34.019  47.492  30.861  0.00  0.00     0.159 HD
ATOM     41  H15 9JS d   1      33.232  48.639  29.829  0.00  0.00     0.159 HD
ENDBRANCH  31  37
ENDBRANCH  25  27
ENDBRANCH   2  25
TORSDOF 7
