REMARK  14 active torsions:
REMARK  status: ('A' for Active; 'I' for Inactive)
REMARK    1  A    between atoms: C19_24  and  C20_1 
REMARK    2  A    between atoms: C20_1  and  O21_25 
REMARK    3  A    between atoms: C22_2  and  O23_26 
REMARK    4  A    between atoms: C24_3  and  O25_27 
REMARK    5  A    between atoms: C26_4  and  O27_5 
REMARK    6  A    between atoms: C02_7  and  O01_6 
REMARK    7  A    between atoms: C03_8  and  C02_7 
REMARK    8  A    between atoms: O06_11  and  C05_10 
REMARK    9  A    between atoms: C07_12  and  O06_11 
REMARK   10  A    between atoms: C08_13  and  O09_14 
REMARK   11  A    between atoms: C10_15  and  C11_16 
REMARK   12  A    between atoms: C11_16  and  O12_17 
REMARK   13  A    between atoms: N13_18  and  C14_19 
REMARK   14  A    between atoms: C14_19  and  P15_20 
ROOT
ATOM      1  C07 9KJ d   1     139.095 147.805-343.525  0.00  0.00     0.098 C 
ATOM      2  C08 9KJ d   1     139.399 149.028-342.627  0.00  0.00     0.092 C 
ATOM      3  C10 9KJ d   1     140.162 148.294-341.528  0.00  0.00     0.152 C 
ATOM      4  N13 9KJ d   1     139.189 147.250-341.197  0.00  0.00    -0.041 N 
ATOM      5  C19 9KJ d   1     139.024 146.634-342.520  0.00  0.00     0.152 C 
ATOM      6  H12 9KJ d   1     139.906 147.651-344.252  0.00  0.00     0.090 H 
ATOM      7  H13 9KJ d   1     138.487 149.522-342.262  0.00  0.00     0.090 H 
ATOM      8  H15 9KJ d   1     141.092 147.850-341.912  0.00  0.00     0.092 H 
ATOM      9  H19 9KJ d   1     139.514 146.616-340.484  0.00  0.00     0.281 HD
ATOM     10  H22 9KJ d   1     138.055 146.119-342.588  0.00  0.00     0.092 H 
ENDROOT
BRANCH   1  11
ATOM     11  O06 9KJ d   1     137.858 147.931-344.225  0.00  0.00    -0.348 OA
BRANCH  11  12
ATOM     12  C05 9KJ d   1     138.164 148.076-345.608  0.00  0.00     0.159 C 
ATOM     13  C22 9KJ d   1     136.887 148.539-346.317  0.00  0.00     0.110 C 
ATOM     14  C24 9KJ d   1     135.876 147.410-346.589  0.00  0.00     0.092 C 
ATOM     15  H3  9KJ d   1     137.151 149.019-347.271  0.00  0.00     0.094 H 
ATOM     16  C26 9KJ d   1     136.579 146.156-347.133  0.00  0.00     0.090 C 
ATOM     17  H4  9KJ d   1     135.352 147.159-345.655  0.00  0.00     0.091 H 
ATOM     18  C03 9KJ d   1     137.780 145.783-346.246  0.00  0.00     0.089 C 
ATOM     19  H5  9KJ d   1     136.944 146.370-348.148  0.00  0.00     0.091 H 
ATOM     20  O04 9KJ d   1     138.727 146.854-346.098  0.00  0.00    -0.348 OA
ATOM     21  H10 9KJ d   1     137.399 145.523-345.247  0.00  0.00     0.090 H 
ATOM     22  H11 9KJ d   1     138.923 148.863-345.729  0.00  0.00     0.133 H 
BRANCH  13  23
ATOM     23  O23 9KJ d   1     136.272 149.484-345.427  0.00  0.00    -0.388 OA
ATOM     24  H24 9KJ d   1     136.075 149.058-344.601  0.00  0.00     0.210 HD
ENDBRANCH  13  23
BRANCH  14  25
ATOM     25  O25 9KJ d   1     134.934 147.858-347.568  0.00  0.00    -0.390 OA
ATOM     26  H25 9KJ d   1     134.490 148.634-347.247  0.00  0.00     0.210 HD
ENDBRANCH  14  25
BRANCH  16  27
ATOM     27  O27 9KJ d   1     135.650 145.051-347.198  0.00  0.00    -0.390 OA
ATOM     28  H6  9KJ d   1     136.096 144.283-347.535  0.00  0.00     0.210 HD
ENDBRANCH  16  27
BRANCH  18  29
ATOM     29  C02 9KJ d   1     138.492 144.560-346.838  0.00  0.00     0.043 C 
ATOM     30  H8  9KJ d   1     138.551 143.751-346.095  0.00  0.00     0.078 H 
ATOM     31  H9  9KJ d   1     137.960 144.200-347.731  0.00  0.00     0.078 H 
BRANCH  29  32
ATOM     32  O01 9KJ d   1     139.797 145.016-347.184  0.00  0.00    -0.398 OA
ATOM     33  H7  9KJ d   1     139.727 145.720-347.818  0.00  0.00     0.209 HD
ENDBRANCH  29  32
ENDBRANCH  18  29
ENDBRANCH  11  12
ENDBRANCH   1  11
BRANCH   2  34
ATOM     34  O09 9KJ d   1     140.244 149.972-343.272  0.00  0.00    -0.391 OA
ATOM     35  H14 9KJ d   1     140.404 150.703-342.687  0.00  0.00     0.210 HD
ENDBRANCH   2  34
BRANCH   5  36
ATOM     36  C20 9KJ d   1     140.158 145.642-342.805  0.00  0.00     0.046 C 
ATOM     37  H1  9KJ d   1     141.099 146.182-342.983  0.00  0.00     0.077 H 
ATOM     38  H2  9KJ d   1     139.915 145.030-343.686  0.00  0.00     0.077 H 
BRANCH  36  39
ATOM     39  O21 9KJ d   1     140.275 144.821-341.656  0.00  0.00    -0.399 OA
ATOM     40  H23 9KJ d   1     140.478 145.361-340.901  0.00  0.00     0.209 HD
ENDBRANCH  36  39
ENDBRANCH   5  36
BRANCH   3  41
ATOM     41  C11 9KJ d   1     140.514 149.238-340.373  0.00  0.00     0.046 C 
ATOM     42  H16 9KJ d   1     139.781 149.132-339.560  0.00  0.00     0.077 H 
ATOM     43  H17 9KJ d   1     140.523 150.280-340.725  0.00  0.00     0.077 H 
BRANCH  41  44
ATOM     44  O12 9KJ d   1     141.814 148.862-339.915  0.00  0.00    -0.399 OA
ATOM     45  H18 9KJ d   1     141.796 147.959-339.620  0.00  0.00     0.209 HD
ENDBRANCH  41  44
ENDBRANCH   3  41
BRANCH   4  46
ATOM     46  C14 9KJ d   1     137.882 147.840-340.855  0.00  0.00     0.185 C 
ATOM     47  H20 9KJ d   1     137.083 147.198-341.254  0.00  0.00     0.098 H 
ATOM     48  H21 9KJ d   1     137.810 148.839-341.309  0.00  0.00     0.098 H 
BRANCH  46  49
ATOM     49  P15 9KJ d   1     137.670 147.996-338.985  0.00  0.00     0.286 P 
ATOM     50  O16 9KJ d   1     137.410 149.440-338.561  0.00  0.00    -0.638 OA
ATOM     51  O17 9KJ d   1     138.928 147.506-338.365  0.00  0.00    -0.638 OA
ATOM     52  O18 9KJ d   1     136.524 147.127-338.567  0.00  0.00    -0.638 OA
ENDBRANCH  46  49
ENDBRANCH   4  46
TORSDOF 14
