REMARK WARNING: 32 MAX_TORS EXCEEDED!!!
REMARK  60 active torsions:
REMARK  status: ('A' for Active; 'I' for Inactive)
REMARK    1  A    between atoms: N_1  and  CA_2 
REMARK    2  A    between atoms: CA_2  and  C_3 
REMARK    3  A    between atoms: CA_2  and  CB_5 
REMARK       I    between atoms: C_3  and  N_6 
REMARK    4  A    between atoms: N_6  and  CA_7 
REMARK    5  A    between atoms: CA_7  and  C_8 
REMARK    6  A    between atoms: CA_7  and  CB_10 
REMARK       I    between atoms: C_8  and  N_17 
REMARK    7  A    between atoms: CB_10  and  CG_11 
REMARK    8  A    between atoms: CG_11  and  CD_12 
REMARK    9  A    between atoms: CD_12  and  NE_13 
REMARK       I    between atoms: NE_13  and  CZ_14 
REMARK       I    between atoms: CZ_14  and  NH1_15 
REMARK       I    between atoms: CZ_14  and  NH2_16 
REMARK   10  A    between atoms: N_17  and  CA_18 
REMARK   11  A    between atoms: CA_18  and  C_19 
REMARK   12  A    between atoms: CA_18  and  CB_21 
REMARK       I    between atoms: C_19  and  N_26 
REMARK   13  A    between atoms: CB_21  and  CG_22 
REMARK   14  A    between atoms: CG_22  and  CD_23 
REMARK   15  A    between atoms: CD_23  and  CE_24 
REMARK   16  A    between atoms: CE_24  and  NZ_25 
REMARK   17  A    between atoms: N_26  and  CA_27 
REMARK   18  A    between atoms: CA_27  and  C_28 
REMARK   19  A    between atoms: CA_27  and  CB_30 
REMARK       I    between atoms: C_28  and  N_35 
REMARK   20  A    between atoms: CB_30  and  CG_31 
REMARK   21  A    between atoms: CG_31  and  CD_32 
REMARK       I    between atoms: CD_32  and  NE2_34 
REMARK   22  A    between atoms: N_35  and  CA_36 
REMARK   23  A    between atoms: CA_36  and  C_37 
REMARK       I    between atoms: C_37  and  N_39 
REMARK   24  A    between atoms: N_39  and  CA_40 
REMARK   25  A    between atoms: CA_40  and  C_41 
REMARK   26  A    between atoms: CA_40  and  CB_43 
REMARK       I    between atoms: C_41  and  N_44 
REMARK   27  A    between atoms: CA_45  and  C_46 
REMARK       I    between atoms: C_46  and  N_51 
REMARK   28  A    between atoms: N_51  and  CA_52 
REMARK   29  A    between atoms: CA_52  and  C_53 
REMARK   30  A    between atoms: CA_52  and  CB_55 
REMARK       I    between atoms: C_53  and  N_60 
REMARK   31  A    between atoms: CB_55  and  CG_56 
REMARK   32  A    between atoms: CG_56  and  CD_57 
REMARK       I    between atoms: CD_57  and  NE2_59 
REMARK   33  A    between atoms: N_60  and  CA_61 
REMARK   34  A    between atoms: CA_61  and  C_62 
REMARK   35  A    between atoms: CA_61  and  CB_64 
REMARK       I    between atoms: C_62  and  N_70 
REMARK   36  A    between atoms: CB_64  and  CG_65 
REMARK   37  A    between atoms: N_70  and  CA_71 
REMARK   38  A    between atoms: CA_71  and  C_72 
REMARK   39  A    between atoms: CA_71  and  CB_74 
REMARK       I    between atoms: C_72  and  N_78 
REMARK   40  A    between atoms: CB_74  and  CG_75 
REMARK   41  A    between atoms: CG_75  and  CD1_76 
REMARK   42  A    between atoms: CG_75  and  CD2_77 
REMARK   43  A    between atoms: N_78  and  CA_79 
REMARK   44  A    between atoms: CA_79  and  C_80 
REMARK   45  A    between atoms: CA_79  and  CB_82 
REMARK       I    between atoms: C_80  and  N_84 
REMARK   46  A    between atoms: CB_82  and  OG_83 
REMARK   47  A    between atoms: N_84  and  CA_85 
REMARK   48  A    between atoms: CA_85  and  C_86 
REMARK   49  A    between atoms: CA_85  and  CB_88 
REMARK       I    between atoms: C_86  and  N_89 
REMARK   50  A    between atoms: N_89  and  CA_90 
REMARK   51  A    between atoms: CA_90  and  C_91 
REMARK   52  A    between atoms: CA_90  and  CB_93 
REMARK       I    between atoms: C_91  and  N_100 
REMARK   53  A    between atoms: CB_93  and  CG_94 
REMARK   54  A    between atoms: CG_94  and  CD_95 
REMARK   55  A    between atoms: CD_95  and  NE_96 
REMARK       I    between atoms: NE_96  and  CZ_97 
REMARK       I    between atoms: CZ_97  and  NH1_98 
REMARK   56  A    between atoms: N_100  and  CA_101 
REMARK   57  A    between atoms: CA_101  and  C_102 
REMARK   58  A    between atoms: CA_101  and  CB_104 
REMARK   59  A    between atoms: CB_104  and  CG_105 
REMARK   60  A    between atoms: CG_105  and  CD_106 
ROOT
ATOM      1  CA  ARG d   1      13.739   4.265  18.342  0.00  0.00     0.090 C 
ATOM      2  H58 ARG d   1      14.793   4.512  18.539  0.00  0.00     0.087 H 
ENDROOT
BRANCH   1   3
ATOM      3  N   ARG d   1      13.543   4.267  16.901  0.00  0.00    -0.346 N 
ATOM      4  C   ARG d   1      14.441   3.858  16.000  0.00  0.00     0.241 C 
ATOM      5  O   ARG d   1      15.566   3.430  16.296  0.00  0.00    -0.271 OA
ATOM      6  H57 ARG d   1      12.666   4.601  16.557  0.00  0.00     0.163 HD
BRANCH   4   7
ATOM      7  CA  ARG d   1      14.035   4.026  14.535  0.00  0.00     0.091 C 
ATOM      8  N   ARG d   1      15.127   4.654  13.783  0.00  0.00    -0.337 N 
ATOM      9  C   ARG d   1      15.590   5.870  14.181  0.00  0.00     0.243 C 
ATOM     10  CD  ARG d   1      15.574   3.776  12.681  0.00  0.00    -0.001 C 
ATOM     11  O   ARG d   1      15.107   6.442  15.176  0.00  0.00    -0.271 OA
ATOM     12  CG  ARG d   1      15.083   2.427  13.098  0.00  0.00    -0.048 C 
ATOM     13  H55 ARG d   1      16.670   3.786  12.589  0.00  0.00     0.064 H 
ATOM     14  H56 ARG d   1      15.123   4.082  11.725  0.00  0.00     0.064 H 
ATOM     15  CB  ARG d   1      13.829   2.688  13.821  0.00  0.00    -0.036 C 
ATOM     16  H53 ARG d   1      14.898   1.794  12.218  0.00  0.00     0.035 H 
ATOM     17  H54 ARG d   1      15.814   1.935  13.756  0.00  0.00     0.035 H 
ATOM     18  H51 ARG d   1      12.987   2.755  13.117  0.00  0.00     0.036 H 
ATOM     19  H52 ARG d   1      13.634   1.889  14.552  0.00  0.00     0.036 H 
ATOM     20  H50 ARG d   1      13.120   4.634  14.482  0.00  0.00     0.087 H 
BRANCH   9  21
ATOM     21  CA  ARG d   1      16.771   6.533  13.420  0.00  0.00     0.086 C 
ATOM     22  H46 ARG d   1      17.608   5.819  13.427  0.00  0.00     0.086 H 
BRANCH  21  23
ATOM     23  N   ARG d   1      16.445   6.820  12.022  0.00  0.00    -0.347 N 
ATOM     24  C   ARG d   1      17.161   6.281  11.005  0.00  0.00     0.236 C 
ATOM     25  O   ARG d   1      18.085   5.472  11.183  0.00  0.00    -0.272 OA
ATOM     26  H45 ARG d   1      15.678   7.426  11.813  0.00  0.00     0.163 HD
BRANCH  24  27
ATOM     27  CA  ARG d   1      16.780   6.693   9.601  0.00  0.00     0.069 C 
ATOM     28  H43 ARG d   1      17.434   7.524   9.298  0.00  0.00     0.078 H 
ATOM     29  H44 ARG d   1      16.947   5.834   8.935  0.00  0.00     0.078 H 
BRANCH  27  30
ATOM     30  N   ARG d   1      15.394   7.126   9.447  0.00  0.00    -0.351 N 
ATOM     31  C   ARG d   1      14.403   6.310   9.105  0.00  0.00     0.240 C 
ATOM     32  O   ARG d   1      14.553   5.102   8.891  0.00  0.00    -0.271 OA
ATOM     33  H42 ARG d   1      15.179   8.089   9.608  0.00  0.00     0.163 HD
BRANCH  31  34
ATOM     34  CA  ARG d   1      13.006   6.958   8.982  0.00  0.00     0.090 C 
ATOM     35  H35 ARG d   1      13.126   7.971   8.570  0.00  0.00     0.087 H 
BRANCH  34  36
ATOM     36  N   ARG d   1      12.168   6.177   8.072  0.00  0.00    -0.346 N 
ATOM     37  C   ARG d   1      12.432   5.960   6.762  0.00  0.00     0.241 C 
ATOM     38  O   ARG d   1      13.384   6.459   6.160  0.00  0.00    -0.271 OA
ATOM     39  H34 ARG d   1      11.335   5.771   8.447  0.00  0.00     0.163 HD
BRANCH  37  40
ATOM     40  CA  ARG d   1      11.416   5.099   6.029  0.00  0.00     0.089 C 
ATOM     41  H22 ARG d   1      10.436   5.320   6.478  0.00  0.00     0.087 H 
BRANCH  40  42
ATOM     42  N   ARG d   1      11.308   5.435   4.619  0.00  0.00    -0.346 N 
ATOM     43  C   ARG d   1      10.070   5.549   4.105  0.00  0.00     0.241 C 
ATOM     44  O   ARG d   1       9.056   5.387   4.786  0.00  0.00    -0.271 OA
ATOM     45  H21 ARG d   1      12.121   5.576   4.054  0.00  0.00     0.163 HD
BRANCH  43  46
ATOM     46  CA  ARG d   1       9.927   5.820   2.608  0.00  0.00     0.089 C 
ATOM     47  H9  ARG d   1       9.229   6.660   2.479  0.00  0.00     0.087 H 
BRANCH  46  48
ATOM     48  N   ARG d   1      11.205   6.203   1.986  0.00  0.00    -0.346 N 
ATOM     49  C   ARG d   1      11.574   7.489   1.811  0.00  0.00     0.248 C 
ATOM     50  O   ARG d   1      10.860   8.437   2.151  0.00  0.00    -0.271 OA
ATOM     51  H8  ARG d   1      11.825   5.480   1.681  0.00  0.00     0.163 HD
BRANCH  49  52
ATOM     52  CA  ARG d   1      12.957   7.763   1.157  0.00  0.00     0.172 C 
ATOM     53  H4  ARG d   1      13.302   8.750   1.499  0.00  0.00     0.098 H 
BRANCH  52  54
ATOM     54  N   ARG d   1      13.958   6.773   1.561  0.00  0.00    -0.067 N 
ATOM     55  H1  ARG d   1      14.838   6.985   1.117  0.00  0.00     0.275 HD
ATOM     56  H2  ARG d   1      13.653   5.854   1.282  0.00  0.00     0.275 HD
ATOM     57  H3  ARG d   1      14.072   6.799   2.562  0.00  0.00     0.275 HD
ENDBRANCH  52  54
BRANCH  52  58
ATOM     58  CB  ARG d   1      12.830   7.806  -0.372  0.00  0.00    -0.042 C 
ATOM     59  H5  ARG d   1      12.075   8.554  -0.656  0.00  0.00     0.030 H 
ATOM     60  H6  ARG d   1      12.524   6.817  -0.743  0.00  0.00     0.030 H 
ATOM     61  H7  ARG d   1      13.800   8.079  -0.813  0.00  0.00     0.030 H 
ENDBRANCH  52  58
ENDBRANCH  49  52
ENDBRANCH  46  48
BRANCH  46  62
ATOM     62  CB  ARG d   1       9.317   4.576   1.921  0.00  0.00    -0.036 C 
ATOM     63  H10 ARG d   1       8.861   3.931   2.687  0.00  0.00     0.036 H 
ATOM     64  H11 ARG d   1      10.116   4.024   1.405  0.00  0.00     0.036 H 
BRANCH  62  65
ATOM     65  CG  ARG d   1       8.267   4.964   0.921  0.00  0.00    -0.048 C 
ATOM     66  H12 ARG d   1       8.724   5.628   0.172  0.00  0.00     0.035 H 
ATOM     67  H13 ARG d   1       7.465   5.502   1.447  0.00  0.00     0.035 H 
BRANCH  65  68
ATOM     68  CD  ARG d   1       7.662   3.776   0.206  0.00  0.00     0.009 C 
ATOM     69  H14 ARG d   1       8.429   2.991   0.123  0.00  0.00     0.064 H 
ATOM     70  H15 ARG d   1       7.353   4.095  -0.800  0.00  0.00     0.064 H 
BRANCH  68  71
ATOM     71  NE  ARG d   1       6.496   3.215   0.894  0.00  0.00    -0.227 N 
ATOM     72  CZ  ARG d   1       5.593   2.447   0.301  0.00  0.00     0.665 C 
ATOM     73  NH1 ARG d   1       5.693   2.174  -0.995  0.00  0.00    -0.235 N 
ATOM     74  NH2 ARG d   1       4.565   1.966   0.990  0.00  0.00    -0.235 N 
ATOM     75  H17 ARG d   1       4.989   1.577  -1.451  0.00  0.00     0.174 HD
ATOM     76  H18 ARG d   1       6.475   2.560  -1.544  0.00  0.00     0.174 HD
ATOM     77  H19 ARG d   1       4.478   2.171   1.996  0.00  0.00     0.174 HD
ATOM     78  H20 ARG d   1       3.855   1.387   0.519  0.00  0.00     0.174 HD
ATOM     79  H16 ARG d   1       6.371   3.429   1.894  0.00  0.00     0.177 HD
ENDBRANCH  68  71
ENDBRANCH  65  68
ENDBRANCH  62  65
ENDBRANCH  46  62
ENDBRANCH  43  46
ENDBRANCH  40  42
BRANCH  40  80
ATOM     80  CB  ARG d   1      11.677   3.590   6.255  0.00  0.00    -0.038 C 
ATOM     81  H23 ARG d   1      10.766   3.043   5.970  0.00  0.00     0.036 H 
ATOM     82  H24 ARG d   1      11.875   3.438   7.326  0.00  0.00     0.036 H 
BRANCH  80  83
ATOM     83  CG  ARG d   1      12.822   3.005   5.489  0.00  0.00    -0.061 C 
ATOM     84  H25 ARG d   1      13.761   3.384   5.919  0.00  0.00     0.033 H 
ATOM     85  H26 ARG d   1      12.742   3.328   4.441  0.00  0.00     0.033 H 
BRANCH  83  86
ATOM     86  CD  ARG d   1      12.854   1.483   5.525  0.00  0.00    -0.043 C 
ATOM     87  H27 ARG d   1      11.836   1.074   5.446  0.00  0.00     0.035 H 
ATOM     88  H28 ARG d   1      13.319   1.129   6.457  0.00  0.00     0.035 H 
BRANCH  86  89
ATOM     89  CE  ARG d   1      13.683   1.074   4.331  0.00  0.00     0.080 C 
ATOM     90  H29 ARG d   1      14.502   1.798   4.211  0.00  0.00     0.075 H 
ATOM     91  H30 ARG d   1      13.041   1.095   3.438  0.00  0.00     0.075 H 
BRANCH  89  92
ATOM     92  NZ  ARG d   1      14.260  -0.259   4.453  0.00  0.00    -0.079 N 
ATOM     93  H31 ARG d   1      14.798  -0.469   3.627  0.00  0.00     0.274 HD
ATOM     94  H32 ARG d   1      13.521  -0.937   4.554  0.00  0.00     0.274 HD
ATOM     95  H33 ARG d   1      14.860  -0.293   5.263  0.00  0.00     0.274 HD
ENDBRANCH  89  92
ENDBRANCH  86  89
ENDBRANCH  83  86
ENDBRANCH  80  83
ENDBRANCH  40  80
ENDBRANCH  37  40
ENDBRANCH  34  36
BRANCH  34  96
ATOM     96  CB  ARG d   1      12.327   7.066  10.360  0.00  0.00    -0.030 C 
ATOM     97  H36 ARG d   1      11.307   7.452  10.215  0.00  0.00     0.037 H 
ATOM     98  H37 ARG d   1      12.903   7.772  10.976  0.00  0.00     0.037 H 
BRANCH  96  99
ATOM     99  CG  ARG d   1      12.237   5.724  11.113  0.00  0.00     0.011 C 
ATOM    100  H38 ARG d   1      13.258   5.339  11.254  0.00  0.00     0.047 H 
ATOM    101  H39 ARG d   1      11.662   5.020  10.494  0.00  0.00     0.047 H 
BRANCH  99 102
ATOM    102  CD  ARG d   1      11.577   5.812  12.461  0.00  0.00     0.215 C 
ATOM    103  OE1 ARG d   1      10.802   4.925  12.840  0.00  0.00    -0.274 OA
ATOM    104  NE2 ARG d   1      11.908   6.843  13.242  0.00  0.00    -0.370 N 
ATOM    105  H40 ARG d   1      11.492   6.939  14.146  0.00  0.00     0.159 HD
ATOM    106  H41 ARG d   1      12.572   7.519  12.923  0.00  0.00     0.159 HD
ENDBRANCH  99 102
ENDBRANCH  96  99
ENDBRANCH  34  96
ENDBRANCH  31  34
ENDBRANCH  27  30
ENDBRANCH  24  27
ENDBRANCH  21  23
BRANCH  21 107
ATOM    107  CB  ARG d   1      17.243   7.818  14.126  0.00  0.00    -0.049 C 
ATOM    108  H47 ARG d   1      17.485   7.592  15.175  0.00  0.00     0.030 H 
ATOM    109  H48 ARG d   1      16.443   8.572  14.089  0.00  0.00     0.030 H 
ATOM    110  H49 ARG d   1      18.138   8.208  13.619  0.00  0.00     0.030 H 
ENDBRANCH  21 107
ENDBRANCH   9  21
ENDBRANCH   4   7
ENDBRANCH   1   3
BRANCH   1 111
ATOM    111  C   ARG d   1      13.447   2.917  18.979  0.00  0.00     0.241 C 
ATOM    112  O   ARG d   1      12.527   2.199  18.579  0.00  0.00    -0.271 OA
ATOM    113  N   ARG d   1      14.201   2.618  20.024  0.00  0.00    -0.346 N 
ATOM    114  H65 ARG d   1      14.917   3.267  20.282  0.00  0.00     0.163 HD
BRANCH 113 115
ATOM    115  CA  ARG d   1      14.063   1.419  20.820  0.00  0.00     0.094 C 
ATOM    116  H66 ARG d   1      13.488   0.676  20.248  0.00  0.00     0.088 H 
BRANCH 115 117
ATOM    117  C   ARG d   1      13.310   1.731  22.109  0.00  0.00     0.241 C 
ATOM    118  O   ARG d   1      13.677   2.642  22.834  0.00  0.00    -0.271 OA
ATOM    119  N   ARG d   1      12.234   1.011  22.367  0.00  0.00    -0.346 N 
ATOM    120  H72 ARG d   1      11.914   0.353  21.686  0.00  0.00     0.163 HD
BRANCH 119 121
ATOM    121  CA  ARG d   1      11.503   1.149  23.612  0.00  0.00     0.089 C 
ATOM    122  H73 ARG d   1      11.771   2.118  24.059  0.00  0.00     0.087 H 
BRANCH 121 123
ATOM    123  C   ARG d   1      11.985   0.048  24.548  0.00  0.00     0.241 C 
ATOM    124  O   ARG d   1      12.410  -1.029  24.098  0.00  0.00    -0.271 OA
ATOM    125  N   ARG d   1      12.006   0.370  25.843  0.00  0.00    -0.344 N 
ATOM    126  H83 ARG d   1      11.613   1.260  26.073  0.00  0.00     0.163 HD
BRANCH 125 127
ATOM    127  CA  ARG d   1      12.527  -0.405  26.975  0.00  0.00     0.109 C 
ATOM    128  H84 ARG d   1      13.521  -0.776  26.684  0.00  0.00     0.090 H 
BRANCH 127 129
ATOM    129  C   ARG d   1      11.687  -1.633  27.373  0.00  0.00     0.243 C 
ATOM    130  O   ARG d   1      11.194  -1.737  28.509  0.00  0.00    -0.271 OA
ATOM    131  N   ARG d   1      11.605  -2.592  26.458  0.00  0.00    -0.346 N 
ATOM    132  H88 ARG d   1      12.088  -2.452  25.593  0.00  0.00     0.163 HD
BRANCH 131 133
ATOM    133  CA  ARG d   1      10.853  -3.849  26.626  0.00  0.00     0.086 C 
ATOM    134  H89 ARG d   1      10.852  -4.128  27.690  0.00  0.00     0.086 H 
BRANCH 133 135
ATOM    135  C   ARG d   1      11.520  -4.968  25.819  0.00  0.00     0.240 C 
ATOM    136  O   ARG d   1      12.278  -4.662  24.901  0.00  0.00    -0.271 OA
ATOM    137  N   ARG d   1      11.269  -6.244  26.186  0.00  0.00    -0.346 N 
ATOM    138  H93 ARG d   1      10.723  -6.383  27.012  0.00  0.00     0.163 HD
BRANCH 137 139
ATOM    139  CA  ARG d   1      11.733  -7.452  25.471  0.00  0.00     0.089 C 
ATOM    140  H94 ARG d   1      11.860  -7.195  24.409  0.00  0.00     0.087 H 
BRANCH 139 141
ATOM    141  C   ARG d   1      10.627  -8.524  25.575  0.00  0.00     0.241 C 
ATOM    142  O   ARG d   1      10.458  -9.154  26.624  0.00  0.00    -0.271 OA
ATOM    143  N   ARG d   1       9.840  -8.688  24.493  0.00  0.00    -0.345 N 
ATOM    144 6H10 ARG d   1      10.060  -8.160  23.672  0.00  0.00     0.163 HD
BRANCH 143 145
ATOM    145  CA  ARG d   1       8.676  -9.593  24.437  0.00  0.00     0.097 C 
ATOM    146 7H10 ARG d   1       8.308  -9.733  25.464  0.00  0.00     0.089 H 
BRANCH 145 147
ATOM    147  C   ARG d   1       9.002 -10.974  23.861  0.00  0.00     0.196 C 
ATOM    148  O   ARG d   1       9.701 -11.075  22.856  0.00  0.00    -0.646 OA
ATOM    149  OXT ARG d   1       8.566 -11.987  24.401  0.00  0.00    -0.646 OA
ENDBRANCH 145 147
BRANCH 145 150
ATOM    150  CB  ARG d   1       7.570  -8.953  23.604  0.00  0.00    -0.028 C 
ATOM    151 8H10 ARG d   1       6.708  -9.636  23.593  0.00  0.00     0.037 H 
ATOM    152 9H10 ARG d   1       7.945  -8.819  22.579  0.00  0.00     0.037 H 
BRANCH 150 153
ATOM    153  CG  ARG d   1       7.101  -7.605  24.119  0.00  0.00     0.018 C 
ATOM    154 0H11 ARG d   1       7.902  -6.869  23.961  0.00  0.00     0.049 H 
ATOM    155 1H11 ARG d   1       6.891  -7.692  25.195  0.00  0.00     0.049 H 
BRANCH 153 156
ATOM    156  CD  ARG d   1       5.851  -7.120  23.418  0.00  0.00     0.172 C 
ATOM    157  OE1 ARG d   1       4.765  -7.675  23.707  0.00  0.00    -0.648 OA
ATOM    158  OE2 ARG d   1       5.969  -6.256  22.519  0.00  0.00    -0.648 OA
ENDBRANCH 153 156
ENDBRANCH 150 153
ENDBRANCH 145 150
ENDBRANCH 143 145
ENDBRANCH 139 141
BRANCH 139 159
ATOM    159  CB  ARG d   1      13.105  -7.949  25.990  0.00  0.00    -0.036 C 
ATOM    160  H95 ARG d   1      12.989  -8.218  27.050  0.00  0.00     0.036 H 
ATOM    161  H96 ARG d   1      13.822  -7.120  25.899  0.00  0.00     0.036 H 
BRANCH 159 162
ATOM    162  CG  ARG d   1      13.692  -9.165  25.255  0.00  0.00    -0.048 C 
ATOM    163  H97 ARG d   1      12.931  -9.959  25.247  0.00  0.00     0.035 H 
ATOM    164  H98 ARG d   1      14.575  -9.508  25.814  0.00  0.00     0.035 H 
BRANCH 162 165
ATOM    165  CD  ARG d   1      14.113  -8.904  23.826  0.00  0.00     0.009 C 
ATOM    166  H99 ARG d   1      13.343  -8.290  23.335  0.00  0.00     0.064 H 
ATOM    167 0H10 ARG d   1      14.204  -9.866  23.301  0.00  0.00     0.064 H 
BRANCH 165 168
ATOM    168  NE  ARG d   1      15.391  -8.204  23.753  0.00  0.00    -0.227 N 
ATOM    169  CZ  ARG d   1      15.941  -7.761  22.624  0.00  0.00     0.665 C 
ATOM    170  NH1 ARG d   1      15.331  -7.952  21.457  0.00  0.00    -0.235 N 
ATOM    171  NH2 ARG d   1      17.098  -7.111  22.653  0.00  0.00    -0.235 N 
ATOM    172 2H10 ARG d   1      15.762  -7.607  20.588  0.00  0.00     0.174 HD
ATOM    173 3H10 ARG d   1      14.427  -8.445  21.423  0.00  0.00     0.174 HD
ATOM    174 4H10 ARG d   1      17.580  -6.957  23.550  0.00  0.00     0.174 HD
ATOM    175 5H10 ARG d   1      17.514  -6.761  21.778  0.00  0.00     0.174 HD
ATOM    176 1H10 ARG d   1      15.902  -8.042  24.633  0.00  0.00     0.177 HD
ENDBRANCH 165 168
ENDBRANCH 162 165
ENDBRANCH 159 162
ENDBRANCH 139 159
ENDBRANCH 137 139
ENDBRANCH 133 135
BRANCH 133 177
ATOM    177  CB  ARG d   1       9.390  -3.646  26.157  0.00  0.00    -0.049 C 
ATOM    178  H90 ARG d   1       8.831  -4.585  26.283  0.00  0.00     0.030 H 
ATOM    179  H91 ARG d   1       9.382  -3.354  25.096  0.00  0.00     0.030 H 
ATOM    180  H92 ARG d   1       8.918  -2.855  26.759  0.00  0.00     0.030 H 
ENDBRANCH 133 177
ENDBRANCH 131 133
ENDBRANCH 127 129
BRANCH 127 181
ATOM    181  CB  ARG d   1      12.695   0.519  28.175  0.00  0.00     0.044 C 
ATOM    182  H85 ARG d   1      12.506  -0.037  29.105  0.00  0.00     0.077 H 
ATOM    183  H86 ARG d   1      11.991   1.361  28.101  0.00  0.00     0.077 H 
BRANCH 181 184
ATOM    184  OG  ARG d   1      14.025   1.002  28.165  0.00  0.00    -0.398 OA
ATOM    185  H87 ARG d   1      14.156   1.582  28.906  0.00  0.00     0.209 HD
ENDBRANCH 181 184
ENDBRANCH 127 181
ENDBRANCH 125 127
ENDBRANCH 121 123
BRANCH 121 186
ATOM    186  CB  ARG d   1       9.985   1.153  23.416  0.00  0.00    -0.035 C 
ATOM    187  H74 ARG d   1       9.515   1.026  24.402  0.00  0.00     0.037 H 
ATOM    188  H75 ARG d   1       9.724   0.300  22.773  0.00  0.00     0.037 H 
BRANCH 186 189
ATOM    189  CG  ARG d   1       9.402   2.434  22.770  0.00  0.00    -0.059 C 
ATOM    190  H76 ARG d   1       9.766   2.478  21.733  0.00  0.00     0.038 H 
BRANCH 189 191
ATOM    191  CD1 ARG d   1       7.889   2.391  22.740  0.00  0.00    -0.073 C 
ATOM    192  H77 ARG d   1       7.505   3.312  22.277  0.00  0.00     0.028 H 
ATOM    193  H78 ARG d   1       7.504   2.309  23.767  0.00  0.00     0.028 H 
ATOM    194  H79 ARG d   1       7.558   1.521  22.154  0.00  0.00     0.028 H 
ENDBRANCH 189 191
BRANCH 189 195
ATOM    195  CD2 ARG d   1       9.862   3.732  23.496  0.00  0.00    -0.073 C 
ATOM    196  H80 ARG d   1      10.961   3.768  23.521  0.00  0.00     0.028 H 
ATOM    197  H81 ARG d   1       9.472   3.735  24.524  0.00  0.00     0.028 H 
ATOM    198  H82 ARG d   1       9.478   4.610  22.956  0.00  0.00     0.028 H 
ENDBRANCH 189 195
ENDBRANCH 186 189
ENDBRANCH 121 186
ENDBRANCH 119 121
ENDBRANCH 115 117
BRANCH 115 199
ATOM    199  CB  ARG d   1      15.453   0.837  21.127  0.00  0.00     0.002 C 
ATOM    200  H67 ARG d   1      16.053   1.615  21.621  0.00  0.00     0.046 H 
ATOM    201  H68 ARG d   1      15.928   0.556  20.176  0.00  0.00     0.046 H 
BRANCH 199 202
ATOM    202  CG  ARG d   1      15.424  -0.364  22.010  0.00  0.00     0.030 A 
ATOM    203  ND1 ARG d   1      15.621  -0.256  23.370  0.00  0.00    -0.353 N 
ATOM    204  CE1 ARG d   1      15.547  -1.492  23.842  0.00  0.00     0.063 A 
ATOM    205  H69 ARG d   1      15.790   0.606  23.907  0.00  0.00     0.166 HD
ATOM    206  NE2 ARG d   1      15.298  -2.370  22.874  0.00  0.00    -0.254 NA
ATOM    207  H71 ARG d   1      15.674  -1.756  24.891  0.00  0.00     0.143 H 
ATOM    208  CD2 ARG d   1      15.205  -1.662  21.699  0.00  0.00     0.025 A 
ATOM    209  H70 ARG d   1      14.996  -2.067  20.710  0.00  0.00     0.117 H 
ENDBRANCH 199 202
ENDBRANCH 115 199
ENDBRANCH 113 115
ENDBRANCH   1 111
BRANCH   1 210
ATOM    210  CB  ARG d   1      12.843   5.355  19.004  0.00  0.00    -0.030 C 
ATOM    211  H59 ARG d   1      12.925   5.253  20.096  0.00  0.00     0.037 H 
ATOM    212  H60 ARG d   1      11.802   5.180  18.696  0.00  0.00     0.037 H 
BRANCH 210 213
ATOM    213  CG  ARG d   1      13.227   6.809  18.620  0.00  0.00     0.011 C 
ATOM    214  H61 ARG d   1      12.504   7.503  19.074  0.00  0.00     0.047 H 
ATOM    215  H62 ARG d   1      13.196   6.911  17.525  0.00  0.00     0.047 H 
BRANCH 213 216
ATOM    216  CD  ARG d   1      14.625   7.158  19.111  0.00  0.00     0.215 C 
ATOM    217  OE1 ARG d   1      14.884   7.270  20.312  0.00  0.00    -0.274 OA
ATOM    218  NE2 ARG d   1      15.583   7.197  18.208  0.00  0.00    -0.370 N 
ATOM    219  H63 ARG d   1      16.518   7.421  18.481  0.00  0.00     0.159 HD
ATOM    220  H64 ARG d   1      15.375   7.002  17.250  0.00  0.00     0.159 HD
ENDBRANCH 213 216
ENDBRANCH 210 213
ENDBRANCH   1 210
TORSDOF 60
