REMARK  32 active torsions:
REMARK  status: ('A' for Active; 'I' for Inactive)
REMARK    1  A    between atoms: CA_2  and  C_3 
REMARK       I    between atoms: C_3  and  N_8 
REMARK    2  A    between atoms: N_8  and  CA_9 
REMARK    3  A    between atoms: CA_9  and  C_10 
REMARK    4  A    between atoms: CA_9  and  CB_12 
REMARK       I    between atoms: C_10  and  N_13 
REMARK    5  A    between atoms: N_13  and  CA_14 
REMARK    6  A    between atoms: CA_14  and  C_15 
REMARK    7  A    between atoms: CA_14  and  CB_17 
REMARK       I    between atoms: C_15  and  N_27 
REMARK    8  A    between atoms: CB_17  and  CG_18 
REMARK    9  A    between atoms: N_27  and  CA_28 
REMARK   10  A    between atoms: CA_28  and  C_29 
REMARK   11  A    between atoms: CA_28  and  CB_31 
REMARK       I    between atoms: C_29  and  N_35 
REMARK   12  A    between atoms: CB_31  and  CG_32 
REMARK   13  A    between atoms: N_35  and  CA_36 
REMARK   14  A    between atoms: CA_36  and  C_37 
REMARK   15  A    between atoms: CA_36  and  CB_39 
REMARK       I    between atoms: C_37  and  N_44 
REMARK   16  A    between atoms: CB_39  and  CG_40 
REMARK   17  A    between atoms: CG_40  and  CD_41 
REMARK   18  A    between atoms: N_44  and  CA_45 
REMARK   19  A    between atoms: CA_45  and  C_46 
REMARK   20  A    between atoms: CA_45  and  CB_48 
REMARK       I    between atoms: C_46  and  N_51 
REMARK   21  A    between atoms: CB_48  and  OG1_49 
REMARK   22  A    between atoms: CB_48  and  CG2_50 
REMARK   23  A    between atoms: N_51  and  CA_52 
REMARK   24  A    between atoms: CA_52  and  C_53 
REMARK   25  A    between atoms: CA_52  and  CB_55 
REMARK       I    between atoms: C_53  and  N_59 
REMARK   26  A    between atoms: CB_55  and  CG_56 
REMARK       I    between atoms: CG_56  and  ND2_58 
REMARK   27  A    between atoms: N_59  and  CA_60 
REMARK   28  A    between atoms: CA_60  and  C_61 
REMARK   29  A    between atoms: CA_60  and  CB_63 
REMARK   30  A    between atoms: CB_63  and  CG_64 
REMARK   31  A    between atoms: CG_64  and  CD1_65 
REMARK   32  A    between atoms: CG_64  and  CD2_66 
ROOT
ATOM      1  C   ASP d   1       7.374  -1.022  34.108  0.00  0.00     0.241 C 
ATOM      2  O   ASP d   1       7.874   0.102  34.147  0.00  0.00    -0.271 OA
ATOM      3  N   GLU d   1       7.289  -1.725  33.002  0.00  0.00    -0.346 N 
ATOM      4  H29 GLU d   1       6.864  -2.629  33.044  0.00  0.00     0.163 HD
ENDROOT
BRANCH   3   5
ATOM      5  CA  GLU d   1       7.784  -1.250  31.719  0.00  0.00     0.090 C 
ATOM      6  H30 GLU d   1       8.252  -0.263  31.845  0.00  0.00     0.087 H 
BRANCH   5   7
ATOM      7  C   GLU d   1       6.602  -1.121  30.777  0.00  0.00     0.241 C 
ATOM      8  O   GLU d   1       5.848  -2.079  30.598  0.00  0.00    -0.271 OA
ATOM      9  N   THR d   1       6.420   0.074  30.211  0.00  0.00    -0.344 N 
ATOM     10  H35 THR d   1       7.088   0.794  30.398  0.00  0.00     0.163 HD
BRANCH   9  11
ATOM     11  CA  THR d   1       5.289   0.386  29.328  0.00  0.00     0.113 C 
ATOM     12  H36 THR d   1       4.538  -0.412  29.424  0.00  0.00     0.091 H 
BRANCH  11  13
ATOM     13  C   THR d   1       5.782   0.428  27.888  0.00  0.00     0.243 C 
ATOM     14  O   THR d   1       6.669   1.210  27.560  0.00  0.00    -0.271 OA
ATOM     15  N   ASN d   1       5.191  -0.395  27.028  0.00  0.00    -0.345 N 
ATOM     16  H42 ASN d   1       4.412  -0.938  27.343  0.00  0.00     0.163 HD
BRANCH  15  17
ATOM     17  CA  ASN d   1       5.631  -0.540  25.642  0.00  0.00     0.097 C 
ATOM     18  H43 ASN d   1       6.686  -0.239  25.565  0.00  0.00     0.088 H 
BRANCH  17  19
ATOM     19  C   ASN d   1       4.788   0.374  24.768  0.00  0.00     0.241 C 
ATOM     20  O   ASN d   1       3.562   0.380  24.882  0.00  0.00    -0.271 OA
ATOM     21  N   LEU d   1       5.437   1.131  23.896  0.00  0.00    -0.345 N 
ATOM     22  H48 LEU d   1       6.420   0.998  23.766  0.00  0.00     0.163 HD
BRANCH  21  23
ATOM     23  CA  LEU d   1       4.745   2.155  23.123  0.00  0.00     0.096 C 
ATOM     24  H49 LEU d   1       3.662   1.979  23.205  0.00  0.00     0.089 H 
BRANCH  23  25
ATOM     25  C   LEU d   1       5.132   2.101  21.674  0.00  0.00     0.196 C 
ATOM     26  O   LEU d   1       6.132   1.470  21.331  0.00  0.00    -0.646 OA
ATOM     27  OXT LEU d   1       4.471   2.702  20.825  0.00  0.00    -0.646 OA
ENDBRANCH  23  25
BRANCH  23  28
ATOM     28  CB  LEU d   1       5.062   3.545  23.674  0.00  0.00    -0.034 C 
ATOM     29  H50 LEU d   1       4.549   4.288  23.046  0.00  0.00     0.037 H 
ATOM     30  H51 LEU d   1       6.149   3.699  23.610  0.00  0.00     0.037 H 
BRANCH  28  31
ATOM     31  CG  LEU d   1       4.638   3.769  25.111  0.00  0.00    -0.059 C 
ATOM     32  H52 LEU d   1       5.118   3.009  25.745  0.00  0.00     0.038 H 
BRANCH  31  33
ATOM     33  CD1 LEU d   1       5.106   5.140  25.554  0.00  0.00    -0.073 C 
ATOM     34  H53 LEU d   1       4.802   5.312  26.597  0.00  0.00     0.028 H 
ATOM     35  H54 LEU d   1       4.654   5.908  24.909  0.00  0.00     0.028 H 
ATOM     36  H55 LEU d   1       6.202   5.196  25.477  0.00  0.00     0.028 H 
ENDBRANCH  31  33
BRANCH  31  37
ATOM     37  CD2 LEU d   1       3.124   3.633  25.258  0.00  0.00    -0.073 C 
ATOM     38  H56 LEU d   1       2.812   2.630  24.930  0.00  0.00     0.028 H 
ATOM     39  H57 LEU d   1       2.626   4.393  24.638  0.00  0.00     0.028 H 
ATOM     40  H58 LEU d   1       2.843   3.778  26.312  0.00  0.00     0.028 H 
ENDBRANCH  31  37
ENDBRANCH  28  31
ENDBRANCH  23  28
ENDBRANCH  21  23
ENDBRANCH  17  19
BRANCH  17  41
ATOM     41  CB  ASN d   1       5.501  -1.994  25.190  0.00  0.00     0.036 C 
ATOM     42  H44 ASN d   1       5.937  -2.092  24.185  0.00  0.00     0.051 H 
ATOM     43  H45 ASN d   1       4.434  -2.259  25.155  0.00  0.00     0.051 H 
BRANCH  41  44
ATOM     44  CG  ASN d   1       6.215  -2.959  26.130  0.00  0.00     0.217 C 
ATOM     45  OD1 ASN d   1       7.383  -2.762  26.467  0.00  0.00    -0.274 OA
ATOM     46  ND2 ASN d   1       5.502  -3.978  26.587  0.00  0.00    -0.370 N 
ATOM     47  H46 ASN d   1       5.920  -4.642  27.207  0.00  0.00     0.159 HD
ATOM     48  H47 ASN d   1       4.546  -4.083  26.312  0.00  0.00     0.159 HD
ENDBRANCH  41  44
ENDBRANCH  17  41
ENDBRANCH  15  17
ENDBRANCH  11  13
BRANCH  11  49
ATOM     49  CB  THR d   1       4.632   1.708  29.700  0.00  0.00     0.060 C 
ATOM     50  H37 THR d   1       5.378   2.514  29.636  0.00  0.00     0.086 H 
BRANCH  49  51
ATOM     51  OG1 THR d   1       4.111   1.638  31.026  0.00  0.00    -0.393 OA
ATOM     52  H38 THR d   1       3.703   2.467  31.249  0.00  0.00     0.210 HD
ENDBRANCH  49  51
BRANCH  49  53
ATOM     53  CG2 THR d   1       3.468   2.010  28.760  0.00  0.00    -0.050 C 
ATOM     54  H39 THR d   1       3.006   2.967  29.044  0.00  0.00     0.031 H 
ATOM     55  H40 THR d   1       2.720   1.207  28.833  0.00  0.00     0.031 H 
ATOM     56  H41 THR d   1       3.838   2.074  27.726  0.00  0.00     0.031 H 
ENDBRANCH  49  53
ENDBRANCH  11  49
ENDBRANCH   9  11
ENDBRANCH   5   7
BRANCH   5  57
ATOM     57  CB  GLU d   1       8.825  -2.224  31.203  0.00  0.00    -0.029 C 
ATOM     58  H31 GLU d   1       8.338  -3.206  31.116  0.00  0.00     0.037 H 
ATOM     59  H32 GLU d   1       9.624  -2.277  31.957  0.00  0.00     0.037 H 
BRANCH  57  60
ATOM     60  CG  GLU d   1       9.460  -1.940  29.917  0.00  0.00     0.018 C 
ATOM     61  H33 GLU d   1       9.813  -0.898  29.913  0.00  0.00     0.049 H 
ATOM     62  H34 GLU d   1       8.722  -2.080  29.113  0.00  0.00     0.049 H 
BRANCH  60  63
ATOM     63  CD  GLU d   1      10.630  -2.857  29.676  0.00  0.00     0.172 C 
ATOM     64  OE1 GLU d   1      11.721  -2.352  29.401  0.00  0.00    -0.648 OA
ATOM     65  OE2 GLU d   1      10.457  -4.092  29.752  0.00  0.00    -0.648 OA
ENDBRANCH  60  63
ENDBRANCH  57  60
ENDBRANCH   5  57
ENDBRANCH   3   5
BRANCH   1  66
ATOM     66  CA  ASP d   1       6.751  -1.666  35.338  0.00  0.00     0.098 C 
ATOM     67  H26 ASP d   1       6.586  -2.735  35.136  0.00  0.00     0.088 H 
BRANCH  66  68
ATOM     68  N   ASP d   1       7.638  -1.546  36.491  0.00  0.00    -0.345 N 
ATOM     69  C   TRP d   1       8.895  -1.988  36.458  0.00  0.00     0.241 C 
ATOM     70  O   TRP d   1       9.349  -2.658  35.532  0.00  0.00    -0.271 OA
ATOM     71  H25 ASP d   1       7.293  -1.121  37.328  0.00  0.00     0.163 HD
BRANCH  69  72
ATOM     72  CA  TRP d   1       9.786  -1.609  37.636  0.00  0.00     0.093 C 
ATOM     73  H16 TRP d   1       9.180  -1.099  38.399  0.00  0.00     0.088 H 
BRANCH  72  74
ATOM     74  N   TRP d   1      10.353  -2.817  38.213  0.00  0.00    -0.346 N 
ATOM     75  C   ALA d   1      10.202  -3.165  39.487  0.00  0.00     0.240 C 
ATOM     76  O   ALA d   1       9.654  -2.447  40.323  0.00  0.00    -0.271 OA
ATOM     77  H15 TRP d   1      10.886  -3.419  37.619  0.00  0.00     0.163 HD
BRANCH  75  78
ATOM     78  CA  ALA d   1      10.786  -4.512  39.889  0.00  0.00     0.086 C 
ATOM     79  H11 ALA d   1      11.580  -4.780  39.177  0.00  0.00     0.086 H 
BRANCH  78  80
ATOM     80  N   ALA d   1      11.362  -4.441  41.221  0.00  0.00    -0.346 N 
ATOM     81  C   PRO d   1      12.551  -4.959  41.518  0.00  0.00     0.249 C 
ATOM     82  O   PRO d   1      13.299  -5.466  40.682  0.00  0.00    -0.271 OA
ATOM     83  H10 ALA d   1      10.844  -3.984  41.944  0.00  0.00     0.163 HD
BRANCH  81  84
ATOM     84  CA  PRO d   1      12.974  -4.916  42.991  0.00  0.00     0.178 C 
ATOM     85  N   PRO d   1      13.740  -6.101  43.387  0.00  0.00    -0.062 N 
ATOM     86  CD  PRO d   1      14.841  -5.757  44.299  0.00  0.00     0.083 C 
ATOM     87  H1  PRO d   1      14.123  -6.534  42.561  0.00  0.00     0.278 HD
ATOM     88  H2  PRO d   1      13.123  -6.749  43.850  0.00  0.00     0.278 HD
ATOM     89  CG  PRO d   1      15.188  -4.369  43.893  0.00  0.00    -0.040 C 
ATOM     90  H8  PRO d   1      15.696  -6.435  44.161  0.00  0.00     0.075 H 
ATOM     91  H9  PRO d   1      14.511  -5.792  45.348  0.00  0.00     0.075 H 
ATOM     92  CB  PRO d   1      13.954  -3.756  43.248  0.00  0.00    -0.028 C 
ATOM     93  H6  PRO d   1      15.480  -3.782  44.776  0.00  0.00     0.035 H 
ATOM     94  H7  PRO d   1      16.019  -4.386  43.172  0.00  0.00     0.035 H 
ATOM     95  H4  PRO d   1      13.499  -3.017  43.924  0.00  0.00     0.036 H 
ATOM     96  H5  PRO d   1      14.223  -3.269  42.299  0.00  0.00     0.036 H 
ATOM     97  H3  PRO d   1      12.076  -4.813  43.617  0.00  0.00     0.099 H 
ENDBRANCH  81  84
ENDBRANCH  78  80
BRANCH  78  98
ATOM     98  CB  ALA d   1       9.709  -5.569  39.836  0.00  0.00    -0.049 C 
ATOM     99  H12 ALA d   1       9.284  -5.609  38.822  0.00  0.00     0.030 H 
ATOM    100  H13 ALA d   1       8.916  -5.321  40.556  0.00  0.00     0.030 H 
ATOM    101  H14 ALA d   1      10.143  -6.547  40.091  0.00  0.00     0.030 H 
ENDBRANCH  78  98
ENDBRANCH  75  78
ENDBRANCH  72  74
BRANCH  72 102
ATOM    102  CB  TRP d   1      10.893  -0.655  37.160  0.00  0.00    -0.012 C 
ATOM    103  H17 TRP d   1      10.413   0.199  36.660  0.00  0.00     0.044 H 
ATOM    104  H18 TRP d   1      11.521  -1.197  36.438  0.00  0.00     0.044 H 
BRANCH 102 105
ATOM    105  CG  TRP d   1      11.768  -0.129  38.217  0.00  0.00    -0.028 A 
ATOM    106  CD1 TRP d   1      11.639   1.045  38.859  0.00  0.00    -0.015 A 
ATOM    107  NE1 TRP d   1      12.650   1.199  39.791  0.00  0.00    -0.365 N 
ATOM    108  H19 TRP d   1      10.850   1.772  38.672  0.00  0.00     0.112 H 
ATOM    109  CE2 TRP d   1      13.470   0.106  39.728  0.00  0.00     0.042 A 
ATOM    110  H20 TRP d   1      12.766   2.002  40.426  0.00  0.00     0.165 HD
ATOM    111  CD2 TRP d   1      12.937  -0.758  38.750  0.00  0.00    -0.002 A 
ATOM    112  CZ2 TRP d   1      14.622  -0.206  40.457  0.00  0.00    -0.056 A 
ATOM    113  CE3 TRP d   1      13.587  -1.962  38.490  0.00  0.00    -0.070 A 
ATOM    114  CZ3 TRP d   1      14.736  -2.266  39.214  0.00  0.00    -0.082 A 
ATOM    115  H21 TRP d   1      13.207  -2.647  37.741  0.00  0.00     0.084 H 
ATOM    116  CH2 TRP d   1      15.234  -1.394  40.185  0.00  0.00    -0.081 A 
ATOM    117  H23 TRP d   1      15.255  -3.198  39.021  0.00  0.00     0.083 H 
ATOM    118  H24 TRP d   1      16.127  -1.668  40.735  0.00  0.00     0.083 H 
ATOM    119  H22 TRP d   1      15.013   0.470  41.209  0.00  0.00     0.086 H 
ENDBRANCH 102 105
ENDBRANCH  72 102
ENDBRANCH  69  72
ENDBRANCH  66  68
BRANCH  66 120
ATOM    120  CB  ASP d   1       5.402  -1.001  35.605  0.00  0.00     0.043 C 
ATOM    121  H27 ASP d   1       4.851  -0.935  34.655  0.00  0.00     0.052 H 
ATOM    122  H28 ASP d   1       5.583   0.011  35.995  0.00  0.00     0.052 H 
BRANCH 120 123
ATOM    123  CG  ASP d   1       4.545  -1.757  36.607  0.00  0.00     0.175 C 
ATOM    124  OD1 ASP d   1       4.886  -2.901  36.985  0.00  0.00    -0.648 OA
ATOM    125  OD2 ASP d   1       3.521  -1.180  37.024  0.00  0.00    -0.648 OA
ENDBRANCH 120 123
ENDBRANCH  66 120
ENDBRANCH   1  66
TORSDOF 32
