REMARK  32 active torsions:
REMARK  status: ('A' for Active; 'I' for Inactive)
REMARK    1  A    between atoms: CA_2  and  C_3 
REMARK       I    between atoms: C_3  and  N_8 
REMARK    2  A    between atoms: N_8  and  CA_9 
REMARK    3  A    between atoms: CA_9  and  C_10 
REMARK    4  A    between atoms: CA_9  and  CB_12 
REMARK       I    between atoms: C_10  and  N_13 
REMARK    5  A    between atoms: N_13  and  CA_14 
REMARK    6  A    between atoms: CA_14  and  C_15 
REMARK    7  A    between atoms: CA_14  and  CB_17 
REMARK       I    between atoms: C_15  and  N_27 
REMARK    8  A    between atoms: CB_17  and  CG_18 
REMARK    9  A    between atoms: N_27  and  CA_28 
REMARK   10  A    between atoms: CA_28  and  C_29 
REMARK   11  A    between atoms: CA_28  and  CB_31 
REMARK       I    between atoms: C_29  and  N_35 
REMARK   12  A    between atoms: CB_31  and  CG_32 
REMARK   13  A    between atoms: N_35  and  CA_36 
REMARK   14  A    between atoms: CA_36  and  C_37 
REMARK   15  A    between atoms: CA_36  and  CB_39 
REMARK       I    between atoms: C_37  and  N_44 
REMARK   16  A    between atoms: CB_39  and  CG_40 
REMARK   17  A    between atoms: CG_40  and  CD_41 
REMARK   18  A    between atoms: N_44  and  CA_45 
REMARK   19  A    between atoms: CA_45  and  C_46 
REMARK   20  A    between atoms: CA_45  and  CB_48 
REMARK       I    between atoms: C_46  and  N_51 
REMARK   21  A    between atoms: CB_48  and  OG1_49 
REMARK   22  A    between atoms: CB_48  and  CG2_50 
REMARK   23  A    between atoms: N_51  and  CA_52 
REMARK   24  A    between atoms: CA_52  and  C_53 
REMARK   25  A    between atoms: CA_52  and  CB_55 
REMARK       I    between atoms: C_53  and  N_59 
REMARK   26  A    between atoms: CB_55  and  CG_56 
REMARK       I    between atoms: CG_56  and  ND2_58 
REMARK   27  A    between atoms: N_59  and  CA_60 
REMARK   28  A    between atoms: CA_60  and  C_61 
REMARK   29  A    between atoms: CA_60  and  CB_63 
REMARK   30  A    between atoms: CB_63  and  CG_64 
REMARK   31  A    between atoms: CG_64  and  CD1_65 
REMARK   32  A    between atoms: CG_64  and  CD2_66 
ROOT
ATOM      1  C   ASP d   1       7.048 -17.786 -31.476  0.00  0.00     0.241 C 
ATOM      2  O   ASP d   1       7.162 -17.506 -32.672  0.00  0.00    -0.271 OA
ATOM      3  N   GLU d   1       6.444 -16.989 -30.599  0.00  0.00    -0.346 N 
ATOM      4  H29 GLU d   1       6.359 -17.292 -29.650  0.00  0.00     0.163 HD
ENDROOT
BRANCH   3   5
ATOM      5  CA  GLU d   1       5.903 -15.692 -30.972  0.00  0.00     0.090 C 
ATOM      6  H30 GLU d   1       6.360 -15.377 -31.922  0.00  0.00     0.087 H 
BRANCH   5   7
ATOM      7  C   GLU d   1       6.257 -14.682 -29.893  0.00  0.00     0.241 C 
ATOM      8  O   GLU d   1       6.065 -14.950 -28.703  0.00  0.00    -0.271 OA
ATOM      9  N   THR d   1       6.776 -13.531 -30.311  0.00  0.00    -0.344 N 
ATOM     10  H35 THR d   1       6.939 -13.405 -31.290  0.00  0.00     0.163 HD
BRANCH   9  11
ATOM     11  CA  THR d   1       7.116 -12.448 -29.399  0.00  0.00     0.113 C 
ATOM     12  H36 THR d   1       6.726 -12.690 -28.399  0.00  0.00     0.091 H 
BRANCH  11  13
ATOM     13  C   THR d   1       6.458 -11.167 -29.888  0.00  0.00     0.243 C 
ATOM     14  O   THR d   1       6.522 -10.849 -31.079  0.00  0.00    -0.271 OA
ATOM     15  N   ASN d   1       5.824 -10.444 -28.972  0.00  0.00    -0.345 N 
ATOM     16  H42 ASN d   1       5.768 -10.789 -28.035  0.00  0.00     0.163 HD
BRANCH  15  17
ATOM     17  CA  ASN d   1       5.208  -9.164 -29.291  0.00  0.00     0.097 C 
ATOM     18  H43 ASN d   1       4.828  -9.207 -30.323  0.00  0.00     0.088 H 
BRANCH  17  19
ATOM     19  C   ASN d   1       6.234  -8.046 -29.193  0.00  0.00     0.241 C 
ATOM     20  O   ASN d   1       7.032  -7.994 -28.252  0.00  0.00    -0.271 OA
ATOM     21  N   LEU d   1       6.195  -7.146 -30.167  0.00  0.00    -0.345 N 
ATOM     22  H48 LEU d   1       5.522  -7.252 -30.899  0.00  0.00     0.163 HD
BRANCH  21  23
ATOM     23  CA  LEU d   1       7.104  -6.008 -30.201  0.00  0.00     0.096 C 
ATOM     24  H49 LEU d   1       7.624  -5.952 -29.233  0.00  0.00     0.089 H 
BRANCH  23  25
ATOM     25  C   LEU d   1       6.361  -4.699 -30.423  0.00  0.00     0.196 C 
ATOM     26  O   LEU d   1       6.963  -3.626 -30.397  0.00  0.00    -0.646 OA
ATOM     27  OXT LEU d   1       5.149  -4.679 -30.649  0.00  0.00    -0.646 OA
ENDBRANCH  23  25
BRANCH  23  28
ATOM     28  CB  LEU d   1       8.140  -6.198 -31.303  0.00  0.00    -0.034 C 
ATOM     29  H50 LEU d   1       8.857  -5.366 -31.243  0.00  0.00     0.037 H 
ATOM     30  H51 LEU d   1       7.618  -6.163 -32.271  0.00  0.00     0.037 H 
BRANCH  28  31
ATOM     31  CG  LEU d   1       8.926  -7.504 -31.237  0.00  0.00    -0.059 C 
ATOM     32  H52 LEU d   1       8.224  -8.327 -31.037  0.00  0.00     0.038 H 
BRANCH  31  33
ATOM     33  CD1 LEU d   1       9.620  -7.774 -32.561  0.00  0.00    -0.073 C 
ATOM     34  H53 LEU d   1      10.181  -8.718 -32.495  0.00  0.00     0.028 H 
ATOM     35  H54 LEU d   1      10.313  -6.950 -32.786  0.00  0.00     0.028 H 
ATOM     36  H55 LEU d   1       8.868  -7.849 -33.360  0.00  0.00     0.028 H 
ENDBRANCH  31  33
BRANCH  31  37
ATOM     37  CD2 LEU d   1       9.932  -7.441 -30.105  0.00  0.00    -0.073 C 
ATOM     38  H56 LEU d   1       9.407  -7.245 -29.158  0.00  0.00     0.028 H 
ATOM     39  H57 LEU d   1      10.652  -6.633 -30.299  0.00  0.00     0.028 H 
ATOM     40  H58 LEU d   1      10.467  -8.400 -30.036  0.00  0.00     0.028 H 
ENDBRANCH  31  37
ENDBRANCH  28  31
ENDBRANCH  23  28
ENDBRANCH  21  23
ENDBRANCH  17  19
BRANCH  17  41
ATOM     41  CB  ASN d   1       4.037  -8.870 -28.351  0.00  0.00     0.036 C 
ATOM     42  H44 ASN d   1       3.555  -7.934 -28.670  0.00  0.00     0.051 H 
ATOM     43  H45 ASN d   1       4.426  -8.752 -27.329  0.00  0.00     0.051 H 
BRANCH  41  44
ATOM     44  CG  ASN d   1       3.002  -9.975 -28.352  0.00  0.00     0.217 C 
ATOM     45  OD1 ASN d   1       2.942 -10.786 -29.279  0.00  0.00    -0.274 OA
ATOM     46  ND2 ASN d   1       2.172 -10.011 -27.317  0.00  0.00    -0.370 N 
ATOM     47  H46 ASN d   1       1.468 -10.719 -27.265  0.00  0.00     0.159 HD
ATOM     48  H47 ASN d   1       2.251  -9.330 -26.589  0.00  0.00     0.159 HD
ENDBRANCH  41  44
ENDBRANCH  17  41
ENDBRANCH  15  17
ENDBRANCH  11  13
BRANCH  11  49
ATOM     49  CB  THR d   1       8.636 -12.272 -29.299  0.00  0.00     0.060 C 
ATOM     50  H37 THR d   1       9.022 -11.950 -30.277  0.00  0.00     0.086 H 
BRANCH  49  51
ATOM     51  OG1 THR d   1       9.241 -13.522 -28.944  0.00  0.00    -0.393 OA
ATOM     52  H38 THR d   1       9.040 -14.170 -29.609  0.00  0.00     0.210 HD
ENDBRANCH  49  51
BRANCH  49  53
ATOM     53  CG2 THR d   1       8.994 -11.216 -28.254  0.00  0.00    -0.050 C 
ATOM     54  H39 THR d   1      10.087 -11.108 -28.201  0.00  0.00     0.031 H 
ATOM     55  H40 THR d   1       8.608 -11.527 -27.272  0.00  0.00     0.031 H 
ATOM     56  H41 THR d   1       8.544 -10.253 -28.537  0.00  0.00     0.031 H 
ENDBRANCH  49  53
ENDBRANCH  11  49
ENDBRANCH   9  11
ENDBRANCH   5   7
BRANCH   5  57
ATOM     57  CB  GLU d   1       4.384 -15.756 -31.160  0.00  0.00    -0.029 C 
ATOM     58  H31 GLU d   1       3.929 -16.087 -30.215  0.00  0.00     0.037 H 
ATOM     59  H32 GLU d   1       4.161 -16.488 -31.950  0.00  0.00     0.037 H 
BRANCH  57  60
ATOM     60  CG  GLU d   1       3.771 -14.430 -31.548  0.00  0.00     0.018 C 
ATOM     61  H33 GLU d   1       4.300 -14.042 -32.431  0.00  0.00     0.049 H 
ATOM     62  H34 GLU d   1       3.891 -13.727 -30.710  0.00  0.00     0.049 H 
BRANCH  60  63
ATOM     63  CD  GLU d   1       2.302 -14.547 -31.876  0.00  0.00     0.172 C 
ATOM     64  OE1 GLU d   1       1.936 -14.409 -33.065  0.00  0.00    -0.648 OA
ATOM     65  OE2 GLU d   1       1.518 -14.782 -30.936  0.00  0.00    -0.648 OA
ENDBRANCH  60  63
ENDBRANCH  57  60
ENDBRANCH   5  57
ENDBRANCH   3   5
BRANCH   1  66
ATOM     66  CA  ASP d   1       7.613 -19.079 -30.902  0.00  0.00     0.098 C 
ATOM     67  H26 ASP d   1       7.005 -19.377 -30.035  0.00  0.00     0.088 H 
BRANCH  66  68
ATOM     68  N   ASP d   1       7.567 -20.153 -31.885  0.00  0.00    -0.345 N 
ATOM     69  C   TRP d   1       6.433 -20.776 -32.198  0.00  0.00     0.241 C 
ATOM     70  O   TRP d   1       5.360 -20.537 -31.638  0.00  0.00    -0.271 OA
ATOM     71  H25 ASP d   1       8.414 -20.431 -32.339  0.00  0.00     0.163 HD
BRANCH  69  72
ATOM     72  CA  TRP d   1       6.547 -21.852 -33.273  0.00  0.00     0.093 C 
ATOM     73  H16 TRP d   1       7.534 -22.329 -33.183  0.00  0.00     0.088 H 
BRANCH  72  74
ATOM     74  N   TRP d   1       5.530 -22.870 -33.065  0.00  0.00    -0.346 N 
ATOM     75  C   ALA d   1       5.616 -23.649 -31.995  0.00  0.00     0.240 C 
ATOM     76  O   ALA d   1       6.595 -23.634 -31.243  0.00  0.00    -0.271 OA
ATOM     77  H15 TRP d   1       4.780 -22.981 -33.717  0.00  0.00     0.163 HD
BRANCH  75  78
ATOM     78  CA  ALA d   1       4.433 -24.577 -31.748  0.00  0.00     0.086 C 
ATOM     79  H11 ALA d   1       4.091 -24.988 -32.709  0.00  0.00     0.086 H 
BRANCH  78  80
ATOM     80  N   ALA d   1       4.855 -25.667 -30.892  0.00  0.00    -0.346 N 
ATOM     81  C   PRO d   1       5.814 -26.489 -31.299  0.00  0.00     0.249 C 
ATOM     82  O   PRO d   1       6.212 -26.541 -32.466  0.00  0.00    -0.271 OA
ATOM     83  H10 ALA d   1       4.426 -25.799 -29.999  0.00  0.00     0.163 HD
BRANCH  81  84
ATOM     84  CA  PRO d   1       6.402 -27.400 -30.238  0.00  0.00     0.178 C 
ATOM     85  N   PRO d   1       7.209 -28.475 -30.819  0.00  0.00    -0.062 N 
ATOM     86  CD  PRO d   1       8.634 -28.284 -30.524  0.00  0.00     0.083 C 
ATOM     87  H1  PRO d   1       7.078 -28.482 -31.818  0.00  0.00     0.278 HD
ATOM     88  H2  PRO d   1       6.909 -29.357 -30.434  0.00  0.00     0.278 HD
ATOM     89  CG  PRO d   1       8.599 -27.489 -29.260  0.00  0.00    -0.040 C 
ATOM     90  H8  PRO d   1       9.136 -27.728 -31.330  0.00  0.00     0.075 H 
ATOM     91  H9  PRO d   1       9.141 -29.248 -30.373  0.00  0.00     0.075 H 
ATOM     92  CB  PRO d   1       7.403 -26.635 -29.358  0.00  0.00    -0.028 C 
ATOM     93  H6  PRO d   1       8.523 -28.157 -28.389  0.00  0.00     0.035 H 
ATOM     94  H7  PRO d   1       9.505 -26.871 -29.171  0.00  0.00     0.035 H 
ATOM     95  H4  PRO d   1       6.977 -26.460 -28.359  0.00  0.00     0.036 H 
ATOM     96  H5  PRO d   1       7.660 -25.671 -29.822  0.00  0.00     0.036 H 
ATOM     97  H3  PRO d   1       5.586 -27.817 -29.629  0.00  0.00     0.099 H 
ENDBRANCH  81  84
ENDBRANCH  78  80
BRANCH  78  98
ATOM     98  CB  ALA d   1       3.285 -23.802 -31.107  0.00  0.00    -0.049 C 
ATOM     99  H12 ALA d   1       2.981 -22.980 -31.772  0.00  0.00     0.030 H 
ATOM    100  H13 ALA d   1       3.615 -23.389 -30.142  0.00  0.00     0.030 H 
ATOM    101  H14 ALA d   1       2.432 -24.477 -30.945  0.00  0.00     0.030 H 
ENDBRANCH  78  98
ENDBRANCH  75  78
ENDBRANCH  72  74
BRANCH  72 102
ATOM    102  CB  TRP d   1       6.443 -21.233 -34.671  0.00  0.00    -0.012 C 
ATOM    103  H17 TRP d   1       6.993 -21.885 -35.365  0.00  0.00     0.044 H 
ATOM    104  H18 TRP d   1       6.927 -20.246 -34.635  0.00  0.00     0.044 H 
BRANCH 102 105
ATOM    105  CG  TRP d   1       5.055 -21.040 -35.229  0.00  0.00    -0.028 A 
ATOM    106  CD1 TRP d   1       4.397 -21.872 -36.096  0.00  0.00    -0.015 A 
ATOM    107  NE1 TRP d   1       3.161 -21.357 -36.400  0.00  0.00    -0.365 N 
ATOM    108  H19 TRP d   1       4.796 -22.806 -36.487  0.00  0.00     0.112 H 
ATOM    109  CE2 TRP d   1       2.996 -20.172 -35.733  0.00  0.00     0.042 A 
ATOM    110  H20 TRP d   1       2.470 -21.791 -37.028  0.00  0.00     0.165 HD
ATOM    111  CD2 TRP d   1       4.170 -19.938 -34.985  0.00  0.00    -0.002 A 
ATOM    112  CZ2 TRP d   1       1.917 -19.294 -35.722  0.00  0.00    -0.056 A 
ATOM    113  CE3 TRP d   1       4.256 -18.778 -34.210  0.00  0.00    -0.070 A 
ATOM    114  CZ3 TRP d   1       3.180 -17.903 -34.203  0.00  0.00    -0.082 A 
ATOM    115  H21 TRP d   1       5.145 -18.567 -33.627  0.00  0.00     0.084 H 
ATOM    116  CH2 TRP d   1       2.027 -18.167 -34.953  0.00  0.00    -0.081 A 
ATOM    117  H23 TRP d   1       3.232 -16.999 -33.607  0.00  0.00     0.083 H 
ATOM    118  H24 TRP d   1       1.203 -17.463 -34.924  0.00  0.00     0.083 H 
ATOM    119  H22 TRP d   1       1.023 -19.495 -36.301  0.00  0.00     0.086 H 
ENDBRANCH 102 105
ENDBRANCH  72 102
ENDBRANCH  69  72
ENDBRANCH  66  68
BRANCH  66 120
ATOM    120  CB  ASP d   1       9.048 -18.826 -30.435  0.00  0.00     0.043 C 
ATOM    121  H27 ASP d   1       9.102 -17.819 -29.996  0.00  0.00     0.052 H 
ATOM    122  H28 ASP d   1       9.716 -18.883 -31.307  0.00  0.00     0.052 H 
BRANCH 120 123
ATOM    123  CG  ASP d   1       9.514 -19.829 -29.402  0.00  0.00     0.175 C 
ATOM    124  OD1 ASP d   1      10.694 -20.232 -29.464  0.00  0.00    -0.648 OA
ATOM    125  OD2 ASP d   1       8.707 -20.205 -28.525  0.00  0.00    -0.648 OA
ENDBRANCH 120 123
ENDBRANCH  66 120
ENDBRANCH   1  66
TORSDOF 32
