REMARK WARNING: 32 MAX_TORS EXCEEDED!!!
REMARK  40 active torsions:
REMARK  status: ('A' for Active; 'I' for Inactive)
REMARK    1  A    between atoms: CA_2  and  C_3 
REMARK       I    between atoms: C_3  and  N_8 
REMARK    2  A    between atoms: N_8  and  CA_9 
REMARK    3  A    between atoms: CA_9  and  C_10 
REMARK    4  A    between atoms: CA_9  and  CB_12 
REMARK       I    between atoms: C_10  and  N_15 
REMARK    5  A    between atoms: CB_12  and  OG1_13 
REMARK    6  A    between atoms: CB_12  and  CG2_14 
REMARK    7  A    between atoms: N_15  and  CA_16 
REMARK    8  A    between atoms: CA_16  and  C_17 
REMARK    9  A    between atoms: CA_16  and  CB_19 
REMARK       I    between atoms: C_17  and  N_23 
REMARK   10  A    between atoms: CB_19  and  CG_20 
REMARK   11  A    between atoms: N_23  and  CA_24 
REMARK   12  A    between atoms: CA_24  and  C_25 
REMARK   13  A    between atoms: CA_24  and  CB_27 
REMARK       I    between atoms: C_25  and  N_30 
REMARK   14  A    between atoms: CB_27  and  CG1_28 
REMARK   15  A    between atoms: CB_27  and  CG2_29 
REMARK   16  A    between atoms: N_30  and  CA_31 
REMARK   17  A    between atoms: CA_31  and  C_32 
REMARK   18  A    between atoms: CA_31  and  CB_34 
REMARK       I    between atoms: C_32  and  N_41 
REMARK   19  A    between atoms: CB_34  and  CG_35 
REMARK   20  A    between atoms: CG_35  and  CD_36 
REMARK   21  A    between atoms: CD_36  and  NE_37 
REMARK       I    between atoms: NE_37  and  CZ_38 
REMARK       I    between atoms: CZ_38  and  NH1_39 
REMARK   22  A    between atoms: N_41  and  CA_42 
REMARK   23  A    between atoms: CA_42  and  C_43 
REMARK   24  A    between atoms: CA_42  and  CB_45 
REMARK       I    between atoms: C_43  and  N_49 
REMARK   25  A    between atoms: CB_45  and  CG_46 
REMARK   26  A    between atoms: N_49  and  CA_50 
REMARK   27  A    between atoms: CA_50  and  C_51 
REMARK   28  A    between atoms: CA_50  and  CB_53 
REMARK       I    between atoms: C_51  and  N_56 
REMARK   29  A    between atoms: CB_53  and  CG1_54 
REMARK   30  A    between atoms: CB_53  and  CG2_55 
REMARK   31  A    between atoms: N_56  and  CA_57 
REMARK   32  A    between atoms: CA_57  and  C_58 
REMARK   33  A    between atoms: CA_57  and  CB_60 
REMARK       I    between atoms: C_58  and  N_64 
REMARK   34  A    between atoms: CB_60  and  CG_61 
REMARK   35  A    between atoms: N_64  and  CA_65 
REMARK   36  A    between atoms: CA_65  and  C_66 
REMARK   37  A    between atoms: CA_65  and  CB_68 
REMARK   38  A    between atoms: CB_68  and  CG1_69 
REMARK   39  A    between atoms: CB_68  and  CG2_70 
REMARK   40  A    between atoms: CG1_69  and  CD1_71 
ROOT
ATOM      1  CA  ARG d   1     -60.525  18.501  50.671  0.00  0.00     0.089 C 
ATOM      2  H31 ARG d   1     -61.151  17.710  50.231  0.00  0.00     0.087 H 
ENDROOT
BRANCH   1   3
ATOM      3  N   ARG d   1     -61.404  19.243  51.576  0.00  0.00    -0.346 N 
ATOM      4  C   VAL d   1     -62.644  19.559  51.201  0.00  0.00     0.241 C 
ATOM      5  O   VAL d   1     -63.041  19.413  50.048  0.00  0.00    -0.271 OA
ATOM      6  H30 ARG d   1     -61.073  19.514  52.480  0.00  0.00     0.163 HD
BRANCH   4   7
ATOM      7  CA  VAL d   1     -63.582  20.146  52.256  0.00  0.00     0.092 C 
ATOM      8  H22 VAL d   1     -64.604  19.824  52.008  0.00  0.00     0.088 H 
BRANCH   7   9
ATOM      9  N   VAL d   1     -63.297  19.641  53.608  0.00  0.00    -0.346 N 
ATOM     10  C   ASP d   1     -62.934  18.374  53.848  0.00  0.00     0.241 C 
ATOM     11  O   ASP d   1     -62.861  17.514  52.968  0.00  0.00    -0.271 OA
ATOM     12  H21 VAL d   1     -63.378  20.270  54.381  0.00  0.00     0.163 HD
BRANCH  10  13
ATOM     13  CA  ASP d   1     -62.567  18.030  55.292  0.00  0.00     0.098 C 
ATOM     14  H18 ASP d   1     -61.711  17.339  55.286  0.00  0.00     0.088 H 
BRANCH  13  15
ATOM     15  N   ASP d   1     -62.186  19.255  55.987  0.00  0.00    -0.345 N 
ATOM     16  C   THR d   1     -61.060  19.925  55.731  0.00  0.00     0.243 C 
ATOM     17  O   THR d   1     -60.193  19.526  54.945  0.00  0.00    -0.271 OA
ATOM     18  H17 ASP d   1     -62.800  19.611  56.691  0.00  0.00     0.163 HD
BRANCH  16  19
ATOM     19  CA  THR d   1     -60.912  21.267  56.468  0.00  0.00     0.113 C 
ATOM     20  H11 THR d   1     -61.736  21.912  56.130  0.00  0.00     0.091 H 
BRANCH  19  21
ATOM     21  N   THR d   1     -61.083  21.091  57.925  0.00  0.00    -0.344 N 
ATOM     22  C   PRO d   1     -62.287  20.872  58.459  0.00  0.00     0.249 C 
ATOM     23  O   PRO d   1     -63.327  20.878  57.794  0.00  0.00    -0.271 OA
ATOM     24  H10 THR d   1     -60.282  21.137  58.522  0.00  0.00     0.163 HD
BRANCH  22  25
ATOM     25  CA  PRO d   1     -62.347  20.586  59.963  0.00  0.00     0.178 C 
ATOM     26  N   PRO d   1     -63.708  20.637  60.497  0.00  0.00    -0.062 N 
ATOM     27  CD  PRO d   1     -64.342  19.306  60.524  0.00  0.00     0.083 C 
ATOM     28  H1  PRO d   1     -64.262  21.249  59.919  0.00  0.00     0.278 HD
ATOM     29  H2  PRO d   1     -63.675  21.001  61.437  0.00  0.00     0.278 HD
ATOM     30  CG  PRO d   1     -63.197  18.356  60.287  0.00  0.00    -0.040 C 
ATOM     31  H8  PRO d   1     -65.097  19.215  59.729  0.00  0.00     0.075 H 
ATOM     32  H9  PRO d   1     -64.813  19.116  61.500  0.00  0.00     0.075 H 
ATOM     33  CB  PRO d   1     -61.921  19.143  60.254  0.00  0.00    -0.028 C 
ATOM     34  H6  PRO d   1     -63.155  17.616  61.100  0.00  0.00     0.035 H 
ATOM     35  H7  PRO d   1     -63.338  17.838  59.327  0.00  0.00     0.035 H 
ATOM     36  H4  PRO d   1     -61.404  19.081  61.223  0.00  0.00     0.036 H 
ATOM     37  H5  PRO d   1     -61.258  18.769  59.460  0.00  0.00     0.036 H 
ATOM     38  H3  PRO d   1     -61.699  21.302  60.490  0.00  0.00     0.099 H 
ENDBRANCH  22  25
ENDBRANCH  19  21
BRANCH  19  39
ATOM     39  CB  THR d   1     -59.588  21.998  56.078  0.00  0.00     0.060 C 
ATOM     40  H12 THR d   1     -59.668  23.045  56.407  0.00  0.00     0.086 H 
BRANCH  39  41
ATOM     41  OG1 THR d   1     -59.421  21.977  54.649  0.00  0.00    -0.393 OA
ATOM     42  H13 THR d   1     -59.383  21.076  54.349  0.00  0.00     0.210 HD
ENDBRANCH  39  41
BRANCH  39  43
ATOM     43  CG2 THR d   1     -58.355  21.381  56.751  0.00  0.00    -0.050 C 
ATOM     44  H14 THR d   1     -57.455  21.932  56.443  0.00  0.00     0.031 H 
ATOM     45  H15 THR d   1     -58.261  20.327  56.449  0.00  0.00     0.031 H 
ATOM     46  H16 THR d   1     -58.465  21.441  57.844  0.00  0.00     0.031 H 
ENDBRANCH  39  43
ENDBRANCH  19  39
ENDBRANCH  16  19
ENDBRANCH  13  15
BRANCH  13  47
ATOM     47  CB  ASP d   1     -63.742  17.349  56.023  0.00  0.00     0.043 C 
ATOM     48  H19 ASP d   1     -64.652  17.940  55.845  0.00  0.00     0.052 H 
ATOM     49  H20 ASP d   1     -63.520  17.333  57.100  0.00  0.00     0.052 H 
BRANCH  47  50
ATOM     50  CG  ASP d   1     -64.000  15.908  55.559  0.00  0.00     0.175 C 
ATOM     51  OD1 ASP d   1     -63.191  15.332  54.796  0.00  0.00    -0.648 OA
ATOM     52  OD2 ASP d   1     -65.033  15.344  55.980  0.00  0.00    -0.648 OA
ENDBRANCH  47  50
ENDBRANCH  13  47
ENDBRANCH  10  13
ENDBRANCH   7   9
BRANCH   7  53
ATOM     53  CB  VAL d   1     -63.546  21.700  52.155  0.00  0.00    -0.033 C 
ATOM     54  H23 VAL d   1     -63.726  21.966  51.103  0.00  0.00     0.042 H 
BRANCH  53  55
ATOM     55  CG1 VAL d   1     -64.666  22.332  52.983  0.00  0.00    -0.071 C 
ATOM     56  H24 VAL d   1     -64.615  23.427  52.893  0.00  0.00     0.028 H 
ATOM     57  H25 VAL d   1     -64.548  22.045  54.038  0.00  0.00     0.028 H 
ATOM     58  H26 VAL d   1     -65.640  21.978  52.613  0.00  0.00     0.028 H 
ENDBRANCH  53  55
BRANCH  53  59
ATOM     59  CG2 VAL d   1     -62.174  22.255  52.534  0.00  0.00    -0.071 C 
ATOM     60  H27 VAL d   1     -61.401  21.775  51.916  0.00  0.00     0.028 H 
ATOM     61  H28 VAL d   1     -61.975  22.048  53.596  0.00  0.00     0.028 H 
ATOM     62  H29 VAL d   1     -62.158  23.341  52.362  0.00  0.00     0.028 H 
ENDBRANCH  53  59
ENDBRANCH   7  53
ENDBRANCH   4   7
ENDBRANCH   1   3
BRANCH   1  63
ATOM     63  C   ARG d   1     -59.291  17.778  51.254  0.00  0.00     0.241 C 
ATOM     64  O   ARG d   1     -58.472  17.316  50.452  0.00  0.00    -0.271 OA
ATOM     65  N   ASP d   1     -59.174  17.654  52.594  0.00  0.00    -0.346 N 
ATOM     66  H43 ASP d   1     -59.883  18.064  53.168  0.00  0.00     0.163 HD
BRANCH  65  67
ATOM     67  CA  ASP d   1     -58.047  16.940  53.271  0.00  0.00     0.098 C 
ATOM     68  H44 ASP d   1     -57.134  17.522  53.077  0.00  0.00     0.088 H 
BRANCH  67  69
ATOM     69  C   ASP d   1     -57.809  15.504  52.780  0.00  0.00     0.241 C 
ATOM     70  O   ASP d   1     -56.711  14.976  52.902  0.00  0.00    -0.271 OA
ATOM     71  N   VAL d   1     -58.883  14.875  52.311  0.00  0.00    -0.346 N 
ATOM     72  H47 VAL d   1     -59.753  15.366  52.357  0.00  0.00     0.163 HD
BRANCH  71  73
ATOM     73  CA  VAL d   1     -58.908  13.537  51.736  0.00  0.00     0.092 C 
ATOM     74  H48 VAL d   1     -58.630  12.835  52.536  0.00  0.00     0.088 H 
BRANCH  73  75
ATOM     75  C   VAL d   1     -57.934  13.285  50.569  0.00  0.00     0.241 C 
ATOM     76  O   VAL d   1     -57.597  12.145  50.266  0.00  0.00    -0.271 OA
ATOM     77  N   ASP d   1     -57.448  14.330  49.929  0.00  0.00    -0.345 N 
ATOM     78  H56 ASP d   1     -57.593  15.248  50.298  0.00  0.00     0.163 HD
BRANCH  77  79
ATOM     79  CA  ASP d   1     -56.707  14.162  48.697  0.00  0.00     0.098 C 
ATOM     80  H57 ASP d   1     -57.183  13.346  48.134  0.00  0.00     0.088 H 
BRANCH  79  81
ATOM     81  C   ASP d   1     -55.274  13.756  48.943  0.00  0.00     0.241 C 
ATOM     82  O   ASP d   1     -54.524  13.441  47.997  0.00  0.00    -0.271 OA
ATOM     83  N   ILE d   1     -54.873  13.759  50.209  0.00  0.00    -0.344 N 
ATOM     84  H60 ILE d   1     -55.482  14.088  50.931  0.00  0.00     0.163 HD
BRANCH  83  85
ATOM     85  CA  ILE d   1     -53.554  13.284  50.532  0.00  0.00     0.099 C 
ATOM     86  H61 ILE d   1     -52.884  13.571  49.708  0.00  0.00     0.090 H 
BRANCH  85  87
ATOM     87  C   ILE d   1     -53.556  11.769  50.628  0.00  0.00     0.197 C 
ATOM     88  O   ILE d   1     -54.638  11.137  50.720  0.00  0.00    -0.646 OA
ATOM     89  OXT ILE d   1     -52.456  11.201  50.567  0.00  0.00    -0.646 OA
ENDBRANCH  85  87
BRANCH  85  90
ATOM     90  CB  ILE d   1     -53.009  13.913  51.804  0.00  0.00    -0.029 C 
ATOM     91  H62 ILE d   1     -51.964  13.593  51.925  0.00  0.00     0.043 H 
BRANCH  90  92
ATOM     92  CG1 ILE d   1     -53.778  13.459  53.035  0.00  0.00    -0.063 C 
ATOM     93  H63 ILE d   1     -53.630  12.377  53.167  0.00  0.00     0.033 H 
ATOM     94  H64 ILE d   1     -54.847  13.667  52.883  0.00  0.00     0.033 H 
BRANCH  92  95
ATOM     95  CD1 ILE d   1     -53.313  14.174  54.290  0.00  0.00    -0.076 C 
ATOM     96  H68 ILE d   1     -53.894  13.816  55.153  0.00  0.00     0.027 H 
ATOM     97  H69 ILE d   1     -53.462  15.257  54.172  0.00  0.00     0.027 H 
ATOM     98  H70 ILE d   1     -52.245  13.967  54.456  0.00  0.00     0.027 H 
ENDBRANCH  92  95
ENDBRANCH  90  92
BRANCH  90  99
ATOM     99  CG2 ILE d   1     -53.031  15.431  51.656  0.00  0.00    -0.070 C 
ATOM    100  H65 ILE d   1     -52.466  15.720  50.757  0.00  0.00     0.028 H 
ATOM    101  H66 ILE d   1     -52.571  15.893  52.542  0.00  0.00     0.028 H 
ATOM    102  H67 ILE d   1     -54.072  15.775  51.562  0.00  0.00     0.028 H 
ENDBRANCH  90  99
ENDBRANCH  85  90
ENDBRANCH  83  85
ENDBRANCH  79  81
BRANCH  79 103
ATOM    103  CB  ASP d   1     -56.805  15.434  47.840  0.00  0.00     0.043 C 
ATOM    104  H58 ASP d   1     -56.141  15.326  46.970  0.00  0.00     0.052 H 
ATOM    105  H59 ASP d   1     -56.480  16.293  48.445  0.00  0.00     0.052 H 
BRANCH 103 106
ATOM    106  CG  ASP d   1     -58.240  15.696  47.338  0.00  0.00     0.175 C 
ATOM    107  OD1 ASP d   1     -59.195  15.181  47.956  0.00  0.00    -0.648 OA
ATOM    108  OD2 ASP d   1     -58.422  16.415  46.329  0.00  0.00    -0.648 OA
ENDBRANCH 103 106
ENDBRANCH  79 103
ENDBRANCH  77  79
ENDBRANCH  73  75
BRANCH  73 109
ATOM    109  CB  VAL d   1     -60.375  13.226  51.299  0.00  0.00    -0.033 C 
ATOM    110  H49 VAL d   1     -60.841  14.174  50.992  0.00  0.00     0.042 H 
BRANCH 109 111
ATOM    111  CG1 VAL d   1     -60.442  12.281  50.143  0.00  0.00    -0.071 C 
ATOM    112  H50 VAL d   1     -61.494  12.098  49.879  0.00  0.00     0.028 H 
ATOM    113  H51 VAL d   1     -59.963  11.330  50.419  0.00  0.00     0.028 H 
ATOM    114  H52 VAL d   1     -59.918  12.719  49.281  0.00  0.00     0.028 H 
ENDBRANCH 109 111
BRANCH 109 115
ATOM    115  CG2 VAL d   1     -61.178  12.650  52.462  0.00  0.00    -0.071 C 
ATOM    116  H53 VAL d   1     -61.133  13.341  53.317  0.00  0.00     0.028 H 
ATOM    117  H54 VAL d   1     -60.755  11.678  52.754  0.00  0.00     0.028 H 
ATOM    118  H55 VAL d   1     -62.225  12.516  52.154  0.00  0.00     0.028 H 
ENDBRANCH 109 115
ENDBRANCH  73 109
ENDBRANCH  71  73
ENDBRANCH  67  69
BRANCH  67 119
ATOM    119  CB  ASP d   1     -58.261  16.853  54.798  0.00  0.00     0.043 C 
ATOM    120  H45 ASP d   1     -58.747  17.780  55.137  0.00  0.00     0.052 H 
ATOM    121  H46 ASP d   1     -57.279  16.755  55.284  0.00  0.00     0.052 H 
BRANCH 119 122
ATOM    122  CG  ASP d   1     -59.143  15.650  55.219  0.00  0.00     0.175 C 
ATOM    123  OD1 ASP d   1     -58.646  14.497  55.302  0.00  0.00    -0.648 OA
ATOM    124  OD2 ASP d   1     -60.345  15.857  55.477  0.00  0.00    -0.648 OA
ENDBRANCH 119 122
ENDBRANCH  67 119
ENDBRANCH  65  67
ENDBRANCH   1  63
BRANCH   1 125
ATOM    125  CB  ARG d   1     -60.079  19.431  49.528  0.00  0.00    -0.036 C 
ATOM    126  H32 ARG d   1     -58.982  19.505  49.544  0.00  0.00     0.036 H 
ATOM    127  H33 ARG d   1     -60.516  20.426  49.695  0.00  0.00     0.036 H 
BRANCH 125 128
ATOM    128  CG  ARG d   1     -60.508  18.940  48.164  0.00  0.00    -0.048 C 
ATOM    129  H34 ARG d   1     -61.580  18.694  48.194  0.00  0.00     0.035 H 
ATOM    130  H35 ARG d   1     -59.932  18.038  47.912  0.00  0.00     0.035 H 
BRANCH 128 131
ATOM    131  CD  ARG d   1     -60.274  19.987  47.095  0.00  0.00     0.009 C 
ATOM    132  H36 ARG d   1     -59.229  20.327  47.142  0.00  0.00     0.064 H 
ATOM    133  H37 ARG d   1     -60.946  20.840  47.270  0.00  0.00     0.064 H 
BRANCH 131 134
ATOM    134  NE  ARG d   1     -60.540  19.426  45.768  0.00  0.00    -0.227 N 
ATOM    135  CZ  ARG d   1     -60.985  20.104  44.706  0.00  0.00     0.665 C 
ATOM    136  NH1 ARG d   1     -61.238  21.410  44.767  0.00  0.00    -0.235 N 
ATOM    137  NH2 ARG d   1     -61.186  19.460  43.561  0.00  0.00    -0.235 N 
ATOM    138  H39 ARG d   1     -61.580  21.908  43.933  0.00  0.00     0.174 HD
ATOM    139  H40 ARG d   1     -61.091  21.922  45.648  0.00  0.00     0.174 HD
ATOM    140  H41 ARG d   1     -60.995  18.450  43.498  0.00  0.00     0.174 HD
ATOM    141  H42 ARG d   1     -61.533  19.971  42.737  0.00  0.00     0.174 HD
ATOM    142  H38 ARG d   1     -60.368  18.418  45.642  0.00  0.00     0.177 HD
ENDBRANCH 131 134
ENDBRANCH 128 131
ENDBRANCH 125 128
ENDBRANCH   1 125
TORSDOF 40
