REMARK WARNING: 32 MAX_TORS EXCEEDED!!!
REMARK  56 active torsions:
REMARK  status: ('A' for Active; 'I' for Inactive)
REMARK    1  A    between atoms: N_1  and  CA_2 
REMARK    2  A    between atoms: CA_2  and  C_3 
REMARK    3  A    between atoms: CA_2  and  CB_5 
REMARK       I    between atoms: C_3  and  N_11 
REMARK    4  A    between atoms: CB_5  and  CG_6 
REMARK    5  A    between atoms: N_11  and  CA_12 
REMARK    6  A    between atoms: CA_12  and  C_13 
REMARK    7  A    between atoms: CA_12  and  CB_15 
REMARK       I    between atoms: C_13  and  N_21 
REMARK    8  A    between atoms: CB_15  and  CG_16 
REMARK    9  A    between atoms: N_21  and  CA_22 
REMARK   10  A    between atoms: CA_22  and  C_23 
REMARK   11  A    between atoms: CA_22  and  CB_25 
REMARK       I    between atoms: C_23  and  N_30 
REMARK   12  A    between atoms: CB_25  and  CG_26 
REMARK   13  A    between atoms: CG_26  and  CD_27 
REMARK       I    between atoms: CD_27  and  NE2_29 
REMARK   14  A    between atoms: N_30  and  CA_31 
REMARK   15  A    between atoms: CA_31  and  C_32 
REMARK   16  A    between atoms: CA_31  and  CB_34 
REMARK       I    between atoms: C_32  and  N_39 
REMARK   17  A    between atoms: CB_34  and  CG_35 
REMARK   18  A    between atoms: CG_35  and  CD_36 
REMARK   19  A    between atoms: CD_36  and  CE_37 
REMARK   20  A    between atoms: CE_37  and  NZ_38 
REMARK   21  A    between atoms: N_39  and  CA_40 
REMARK   22  A    between atoms: CA_40  and  C_41 
REMARK   23  A    between atoms: CA_40  and  CB_43 
REMARK       I    between atoms: C_41  and  N_47 
REMARK   24  A    between atoms: CB_43  and  CG_44 
REMARK   25  A    between atoms: CG_44  and  CD1_45 
REMARK   26  A    between atoms: CG_44  and  CD2_46 
REMARK   27  A    between atoms: N_47  and  CA_48 
REMARK   28  A    between atoms: CA_48  and  C_49 
REMARK   29  A    between atoms: CA_48  and  CB_51 
REMARK       I    between atoms: C_49  and  N_54 
REMARK   30  A    between atoms: CB_51  and  CG1_52 
REMARK   31  A    between atoms: CB_51  and  CG2_53 
REMARK   32  A    between atoms: N_54  and  CA_55 
REMARK   33  A    between atoms: CA_55  and  C_56 
REMARK   34  A    between atoms: CA_55  and  CB_58 
REMARK       I    between atoms: C_56  and  N_65 
REMARK   35  A    between atoms: CB_58  and  CG_59 
REMARK   36  A    between atoms: N_65  and  CA_66 
REMARK   37  A    between atoms: CA_66  and  C_67 
REMARK   38  A    between atoms: CA_66  and  CB_69 
REMARK       I    between atoms: C_67  and  N_76 
REMARK   39  A    between atoms: CB_69  and  CG_70 
REMARK   40  A    between atoms: N_76  and  CA_77 
REMARK   41  A    between atoms: CA_77  and  C_78 
REMARK   42  A    between atoms: CA_77  and  CB_80 
REMARK       I    between atoms: C_78  and  N_81 
REMARK   43  A    between atoms: N_81  and  CA_82 
REMARK   44  A    between atoms: CA_82  and  C_83 
REMARK   45  A    between atoms: CA_82  and  CB_85 
REMARK       I    between atoms: C_83  and  N_90 
REMARK   46  A    between atoms: CB_85  and  CG_86 
REMARK   47  A    between atoms: CG_86  and  CD_87 
REMARK   48  A    between atoms: N_90  and  CA_91 
REMARK   49  A    between atoms: CA_91  and  C_92 
REMARK   50  A    between atoms: CA_91  and  CB_94 
REMARK       I    between atoms: C_92  and  N_98 
REMARK   51  A    between atoms: CB_94  and  CG_95 
REMARK   52  A    between atoms: N_98  and  CA_99 
REMARK   53  A    between atoms: CA_99  and  C_100 
REMARK   54  A    between atoms: CA_99  and  CB_102 
REMARK   55  A    between atoms: CB_102  and  CG1_103 
REMARK   56  A    between atoms: CB_102  and  CG2_104 
ROOT
ATOM      1  CA  VAL d   1      38.128  41.757   7.414  0.00  0.00     0.092 C 
ATOM      2  H50 VAL d   1      38.830  40.951   7.154  0.00  0.00     0.088 H 
ENDROOT
BRANCH   1   3
ATOM      3  N   VAL d   1      38.146  42.764   6.367  0.00  0.00    -0.346 N 
ATOM      4  C   LEU d   1      38.190  42.410   5.089  0.00  0.00     0.241 C 
ATOM      5  O   LEU d   1      38.534  41.288   4.712  0.00  0.00    -0.271 OA
ATOM      6  H49 VAL d   1      38.125  43.733   6.612  0.00  0.00     0.163 HD
BRANCH   4   7
ATOM      7  CA  LEU d   1      37.796  43.485   4.089  0.00  0.00     0.089 C 
ATOM      8  H39 LEU d   1      37.984  44.467   4.547  0.00  0.00     0.087 H 
BRANCH   7   9
ATOM      9  N   LEU d   1      38.573  43.404   2.861  0.00  0.00    -0.346 N 
ATOM     10  C   LYS d   1      39.616  44.196   2.651  0.00  0.00     0.241 C 
ATOM     11  O   LYS d   1      40.002  45.026   3.475  0.00  0.00    -0.271 OA
ATOM     12  H38 LEU d   1      38.315  42.738   2.161  0.00  0.00     0.163 HD
BRANCH  10  13
ATOM     13  CA  LYS d   1      40.329  44.028   1.316  0.00  0.00     0.089 C 
ATOM     14  H26 LYS d   1      39.763  43.310   0.705  0.00  0.00     0.087 H 
BRANCH  13  15
ATOM     15  N   LYS d   1      40.378  45.297   0.605  0.00  0.00    -0.346 N 
ATOM     16  C   GLN d   1      39.807  45.452  -0.586  0.00  0.00     0.241 C 
ATOM     17  O   GLN d   1      39.285  44.525  -1.202  0.00  0.00    -0.271 OA
ATOM     18  H25 LYS d   1      40.853  46.072   1.022  0.00  0.00     0.163 HD
BRANCH  16  19
ATOM     19  CA  GLN d   1      39.834  46.865  -1.166  0.00  0.00     0.090 C 
ATOM     20  H18 GLN d   1      40.514  47.473  -0.551  0.00  0.00     0.087 H 
BRANCH  19  21
ATOM     21  N   GLN d   1      40.331  46.884  -2.537  0.00  0.00    -0.346 N 
ATOM     22  C   HIS d   1      41.612  46.659  -2.812  0.00  0.00     0.241 C 
ATOM     23  O   HIS d   1      42.447  46.404  -1.944  0.00  0.00    -0.271 OA
ATOM     24  H17 GLN d   1      39.695  47.070  -3.286  0.00  0.00     0.163 HD
BRANCH  22  25
ATOM     25  CA  HIS d   1      42.023  46.739  -4.278  0.00  0.00     0.094 C 
ATOM     26  H11 HIS d   1      42.377  45.744  -4.584  0.00  0.00     0.088 H 
BRANCH  25  27
ATOM     27  N   HIS d   1      40.929  47.116  -5.167  0.00  0.00    -0.346 N 
ATOM     28  C   HIS d   1      40.550  46.333  -6.172  0.00  0.00     0.249 C 
ATOM     29  O   HIS d   1      40.962  45.181  -6.314  0.00  0.00    -0.271 OA
ATOM     30  H10 HIS d   1      40.454  47.983  -5.017  0.00  0.00     0.163 HD
BRANCH  28  31
ATOM     31  CA  HIS d   1      39.554  46.933  -7.162  0.00  0.00     0.181 C 
ATOM     32  H4  HIS d   1      38.953  46.116  -7.588  0.00  0.00     0.099 H 
BRANCH  31  33
ATOM     33  N   HIS d   1      38.647  47.870  -6.509  0.00  0.00    -0.066 N 
ATOM     34  H1  HIS d   1      38.005  48.246  -7.189  0.00  0.00     0.275 HD
ATOM     35  H2  HIS d   1      39.179  48.621  -6.098  0.00  0.00     0.275 HD
ATOM     36  H3  HIS d   1      38.130  47.391  -5.789  0.00  0.00     0.275 HD
ENDBRANCH  31  33
BRANCH  31  37
ATOM     37  CB  HIS d   1      40.319  47.620  -8.298  0.00  0.00     0.011 C 
ATOM     38  H5  HIS d   1      40.895  46.855  -8.838  0.00  0.00     0.046 H 
ATOM     39  H6  HIS d   1      41.009  48.354  -7.855  0.00  0.00     0.046 H 
BRANCH  37  40
ATOM     40  CG  HIS d   1      39.444  48.332  -9.283  0.00  0.00     0.053 A 
ATOM     41  ND1 HIS d   1      38.977  47.734 -10.434  0.00  0.00    -0.247 NA
ATOM     42  CE1 HIS d   1      38.242  48.599 -11.110  0.00  0.00     0.064 A 
ATOM     43  NE2 HIS d   1      38.219  49.738 -10.442  0.00  0.00    -0.359 N 
ATOM     44  H8  HIS d   1      37.740  48.406 -12.057  0.00  0.00     0.143 H 
ATOM     45  CD2 HIS d   1      38.965  49.599  -9.297  0.00  0.00     0.002 A 
ATOM     46  H9  HIS d   1      37.722  50.592 -10.732  0.00  0.00     0.166 HD
ATOM     47  H7  HIS d   1      39.139  50.364  -8.542  0.00  0.00     0.114 H 
ENDBRANCH  37  40
ENDBRANCH  31  37
ENDBRANCH  28  31
ENDBRANCH  25  27
BRANCH  25  48
ATOM     48  CB  HIS d   1      43.175  47.734  -4.426  0.00  0.00     0.004 C 
ATOM     49  H12 HIS d   1      44.093  47.262  -4.045  0.00  0.00     0.046 H 
ATOM     50  H13 HIS d   1      42.944  48.625  -3.824  0.00  0.00     0.046 H 
BRANCH  48  51
ATOM     51  CG  HIS d   1      43.419  48.168  -5.838  0.00  0.00     0.053 A 
ATOM     52  ND1 HIS d   1      44.334  47.549  -6.659  0.00  0.00    -0.247 NA
ATOM     53  CE1 HIS d   1      44.332  48.141  -7.841  0.00  0.00     0.064 A 
ATOM     54  NE2 HIS d   1      43.447  49.119  -7.815  0.00  0.00    -0.359 N 
ATOM     55  H15 HIS d   1      44.955  47.868  -8.691  0.00  0.00     0.143 H 
ATOM     56  CD2 HIS d   1      42.860  49.160  -6.572  0.00  0.00     0.002 A 
ATOM     57  H16 HIS d   1      43.230  49.750  -8.600  0.00  0.00     0.166 HD
ATOM     58  H14 HIS d   1      42.092  49.857  -6.241  0.00  0.00     0.114 H 
ENDBRANCH  48  51
ENDBRANCH  25  48
ENDBRANCH  22  25
ENDBRANCH  19  21
BRANCH  19  59
ATOM     59  CB  GLN d   1      38.436  47.485  -1.094  0.00  0.00    -0.030 C 
ATOM     60  H19 GLN d   1      37.886  47.206  -2.005  0.00  0.00     0.037 H 
ATOM     61  H20 GLN d   1      38.544  48.579  -1.051  0.00  0.00     0.037 H 
BRANCH  59  62
ATOM     62  CG  GLN d   1      37.626  47.035   0.112  0.00  0.00     0.011 C 
ATOM     63  H21 GLN d   1      38.300  46.526   0.817  0.00  0.00     0.047 H 
ATOM     64  H22 GLN d   1      36.852  46.332  -0.228  0.00  0.00     0.047 H 
BRANCH  62  65
ATOM     65  CD  GLN d   1      36.953  48.183   0.831  0.00  0.00     0.215 C 
ATOM     66  OE1 GLN d   1      35.755  48.418   0.670  0.00  0.00    -0.274 OA
ATOM     67  NE2 GLN d   1      37.719  48.901   1.642  0.00  0.00    -0.370 N 
ATOM     68  H23 GLN d   1      37.329  49.673   2.144  0.00  0.00     0.159 HD
ATOM     69  H24 GLN d   1      38.686  48.670   1.751  0.00  0.00     0.159 HD
ENDBRANCH  62  65
ENDBRANCH  59  62
ENDBRANCH  19  59
ENDBRANCH  16  19
ENDBRANCH  13  15
BRANCH  13  70
ATOM     70  CB  LYS d   1      41.734  43.472   1.536  0.00  0.00    -0.038 C 
ATOM     71  H27 LYS d   1      42.006  43.622   2.591  0.00  0.00     0.036 H 
ATOM     72  H28 LYS d   1      42.433  44.028   0.894  0.00  0.00     0.036 H 
BRANCH  70  73
ATOM     73  CG  LYS d   1      41.859  41.995   1.214  0.00  0.00    -0.061 C 
ATOM     74  H29 LYS d   1      42.907  41.689   1.348  0.00  0.00     0.033 H 
ATOM     75  H30 LYS d   1      41.560  41.832   0.168  0.00  0.00     0.033 H 
BRANCH  73  76
ATOM     76  CD  LYS d   1      40.985  41.149   2.109  0.00  0.00    -0.043 C 
ATOM     77  H31 LYS d   1      39.973  41.579   2.132  0.00  0.00     0.035 H 
ATOM     78  H32 LYS d   1      41.406  41.148   3.125  0.00  0.00     0.035 H 
BRANCH  76  79
ATOM     79  CE  LYS d   1      40.905  39.724   1.606  0.00  0.00     0.080 C 
ATOM     80  H33 LYS d   1      41.923  39.339   1.450  0.00  0.00     0.075 H 
ATOM     81  H34 LYS d   1      40.357  39.708   0.652  0.00  0.00     0.075 H 
BRANCH  79  82
ATOM     82  NZ  LYS d   1      40.203  38.860   2.583  0.00  0.00    -0.079 N 
ATOM     83  H35 LYS d   1      40.161  37.917   2.229  0.00  0.00     0.274 HD
ATOM     84  H36 LYS d   1      39.267  39.207   2.727  0.00  0.00     0.274 HD
ATOM     85  H37 LYS d   1      40.703  38.868   3.458  0.00  0.00     0.274 HD
ENDBRANCH  79  82
ENDBRANCH  76  79
ENDBRANCH  73  76
ENDBRANCH  70  73
ENDBRANCH  13  70
ENDBRANCH  10  13
ENDBRANCH   7   9
BRANCH   7  86
ATOM     86  CB  LEU d   1      36.300  43.366   3.784  0.00  0.00    -0.035 C 
ATOM     87  H40 LEU d   1      35.770  43.303   4.746  0.00  0.00     0.037 H 
ATOM     88  H41 LEU d   1      36.151  42.433   3.221  0.00  0.00     0.037 H 
BRANCH  86  89
ATOM     89  CG  LEU d   1      35.659  44.494   2.981  0.00  0.00    -0.059 C 
ATOM     90  H42 LEU d   1      36.275  44.687   2.090  0.00  0.00     0.038 H 
BRANCH  89  91
ATOM     91  CD1 LEU d   1      34.269  44.087   2.530  0.00  0.00    -0.073 C 
ATOM     92  H43 LEU d   1      33.816  44.907   1.952  0.00  0.00     0.028 H 
ATOM     93  H44 LEU d   1      33.646  43.871   3.411  0.00  0.00     0.028 H 
ATOM     94  H45 LEU d   1      34.337  43.188   1.900  0.00  0.00     0.028 H 
ENDBRANCH  89  91
BRANCH  89  95
ATOM     95  CD2 LEU d   1      35.603  45.761   3.814  0.00  0.00    -0.073 C 
ATOM     96  H46 LEU d   1      36.620  46.037   4.130  0.00  0.00     0.028 H 
ATOM     97  H47 LEU d   1      34.977  45.589   4.702  0.00  0.00     0.028 H 
ATOM     98  H48 LEU d   1      35.171  46.576   3.214  0.00  0.00     0.028 H 
ENDBRANCH  89  95
ENDBRANCH  86  89
ENDBRANCH   7  86
ENDBRANCH   4   7
ENDBRANCH   1   3
BRANCH   1  99
ATOM     99  C   VAL d   1      36.706  41.206   7.441  0.00  0.00     0.241 C 
ATOM    100  O   VAL d   1      35.825  41.743   8.116  0.00  0.00    -0.271 OA
ATOM    101  N   PHE d   1      36.490  40.143   6.673  0.00  0.00    -0.346 N 
ATOM    102  H58 PHE d   1      37.275  39.674   6.268  0.00  0.00     0.163 HD
BRANCH 101 103
ATOM    103  CA  PHE d   1      35.151  39.635   6.399  0.00  0.00     0.093 C 
ATOM    104  H59 PHE d   1      34.461  40.492   6.372  0.00  0.00     0.088 H 
BRANCH 103 105
ATOM    105  C   PHE d   1      34.658  38.669   7.471  0.00  0.00     0.241 C 
ATOM    106  O   PHE d   1      33.615  38.888   8.084  0.00  0.00    -0.271 OA
ATOM    107  N   PHE d   1      35.408  37.593   7.685  0.00  0.00    -0.346 N 
ATOM    108  H67 PHE d   1      36.231  37.451   7.135  0.00  0.00     0.163 HD
BRANCH 107 109
ATOM    109  CA  PHE d   1      35.053  36.618   8.706  0.00  0.00     0.093 C 
ATOM    110  H68 PHE d   1      33.966  36.452   8.669  0.00  0.00     0.088 H 
BRANCH 109 111
ATOM    111  C   PHE d   1      35.414  37.160  10.080  0.00  0.00     0.241 C 
ATOM    112  O   PHE d   1      36.544  37.597  10.306  0.00  0.00    -0.271 OA
ATOM    113  N   ALA d   1      34.447  37.126  10.994  0.00  0.00    -0.346 N 
ATOM    114  H76 ALA d   1      33.580  36.685  10.762  0.00  0.00     0.163 HD
BRANCH 113 115
ATOM    115  CA  ALA d   1      34.607  37.710  12.323  0.00  0.00     0.086 C 
ATOM    116  H77 ALA d   1      34.792  38.787  12.198  0.00  0.00     0.086 H 
BRANCH 115 117
ATOM    117  C   ALA d   1      35.791  37.118  13.087  0.00  0.00     0.240 C 
ATOM    118  O   ALA d   1      36.362  37.773  13.960  0.00  0.00    -0.271 OA
ATOM    119  N   GLU d   1      36.163  35.889  12.739  0.00  0.00    -0.346 N 
ATOM    120  H81 GLU d   1      35.668  35.431  12.001  0.00  0.00     0.163 HD
BRANCH 119 121
ATOM    121  CA  GLU d   1      37.263  35.178  13.388  0.00  0.00     0.090 C 
ATOM    122  H82 GLU d   1      37.013  35.065  14.453  0.00  0.00     0.087 H 
BRANCH 121 123
ATOM    123  C   GLU d   1      38.587  35.936  13.290  0.00  0.00     0.241 C 
ATOM    124  O   GLU d   1      39.516  35.683  14.058  0.00  0.00    -0.271 OA
ATOM    125  N   ASP d   1      38.666  36.862  12.340  0.00  0.00    -0.346 N 
ATOM    126  H87 ASP d   1      37.882  37.008  11.737  0.00  0.00     0.163 HD
BRANCH 125 127
ATOM    127  CA  ASP d   1      39.861  37.670  12.152  0.00  0.00     0.098 C 
ATOM    128  H88 ASP d   1      40.724  37.114  12.549  0.00  0.00     0.088 H 
BRANCH 127 129
ATOM    129  C   ASP d   1      39.745  38.989  12.914  0.00  0.00     0.241 C 
ATOM    130  O   ASP d   1      39.998  40.055  12.356  0.00  0.00    -0.271 OA
ATOM    131  N   VAL d   1      39.374  38.885  14.192  0.00  0.00    -0.344 N 
ATOM    132  H91 VAL d   1      39.279  37.965  14.572  0.00  0.00     0.163 HD
BRANCH 131 133
ATOM    133  CA  VAL d   1      39.095  40.020  15.084  0.00  0.00     0.099 C 
ATOM    134  H92 VAL d   1      38.412  39.656  15.865  0.00  0.00     0.090 H 
BRANCH 133 135
ATOM    135  C   VAL d   1      38.411  41.188  14.377  0.00  0.00     0.197 C 
ATOM    136  O   VAL d   1      37.198  41.168  14.157  0.00  0.00    -0.646 OA
ATOM    137  OXT VAL d   1      39.060  42.172  14.014  0.00  0.00    -0.646 OA
ENDBRANCH 133 135
BRANCH 133 138
ATOM    138  CB  VAL d   1      40.382  40.544  15.780  0.00  0.00    -0.032 C 
ATOM    139  H93 VAL d   1      40.074  41.144  16.649  0.00  0.00     0.042 H 
BRANCH 138 140
ATOM    140  CG1 VAL d   1      41.231  39.384  16.290  0.00  0.00    -0.071 C 
ATOM    141  H94 VAL d   1      42.135  39.778  16.778  0.00  0.00     0.028 H 
ATOM    142  H95 VAL d   1      41.521  38.742  15.445  0.00  0.00     0.028 H 
ATOM    143  H96 VAL d   1      40.650  38.795  17.015  0.00  0.00     0.028 H 
ENDBRANCH 138 140
BRANCH 138 144
ATOM    144  CG2 VAL d   1      41.187  41.448  14.853  0.00  0.00    -0.071 C 
ATOM    145  H97 VAL d   1      40.550  42.273  14.502  0.00  0.00     0.028 H 
ATOM    146  H98 VAL d   1      41.541  40.866  13.990  0.00  0.00     0.028 H 
ATOM    147  H99 VAL d   1      42.050  41.857  15.399  0.00  0.00     0.028 H 
ENDBRANCH 138 144
ENDBRANCH 133 138
ENDBRANCH 131 133
ENDBRANCH 127 129
BRANCH 127 148
ATOM    148  CB  ASP d   1      40.094  37.930  10.662  0.00  0.00     0.043 C 
ATOM    149  H89 ASP d   1      41.033  38.491  10.545  0.00  0.00     0.052 H 
ATOM    150  H90 ASP d   1      39.258  38.530  10.274  0.00  0.00     0.052 H 
BRANCH 148 151
ATOM    151  CG  ASP d   1      40.189  36.647   9.853  0.00  0.00     0.175 C 
ATOM    152  OD1 ASP d   1      39.626  36.600   8.737  0.00  0.00    -0.648 OA
ATOM    153  OD2 ASP d   1      40.829  35.686  10.331  0.00  0.00    -0.648 OA
ENDBRANCH 148 151
ENDBRANCH 127 148
ENDBRANCH 125 127
ENDBRANCH 121 123
BRANCH 121 154
ATOM    154  CB  GLU d   1      37.421  33.784  12.775  0.00  0.00    -0.029 C 
ATOM    155  H83 GLU d   1      36.435  33.295  12.764  0.00  0.00     0.037 H 
ATOM    156  H84 GLU d   1      38.111  33.203  13.405  0.00  0.00     0.037 H 
BRANCH 154 157
ATOM    157  CG  GLU d   1      37.965  33.800  11.355  0.00  0.00     0.018 C 
ATOM    158  H85 GLU d   1      39.059  33.909  11.400  0.00  0.00     0.049 H 
ATOM    159  H86 GLU d   1      37.532  34.661  10.824  0.00  0.00     0.049 H 
BRANCH 157 160
ATOM    160  CD  GLU d   1      37.637  32.540  10.580  0.00  0.00     0.172 C 
ATOM    161  OE1 GLU d   1      38.413  32.186   9.668  0.00  0.00    -0.648 OA
ATOM    162  OE2 GLU d   1      36.596  31.915  10.870  0.00  0.00    -0.648 OA
ENDBRANCH 157 160
ENDBRANCH 154 157
ENDBRANCH 121 154
ENDBRANCH 119 121
ENDBRANCH 115 117
BRANCH 115 163
ATOM    163  CB  ALA d   1      33.326  37.535  13.121  0.00  0.00    -0.049 C 
ATOM    164  H78 ALA d   1      33.453  37.977  14.120  0.00  0.00     0.030 H 
ATOM    165  H79 ALA d   1      33.099  36.463  13.220  0.00  0.00     0.030 H 
ATOM    166  H80 ALA d   1      32.498  38.038  12.600  0.00  0.00     0.030 H 
ENDBRANCH 115 163
ENDBRANCH 113 115
ENDBRANCH 109 111
BRANCH 109 167
ATOM    167  CB  PHE d   1      35.753  35.283   8.450  0.00  0.00    -0.014 C 
ATOM    168  H69 PHE d   1      35.421  34.564   9.214  0.00  0.00     0.043 H 
ATOM    169  H70 PHE d   1      36.839  35.437   8.539  0.00  0.00     0.043 H 
BRANCH 167 170
ATOM    170  CG  PHE d   1      35.465  34.702   7.095  0.00  0.00    -0.056 A 
ATOM    171  CD1 PHE d   1      36.457  34.621   6.134  0.00  0.00    -0.077 A 
ATOM    172  CE1 PHE d   1      36.192  34.089   4.887  0.00  0.00    -0.082 A 
ATOM    173  H71 PHE d   1      37.454  34.979   6.362  0.00  0.00     0.084 H 
ATOM    174  CZ  PHE d   1      34.924  33.639   4.585  0.00  0.00    -0.083 A 
ATOM    175  H73 PHE d   1      36.981  34.025   4.146  0.00  0.00     0.083 H 
ATOM    176  CE2 PHE d   1      33.924  33.720   5.530  0.00  0.00    -0.082 A 
ATOM    177  H75 PHE d   1      34.714  33.222   3.607  0.00  0.00     0.083 H 
ATOM    178  CD2 PHE d   1      34.197  34.250   6.779  0.00  0.00    -0.077 A 
ATOM    179  H74 PHE d   1      32.925  33.369   5.295  0.00  0.00     0.083 H 
ATOM    180  H72 PHE d   1      33.407  34.312   7.519  0.00  0.00     0.084 H 
ENDBRANCH 167 170
ENDBRANCH 109 167
ENDBRANCH 107 109
ENDBRANCH 103 105
BRANCH 103 181
ATOM    181  CB  PHE d   1      35.131  38.951   5.032  0.00  0.00    -0.014 C 
ATOM    182  H60 PHE d   1      35.660  37.990   5.117  0.00  0.00     0.043 H 
ATOM    183  H61 PHE d   1      35.657  39.597   4.314  0.00  0.00     0.043 H 
BRANCH 181 184
ATOM    184  CG  PHE d   1      33.756  38.687   4.509  0.00  0.00    -0.056 A 
ATOM    185  CD1 PHE d   1      33.080  39.657   3.791  0.00  0.00    -0.077 A 
ATOM    186  CE1 PHE d   1      31.816  39.417   3.303  0.00  0.00    -0.082 A 
ATOM    187  H62 PHE d   1      33.551  40.617   3.611  0.00  0.00     0.084 H 
ATOM    188  CZ  PHE d   1      31.218  38.201   3.524  0.00  0.00    -0.083 A 
ATOM    189  H64 PHE d   1      31.294  40.186   2.745  0.00  0.00     0.083 H 
ATOM    190  CE2 PHE d   1      31.881  37.226   4.236  0.00  0.00    -0.082 A 
ATOM    191  H66 PHE d   1      30.224  38.008   3.138  0.00  0.00     0.083 H 
ATOM    192  CD2 PHE d   1      33.142  37.469   4.724  0.00  0.00    -0.077 A 
ATOM    193  H65 PHE d   1      31.408  36.267   4.411  0.00  0.00     0.083 H 
ATOM    194  H63 PHE d   1      33.660  36.698   5.283  0.00  0.00     0.084 H 
ENDBRANCH 181 184
ENDBRANCH 103 181
ENDBRANCH 101 103
ENDBRANCH   1  99
BRANCH   1 195
ATOM    195  CB  VAL d   1      38.534  42.325   8.784  0.00  0.00    -0.033 C 
ATOM    196  H51 VAL d   1      37.843  43.140   9.047  0.00  0.00     0.042 H 
BRANCH 195 197
ATOM    197  CG1 VAL d   1      38.442  41.249   9.845  0.00  0.00    -0.071 C 
ATOM    198  H52 VAL d   1      38.735  41.668  10.819  0.00  0.00     0.028 H 
ATOM    199  H53 VAL d   1      39.116  40.419   9.585  0.00  0.00     0.028 H 
ATOM    200  H54 VAL d   1      37.408  40.877   9.902  0.00  0.00     0.028 H 
ENDBRANCH 195 197
BRANCH 195 201
ATOM    201  CG2 VAL d   1      39.947  42.884   8.722  0.00  0.00    -0.071 C 
ATOM    202  H55 VAL d   1      39.999  43.664   7.948  0.00  0.00     0.028 H 
ATOM    203  H56 VAL d   1      40.651  42.075   8.476  0.00  0.00     0.028 H 
ATOM    204  H57 VAL d   1      40.213  43.317   9.697  0.00  0.00     0.028 H 
ENDBRANCH 195 201
ENDBRANCH   1 195
TORSDOF 56
