REMARK  6 active torsions:
REMARK  status: ('A' for Active; 'I' for Inactive)
REMARK    1  A    between atoms: N19_33  and  C10_6 
REMARK    2  A    between atoms: N12_32  and  C13_7 
REMARK       I    between atoms: C3_9  and  N2_8 
REMARK    3  A    between atoms: N2_8  and  C1_10 
REMARK       I    between atoms: N5_36  and  C3_9 
REMARK    4  A    between atoms: C26_20  and  C35_27 
REMARK    5  A    between atoms: C27_21  and  C29_23 
REMARK    6  A    between atoms: N32_35  and  C34_26 
ROOT
ATOM      1  C6  9U4 d   1      -5.151   1.170   4.550  0.00  0.00     0.005 C 
ATOM      2  C7  9U4 d   1      -4.059   1.871   5.341  0.00  0.00    -0.009 C 
ATOM      3  C8  9U4 d   1      -2.767   1.709   4.608  0.00  0.00     0.044 A 
ATOM      4  C9  9U4 d   1      -2.657   1.428   3.279  0.00  0.00     0.032 A 
ATOM      5  C10 9U4 d   1      -1.225   1.368   3.027  0.00  0.00     0.160 A 
ATOM      6  N2  9U4 d   1      -6.091   2.179   1.169  0.00  0.00    -0.347 N 
ATOM      7  C3  9U4 d   1      -6.175   2.050   2.496  0.00  0.00     0.318 C 
ATOM      8  C38 9U4 d   1      -3.859   1.252   2.395  0.00  0.00     0.029 C 
ATOM      9  N11 9U4 d   1      -0.559   1.576   4.128  0.00  0.00    -0.153 NA
ATOM     10  N12 9U4 d   1      -1.513   1.800   5.097  0.00  0.00    -0.266 N 
ATOM     11  N5  9U4 d   1      -5.089   1.535   3.132  0.00  0.00    -0.330 N 
ATOM     12  O4  9U4 d   1      -7.185   2.348   3.114  0.00  0.00    -0.247 OA
ATOM     13  H3  9U4 d   1      -6.132   1.462   4.954  0.00  0.00     0.065 H 
ATOM     14  H4  9U4 d   1      -5.024   0.082   4.647  0.00  0.00     0.065 H 
ATOM     15  H5  9U4 d   1      -3.978   1.421   6.341  0.00  0.00     0.044 H 
ATOM     16  H6  9U4 d   1      -4.299   2.940   5.439  0.00  0.00     0.044 H 
ATOM     17  H8  9U4 d   1      -5.237   1.949   0.702  0.00  0.00     0.163 HD
ATOM     18  H32 9U4 d   1      -3.889   0.215   2.028  0.00  0.00     0.072 H 
ATOM     19  H33 9U4 d   1      -3.783   1.941   1.541  0.00  0.00     0.072 H 
ENDROOT
BRANCH   5  20
ATOM     20  N19 9U4 d   1      -0.615   1.204   1.791  0.00  0.00    -0.329 N 
ATOM     21  C20 9U4 d   1      -0.925   0.035   0.950  0.00  0.00     0.002 C 
ATOM     22  C21 9U4 d   1       0.274  -0.340   0.123  0.00  0.00    -0.046 C 
ATOM     23  H18 9U4 d   1      -1.202  -0.813   1.594  0.00  0.00     0.065 H 
ATOM     24  H19 9U4 d   1      -1.765   0.279   0.283  0.00  0.00     0.065 H 
ATOM     25  C22 9U4 d   1       0.666   0.808  -0.767  0.00  0.00    -0.037 C 
ATOM     26  H20 9U4 d   1       0.029  -1.215  -0.498  0.00  0.00     0.035 H 
ATOM     27  H21 9U4 d   1       1.113  -0.587   0.790  0.00  0.00     0.035 H 
ATOM     28  C23 9U4 d   1       0.732   2.107  -0.004  0.00  0.00    -0.030 A 
ATOM     29  H22 9U4 d   1      -0.077   0.905  -1.572  0.00  0.00     0.040 H 
ATOM     30  H23 9U4 d   1       1.654   0.600  -1.203  0.00  0.00     0.040 H 
ATOM     31  C24 9U4 d   1       0.028   2.308   1.190  0.00  0.00     0.043 A 
ATOM     32  C28 9U4 d   1       1.471   3.163  -0.535  0.00  0.00    -0.063 A 
ATOM     33  C25 9U4 d   1       0.040   3.561   1.798  0.00  0.00    -0.044 A 
ATOM     34  C26 9U4 d   1       0.770   4.620   1.264  0.00  0.00     0.019 A 
ATOM     35  H24 9U4 d   1      -0.531   3.715   2.706  0.00  0.00     0.088 H 
ATOM     36  C27 9U4 d   1       1.502   4.411   0.088  0.00  0.00    -0.011 A 
ATOM     37  H25 9U4 d   1       2.033   3.012  -1.450  0.00  0.00     0.085 H 
BRANCH  34  38
ATOM     38  C35 9U4 d   1       0.734   5.943   2.021  0.00  0.00     0.234 C 
ATOM     39  F36 9U4 d   1       0.276   5.729   3.284  0.00  0.00    -0.209 F 
ATOM     40  F37 9U4 d   1      -0.167   6.785   1.452  0.00  0.00    -0.209 F 
ATOM     41  H31 9U4 d   1       1.737   6.395   2.037  0.00  0.00     0.153 H 
ENDBRANCH  34  38
BRANCH  36  42
ATOM     42  C29 9U4 d   1       2.340   5.475  -0.516  0.00  0.00     0.011 A 
ATOM     43  C30 9U4 d   1       2.044   6.832  -0.741  0.00  0.00     0.034 A 
ATOM     44  N31 9U4 d   1       3.055   7.478  -1.294  0.00  0.00    -0.185 NA
ATOM     45  H26 9U4 d   1       1.092   7.296  -0.488  0.00  0.00     0.118 H 
ATOM     46  N32 9U4 d   1       4.009   6.532  -1.441  0.00  0.00    -0.285 N 
ATOM     47  C33 9U4 d   1       3.623   5.333  -0.991  0.00  0.00     0.010 A 
ATOM     48  H27 9U4 d   1       4.213   4.418  -0.999  0.00  0.00     0.115 H 
BRANCH  46  49
ATOM     49  C34 9U4 d   1       5.291   6.894  -2.032  0.00  0.00     0.002 C 
ATOM     50  H28 9U4 d   1       5.285   7.962  -2.296  0.00  0.00     0.059 H 
ATOM     51  H29 9U4 d   1       5.460   6.293  -2.938  0.00  0.00     0.059 H 
ATOM     52  H30 9U4 d   1       6.096   6.700  -1.308  0.00  0.00     0.059 H 
ENDBRANCH  46  49
ENDBRANCH  36  42
ENDBRANCH   5  20
BRANCH  10  53
ATOM     53  C13 9U4 d   1      -1.075   2.091   6.475  0.00  0.00     0.038 C 
ATOM     54  C14 9U4 d   1       0.049   3.115   6.467  0.00  0.00    -0.024 C 
ATOM     55  C15 9U4 d   1       0.616   3.298   7.856  0.00  0.00     0.021 C 
ATOM     56  H1  9U4 d   1      -0.343   4.078   6.107  0.00  0.00     0.039 H 
ATOM     57  H2  9U4 d   1       0.847   2.769   5.794  0.00  0.00     0.039 H 
ATOM     58  O16 9U4 d   1       1.052   2.061   8.407  0.00  0.00    -0.391 OA
ATOM     59  H12 9U4 d   1      -0.162   3.725   8.506  0.00  0.00     0.074 H 
ATOM     60  H13 9U4 d   1       1.471   3.988   7.805  0.00  0.00     0.074 H 
ATOM     61  C17 9U4 d   1      -0.045   1.154   8.515  0.00  0.00     0.021 C 
ATOM     62  C18 9U4 d   1      -0.617   0.817   7.160  0.00  0.00    -0.024 C 
ATOM     63  H14 9U4 d   1       0.302   0.228   8.997  0.00  0.00     0.074 H 
ATOM     64  H15 9U4 d   1      -0.831   1.615   9.131  0.00  0.00     0.074 H 
ATOM     65  H16 9U4 d   1       0.155   0.328   6.547  0.00  0.00     0.039 H 
ATOM     66  H17 9U4 d   1      -1.474   0.138   7.282  0.00  0.00     0.039 H 
ATOM     67  H7  9U4 d   1      -1.926   2.506   7.035  0.00  0.00     0.076 H 
ENDBRANCH  10  53
BRANCH   6  68
ATOM     68  C1  9U4 d   1      -7.227   2.649   0.398  0.00  0.00    -0.017 C 
ATOM     69  H9  9U4 d   1      -6.957   2.685  -0.668  0.00  0.00     0.056 H 
ATOM     70  H10 9U4 d   1      -7.510   3.656   0.739  0.00  0.00     0.056 H 
ATOM     71  H11 9U4 d   1      -8.075   1.962   0.538  0.00  0.00     0.056 H 
ENDBRANCH   6  68
TORSDOF 6
