REMARK  5 active torsions:
REMARK  status: ('A' for Active; 'I' for Inactive)
REMARK    1  A    between atoms: C9_2  and  N18_28 
REMARK    2  A    between atoms: C2_3  and  C1_5 
REMARK       I    between atoms: N4_31  and  C2_3 
REMARK    3  A    between atoms: N11_27  and  C12_6 
REMARK    4  A    between atoms: C26_17  and  C28_19 
REMARK    5  A    between atoms: N31_30  and  C33_22 
ROOT
ATOM      1  C7  9U7 d   1       3.137   1.787  -4.389  0.00  0.00     0.044 A 
ATOM      2  C9  9U7 d   1       1.702   1.779  -2.691  0.00  0.00     0.160 A 
ATOM      3  C2  9U7 d   1       6.648   1.846  -2.458  0.00  0.00     0.216 C 
ATOM      4  C6  9U7 d   1       4.388   1.695  -5.202  0.00  0.00    -0.009 C 
ATOM      5  C34 9U7 d   1       4.245   1.219  -2.157  0.00  0.00     0.027 C 
ATOM      6  C5  9U7 d   1       5.445   0.990  -4.367  0.00  0.00     0.003 C 
ATOM      7  C8  9U7 d   1       3.054   1.586  -3.039  0.00  0.00     0.032 A 
ATOM      8  N10 9U7 d   1       1.027   2.066  -3.791  0.00  0.00    -0.153 NA
ATOM      9  N11 9U7 d   1       1.915   2.079  -4.867  0.00  0.00    -0.264 N 
ATOM     10  N4  9U7 d   1       5.474   1.392  -2.959  0.00  0.00    -0.348 N 
ATOM     11  O3  9U7 d   1       7.603   1.969  -3.231  0.00  0.00    -0.274 OA
ATOM     12  H1  9U7 d   1       4.735   2.704  -5.467  0.00  0.00     0.044 H 
ATOM     13  H2  9U7 d   1       4.194   1.121  -6.120  0.00  0.00     0.044 H 
ATOM     14  H27 9U7 d   1       4.158   0.173  -1.827  0.00  0.00     0.072 H 
ATOM     15  H28 9U7 d   1       4.277   1.879  -1.278  0.00  0.00     0.072 H 
ATOM     16  H29 9U7 d   1       6.430   1.206  -4.806  0.00  0.00     0.065 H 
ATOM     17  H30 9U7 d   1       5.253  -0.092  -4.412  0.00  0.00     0.065 H 
ENDROOT
BRANCH   2  18
ATOM     18  N18 9U7 d   1       1.119   1.700  -1.418  0.00  0.00    -0.329 N 
ATOM     19  C19 9U7 d   1       1.377   0.526  -0.561  0.00  0.00     0.002 C 
ATOM     20  C20 9U7 d   1       0.080   0.180   0.157  0.00  0.00    -0.046 C 
ATOM     21  H13 9U7 d   1       1.701  -0.324  -1.179  0.00  0.00     0.065 H 
ATOM     22  H14 9U7 d   1       2.160   0.764   0.174  0.00  0.00     0.065 H 
ATOM     23  C21 9U7 d   1      -0.311   1.372   1.038  0.00  0.00    -0.037 C 
ATOM     24  H15 9U7 d   1       0.227  -0.713   0.782  0.00  0.00     0.035 H 
ATOM     25  H16 9U7 d   1      -0.713  -0.015  -0.580  0.00  0.00     0.035 H 
ATOM     26  C22 9U7 d   1      -0.363   2.662   0.263  0.00  0.00    -0.030 A 
ATOM     27  H17 9U7 d   1       0.430   1.474   1.845  0.00  0.00     0.040 H 
ATOM     28  H18 9U7 d   1      -1.303   1.180   1.473  0.00  0.00     0.040 H 
ATOM     29  C23 9U7 d   1       0.347   2.779  -0.921  0.00  0.00     0.042 A 
ATOM     30  C27 9U7 d   1      -1.099   3.731   0.755  0.00  0.00    -0.064 A 
ATOM     31  C24 9U7 d   1       0.285   4.001  -1.606  0.00  0.00    -0.056 A 
ATOM     32  C25 9U7 d   1      -0.457   5.067  -1.125  0.00  0.00    -0.070 A 
ATOM     33  H19 9U7 d   1       0.832   4.114  -2.535  0.00  0.00     0.087 H 
ATOM     34  C26 9U7 d   1      -1.164   4.954   0.067  0.00  0.00    -0.022 A 
ATOM     35  H20 9U7 d   1      -0.487   5.997  -1.682  0.00  0.00     0.084 H 
ATOM     36  H21 9U7 d   1      -1.635   3.620   1.690  0.00  0.00     0.085 H 
BRANCH  34  37
ATOM     37  C28 9U7 d   1      -1.967   6.092   0.613  0.00  0.00     0.010 A 
ATOM     38  C29 9U7 d   1      -2.813   6.018   1.740  0.00  0.00     0.034 A 
ATOM     39  N30 9U7 d   1      -3.368   7.189   1.943  0.00  0.00    -0.185 NA
ATOM     40  H22 9U7 d   1      -2.979   5.128   2.346  0.00  0.00     0.118 H 
ATOM     41  N31 9U7 d   1      -2.900   8.066   0.969  0.00  0.00    -0.285 N 
ATOM     42  C32 9U7 d   1      -2.042   7.392   0.154  0.00  0.00     0.010 A 
ATOM     43  H23 9U7 d   1      -1.512   7.803  -0.704  0.00  0.00     0.115 H 
BRANCH  41  44
ATOM     44  C33 9U7 d   1      -3.284   9.481   0.855  0.00  0.00     0.002 C 
ATOM     45  H24 9U7 d   1      -3.992   9.735   1.658  0.00  0.00     0.059 H 
ATOM     46  H25 9U7 d   1      -3.760   9.654  -0.122  0.00  0.00     0.059 H 
ATOM     47  H26 9U7 d   1      -2.388  10.113   0.944  0.00  0.00     0.059 H 
ENDBRANCH  41  44
ENDBRANCH  34  37
ENDBRANCH   2  18
BRANCH   9  48
ATOM     48  C12 9U7 d   1       1.556   2.395  -6.248  0.00  0.00     0.057 C 
ATOM     49  C14 9U7 d   1       0.445   1.457  -6.767  0.00  0.00    -0.022 C 
ATOM     50  C15 9U7 d   1      -0.670   2.439  -7.222  0.00  0.00     0.021 C 
ATOM     51  H7  9U7 d   1       0.084   0.794  -5.967  0.00  0.00     0.039 H 
ATOM     52  H8  9U7 d   1       0.804   0.851  -7.611  0.00  0.00     0.039 H 
ATOM     53  O16 9U7 d   1      -0.533   3.557  -6.326  0.00  0.00    -0.389 OA
ATOM     54  H9  9U7 d   1      -1.663   1.977  -7.122  0.00  0.00     0.074 H 
ATOM     55  H10 9U7 d   1      -0.514   2.752  -8.265  0.00  0.00     0.074 H 
ATOM     56  C17 9U7 d   1       0.882   3.778  -6.260  0.00  0.00     0.040 C 
ATOM     57  H11 9U7 d   1       1.215   4.353  -7.137  0.00  0.00     0.077 H 
ATOM     58  H12 9U7 d   1       1.135   4.329  -5.342  0.00  0.00     0.077 H 
ATOM     59  H6  9U7 d   1       2.445   2.362  -6.894  0.00  0.00     0.079 H 
ENDBRANCH   9  48
BRANCH   3  60
ATOM     60  C1  9U7 d   1       6.764   2.235  -1.010  0.00  0.00    -0.003 C 
ATOM     61  H3  9U7 d   1       7.789   2.575  -0.803  0.00  0.00     0.040 H 
ATOM     62  H4  9U7 d   1       6.531   1.366  -0.377  0.00  0.00     0.040 H 
ATOM     63  H5  9U7 d   1       6.057   3.049  -0.791  0.00  0.00     0.040 H 
ENDBRANCH   3  60
TORSDOF 5
