REMARK  6 active torsions:
REMARK  status: ('A' for Active; 'I' for Inactive)
REMARK    1  A    between atoms: C9_6  and  N17_31 
REMARK    2  A    between atoms: N11_30  and  C12_7 
REMARK    3  A    between atoms: C2_13  and  C1_9 
REMARK       I    between atoms: C2_13  and  N4_34 
REMARK    4  A    between atoms: C24_18  and  C33_25 
REMARK    5  A    between atoms: C25_19  and  C27_21 
REMARK    6  A    between atoms: N30_33  and  C32_24 
ROOT
ATOM      1  C5  9UA d   1       5.537   0.938  -4.450  0.00  0.00     0.003 C 
ATOM      2  C6  9UA d   1       4.490   1.730  -5.189  0.00  0.00    -0.009 C 
ATOM      3  C7  9UA d   1       3.239   1.783  -4.371  0.00  0.00     0.044 A 
ATOM      4  C8  9UA d   1       3.170   1.497  -3.036  0.00  0.00     0.032 A 
ATOM      5  C9  9UA d   1       1.827   1.703  -2.675  0.00  0.00     0.160 A 
ATOM      6  C2  9UA d   1       6.704   1.848  -2.544  0.00  0.00     0.216 C 
ATOM      7  C36 9UA d   1       4.379   1.037  -2.193  0.00  0.00     0.027 C 
ATOM      8  N10 9UA d   1       1.126   2.079  -3.740  0.00  0.00    -0.153 NA
ATOM      9  N11 9UA d   1       2.026   2.150  -4.805  0.00  0.00    -0.264 N 
ATOM     10  N4  9UA d   1       5.569   1.293  -3.033  0.00  0.00    -0.348 N 
ATOM     11  O3  9UA d   1       7.655   2.095  -3.288  0.00  0.00    -0.274 OA
ATOM     12  H3  9UA d   1       6.522   1.145  -4.894  0.00  0.00     0.065 H 
ATOM     13  H4  9UA d   1       5.309  -0.134  -4.546  0.00  0.00     0.065 H 
ATOM     14  H5  9UA d   1       4.277   1.247  -6.154  0.00  0.00     0.044 H 
ATOM     15  H6  9UA d   1       4.858   2.752  -5.364  0.00  0.00     0.044 H 
ATOM     16  H29 9UA d   1       4.298  -0.035  -1.958  0.00  0.00     0.072 H 
ATOM     17  H30 9UA d   1       4.437   1.614  -1.258  0.00  0.00     0.072 H 
ENDROOT
BRANCH   5  18
ATOM     18  N17 9UA d   1       1.215   1.560  -1.423  0.00  0.00    -0.329 N 
ATOM     19  C18 9UA d   1       1.477   0.335  -0.636  0.00  0.00     0.002 C 
ATOM     20  C19 9UA d   1       0.197  -0.049   0.115  0.00  0.00    -0.046 C 
ATOM     21  H15 9UA d   1       1.770  -0.483  -1.311  0.00  0.00     0.065 H 
ATOM     22  H16 9UA d   1       2.287   0.524   0.084  0.00  0.00     0.065 H 
ATOM     23  C20 9UA d   1      -0.253   1.088   1.032  0.00  0.00    -0.037 C 
ATOM     24  H17 9UA d   1       0.389  -0.947   0.721  0.00  0.00     0.035 H 
ATOM     25  H18 9UA d   1      -0.599  -0.262  -0.614  0.00  0.00     0.035 H 
ATOM     26  C21 9UA d   1      -0.334   2.390   0.277  0.00  0.00    -0.030 A 
ATOM     27  H19 9UA d   1       0.469   1.194   1.855  0.00  0.00     0.040 H 
ATOM     28  H20 9UA d   1      -1.245   0.848   1.443  0.00  0.00     0.040 H 
ATOM     29  C22 9UA d   1       0.406   2.576  -0.890  0.00  0.00     0.043 A 
ATOM     30  C26 9UA d   1      -1.131   3.418   0.766  0.00  0.00    -0.063 A 
ATOM     31  C23 9UA d   1       0.311   3.813  -1.525  0.00  0.00    -0.044 A 
ATOM     32  C24 9UA d   1      -0.474   4.829  -1.052  0.00  0.00     0.019 A 
ATOM     33  H21 9UA d   1       0.883   3.977  -2.431  0.00  0.00     0.088 H 
ATOM     34  C25 9UA d   1      -1.196   4.660   0.121  0.00  0.00    -0.011 A 
ATOM     35  H22 9UA d   1      -1.714   3.256   1.665  0.00  0.00     0.085 H 
BRANCH  32  36
ATOM     36  C33 9UA d   1      -0.517   6.133  -1.824  0.00  0.00     0.234 C 
ATOM     37  F34 9UA d   1       0.056   5.919  -3.077  0.00  0.00    -0.209 F 
ATOM     38  F35 9UA d   1       0.299   7.080  -1.187  0.00  0.00    -0.209 F 
ATOM     39  H28 9UA d   1      -1.551   6.497  -1.913  0.00  0.00     0.153 H 
ENDBRANCH  32  36
BRANCH  34  40
ATOM     40  C27 9UA d   1      -2.101   5.719   0.661  0.00  0.00     0.011 A 
ATOM     41  C28 9UA d   1      -1.960   7.130   0.741  0.00  0.00     0.034 A 
ATOM     42  N29 9UA d   1      -3.043   7.661   1.240  0.00  0.00    -0.185 NA
ATOM     43  H23 9UA d   1      -1.077   7.688   0.431  0.00  0.00     0.118 H 
ATOM     44  N30 9UA d   1      -3.932   6.632   1.510  0.00  0.00    -0.285 N 
ATOM     45  C31 9UA d   1      -3.359   5.462   1.132  0.00  0.00     0.010 A 
ATOM     46  H24 9UA d   1      -3.824   4.479   1.194  0.00  0.00     0.115 H 
BRANCH  44  47
ATOM     47  C32 9UA d   1      -5.263   6.791   2.081  0.00  0.00     0.002 C 
ATOM     48  H25 9UA d   1      -5.449   7.856   2.286  0.00  0.00     0.059 H 
ATOM     49  H26 9UA d   1      -5.330   6.220   3.019  0.00  0.00     0.059 H 
ATOM     50  H27 9UA d   1      -6.014   6.418   1.369  0.00  0.00     0.059 H 
ENDBRANCH  44  47
ENDBRANCH  34  40
ENDBRANCH   5  18
BRANCH   9  51
ATOM     51  C12 9UA d   1       1.652   2.536  -6.175  0.00  0.00     0.057 C 
ATOM     52  C13 9UA d   1       0.766   1.431  -6.781  0.00  0.00    -0.022 C 
ATOM     53  C14 9UA d   1      -0.524   2.196  -7.151  0.00  0.00     0.021 C 
ATOM     54  H8  9UA d   1       1.236   0.990  -7.673  0.00  0.00     0.039 H 
ATOM     55  H9  9UA d   1       0.561   0.639  -6.046  0.00  0.00     0.039 H 
ATOM     56  O15 9UA d   1      -0.594   3.280  -6.191  0.00  0.00    -0.389 OA
ATOM     57  H1  9UA d   1      -1.403   1.541  -7.062  0.00  0.00     0.074 H 
ATOM     58  H2  9UA d   1      -0.462   2.589  -8.177  0.00  0.00     0.074 H 
ATOM     59  C16 9UA d   1       0.752   3.781  -6.140  0.00  0.00     0.040 C 
ATOM     60  H13 9UA d   1       0.955   4.427  -7.007  0.00  0.00     0.077 H 
ATOM     61  H14 9UA d   1       0.916   4.349  -5.212  0.00  0.00     0.077 H 
ATOM     62  H7  9UA d   1       2.551   2.711  -6.784  0.00  0.00     0.079 H 
ENDBRANCH   9  51
BRANCH   6  63
ATOM     63  C1  9UA d   1       6.826   2.167  -1.064  0.00  0.00    -0.003 C 
ATOM     64  H10 9UA d   1       7.813   2.609  -0.864  0.00  0.00     0.040 H 
ATOM     65  H11 9UA d   1       6.713   1.242  -0.479  0.00  0.00     0.040 H 
ATOM     66  H12 9UA d   1       6.040   2.881  -0.777  0.00  0.00     0.040 H 
ENDBRANCH   6  63
TORSDOF 6
