REMARK  6 active torsions:
REMARK  status: ('A' for Active; 'I' for Inactive)
REMARK    1  A    between atoms: C4_1  and  C2_25 
REMARK    2  A    between atoms: C14_14  and  N2_7 
REMARK    3  A    between atoms: C9_8  and  C10_9 
REMARK    4  A    between atoms: N4_16  and  C15_15 
REMARK    5  A    between atoms: N_17  and  C_18 
REMARK    6  A    between atoms: C25_31  and  C26_32 
REMARK       I    between atoms: C25_31  and  N5_36 
ROOT
ATOM      1  N3  9UD d   1     -10.539   3.352 -44.199  0.00  0.00    -0.153 NA
ATOM      2  C14 9UD d   1     -10.793   2.644 -43.115  0.00  0.00     0.160 A 
ATOM      3  N4  9UD d   1     -10.481   2.428 -45.219  0.00  0.00    -0.266 N 
ATOM      4  C20 9UD d   1     -10.703   1.172 -44.785  0.00  0.00     0.044 A 
ATOM      5  C21 9UD d   1     -10.920   1.231 -43.432  0.00  0.00     0.032 A 
ATOM      6  C22 9UD d   1     -11.240   0.003 -42.629  0.00  0.00     0.027 C 
ATOM      7  C23 9UD d   1     -11.450  -1.147 -44.840  0.00  0.00     0.003 C 
ATOM      8  C24 9UD d   1     -10.696  -0.075 -45.605  0.00  0.00    -0.009 C 
ATOM      9  C25 9UD d   1     -10.512  -2.363 -42.995  0.00  0.00     0.216 C 
ATOM     10  N5  9UD d   1     -11.019  -1.193 -43.441  0.00  0.00    -0.348 N 
ATOM     11  O1  9UD d   1     -10.277  -3.272 -43.780  0.00  0.00    -0.274 OA
ATOM     12  H23 9UD d   1     -12.292   0.039 -42.311  0.00  0.00     0.072 H 
ATOM     13  H24 9UD d   1     -10.590  -0.033 -41.742  0.00  0.00     0.072 H 
ATOM     14  H25 9UD d   1     -11.259  -2.124 -45.308  0.00  0.00     0.065 H 
ATOM     15  H26 9UD d   1     -12.527  -0.926 -44.878  0.00  0.00     0.065 H 
ATOM     16  H27 9UD d   1      -9.660  -0.401 -45.779  0.00  0.00     0.044 H 
ATOM     17  H28 9UD d   1     -11.190   0.111 -46.570  0.00  0.00     0.044 H 
ENDROOT
BRANCH   2  18
ATOM     18  N2  9UD d   1     -10.899   3.170 -41.821  0.00  0.00    -0.329 N 
ATOM     19  C7  9UD d   1      -9.900   4.024 -41.324  0.00  0.00     0.043 A 
ATOM     20  C6  9UD d   1     -10.165   4.829 -40.211  0.00  0.00    -0.030 A 
ATOM     21  C8  9UD d   1      -8.638   4.066 -41.911  0.00  0.00    -0.044 A 
ATOM     22  C5  9UD d   1      -9.162   5.657 -39.727  0.00  0.00    -0.063 A 
ATOM     23  C13 9UD d   1     -11.516   4.821 -39.540  0.00  0.00    -0.037 C 
ATOM     24  C4  9UD d   1      -7.895   5.691 -40.307  0.00  0.00    -0.011 A 
ATOM     25  H1  9UD d   1      -9.369   6.294 -38.875  0.00  0.00     0.085 H 
ATOM     26  C9  9UD d   1      -7.621   4.880 -41.416  0.00  0.00     0.019 A 
ATOM     27  C12 9UD d   1     -12.593   4.283 -40.440  0.00  0.00    -0.046 C 
ATOM     28  H8  9UD d   1     -11.775   5.851 -39.253  0.00  0.00     0.040 H 
ATOM     29  H9  9UD d   1     -11.460   4.192 -38.639  0.00  0.00     0.040 H 
ATOM     30  C11 9UD d   1     -12.144   2.991 -41.056  0.00  0.00     0.002 C 
ATOM     31  H6  9UD d   1     -13.506   4.109 -39.852  0.00  0.00     0.035 H 
ATOM     32  H7  9UD d   1     -12.802   5.013 -41.236  0.00  0.00     0.035 H 
ATOM     33  H4  9UD d   1     -11.972   2.254 -40.258  0.00  0.00     0.065 H 
ATOM     34  H5  9UD d   1     -12.930   2.623 -41.731  0.00  0.00     0.065 H 
ATOM     35  H2  9UD d   1      -8.441   3.447 -42.779  0.00  0.00     0.088 H 
BRANCH  24  36
ATOM     36  C2  9UD d   1      -6.895   6.627 -39.728  0.00  0.00     0.011 A 
ATOM     37  C1  9UD d   1      -7.137   7.906 -39.288  0.00  0.00     0.010 A 
ATOM     38  N   9UD d   1      -5.976   8.389 -38.832  0.00  0.00    -0.285 N 
ATOM     39  H14 9UD d   1      -8.093   8.428 -39.307  0.00  0.00     0.115 H 
ATOM     40  N1  9UD d   1      -4.963   7.503 -38.933  0.00  0.00    -0.185 NA
ATOM     41  C3  9UD d   1      -5.518   6.434 -39.475  0.00  0.00     0.034 A 
ATOM     42  H32 9UD d   1      -4.979   5.515 -39.700  0.00  0.00     0.118 H 
BRANCH  38  43
ATOM     43  C   9UD d   1      -5.719   9.714 -38.279  0.00  0.00     0.002 C 
ATOM     44  H11 9UD d   1      -6.652  10.296 -38.273  0.00  0.00     0.059 H 
ATOM     45  H12 9UD d   1      -4.969  10.230 -38.896  0.00  0.00     0.059 H 
ATOM     46  H13 9UD d   1      -5.342   9.615 -37.250  0.00  0.00     0.059 H 
ENDBRANCH  38  43
ENDBRANCH  24  36
BRANCH  26  47
ATOM     47  C10 9UD d   1      -6.266   4.798 -42.116  0.00  0.00     0.234 C 
ATOM     48  F   9UD d   1      -6.431   4.306 -43.372  0.00  0.00    -0.209 F 
ATOM     49  F1  9UD d   1      -5.755   6.047 -42.275  0.00  0.00    -0.209 F 
ATOM     50  H3  9UD d   1      -5.579   4.165 -41.535  0.00  0.00     0.153 H 
ENDBRANCH  26  47
ENDBRANCH   2  18
BRANCH   3  51
ATOM     51  C15 9UD d   1     -10.177   2.874 -46.593  0.00  0.00     0.038 C 
ATOM     52  C16 9UD d   1      -9.033   3.878 -46.578  0.00  0.00    -0.024 C 
ATOM     53  C17 9UD d   1      -8.815   4.431 -47.961  0.00  0.00     0.021 C 
ATOM     54  H15 9UD d   1      -8.114   3.378 -46.236  0.00  0.00     0.039 H 
ATOM     55  H16 9UD d   1      -9.280   4.701 -45.891  0.00  0.00     0.039 H 
ATOM     56  O   9UD d   1     -10.004   5.027 -48.465  0.00  0.00    -0.391 OA
ATOM     57  H17 9UD d   1      -8.020   5.190 -47.923  0.00  0.00     0.074 H 
ATOM     58  H18 9UD d   1      -8.510   3.614 -48.631  0.00  0.00     0.074 H 
ATOM     59  C18 9UD d   1     -11.039   4.046 -48.585  0.00  0.00     0.021 C 
ATOM     60  C19 9UD d   1     -11.413   3.482 -47.238  0.00  0.00    -0.024 C 
ATOM     61  H19 9UD d   1     -10.686   3.229 -49.231  0.00  0.00     0.074 H 
ATOM     62  H20 9UD d   1     -11.926   4.513 -49.037  0.00  0.00     0.074 H 
ATOM     63  H21 9UD d   1     -11.805   4.286 -46.598  0.00  0.00     0.039 H 
ATOM     64  H22 9UD d   1     -12.182   2.706 -47.364  0.00  0.00     0.039 H 
ATOM     65  H10 9UD d   1      -9.868   2.000 -47.185  0.00  0.00     0.076 H 
ENDBRANCH   3  51
BRANCH   9  66
ATOM     66  C26 9UD d   1     -10.211  -2.492 -41.525  0.00  0.00    -0.003 C 
ATOM     67  H29 9UD d   1      -9.807  -3.494 -41.320  0.00  0.00     0.040 H 
ATOM     68  H30 9UD d   1     -11.135  -2.344 -40.947  0.00  0.00     0.040 H 
ATOM     69  H31 9UD d   1      -9.471  -1.732 -41.234  0.00  0.00     0.040 H 
ENDBRANCH   9  66
TORSDOF 6
