REMARK  3 active torsions:
REMARK  status: ('A' for Active; 'I' for Inactive)
REMARK    1  A    between atoms: C9_5  and  C16_11 
REMARK       I    between atoms: N11_13  and  C12_7 
REMARK       I    between atoms: C12_7  and  N14_14 
REMARK    2  A    between atoms: C2_12  and  C1_9 
REMARK    3  A    between atoms: N14_14  and  C15_10 
ROOT
ATOM      1  C4  9UG d   1      11.535  24.912  -5.437  0.00  0.00    -0.054 A 
ATOM      2  C5  9UG d   1      12.916  25.000  -5.542  0.00  0.00     0.072 A 
ATOM      3  C6  9UG d   1      13.700  25.150  -4.402  0.00  0.00     0.096 A 
ATOM      4  C7  9UG d   1      13.096  25.190  -3.156  0.00  0.00    -0.043 A 
ATOM      5  C9  9UG d   1      15.704  25.455  -5.763  0.00  0.00     0.058 C 
ATOM      6  C10 9UG d   1      14.708  25.946  -6.829  0.00  0.00     0.029 C 
ATOM      7  C12 9UG d   1      13.383  24.124  -7.790  0.00  0.00     0.322 C 
ATOM      8  C3  9UG d   1      10.940  24.951  -4.188  0.00  0.00    -0.075 A 
ATOM      9  C2  9UG d   1      11.723  25.090  -3.055  0.00  0.00    -0.059 A 
ATOM     10  N11 9UG d   1      13.611  24.976  -6.764  0.00  0.00    -0.295 N 
ATOM     11  N14 9UG d   1      12.399  23.205  -7.739  0.00  0.00    -0.347 N 
ATOM     12  O13 9UG d   1      14.086  24.198  -8.784  0.00  0.00    -0.247 OA
ATOM     13  O8  9UG d   1      15.058  25.252  -4.491  0.00  0.00    -0.342 OA
ATOM     14  H1  9UG d   1      10.926  24.813  -6.328  0.00  0.00     0.087 H 
ATOM     15  H2  9UG d   1      13.700  25.300  -2.263  0.00  0.00     0.088 H 
ATOM     16  H3  9UG d   1      16.122  24.494  -6.096  0.00  0.00     0.086 H 
ATOM     17  H4  9UG d   1      15.171  25.946  -7.827  0.00  0.00     0.069 H 
ATOM     18  H5  9UG d   1      14.349  26.958  -6.592  0.00  0.00     0.069 H 
ATOM     19  H6  9UG d   1       9.863  24.873  -4.097  0.00  0.00     0.084 H 
ATOM     20  H16 9UG d   1      11.815  23.142  -6.930  0.00  0.00     0.163 HD
ENDROOT
BRANCH   5  21
ATOM     21  C16 9UG d   1      16.847  26.462  -5.617  0.00  0.00    -0.050 C 
ATOM     22  H13 9UG d   1      17.555  26.105  -4.854  0.00  0.00     0.031 H 
ATOM     23  H14 9UG d   1      16.440  27.437  -5.312  0.00  0.00     0.031 H 
ATOM     24  H15 9UG d   1      17.368  26.567  -6.580  0.00  0.00     0.031 H 
ENDBRANCH   5  21
BRANCH  11  25
ATOM     25  C15 9UG d   1      12.186  22.298  -8.869  0.00  0.00    -0.017 C 
ATOM     26  H10 9UG d   1      11.345  21.625  -8.645  0.00  0.00     0.056 H 
ATOM     27  H11 9UG d   1      13.096  21.704  -9.039  0.00  0.00     0.056 H 
ATOM     28  H12 9UG d   1      11.956  22.884  -9.771  0.00  0.00     0.056 H 
ENDBRANCH  11  25
BRANCH   9  29
ATOM     29  C1  9UG d   1      11.076  25.137  -1.694  0.00  0.00    -0.051 C 
ATOM     30  H7  9UG d   1      11.852  25.250  -0.923  0.00  0.00     0.033 H 
ATOM     31  H8  9UG d   1      10.520  24.204  -1.520  0.00  0.00     0.033 H 
ATOM     32  H9  9UG d   1      10.384  25.991  -1.646  0.00  0.00     0.033 H 
ENDBRANCH   9  29
TORSDOF 3
