REMARK  2 active torsions:
REMARK  status: ('A' for Active; 'I' for Inactive)
REMARK    1  A    between atoms: C2'_10  and  O2'_11 
REMARK    2  A    between atoms: C1'_12  and  N9_13 
ROOT
ATOM      1  P   CMP d   1      48.950  19.898  40.734  0.00  0.00     0.408 P 
ATOM      2  O1P CMP d   1      47.541  19.631  41.191  0.00  0.00    -0.624 OA
ATOM      3  O2P CMP d   1      50.001  19.490  41.739  0.00  0.00    -0.624 OA
ATOM      4  O5' CMP d   1      49.238  19.024  39.431  0.00  0.00    -0.287 OA
ATOM      5  C5' CMP d   1      48.629  19.367  38.185  0.00  0.00     0.058 C 
ATOM      6  C4' CMP d   1      48.842  20.823  37.920  0.00  0.00     0.090 C 
ATOM      7  O4' CMP d   1      48.078  21.308  36.830  0.00  0.00    -0.353 OA
ATOM      8  C3' CMP d   1      48.250  21.631  39.036  0.00  0.00     0.106 C 
ATOM      9  O3' CMP d   1      49.009  21.410  40.198  0.00  0.00    -0.279 OA
ATOM     10  C2' CMP d   1      48.254  22.994  38.397  0.00  0.00     0.106 C 
ATOM     11  C1' CMP d   1      47.943  22.716  36.915  0.00  0.00     0.140 C 
ATOM     12  H1  CMP d   1      47.551  19.155  38.231  0.00  0.00     0.079 H 
ATOM     13  H2  CMP d   1      49.084  18.775  37.377  0.00  0.00     0.079 H 
ATOM     14  H3  CMP d   1      49.915  21.023  37.783  0.00  0.00     0.090 H 
ATOM     15  H4  CMP d   1      47.213  21.331  39.250  0.00  0.00     0.092 H 
ATOM     16  H5  CMP d   1      47.531  23.687  38.852  0.00  0.00     0.093 H 
ATOM     17  H7  CMP d   1      48.679  23.235  36.284  0.00  0.00     0.122 H 
ENDROOT
BRANCH  11  18
ATOM     18  N9  CMP d   1      46.595  23.035  36.424  0.00  0.00    -0.294 N 
ATOM     19  C8  CMP d   1      45.488  22.283  36.650  0.00  0.00     0.071 A 
ATOM     20  N7  CMP d   1      44.413  22.867  36.074  0.00  0.00    -0.236 NA
ATOM     21  H8  CMP d   1      45.468  21.350  37.211  0.00  0.00     0.144 H 
ATOM     22  C5  CMP d   1      44.794  24.014  35.456  0.00  0.00     0.149 A 
ATOM     23  C6  CMP d   1      44.191  25.089  34.636  0.00  0.00     0.155 A 
ATOM     24  C4  CMP d   1      46.247  24.094  35.701  0.00  0.00     0.167 A 
ATOM     25  N6  CMP d   1      42.878  25.172  34.282  0.00  0.00    -0.382 N 
ATOM     26  N1  CMP d   1      44.993  26.108  34.206  0.00  0.00    -0.222 NA
ATOM     27  H9  CMP d   1      42.549  25.960  33.707  0.00  0.00     0.157 HD
ATOM     28  H10 CMP d   1      42.215  24.447  34.590  0.00  0.00     0.157 HD
ATOM     29  C2  CMP d   1      46.309  26.095  34.499  0.00  0.00     0.091 A 
ATOM     30  N3  CMP d   1      46.919  25.143  35.226  0.00  0.00    -0.222 NA
ATOM     31  H11 CMP d   1      46.918  26.909  34.122  0.00  0.00     0.146 H 
ENDBRANCH  11  18
BRANCH  10  32
ATOM     32  O2' CMP d   1      49.593  23.461  38.522  0.00  0.00    -0.388 OA
ATOM     33  H6  CMP d   1      49.663  24.325  38.134  0.00  0.00     0.210 HD
ENDBRANCH  10  32
TORSDOF 2
