REMARK  9 active torsions:
REMARK  status: ('A' for Active; 'I' for Inactive)
REMARK    1  A    between atoms: C5_2  and  C9_8 
REMARK    2  A    between atoms: C1_4  and  C3_5 
REMARK    3  A    between atoms: C12_11  and  C1_4 
REMARK    4  A    between atoms: C12_11  and  B13_12 
REMARK    5  A    between atoms: N6_23  and  C12_11 
REMARK    6  A    between atoms: B13_12  and  O14_13 
REMARK    7  A    between atoms: B13_12  and  O15_14 
REMARK    8  A    between atoms: C17_15  and  C19_17 
REMARK       I    between atoms: C17_15  and  N6_23 
REMARK    9  A    between atoms: C19_17  and  C20_18 
ROOT
ATOM      1  C12 9TG d   1      40.183 -11.417  -9.678  0.00  0.00     0.049 C 
ATOM      2  H   9TG d   1      40.147 -12.138 -10.494  0.00  0.00     0.065 H 
ENDROOT
BRANCH   1   3
ATOM      3  C1  9TG d   1      41.283 -11.954  -8.714  0.00  0.00    -0.025 C 
ATOM      4  H   9TG d   1      40.962 -12.940  -8.378  0.00  0.00     0.042 H 
ATOM      5  H   9TG d   1      42.223 -11.953  -9.266  0.00  0.00     0.042 H 
BRANCH   3   6
ATOM      6  C3  9TG d   1      41.493 -11.102  -7.469  0.00  0.00    -0.056 A 
ATOM      7  C4  9TG d   1      40.904 -11.471  -6.256  0.00  0.00    -0.060 A 
ATOM      8  C5  9TG d   1      41.040 -10.703  -5.092  0.00  0.00     0.041 A 
ATOM      9  H   9TG d   1      40.318 -12.389  -6.214  0.00  0.00     0.086 H 
ATOM     10  C6  9TG d   1      41.837  -9.548  -5.161  0.00  0.00    -0.066 A 
ATOM     11  C7  9TG d   1      42.445  -9.163  -6.377  0.00  0.00    -0.081 A 
ATOM     12  H   9TG d   1      41.988  -8.943  -4.267  0.00  0.00     0.085 H 
ATOM     13  C8  9TG d   1      42.278  -9.945  -7.521  0.00  0.00    -0.077 A 
ATOM     14  H   9TG d   1      43.045  -8.254  -6.422  0.00  0.00     0.083 H 
ATOM     15  H   9TG d   1      42.759  -9.654  -8.455  0.00  0.00     0.084 H 
BRANCH   8  16
ATOM     16  C9  9TG d   1      40.385 -11.150  -3.789  0.00  0.00     0.209 C 
ATOM     17  O10 9TG d   1      40.877 -10.802  -2.701  0.00  0.00    -0.644 OA
ATOM     18  O11 9TG d   1      39.384 -11.915  -3.767  0.00  0.00    -0.644 OA
ENDBRANCH   8  16
ENDBRANCH   3   6
ENDBRANCH   1   3
BRANCH   1  19
ATOM     19  B13 9TG d   1      38.634 -11.429  -9.089  0.00  0.00     0.515 B 
BRANCH  19  20
ATOM     20  O14 9TG d   1      38.394 -12.446  -7.966  0.00  0.00    -0.436 OA
ATOM     21  H   9TG d   1      37.470 -12.423  -7.707  0.00  0.00     0.184 HD
ENDBRANCH  19  20
BRANCH  19  22
ATOM     22  O15 9TG d   1      38.248 -10.072  -8.483  0.00  0.00    -0.436 OA
ATOM     23  H   9TG d   1      38.375  -9.382  -9.139  0.00  0.00     0.184 HD
ENDBRANCH  19  22
ENDBRANCH   1  19
BRANCH   1  24
ATOM     24  N6  9TG d   1      40.565 -10.076 -10.207  0.00  0.00    -0.359 N 
ATOM     25  C17 9TG d   1      41.410  -9.829 -11.228  0.00  0.00     0.222 C 
ATOM     26  O18 9TG d   1      42.027 -10.698 -11.790  0.00  0.00    -0.273 OA
ATOM     27  H   9TG d   1      40.145  -9.266  -9.751  0.00  0.00     0.162 HD
BRANCH  25  28
ATOM     28  C19 9TG d   1      41.654  -8.400 -11.700  0.00  0.00     0.039 C 
ATOM     29  H   9TG d   1      40.719  -7.844 -11.767  0.00  0.00     0.055 H 
ATOM     30  H   9TG d   1      42.090  -8.386 -12.699  0.00  0.00     0.055 H 
BRANCH  28  31
ATOM     31  C20 9TG d   1      42.588  -7.774 -10.690  0.00  0.00    -0.009 A 
ATOM     32  C21 9TG d   1      42.389  -7.121  -9.479  0.00  0.00    -0.069 A 
ATOM     33  C22 9TG d   1      43.596  -6.752  -8.848  0.00  0.00    -0.076 A 
ATOM     34  H   9TG d   1      41.404  -6.915  -9.061  0.00  0.00     0.085 H 
ATOM     35  C23 9TG d   1      44.725  -7.121  -9.576  0.00  0.00    -0.045 A 
ATOM     36  H   9TG d   1      43.640  -6.232  -7.891  0.00  0.00     0.084 H 
ATOM     37  S24 9TG d   1      44.276  -7.940 -11.044  0.00  0.00    -0.106 SA
ATOM     38  H   9TG d   1      45.752  -6.923  -9.268  0.00  0.00     0.095 H 
ENDBRANCH  28  31
ENDBRANCH  25  28
ENDBRANCH   1  24
TORSDOF 9
