REMARK  8 active torsions:
REMARK  status: ('A' for Active; 'I' for Inactive)
REMARK    1  A    between atoms: CAE_5  and  CAG_6 
REMARK    2  A    between atoms: CAG_6  and  CAH_7 
REMARK       I    between atoms: CAH_7  and  NAJ_9 
REMARK    3  A    between atoms: NAJ_9  and  CAK_10 
REMARK    4  A    between atoms: CAK_10  and  B_11 
REMARK    5  A    between atoms: CAK_10  and  CAL_14 
REMARK    6  A    between atoms: B_11  and  OAT_12 
REMARK    7  A    between atoms: B_11  and  OAO_13 
REMARK    8  A    between atoms: CAR_19  and  CAU_20 
ROOT
ATOM      1  CAK SM2 d   1      -4.901 -12.192  -9.016  0.00  0.00     0.071 C 
ATOM      2  H   SM2 d   1      -4.685 -12.957  -9.762  0.00  0.00     0.072 H 
ENDROOT
BRANCH   1   3
ATOM      3  NAJ SM2 d   1      -4.550 -11.005  -9.758  0.00  0.00    -0.355 N 
ATOM      4  CAH SM2 d   1      -3.553 -10.981 -10.659  0.00  0.00     0.222 C 
ATOM      5  OAI SM2 d   1      -2.767 -11.919 -10.842  0.00  0.00    -0.273 OA
ATOM      6  H   SM2 d   1      -5.080 -10.149  -9.592  0.00  0.00     0.162 HD
BRANCH   4   7
ATOM      7  CAG SM2 d   1      -3.445  -9.724 -11.495  0.00  0.00     0.039 C 
ATOM      8  H   SM2 d   1      -3.250  -9.934 -12.547  0.00  0.00     0.055 H 
ATOM      9  H   SM2 d   1      -4.375  -9.156 -11.522  0.00  0.00     0.055 H 
BRANCH   7  10
ATOM     10  CAE SM2 d   1      -2.291  -8.946 -10.819  0.00  0.00    -0.009 A 
ATOM     11  CAF SM2 d   1      -1.055  -8.520 -11.309  0.00  0.00    -0.069 A 
ATOM     12  CAC SM2 d   1      -0.246  -7.858 -10.361  0.00  0.00    -0.076 A 
ATOM     13  H   SM2 d   1      -0.741  -8.685 -12.339  0.00  0.00     0.085 H 
ATOM     14  CAB SM2 d   1      -0.822  -7.760  -9.092  0.00  0.00    -0.045 A 
ATOM     15  H   SM2 d   1       0.740  -7.459 -10.598  0.00  0.00     0.084 H 
ATOM     16  SAD SM2 d   1      -2.382  -8.495  -9.134  0.00  0.00    -0.106 SA
ATOM     17  H   SM2 d   1      -0.362  -7.296  -8.220  0.00  0.00     0.095 H 
ENDBRANCH   7  10
ENDBRANCH   4   7
ENDBRANCH   1   3
BRANCH   1  18
ATOM     18  B   SM2 d   1      -6.424 -12.323  -8.535  0.00  0.00     0.519 B 
BRANCH  18  19
ATOM     19  OAT SM2 d   1      -6.725 -13.442  -7.629  0.00  0.00    -0.436 OA
ATOM     20  H   SM2 d   1      -6.301 -14.239  -7.955  0.00  0.00     0.184 HD
ENDBRANCH  18  19
BRANCH  18  21
ATOM     21  OAO SM2 d   1      -7.093 -11.051  -8.027  0.00  0.00    -0.436 OA
ATOM     22  H   SM2 d   1      -8.043 -11.183  -7.990  0.00  0.00     0.184 HD
ENDBRANCH  18  21
ENDBRANCH   1  18
BRANCH   1  23
ATOM     23  CAL SM2 d   1      -4.122 -12.328  -7.758  0.00  0.00    -0.038 A 
ATOM     24  CAQ SM2 d   1      -4.313 -11.424  -6.708  0.00  0.00    -0.059 A 
ATOM     25  CAR SM2 d   1      -3.652 -11.568  -5.490  0.00  0.00     0.041 A 
ATOM     26  H   SM2 d   1      -4.996 -10.586  -6.846  0.00  0.00     0.086 H 
ATOM     27  CAS SM2 d   1      -2.780 -12.653  -5.318  0.00  0.00    -0.066 A 
ATOM     28  CAN SM2 d   1      -2.610 -13.593  -6.342  0.00  0.00    -0.081 A 
ATOM     29  H   SM2 d   1      -2.232 -12.765  -4.383  0.00  0.00     0.085 H 
ATOM     30  CAM SM2 d   1      -3.289 -13.447  -7.552  0.00  0.00    -0.075 A 
ATOM     31  H   SM2 d   1      -1.944 -14.443  -6.193  0.00  0.00     0.083 H 
ATOM     32  H   SM2 d   1      -3.176 -14.196  -8.336  0.00  0.00     0.084 H 
BRANCH  25  33
ATOM     33  CAU SM2 d   1      -3.869 -10.546  -4.379  0.00  0.00     0.209 C 
ATOM     34  OAW SM2 d   1      -3.959  -9.320  -4.645  0.00  0.00    -0.644 OA
ATOM     35  OAV SM2 d   1      -3.953 -10.931  -3.189  0.00  0.00    -0.644 OA
ENDBRANCH  25  33
ENDBRANCH   1  23
TORSDOF 8
