REMARK  10 active torsions:
REMARK  status: ('A' for Active; 'I' for Inactive)
REMARK    1  A    between atoms: C2_1  and  C6_2 
REMARK    2  A    between atoms: C2_1  and  B1_4 
REMARK    3  A    between atoms: C2_1  and  N5_7 
REMARK    4  A    between atoms: C6_2  and  N7_8 
REMARK    5  A    between atoms: B1_4  and  O3_5 
REMARK    6  A    between atoms: B1_4  and  O4_6 
REMARK       I    between atoms: N5_7  and  C22_21 
REMARK    7  A    between atoms: C9_9  and  C13_12 
REMARK    8  A    between atoms: C15_14  and  C19_18 
REMARK    9  A    between atoms: C22_21  and  C24_23 
REMARK   10  A    between atoms: C24_23  and  C25_24 
ROOT
ATOM      1  C2  9TJ d   1      39.828 -11.450  -9.763  0.00  0.00     0.062 C 
ATOM      2  H   9TJ d   1      39.796 -12.264 -10.487  0.00  0.00     0.067 H 
ENDROOT
BRANCH   1   3
ATOM      3  C6  9TJ d   1      40.992 -11.782  -8.830  0.00  0.00     0.029 C 
ATOM      4  H   9TJ d   1      41.834 -12.075  -9.457  0.00  0.00     0.068 H 
ATOM      5  H   9TJ d   1      40.648 -12.563  -8.152  0.00  0.00     0.068 H 
BRANCH   3   6
ATOM      6  N7  9TJ d   1      41.435 -10.665  -8.010  0.00  0.00    -0.281 N 
ATOM      7  C8  9TJ d   1      42.481  -9.833  -8.025  0.00  0.00     0.025 A 
ATOM      8  C9  9TJ d   1      42.342  -9.019  -6.914  0.00  0.00     0.101 A 
ATOM      9  H   9TJ d   1      43.282  -9.802  -8.763  0.00  0.00     0.117 H 
ATOM     10  N10 9TJ d   1      41.261  -9.400  -6.236  0.00  0.00    -0.158 NA
ATOM     11  N11 9TJ d   1      40.657 -10.457  -6.904  0.00  0.00     0.005 NA
BRANCH   8  12
ATOM     12  C13 9TJ d   1      43.241  -7.919  -6.470  0.00  0.00    -0.004 A 
ATOM     13  C14 9TJ d   1      43.892  -7.100  -7.417  0.00  0.00    -0.054 A 
ATOM     14  C15 9TJ d   1      44.756  -6.049  -7.013  0.00  0.00     0.041 A 
ATOM     15  H   9TJ d   1      43.728  -7.278  -8.480  0.00  0.00     0.086 H 
ATOM     16  C16 9TJ d   1      44.930  -5.858  -5.637  0.00  0.00    -0.066 A 
ATOM     17  C17 9TJ d   1      44.274  -6.675  -4.677  0.00  0.00    -0.081 A 
ATOM     18  H   9TJ d   1      45.587  -5.060  -5.292  0.00  0.00     0.085 H 
ATOM     19  C18 9TJ d   1      43.410  -7.704  -5.083  0.00  0.00    -0.071 A 
ATOM     20  H   9TJ d   1      44.444  -6.501  -3.614  0.00  0.00     0.083 H 
ATOM     21  H   9TJ d   1      42.885  -8.319  -4.351  0.00  0.00     0.084 H 
BRANCH  14  22
ATOM     22  C19 9TJ d   1      45.480  -5.173  -8.049  0.00  0.00     0.209 C 
ATOM     23  O20 9TJ d   1      45.625  -5.612  -9.221  0.00  0.00    -0.644 OA
ATOM     24  O21 9TJ d   1      45.917  -4.007  -7.798  0.00  0.00    -0.644 OA
ENDBRANCH  14  22
ENDBRANCH   8  12
ENDBRANCH   3   6
ENDBRANCH   1   3
BRANCH   1  25
ATOM     25  B1  9TJ d   1      38.334 -11.484  -9.114  0.00  0.00     0.516 B 
BRANCH  25  26
ATOM     26  O3  9TJ d   1      37.981 -10.150  -8.470  0.00  0.00    -0.436 OA
ATOM     27  H   9TJ d   1      38.577  -9.983  -7.736  0.00  0.00     0.184 HD
ENDBRANCH  25  26
BRANCH  25  28
ATOM     28  O4  9TJ d   1      38.165 -12.506  -8.010  0.00  0.00    -0.436 OA
ATOM     29  H   9TJ d   1      37.257 -12.491  -7.698  0.00  0.00     0.184 HD
ENDBRANCH  25  28
ENDBRANCH   1  25
BRANCH   1  30
ATOM     30  N5  9TJ d   1      40.091 -10.166 -10.401  0.00  0.00    -0.358 N 
ATOM     31  C22 9TJ d   1      40.926  -9.970 -11.430  0.00  0.00     0.222 C 
ATOM     32  O23 9TJ d   1      41.695 -10.807 -11.871  0.00  0.00    -0.273 OA
ATOM     33  H   9TJ d   1      39.599  -9.351 -10.034  0.00  0.00     0.162 HD
BRANCH  31  34
ATOM     34  C24 9TJ d   1      40.861  -8.626 -12.113  0.00  0.00     0.039 C 
ATOM     35  H   9TJ d   1      40.321  -7.944 -11.457  0.00  0.00     0.055 H 
ATOM     36  H   9TJ d   1      40.369  -8.764 -13.076  0.00  0.00     0.055 H 
BRANCH  34  37
ATOM     37  C25 9TJ d   1      42.219  -8.038 -12.371  0.00  0.00    -0.009 A 
ATOM     38  C26 9TJ d   1      43.047  -7.979 -13.489  0.00  0.00    -0.069 A 
ATOM     39  C27 9TJ d   1      44.238  -7.286 -13.246  0.00  0.00    -0.076 A 
ATOM     40  H   9TJ d   1      42.794  -8.425 -14.451  0.00  0.00     0.085 H 
ATOM     41  C28 9TJ d   1      44.303  -6.806 -11.933  0.00  0.00    -0.045 A 
ATOM     42  H   9TJ d   1      45.021  -7.138 -13.990  0.00  0.00     0.084 H 
ATOM     43  S29 9TJ d   1      42.891  -7.213 -11.009  0.00  0.00    -0.106 SA
ATOM     44  H   9TJ d   1      45.145  -6.240 -11.535  0.00  0.00     0.095 H 
ENDBRANCH  34  37
ENDBRANCH  31  34
ENDBRANCH   1  30
TORSDOF 10
