REMARK WARNING: 32 MAX_TORS EXCEEDED!!!
REMARK  44 active torsions:
REMARK  status: ('A' for Active; 'I' for Inactive)
REMARK    1  A    between atoms: N_1  and  CA_2 
REMARK    2  A    between atoms: CA_2  and  C_3 
REMARK    3  A    between atoms: CA_2  and  CB_5 
REMARK       I    between atoms: C_3  and  N_8 
REMARK    4  A    between atoms: CB_5  and  CG1_6 
REMARK    5  A    between atoms: CB_5  and  CG2_7 
REMARK    6  A    between atoms: N_8  and  CA_9 
REMARK    7  A    between atoms: CA_9  and  C_10 
REMARK    8  A    between atoms: CA_9  and  CB_12 
REMARK       I    between atoms: C_10  and  N_16 
REMARK    9  A    between atoms: CB_12  and  CG_13 
REMARK   10  A    between atoms: CG_13  and  SD_14 
REMARK   11  A    between atoms: SD_14  and  CE_15 
REMARK   12  A    between atoms: N_16  and  CA_17 
REMARK   13  A    between atoms: CA_17  and  C_18 
REMARK   14  A    between atoms: CA_17  and  CB_20 
REMARK       I    between atoms: C_18  and  N_21 
REMARK   15  A    between atoms: CA_22  and  C_23 
REMARK       I    between atoms: C_23  and  N_28 
REMARK   16  A    between atoms: N_28  and  CA_29 
REMARK   17  A    between atoms: CA_29  and  C_30 
REMARK   18  A    between atoms: CA_29  and  CB_32 
REMARK       I    between atoms: C_30  and  N_39 
REMARK   19  A    between atoms: CB_32  and  CG_33 
REMARK   20  A    between atoms: CG_33  and  CD_34 
REMARK   21  A    between atoms: CD_34  and  NE_35 
REMARK       I    between atoms: NE_35  and  CZ_36 
REMARK       I    between atoms: CZ_36  and  NH1_37 
REMARK   22  A    between atoms: N_39  and  CA_40 
REMARK   23  A    between atoms: CA_40  and  C_41 
REMARK   24  A    between atoms: CA_40  and  CB_43 
REMARK       I    between atoms: C_41  and  N_46 
REMARK   25  A    between atoms: CB_43  and  OG1_44 
REMARK   26  A    between atoms: CB_43  and  CG2_45 
REMARK   27  A    between atoms: N_46  and  CA_47 
REMARK   28  A    between atoms: CA_47  and  C_48 
REMARK   29  A    between atoms: CA_47  and  CB_50 
REMARK       I    between atoms: C_48  and  N_54 
REMARK   30  A    between atoms: CB_50  and  CG_51 
REMARK   31  A    between atoms: CG_51  and  CD1_52 
REMARK   32  A    between atoms: CG_51  and  CD2_53 
REMARK   33  A    between atoms: N_54  and  CA_55 
REMARK   34  A    between atoms: CA_55  and  C_56 
REMARK   35  A    between atoms: CA_55  and  CB_58 
REMARK       I    between atoms: C_56  and  N_62 
REMARK   36  A    between atoms: CB_58  and  CG1_59 
REMARK   37  A    between atoms: CB_58  and  CG2_60 
REMARK   38  A    between atoms: CG1_59  and  CD1_61 
REMARK   39  A    between atoms: N_62  and  CA_63 
REMARK   40  A    between atoms: CA_63  and  C_64 
REMARK   41  A    between atoms: CA_63  and  CB_66 
REMARK   42  A    between atoms: CB_66  and  CG_67 
REMARK   43  A    between atoms: CG_67  and  CD1_68 
REMARK   44  A    between atoms: CG_67  and  CD2_69 
ROOT
ATOM      1  CA  ARG d   1      98.902  66.091 230.927  0.00  0.00     0.089 C 
ATOM      2  H34 ARG d   1      98.085  66.667 231.386  0.00  0.00     0.087 H 
ENDROOT
BRANCH   1   3
ATOM      3  N   ARG d   1      98.463  65.615 229.610  0.00  0.00    -0.346 N 
ATOM      4  C   PRO d   1      97.244  65.842 229.089  0.00  0.00     0.241 C 
ATOM      5  O   PRO d   1      96.366  66.467 229.681  0.00  0.00    -0.271 OA
ATOM      6  H33 ARG d   1      99.113  65.087 229.064  0.00  0.00     0.163 HD
BRANCH   4   7
ATOM      7  CA  PRO d   1      96.969  65.289 227.693  0.00  0.00     0.091 C 
ATOM      8  N   PRO d   1      98.179  65.077 226.881  0.00  0.00    -0.337 N 
ATOM      9  C   ALA d   1      98.839  66.138 226.378  0.00  0.00     0.243 C 
ATOM     10  CD  PRO d   1      98.484  63.640 226.716  0.00  0.00    -0.001 C 
ATOM     11  O   ALA d   1      98.448  67.288 226.570  0.00  0.00    -0.271 OA
ATOM     12  CG  PRO d   1      97.471  62.962 227.579  0.00  0.00    -0.048 C 
ATOM     13  H31 PRO d   1      99.505  63.414 227.058  0.00  0.00     0.064 H 
ATOM     14  H32 PRO d   1      98.373  63.333 225.666  0.00  0.00     0.064 H 
ATOM     15  CB  PRO d   1      96.332  63.907 227.736  0.00  0.00    -0.036 C 
ATOM     16  H29 PRO d   1      97.128  62.033 227.100  0.00  0.00     0.035 H 
ATOM     17  H30 PRO d   1      97.907  62.729 228.562  0.00  0.00     0.035 H 
ATOM     18  H27 PRO d   1      95.611  63.786 226.914  0.00  0.00     0.036 H 
ATOM     19  H28 PRO d   1      95.823  63.744 228.697  0.00  0.00     0.036 H 
ATOM     20  H26 PRO d   1      96.300  65.994 227.178  0.00  0.00     0.087 H 
BRANCH   9  21
ATOM     21  CA  ALA d   1     100.066  65.881 225.482  0.00  0.00     0.086 C 
ATOM     22  H22 ALA d   1     100.060  64.817 225.203  0.00  0.00     0.086 H 
BRANCH  21  23
ATOM     23  N   ALA d   1     100.031  66.671 224.239  0.00  0.00    -0.346 N 
ATOM     24  C   MET d   1      98.965  66.718 223.403  0.00  0.00     0.241 C 
ATOM     25  O   MET d   1      97.920  66.084 223.597  0.00  0.00    -0.271 OA
ATOM     26  H21 ALA d   1     100.842  67.204 223.998  0.00  0.00     0.163 HD
BRANCH  24  27
ATOM     27  CA  MET d   1      99.100  67.572 222.143  0.00  0.00     0.090 C 
ATOM     28  H13 MET d   1     100.133  67.484 221.775  0.00  0.00     0.087 H 
BRANCH  27  29
ATOM     29  N   MET d   1      98.200  67.056 221.116  0.00  0.00    -0.346 N 
ATOM     30  C   VAL d   1      98.424  65.886 220.482  0.00  0.00     0.249 C 
ATOM     31  O   VAL d   1      99.414  65.187 220.691  0.00  0.00    -0.271 OA
ATOM     32  H12 MET d   1      97.389  67.588 220.874  0.00  0.00     0.163 HD
BRANCH  30  33
ATOM     33  CA  VAL d   1      97.381  65.428 219.474  0.00  0.00     0.178 C 
ATOM     34  H4  VAL d   1      96.847  66.325 219.128  0.00  0.00     0.099 H 
BRANCH  33  35
ATOM     35  N   VAL d   1      98.008  64.832 218.297  0.00  0.00    -0.066 N 
ATOM     36  H1  VAL d   1      98.681  65.477 217.912  0.00  0.00     0.275 HD
ATOM     37  H2  VAL d   1      97.302  64.630 217.606  0.00  0.00     0.275 HD
ATOM     38  H3  VAL d   1      98.474  63.978 218.561  0.00  0.00     0.275 HD
ENDBRANCH  33  35
BRANCH  33  39
ATOM     39  CB  VAL d   1      96.326  64.510 220.141  0.00  0.00    -0.025 C 
ATOM     40  H5  VAL d   1      96.047  64.972 221.100  0.00  0.00     0.042 H 
BRANCH  39  41
ATOM     41  CG1 VAL d   1      95.062  64.412 219.297  0.00  0.00    -0.071 C 
ATOM     42  H6  VAL d   1      94.336  63.755 219.798  0.00  0.00     0.028 H 
ATOM     43  H7  VAL d   1      95.312  63.997 218.310  0.00  0.00     0.028 H 
ATOM     44  H8  VAL d   1      94.625  65.414 219.174  0.00  0.00     0.028 H 
ENDBRANCH  39  41
BRANCH  39  45
ATOM     45  CG2 VAL d   1      96.895  63.127 220.450  0.00  0.00    -0.071 C 
ATOM     46  H9  VAL d   1      97.805  63.233 221.059  0.00  0.00     0.028 H 
ATOM     47  H10 VAL d   1      97.141  62.613 219.509  0.00  0.00     0.028 H 
ATOM     48  H11 VAL d   1      96.149  62.539 221.004  0.00  0.00     0.028 H 
ENDBRANCH  39  45
ENDBRANCH  33  39
ENDBRANCH  30  33
ENDBRANCH  27  29
BRANCH  27  49
ATOM     49  CB  MET d   1      98.827  69.064 222.435  0.00  0.00    -0.030 C 
ATOM     50  H14 MET d   1      98.850  69.611 221.481  0.00  0.00     0.037 H 
ATOM     51  H15 MET d   1      99.627  69.438 223.091  0.00  0.00     0.037 H 
BRANCH  49  52
ATOM     52  CG  MET d   1      97.489  69.339 223.110  0.00  0.00    -0.021 C 
ATOM     53  H16 MET d   1      97.264  68.507 223.794  0.00  0.00     0.049 H 
ATOM     54  H17 MET d   1      96.711  69.398 222.335  0.00  0.00     0.049 H 
BRANCH  52  55
ATOM     55  SD  MET d   1      97.479  70.883 224.056  0.00  0.00    -0.173 SA
BRANCH  55  56
ATOM     56  CE  MET d   1      98.324  70.372 225.517  0.00  0.00    -0.035 C 
ATOM     57  H18 MET d   1      98.401  71.221 226.212  0.00  0.00     0.041 H 
ATOM     58  H19 MET d   1      99.333  70.021 225.254  0.00  0.00     0.041 H 
ATOM     59  H20 MET d   1      97.765  69.555 225.997  0.00  0.00     0.041 H 
ENDBRANCH  55  56
ENDBRANCH  52  55
ENDBRANCH  49  52
ENDBRANCH  27  49
ENDBRANCH  24  27
ENDBRANCH  21  23
BRANCH  21  60
ATOM     60  CB  ALA d   1     101.345  66.162 226.249  0.00  0.00    -0.049 C 
ATOM     61  H23 ALA d   1     101.357  65.566 227.173  0.00  0.00     0.030 H 
ATOM     62  H24 ALA d   1     101.394  67.231 226.502  0.00  0.00     0.030 H 
ATOM     63  H25 ALA d   1     102.212  65.892 225.628  0.00  0.00     0.030 H 
ENDBRANCH  21  60
ENDBRANCH   9  21
ENDBRANCH   4   7
ENDBRANCH   1   3
BRANCH   1  64
ATOM     64  C   ARG d   1     100.135  67.009 230.778  0.00  0.00     0.241 C 
ATOM     65  O   ARG d   1     100.730  67.067 229.699  0.00  0.00    -0.271 OA
ATOM     66  N   THR d   1     100.493  67.739 231.853  0.00  0.00    -0.344 N 
ATOM     67  H46 THR d   1      99.927  67.672 232.674  0.00  0.00     0.163 HD
BRANCH  66  68
ATOM     68  CA  THR d   1     101.660  68.625 231.894  0.00  0.00     0.113 C 
ATOM     69  H47 THR d   1     102.405  68.214 231.197  0.00  0.00     0.091 H 
BRANCH  68  70
ATOM     70  C   THR d   1     102.306  68.596 233.294  0.00  0.00     0.243 C 
ATOM     71  O   THR d   1     101.831  67.864 234.165  0.00  0.00    -0.271 OA
ATOM     72  N   LEU d   1     103.388  69.368 233.505  0.00  0.00    -0.346 N 
ATOM     73  H53 LEU d   1     103.736  69.937 232.760  0.00  0.00     0.163 HD
BRANCH  72  74
ATOM     74  CA  LEU d   1     104.065  69.392 234.801  0.00  0.00     0.089 C 
ATOM     75  H54 LEU d   1     103.809  68.458 235.322  0.00  0.00     0.087 H 
BRANCH  74  76
ATOM     76  C   LEU d   1     103.622  70.550 235.684  0.00  0.00     0.241 C 
ATOM     77  O   LEU d   1     103.669  71.703 235.251  0.00  0.00    -0.271 OA
ATOM     78  N   ILE d   1     103.217  70.252 236.934  0.00  0.00    -0.346 N 
ATOM     79  H64 ILE d   1     103.128  69.292 237.200  0.00  0.00     0.163 HD
BRANCH  78  80
ATOM     80  CA  ILE d   1     102.904  71.294 237.913  0.00  0.00     0.092 C 
ATOM     81  H65 ILE d   1     102.594  72.200 237.371  0.00  0.00     0.088 H 
BRANCH  80  82
ATOM     82  C   ILE d   1     104.213  71.581 238.630  0.00  0.00     0.241 C 
ATOM     83  O   ILE d   1     104.605  70.846 239.548  0.00  0.00    -0.271 OA
ATOM     84  N   LEU d   1     104.943  72.582 238.123  0.00  0.00    -0.345 N 
ATOM     85  H75 LEU d   1     104.575  73.083 237.340  0.00  0.00     0.163 HD
BRANCH  84  86
ATOM     86  CA  LEU d   1     106.244  72.986 238.645  0.00  0.00     0.096 C 
ATOM     87  H76 LEU d   1     106.884  72.093 238.700  0.00  0.00     0.089 H 
BRANCH  86  88
ATOM     88  C   LEU d   1     106.123  73.572 240.051  0.00  0.00     0.196 C 
ATOM     89  O   LEU d   1     106.991  73.262 240.897  0.00  0.00    -0.646 OA
ATOM     90  OXT LEU d   1     105.135  74.298 240.315  0.00  0.00    -0.646 OA
ENDBRANCH  86  88
BRANCH  86  91
ATOM     91  CB  LEU d   1     106.904  73.998 237.698  0.00  0.00    -0.034 C 
ATOM     92  H77 LEU d   1     107.909  74.218 238.087  0.00  0.00     0.037 H 
ATOM     93  H78 LEU d   1     106.297  74.916 237.710  0.00  0.00     0.037 H 
BRANCH  91  94
ATOM     94  CG  LEU d   1     107.052  73.557 236.249  0.00  0.00    -0.059 C 
ATOM     95  H79 LEU d   1     106.145  72.998 235.974  0.00  0.00     0.038 H 
BRANCH  94  96
ATOM     96  CD1 LEU d   1     107.155  74.750 235.332  0.00  0.00    -0.073 C 
ATOM     97  H80 LEU d   1     107.261  74.406 234.293  0.00  0.00     0.028 H 
ATOM     98  H81 LEU d   1     108.033  75.352 235.610  0.00  0.00     0.028 H 
ATOM     99  H82 LEU d   1     106.246  75.363 235.424  0.00  0.00     0.028 H 
ENDBRANCH  94  96
BRANCH  94 100
ATOM    100  CD2 LEU d   1     108.239  72.629 236.069  0.00  0.00    -0.073 C 
ATOM    101  H83 LEU d   1     108.139  71.769 236.748  0.00  0.00     0.028 H 
ATOM    102  H84 LEU d   1     109.167  73.172 236.300  0.00  0.00     0.028 H 
ATOM    103  H85 LEU d   1     108.271  72.273 235.029  0.00  0.00     0.028 H 
ENDBRANCH  94 100
ENDBRANCH  91  94
ENDBRANCH  86  91
ENDBRANCH  84  86
ENDBRANCH  80  82
BRANCH  80 104
ATOM    104  CB  ILE d   1     101.740  70.925 238.884  0.00  0.00    -0.030 C 
ATOM    105  H66 ILE d   1     101.999  69.973 239.370  0.00  0.00     0.043 H 
BRANCH 104 106
ATOM    106  CG1 ILE d   1     100.431  70.725 238.120  0.00  0.00    -0.063 C 
ATOM    107  H67 ILE d   1     100.615  70.910 237.051  0.00  0.00     0.033 H 
ATOM    108  H68 ILE d   1      99.691  71.447 238.495  0.00  0.00     0.033 H 
BRANCH 106 109
ATOM    109  CD1 ILE d   1      99.902  69.410 238.271  0.00  0.00    -0.076 C 
ATOM    110  H72 ILE d   1      98.964  69.325 237.702  0.00  0.00     0.027 H 
ATOM    111  H73 ILE d   1      99.704  69.214 239.335  0.00  0.00     0.027 H 
ATOM    112  H74 ILE d   1     100.629  68.677 237.892  0.00  0.00     0.027 H 
ENDBRANCH 106 109
ENDBRANCH 104 106
BRANCH 104 113
ATOM    113  CG2 ILE d   1     101.559  71.985 239.988  0.00  0.00    -0.071 C 
ATOM    114  H69 ILE d   1     102.508  72.118 240.528  0.00  0.00     0.028 H 
ATOM    115  H70 ILE d   1     100.781  71.653 240.691  0.00  0.00     0.028 H 
ATOM    116  H71 ILE d   1     101.259  72.941 239.533  0.00  0.00     0.028 H 
ENDBRANCH 104 113
ENDBRANCH  80 104
ENDBRANCH  78  80
ENDBRANCH  74  76
BRANCH  74 117
ATOM    117  CB  LEU d   1     105.592  69.438 234.627  0.00  0.00    -0.035 C 
ATOM    118  H55 LEU d   1     106.027  69.665 235.611  0.00  0.00     0.037 H 
ATOM    119  H56 LEU d   1     105.818  70.257 233.928  0.00  0.00     0.037 H 
BRANCH 117 120
ATOM    120  CG  LEU d   1     106.286  68.190 234.102  0.00  0.00    -0.059 C 
ATOM    121  H57 LEU d   1     106.028  68.070 233.039  0.00  0.00     0.038 H 
BRANCH 120 122
ATOM    122  CD1 LEU d   1     107.777  68.328 234.229  0.00  0.00    -0.073 C 
ATOM    123  H58 LEU d   1     108.263  67.419 233.846  0.00  0.00     0.028 H 
ATOM    124  H59 LEU d   1     108.043  68.468 235.287  0.00  0.00     0.028 H 
ATOM    125  H60 LEU d   1     108.116  69.198 233.647  0.00  0.00     0.028 H 
ENDBRANCH 120 122
BRANCH 120 126
ATOM    126  CD2 LEU d   1     105.846  66.959 234.847  0.00  0.00    -0.073 C 
ATOM    127  H61 LEU d   1     104.755  66.848 234.760  0.00  0.00     0.028 H 
ATOM    128  H62 LEU d   1     106.122  67.054 235.908  0.00  0.00     0.028 H 
ATOM    129  H63 LEU d   1     106.339  66.075 234.418  0.00  0.00     0.028 H 
ENDBRANCH 120 126
ENDBRANCH 117 120
ENDBRANCH  74 117
ENDBRANCH  72  74
ENDBRANCH  68  70
BRANCH  68 130
ATOM    130  CB  THR d   1     101.310  70.034 231.374  0.00  0.00     0.060 C 
ATOM    131  H48 THR d   1     100.702  69.921 230.464  0.00  0.00     0.086 H 
BRANCH 130 132
ATOM    132  OG1 THR d   1     102.519  70.706 231.033  0.00  0.00    -0.393 OA
ATOM    133  H49 THR d   1     102.316  71.576 230.711  0.00  0.00     0.210 HD
ENDBRANCH 130 132
BRANCH 130 134
ATOM    134  CG2 THR d   1     100.499  70.864 232.377  0.00  0.00    -0.050 C 
ATOM    135  H50 THR d   1     100.284  71.853 231.946  0.00  0.00     0.031 H 
ATOM    136  H51 THR d   1     101.078  70.987 233.304  0.00  0.00     0.031 H 
ATOM    137  H52 THR d   1      99.553  70.348 232.600  0.00  0.00     0.031 H 
ENDBRANCH 130 134
ENDBRANCH  68 130
ENDBRANCH  66  68
ENDBRANCH   1  64
BRANCH   1 138
ATOM    138  CB  ARG d   1      99.237  64.897 231.837  0.00  0.00    -0.036 C 
ATOM    139  H35 ARG d   1     100.304  64.659 231.716  0.00  0.00     0.036 H 
ATOM    140  H36 ARG d   1      98.630  64.037 231.517  0.00  0.00     0.036 H 
BRANCH 138 141
ATOM    141  CG  ARG d   1      98.967  65.150 233.315  0.00  0.00    -0.048 C 
ATOM    142  H37 ARG d   1      97.883  65.255 233.468  0.00  0.00     0.035 H 
ATOM    143  H38 ARG d   1      99.472  66.079 233.617  0.00  0.00     0.035 H 
BRANCH 141 144
ATOM    144  CD  ARG d   1      99.479  64.007 234.177  0.00  0.00     0.009 C 
ATOM    145  H39 ARG d   1     100.459  64.285 234.591  0.00  0.00     0.064 H 
ATOM    146  H40 ARG d   1      99.587  63.109 233.550  0.00  0.00     0.064 H 
BRANCH 144 147
ATOM    147  NE  ARG d   1      98.567  63.707 235.280  0.00  0.00    -0.227 N 
ATOM    148  CZ  ARG d   1      98.640  64.271 236.480  0.00  0.00     0.665 C 
ATOM    149  NH1 ARG d   1      99.578  65.170 236.744  0.00  0.00    -0.235 N 
ATOM    150  NH2 ARG d   1      97.769  63.950 237.421  0.00  0.00    -0.235 N 
ATOM    151  H42 ARG d   1      99.628  65.603 237.677  0.00  0.00     0.174 HD
ATOM    152  H43 ARG d   1     100.257  65.435 236.016  0.00  0.00     0.174 HD
ATOM    153  H44 ARG d   1      97.036  63.253 237.228  0.00  0.00     0.174 HD
ATOM    154  H45 ARG d   1      97.824  64.397 238.347  0.00  0.00     0.174 HD
ATOM    155  H41 ARG d   1      97.822  63.015 235.116  0.00  0.00     0.177 HD
ENDBRANCH 144 147
ENDBRANCH 141 144
ENDBRANCH 138 141
ENDBRANCH   1 138
TORSDOF 44
