REMARK WARNING: 32 MAX_TORS EXCEEDED!!!
REMARK  43 active torsions:
REMARK  status: ('A' for Active; 'I' for Inactive)
REMARK    1  A    between atoms: N_1  and  CA_2 
REMARK    2  A    between atoms: CA_2  and  C_3 
REMARK    3  A    between atoms: CA_2  and  CB_5 
REMARK       I    between atoms: C_3  and  N_8 
REMARK    4  A    between atoms: CB_5  and  CG1_6 
REMARK    5  A    between atoms: CB_5  and  CG2_7 
REMARK    6  A    between atoms: N_8  and  CA_9 
REMARK    7  A    between atoms: CA_9  and  C_10 
REMARK    8  A    between atoms: CA_9  and  CB_12 
REMARK       I    between atoms: C_10  and  N_16 
REMARK    9  A    between atoms: CB_12  and  CG_13 
REMARK   10  A    between atoms: CG_13  and  SD_14 
REMARK   11  A    between atoms: SD_14  and  CE_15 
REMARK   12  A    between atoms: N_16  and  CA_17 
REMARK   13  A    between atoms: CA_17  and  C_18 
REMARK   14  A    between atoms: CA_17  and  CB_20 
REMARK       I    between atoms: C_18  and  N_21 
REMARK   15  A    between atoms: CA_22  and  C_23 
REMARK       I    between atoms: C_23  and  N_28 
REMARK   16  A    between atoms: N_28  and  CA_29 
REMARK   17  A    between atoms: CA_29  and  C_30 
REMARK   18  A    between atoms: CA_29  and  CB_32 
REMARK       I    between atoms: C_30  and  N_39 
REMARK   19  A    between atoms: CB_32  and  CG_33 
REMARK   20  A    between atoms: CG_33  and  CD_34 
REMARK   21  A    between atoms: CD_34  and  NE_35 
REMARK       I    between atoms: NE_35  and  CZ_36 
REMARK       I    between atoms: CZ_36  and  NH1_37 
REMARK   22  A    between atoms: N_39  and  CA_40 
REMARK   23  A    between atoms: CA_40  and  C_41 
REMARK   24  A    between atoms: CA_40  and  CB_43 
REMARK       I    between atoms: C_41  and  N_46 
REMARK   25  A    between atoms: CB_43  and  OG1_44 
REMARK   26  A    between atoms: CB_43  and  CG2_45 
REMARK   27  A    between atoms: N_46  and  CA_47 
REMARK   28  A    between atoms: CA_47  and  C_48 
REMARK   29  A    between atoms: CA_47  and  CB_50 
REMARK       I    between atoms: C_48  and  N_54 
REMARK   30  A    between atoms: CB_50  and  CG_51 
REMARK   31  A    between atoms: CG_51  and  CD1_52 
REMARK   32  A    between atoms: CG_51  and  CD2_53 
REMARK   33  A    between atoms: N_54  and  CA_55 
REMARK   34  A    between atoms: CA_55  and  C_56 
REMARK   35  A    between atoms: CA_55  and  CB_58 
REMARK       I    between atoms: C_56  and  N_61 
REMARK   36  A    between atoms: CB_58  and  CG1_59 
REMARK   37  A    between atoms: CB_58  and  CG2_60 
REMARK   38  A    between atoms: N_61  and  CA_62 
REMARK   39  A    between atoms: CA_62  and  C_63 
REMARK   40  A    between atoms: CA_62  and  CB_65 
REMARK   41  A    between atoms: CB_65  and  CG_66 
REMARK   42  A    between atoms: CG_66  and  CD1_67 
REMARK   43  A    between atoms: CG_66  and  CD2_68 
ROOT
ATOM      1  CA  ARG d   1      82.099 291.175  45.654  0.00  0.00     0.089 C 
ATOM      2  H34 ARG d   1      82.823 291.882  45.222  0.00  0.00     0.087 H 
ENDROOT
BRANCH   1   3
ATOM      3  N   ARG d   1      82.546 290.800  46.982  0.00  0.00    -0.346 N 
ATOM      4  C   PRO d   1      83.773 291.035  47.470  0.00  0.00     0.241 C 
ATOM      5  O   PRO d   1      84.664 291.589  46.825  0.00  0.00    -0.271 OA
ATOM      6  H33 ARG d   1      81.892 290.332  47.577  0.00  0.00     0.163 HD
BRANCH   4   7
ATOM      7  CA  PRO d   1      84.060 290.536  48.883  0.00  0.00     0.091 C 
ATOM      8  N   PRO d   1      82.865 290.215  49.703  0.00  0.00    -0.337 N 
ATOM      9  C   ALA d   1      82.048 291.202  50.144  0.00  0.00     0.243 C 
ATOM     10  CD  PRO d   1      82.748 288.762  49.947  0.00  0.00    -0.001 C 
ATOM     11  O   ALA d   1      82.256 292.391  49.894  0.00  0.00    -0.271 OA
ATOM     12  CG  PRO d   1      83.698 288.177  48.962  0.00  0.00    -0.048 C 
ATOM     13  H31 PRO d   1      81.722 288.412  49.762  0.00  0.00     0.064 H 
ATOM     14  H32 PRO d   1      83.041 288.510  50.977  0.00  0.00     0.064 H 
ATOM     15  CB  PRO d   1      84.798 289.206  48.823  0.00  0.00    -0.036 C 
ATOM     16  H29 PRO d   1      84.104 287.225  49.334  0.00  0.00     0.035 H 
ATOM     17  H30 PRO d   1      83.200 288.010  47.996  0.00  0.00     0.035 H 
ATOM     18  H27 PRO d   1      85.521 289.121  49.648  0.00  0.00     0.036 H 
ATOM     19  H28 PRO d   1      85.323 289.092  47.863  0.00  0.00     0.036 H 
ATOM     20  H26 PRO d   1      84.667 291.295  49.399  0.00  0.00     0.087 H 
BRANCH   9  21
ATOM     21  CA  ALA d   1      80.864 290.806  51.038  0.00  0.00     0.086 C 
ATOM     22  H22 ALA d   1      80.936 289.728  51.247  0.00  0.00     0.086 H 
BRANCH  21  23
ATOM     23  N   ALA d   1      80.909 291.524  52.311  0.00  0.00    -0.346 N 
ATOM     24  C   MET d   1      81.917 291.407  53.195  0.00  0.00     0.241 C 
ATOM     25  O   MET d   1      82.896 290.672  53.015  0.00  0.00    -0.271 OA
ATOM     26  H21 ALA d   1      80.150 292.135  52.537  0.00  0.00     0.163 HD
BRANCH  24  27
ATOM     27  CA  MET d   1      81.823 292.239  54.479  0.00  0.00     0.090 C 
ATOM     28  H13 MET d   1      80.814 292.110  54.897  0.00  0.00     0.087 H 
BRANCH  27  29
ATOM     29  N   MET d   1      82.790 291.733  55.460  0.00  0.00    -0.346 N 
ATOM     30  C   VAL d   1      82.571 290.601  56.147  0.00  0.00     0.249 C 
ATOM     31  O   VAL d   1      81.535 289.945  56.033  0.00  0.00    -0.271 OA
ATOM     32  H12 MET d   1      83.634 292.245  55.621  0.00  0.00     0.163 HD
BRANCH  30  33
ATOM     33  CA  VAL d   1      83.659 290.121  57.115  0.00  0.00     0.178 C 
ATOM     34  H4  VAL d   1      84.190 291.013  57.479  0.00  0.00     0.099 H 
BRANCH  33  35
ATOM     35  N   VAL d   1      83.045 289.483  58.279  0.00  0.00    -0.066 N 
ATOM     36  H1  VAL d   1      82.371 290.110  58.689  0.00  0.00     0.275 HD
ATOM     37  H2  VAL d   1      83.758 289.265  58.958  0.00  0.00     0.275 HD
ATOM     38  H3  VAL d   1      82.583 288.634  57.992  0.00  0.00     0.275 HD
ENDBRANCH  33  35
BRANCH  33  39
ATOM     39  CB  VAL d   1      84.723 289.227  56.405  0.00  0.00    -0.025 C 
ATOM     40  H5  VAL d   1      85.062 289.768  55.509  0.00  0.00     0.042 H 
BRANCH  39  41
ATOM     41  CG1 VAL d   1      85.934 288.991  57.288  0.00  0.00    -0.071 C 
ATOM     42  H6  VAL d   1      86.659 288.359  56.755  0.00  0.00     0.028 H 
ATOM     43  H7  VAL d   1      85.620 288.487  58.214  0.00  0.00     0.028 H 
ATOM     44  H8  VAL d   1      86.401 289.956  57.535  0.00  0.00     0.028 H 
ENDBRANCH  39  41
BRANCH  39  45
ATOM     45  CG2 VAL d   1      84.140 287.900  55.948  0.00  0.00    -0.071 C 
ATOM     46  H9  VAL d   1      83.264 288.085  55.309  0.00  0.00     0.028 H 
ATOM     47  H10 VAL d   1      83.836 287.311  56.826  0.00  0.00     0.028 H 
ATOM     48  H11 VAL d   1      84.898 287.343  55.378  0.00  0.00     0.028 H 
ENDBRANCH  39  45
ENDBRANCH  33  39
ENDBRANCH  30  33
ENDBRANCH  27  29
BRANCH  27  49
ATOM     49  CB  MET d   1      82.023 293.745  54.197  0.00  0.00    -0.030 C 
ATOM     50  H14 MET d   1      81.942 294.286  55.152  0.00  0.00     0.037 H 
ATOM     51  H15 MET d   1      81.222 294.075  53.519  0.00  0.00     0.037 H 
BRANCH  49  52
ATOM     52  CG  MET d   1      83.361 294.105  53.561  0.00  0.00    -0.021 C 
ATOM     53  H16 MET d   1      83.582 293.372  52.772  0.00  0.00     0.049 H 
ATOM     54  H17 MET d   1      84.141 294.057  54.335  0.00  0.00     0.049 H 
BRANCH  52  55
ATOM     55  SD  MET d   1      83.375 295.760  52.830  0.00  0.00    -0.173 SA
BRANCH  55  56
ATOM     56  CE  MET d   1      82.408 295.499  51.361  0.00  0.00    -0.035 C 
ATOM     57  H18 MET d   1      82.329 296.443  50.801  0.00  0.00     0.041 H 
ATOM     58  H19 MET d   1      81.402 295.154  51.641  0.00  0.00     0.041 H 
ATOM     59  H20 MET d   1      82.895 294.739  50.732  0.00  0.00     0.041 H 
ENDBRANCH  55  56
ENDBRANCH  52  55
ENDBRANCH  49  52
ENDBRANCH  27  49
ENDBRANCH  24  27
ENDBRANCH  21  23
BRANCH  21  60
ATOM     60  CB  ALA d   1      79.546 291.067  50.329  0.00  0.00    -0.049 C 
ATOM     61  H23 ALA d   1      79.529 290.520  49.375  0.00  0.00     0.030 H 
ATOM     62  H24 ALA d   1      79.441 292.145  50.136  0.00  0.00     0.030 H 
ATOM     63  H25 ALA d   1      78.715 290.725  50.963  0.00  0.00     0.030 H 
ENDBRANCH  21  60
ENDBRANCH   9  21
ENDBRANCH   4   7
ENDBRANCH   1   3
BRANCH   1  64
ATOM     64  C   ARG d   1      80.730 291.871  45.742  0.00  0.00     0.241 C 
ATOM     65  O   ARG d   1      79.862 291.447  46.508  0.00  0.00    -0.271 OA
ATOM     66  N   THR d   1      80.560 292.942  44.945  0.00  0.00    -0.344 N 
ATOM     67  H46 THR d   1      81.342 293.218  44.387  0.00  0.00     0.163 HD
BRANCH  66  68
ATOM     68  CA  THR d   1      79.344 293.739  44.817  0.00  0.00     0.113 C 
ATOM     69  H47 THR d   1      78.591 293.307  45.492  0.00  0.00     0.091 H 
BRANCH  68  70
ATOM     70  C   THR d   1      78.791 293.615  43.397  0.00  0.00     0.243 C 
ATOM     71  O   THR d   1      79.189 292.703  42.670  0.00  0.00    -0.271 OA
ATOM     72  N   LEU d   1      77.886 294.520  42.997  0.00  0.00    -0.346 N 
ATOM     73  H53 LEU d   1      77.605 295.237  43.634  0.00  0.00     0.163 HD
BRANCH  72  74
ATOM     74  CA  LEU d   1      77.302 294.492  41.669  0.00  0.00     0.089 C 
ATOM     75  H54 LEU d   1      77.644 293.575  41.166  0.00  0.00     0.087 H 
BRANCH  74  76
ATOM     76  C   LEU d   1      77.710 295.675  40.826  0.00  0.00     0.241 C 
ATOM     77  O   LEU d   1      77.791 296.795  41.331  0.00  0.00    -0.271 OA
ATOM     78  N   VAL d   1      77.941 295.420  39.528  0.00  0.00    -0.346 N 
ATOM     79  H64 VAL d   1      77.931 294.466  39.227  0.00  0.00     0.163 HD
BRANCH  78  80
ATOM     80  CA  VAL d   1      78.206 296.450  38.530  0.00  0.00     0.092 C 
ATOM     81  H65 VAL d   1      78.498 297.381  39.038  0.00  0.00     0.088 H 
BRANCH  80  82
ATOM     82  C   VAL d   1      76.849 296.629  37.870  0.00  0.00     0.241 C 
ATOM     83  O   VAL d   1      76.463 295.854  36.982  0.00  0.00    -0.271 OA
ATOM     84  N   LEU d   1      76.086 297.588  38.395  0.00  0.00    -0.345 N 
ATOM     85  H73 LEU d   1      76.457 298.113  39.161  0.00  0.00     0.163 HD
BRANCH  84  86
ATOM     86  CA  LEU d   1      74.746 297.923  37.926  0.00  0.00     0.096 C 
ATOM     87  H74 LEU d   1      74.185 296.995  37.740  0.00  0.00     0.089 H 
BRANCH  86  88
ATOM     88  C   LEU d   1      74.864 298.715  36.616  0.00  0.00     0.196 C 
ATOM     89  O   LEU d   1      73.862 298.763  35.868  0.00  0.00    -0.646 OA
ATOM     90  OXT LEU d   1      75.954 299.289  36.357  0.00  0.00    -0.646 OA
ENDBRANCH  86  88
BRANCH  86  91
ATOM     91  CB  LEU d   1      73.994 298.760  38.985  0.00  0.00    -0.034 C 
ATOM     92  H75 LEU d   1      72.917 298.616  38.812  0.00  0.00     0.037 H 
ATOM     93  H76 LEU d   1      74.255 299.815  38.815  0.00  0.00     0.037 H 
BRANCH  91  94
ATOM     94  CG  LEU d   1      74.261 298.458  40.451  0.00  0.00    -0.059 C 
ATOM     95  H77 LEU d   1      75.311 298.142  40.542  0.00  0.00     0.038 H 
BRANCH  94  96
ATOM     96  CD1 LEU d   1      74.087 299.694  41.279  0.00  0.00    -0.073 C 
ATOM     97  H78 LEU d   1      74.284 299.458  42.335  0.00  0.00     0.028 H 
ATOM     98  H79 LEU d   1      73.057 300.065  41.172  0.00  0.00     0.028 H 
ATOM     99  H80 LEU d   1      74.793 300.466  40.938  0.00  0.00     0.028 H 
ENDBRANCH  94  96
BRANCH  94 100
ATOM    100  CD2 LEU d   1      73.402 297.318  40.945  0.00  0.00    -0.073 C 
ATOM    101  H81 LEU d   1      73.563 296.435  40.309  0.00  0.00     0.028 H 
ATOM    102  H82 LEU d   1      72.343 297.612  40.903  0.00  0.00     0.028 H 
ATOM    103  H83 LEU d   1      73.675 297.076  41.983  0.00  0.00     0.028 H 
ENDBRANCH  94 100
ENDBRANCH  91  94
ENDBRANCH  86  91
ENDBRANCH  84  86
ENDBRANCH  80  82
BRANCH  80 104
ATOM    104  CB  VAL d   1      79.327 296.108  37.515  0.00  0.00    -0.033 C 
ATOM    105  H66 VAL d   1      79.036 295.194  36.977  0.00  0.00     0.042 H 
BRANCH 104 106
ATOM    106  CG1 VAL d   1      79.502 297.230  36.493  0.00  0.00    -0.071 C 
ATOM    107  H67 VAL d   1      80.302 296.961  35.787  0.00  0.00     0.028 H 
ATOM    108  H68 VAL d   1      79.770 298.161  37.013  0.00  0.00     0.028 H 
ATOM    109  H69 VAL d   1      78.561 297.375  35.943  0.00  0.00     0.028 H 
ENDBRANCH 104 106
BRANCH 104 110
ATOM    110  CG2 VAL d   1      80.640 295.842  38.235  0.00  0.00    -0.071 C 
ATOM    111  H70 VAL d   1      80.499 295.033  38.967  0.00  0.00     0.028 H 
ATOM    112  H71 VAL d   1      80.964 296.755  38.756  0.00  0.00     0.028 H 
ATOM    113  H72 VAL d   1      81.406 295.546  37.503  0.00  0.00     0.028 H 
ENDBRANCH 104 110
ENDBRANCH  80 104
ENDBRANCH  78  80
ENDBRANCH  74  76
BRANCH  74 114
ATOM    114  CB  LEU d   1      75.778 294.463  41.766  0.00  0.00    -0.035 C 
ATOM    115  H55 LEU d   1      75.379 294.726  40.775  0.00  0.00     0.037 H 
ATOM    116  H56 LEU d   1      75.479 295.229  42.496  0.00  0.00     0.037 H 
BRANCH 114 117
ATOM    117  CG  LEU d   1      75.136 293.165  42.183  0.00  0.00    -0.059 C 
ATOM    118  H57 LEU d   1      75.644 292.784  43.081  0.00  0.00     0.038 H 
BRANCH 117 119
ATOM    119  CD1 LEU d   1      73.693 293.377  42.471  0.00  0.00    -0.073 C 
ATOM    120  H58 LEU d   1      73.236 292.424  42.774  0.00  0.00     0.028 H 
ATOM    121  H59 LEU d   1      73.190 293.754  41.568  0.00  0.00     0.028 H 
ATOM    122  H60 LEU d   1      73.585 294.110  43.284  0.00  0.00     0.028 H 
ENDBRANCH 117 119
BRANCH 117 123
ATOM    123  CD2 LEU d   1      75.223 292.162  41.095  0.00  0.00    -0.073 C 
ATOM    124  H61 LEU d   1      76.279 291.976  40.851  0.00  0.00     0.028 H 
ATOM    125  H62 LEU d   1      74.702 292.542  40.204  0.00  0.00     0.028 H 
ATOM    126  H63 LEU d   1      74.752 291.224  41.423  0.00  0.00     0.028 H 
ENDBRANCH 117 123
ENDBRANCH 114 117
ENDBRANCH  74 114
ENDBRANCH  72  74
ENDBRANCH  68  70
BRANCH  68 127
ATOM    127  CB  THR d   1      79.579 295.187  45.288  0.00  0.00     0.060 C 
ATOM    128  H48 THR d   1      79.989 295.143  46.308  0.00  0.00     0.086 H 
BRANCH 127 129
ATOM    129  OG1 THR d   1      78.317 295.855  45.343  0.00  0.00    -0.393 OA
ATOM    130  H49 THR d   1      78.446 296.750  45.632  0.00  0.00     0.210 HD
ENDBRANCH 127 129
BRANCH 127 131
ATOM    131  CG2 THR d   1      80.590 295.971  44.427  0.00  0.00    -0.050 C 
ATOM    132  H50 THR d   1      80.701 296.990  44.828  0.00  0.00     0.031 H 
ATOM    133  H51 THR d   1      80.227 296.022  43.390  0.00  0.00     0.031 H 
ATOM    134  H52 THR d   1      81.564 295.461  44.449  0.00  0.00     0.031 H 
ENDBRANCH 127 131
ENDBRANCH  68 127
ENDBRANCH  66  68
ENDBRANCH   1  64
BRANCH   1 135
ATOM    135  CB  ARG d   1      82.039 289.926  44.755  0.00  0.00    -0.036 C 
ATOM    136  H35 ARG d   1      81.265 289.251  45.149  0.00  0.00     0.036 H 
ATOM    137  H36 ARG d   1      83.017 289.424  44.793  0.00  0.00     0.036 H 
BRANCH 135 138
ATOM    138  CG  ARG d   1      81.714 290.233  43.306  0.00  0.00    -0.048 C 
ATOM    139  H37 ARG d   1      82.575 290.745  42.851  0.00  0.00     0.035 H 
ATOM    140  H38 ARG d   1      80.835 290.894  43.273  0.00  0.00     0.035 H 
BRANCH 138 141
ATOM    141  CD  ARG d   1      81.414 288.989  42.509  0.00  0.00     0.009 C 
ATOM    142  H39 ARG d   1      80.450 289.114  41.995  0.00  0.00     0.064 H 
ATOM    143  H40 ARG d   1      81.357 288.128  43.191  0.00  0.00     0.064 H 
BRANCH 141 144
ATOM    144  NE  ARG d   1      82.458 288.746  41.517  0.00  0.00    -0.227 N 
ATOM    145  CZ  ARG d   1      82.372 289.096  40.242  0.00  0.00     0.665 C 
ATOM    146  NH1 ARG d   1      81.268 289.653  39.772  0.00  0.00    -0.235 N 
ATOM    147  NH2 ARG d   1      83.386 288.859  39.416  0.00  0.00    -0.235 N 
ATOM    148  H42 ARG d   1      81.209 289.922  38.779  0.00  0.00     0.174 HD
ATOM    149  H43 ARG d   1      80.467 289.817  40.398  0.00  0.00     0.174 HD
ATOM    150  H44 ARG d   1      84.250 288.426  39.772  0.00  0.00     0.174 HD
ATOM    151  H45 ARG d   1      83.308 289.109  38.420  0.00  0.00     0.174 HD
ATOM    152  H41 ARG d   1      83.317 288.272  41.829  0.00  0.00     0.177 HD
ENDBRANCH 141 144
ENDBRANCH 138 141
ENDBRANCH 135 138
ENDBRANCH   1 135
TORSDOF 43
