REMARK  7 active torsions:
REMARK  status: ('A' for Active; 'I' for Inactive)
REMARK    1  A    between atoms: N_15  and  C4_2 
REMARK    2  A    between atoms: S_9  and  C3_11 
REMARK    3  A    between atoms: S_9  and  N_15 
REMARK    4  A    between atoms: C3_11  and  C2_12 
REMARK    5  A    between atoms: C2_12  and  C1_13 
REMARK    6  A    between atoms: C1_13  and  C_14 
REMARK    7  A    between atoms: N2_17  and  C9_18 
ROOT
ATOM      1  N   MOL d   1      46.144  -6.193 -16.681  0.00  0.00    -0.285 N 
ATOM      2  H13 MOL d   1      45.160  -6.156 -16.853  0.00  0.00     0.178 HD
ENDROOT
BRANCH   1   3
ATOM      3  C4  MOL d   1      46.997  -6.609 -17.761  0.00  0.00     0.044 A 
ATOM      4  C5  MOL d   1      46.425  -6.570 -19.040  0.00  0.00    -0.056 A 
ATOM      5  C6  MOL d   1      47.175  -6.964 -20.129  0.00  0.00    -0.067 A 
ATOM      6  H1  MOL d   1      45.403  -6.234 -19.172  0.00  0.00     0.087 H 
ATOM      7  C7  MOL d   1      48.495  -7.416 -19.943  0.00  0.00     0.011 A 
ATOM      8  H2  MOL d   1      46.749  -6.926 -21.125  0.00  0.00     0.085 H 
ATOM      9  C8  MOL d   1      49.500  -7.900 -20.848  0.00  0.00     0.034 A 
ATOM     10  C10 MOL d   1      49.054  -7.459 -18.680  0.00  0.00     0.066 A 
ATOM     11  N1  MOL d   1      50.574  -8.187 -20.133  0.00  0.00    -0.184 NA
ATOM     12  H3  MOL d   1      49.396  -8.010 -21.926  0.00  0.00     0.118 H 
ATOM     13  N2  MOL d   1      50.324  -7.924 -18.826  0.00  0.00    -0.274 N 
ATOM     14  C11 MOL d   1      48.297  -7.051 -17.551  0.00  0.00    -0.028 A 
ATOM     15  H14 MOL d   1      48.721  -7.083 -16.554  0.00  0.00     0.090 H 
BRANCH  13  16
ATOM     16  C9  MOL d   1      51.274  -8.123 -17.746  0.00  0.00     0.003 C 
ATOM     17  H15 MOL d   1      50.811  -7.830 -16.792  0.00  0.00     0.059 H 
ATOM     18  H16 MOL d   1      52.167  -7.506 -17.925  0.00  0.00     0.059 H 
ATOM     19  H17 MOL d   1      51.563  -9.183 -17.703  0.00  0.00     0.059 H 
ENDBRANCH  13  16
ENDBRANCH   1   3
BRANCH   1  20
ATOM     20  S   MOL d   1      46.690  -5.763 -15.145  0.00  0.00     0.231 S 
ATOM     21  O1  MOL d   1      47.798  -4.804 -15.186  0.00  0.00    -0.206 OA
ATOM     22  O   MOL d   1      45.552  -5.055 -14.557  0.00  0.00    -0.206 OA
BRANCH  20  23
ATOM     23  C3  MOL d   1      47.139  -7.245 -14.188  0.00  0.00     0.046 C 
ATOM     24  H4  MOL d   1      47.877  -6.961 -13.424  0.00  0.00     0.058 H 
ATOM     25  H5  MOL d   1      47.583  -7.984 -14.870  0.00  0.00     0.058 H 
BRANCH  23  26
ATOM     26  C2  MOL d   1      45.933  -7.881 -13.493  0.00  0.00    -0.052 C 
ATOM     27  H6  MOL d   1      45.135  -8.040 -14.233  0.00  0.00     0.034 H 
ATOM     28  H7  MOL d   1      45.573  -7.203 -12.705  0.00  0.00     0.034 H 
BRANCH  26  29
ATOM     29  C1  MOL d   1      46.308  -9.226 -12.863  0.00  0.00    -0.068 C 
ATOM     30  H8  MOL d   1      47.117  -9.060 -12.137  0.00  0.00     0.032 H 
ATOM     31  H9  MOL d   1      46.661  -9.900 -13.658  0.00  0.00     0.032 H 
BRANCH  29  32
ATOM     32  C   MOL d   1      45.133  -9.893 -12.142  0.00  0.00    -0.076 C 
ATOM     33  H10 MOL d   1      45.462 -10.851 -11.712  0.00  0.00     0.027 H 
ATOM     34  H11 MOL d   1      44.318 -10.074 -12.858  0.00  0.00     0.027 H 
ATOM     35  H12 MOL d   1      44.775  -9.234 -11.338  0.00  0.00     0.027 H 
ENDBRANCH  29  32
ENDBRANCH  26  29
ENDBRANCH  23  26
ENDBRANCH  20  23
ENDBRANCH   1  20
TORSDOF 7
