REMARK  7 active torsions:
REMARK  status: ('A' for Active; 'I' for Inactive)
REMARK    1  A    between atoms: N_15  and  C4_2 
REMARK    2  A    between atoms: S_9  and  C3_11 
REMARK    3  A    between atoms: S_9  and  N_15 
REMARK    4  A    between atoms: C3_11  and  C2_12 
REMARK    5  A    between atoms: C2_12  and  C1_13 
REMARK    6  A    between atoms: C1_13  and  C_14 
REMARK    7  A    between atoms: N2_17  and  C9_18 
ROOT
ATOM      1  N   MOL d   1      46.072  -6.259 -16.699  0.00  0.00    -0.285 N 
ATOM      2  H13 MOL d   1      45.087  -6.266 -16.871  0.00  0.00     0.178 HD
ENDROOT
BRANCH   1   3
ATOM      3  C4  MOL d   1      46.940  -6.658 -17.777  0.00  0.00     0.044 A 
ATOM      4  C5  MOL d   1      46.405  -6.573 -19.066  0.00  0.00    -0.056 A 
ATOM      5  C6  MOL d   1      47.169  -6.953 -20.157  0.00  0.00    -0.067 A 
ATOM      6  H1  MOL d   1      45.394  -6.210 -19.211  0.00  0.00     0.087 H 
ATOM      7  C7  MOL d   1      48.480  -7.427 -19.945  0.00  0.00     0.011 A 
ATOM      8  H2  MOL d   1      46.764  -6.887 -21.160  0.00  0.00     0.085 H 
ATOM      9  C8  MOL d   1      49.511  -7.888 -20.825  0.00  0.00     0.034 A 
ATOM     10  C10 MOL d   1      49.007  -7.509 -18.669  0.00  0.00     0.066 A 
ATOM     11  N1  MOL d   1      50.559  -8.212 -20.085  0.00  0.00    -0.184 NA
ATOM     12  H3  MOL d   1      49.445  -7.959 -21.910  0.00  0.00     0.118 H 
ATOM     13  N2  MOL d   1      50.266  -7.984 -18.784  0.00  0.00    -0.274 N 
ATOM     14  C11 MOL d   1      48.231  -7.123 -17.546  0.00  0.00    -0.028 A 
ATOM     15  H14 MOL d   1      48.631  -7.188 -16.541  0.00  0.00     0.090 H 
BRANCH  13  16
ATOM     16  C9  MOL d   1      51.180  -8.214 -17.681  0.00  0.00     0.003 C 
ATOM     17  H15 MOL d   1      50.687  -7.946 -16.735  0.00  0.00     0.059 H 
ATOM     18  H16 MOL d   1      52.079  -7.594 -17.814  0.00  0.00     0.059 H 
ATOM     19  H17 MOL d   1      51.467  -9.276 -17.658  0.00  0.00     0.059 H 
ENDBRANCH  13  16
ENDBRANCH   1   3
BRANCH   1  20
ATOM     20  S   MOL d   1      46.593  -5.782 -15.171  0.00  0.00     0.231 S 
ATOM     21  O1  MOL d   1      47.710  -4.836 -15.211  0.00  0.00    -0.206 OA
ATOM     22  O   MOL d   1      45.464  -5.080 -14.575  0.00  0.00    -0.206 OA
BRANCH  20  23
ATOM     23  C3  MOL d   1      47.109  -7.215 -14.172  0.00  0.00     0.046 C 
ATOM     24  H4  MOL d   1      47.729  -6.866 -13.333  0.00  0.00     0.058 H 
ATOM     25  H5  MOL d   1      47.695  -7.902 -14.800  0.00  0.00     0.058 H 
BRANCH  23  26
ATOM     26  C2  MOL d   1      45.891  -7.954 -13.623  0.00  0.00    -0.052 C 
ATOM     27  H6  MOL d   1      45.265  -8.297 -14.460  0.00  0.00     0.034 H 
ATOM     28  H7  MOL d   1      45.309  -7.273 -12.985  0.00  0.00     0.034 H 
BRANCH  26  29
ATOM     29  C1  MOL d   1      46.340  -9.160 -12.799  0.00  0.00    -0.068 C 
ATOM     30  H8  MOL d   1      46.962  -8.803 -11.965  0.00  0.00     0.032 H 
ATOM     31  H9  MOL d   1      46.937  -9.822 -13.443  0.00  0.00     0.032 H 
BRANCH  29  32
ATOM     32  C   MOL d   1      45.169  -9.961 -12.227  0.00  0.00    -0.076 C 
ATOM     33  H10 MOL d   1      45.556 -10.812 -11.647  0.00  0.00     0.027 H 
ATOM     34  H11 MOL d   1      44.542 -10.333 -13.051  0.00  0.00     0.027 H 
ATOM     35  H12 MOL d   1      44.567  -9.314 -11.572  0.00  0.00     0.027 H 
ENDBRANCH  29  32
ENDBRANCH  26  29
ENDBRANCH  23  26
ENDBRANCH  20  23
ENDBRANCH   1  20
TORSDOF 7
