REMARK  19 active torsions:
REMARK  status: ('A' for Active; 'I' for Inactive)
REMARK    1  A    between atoms: C2_2  and  N2_9 
REMARK    2  A    between atoms: C3_3  and  O3_10 
REMARK    3  A    between atoms: O4_11  and  C4_4 
REMARK    4  A    between atoms: C5_5  and  C6_6 
REMARK    5  A    between atoms: C6_6  and  O6_13 
REMARK    6  A    between atoms: C7_7  and  C8_8 
REMARK       I    between atoms: N2_9  and  C7_7 
REMARK    7  A    between atoms: C1_15  and  O4_11 
REMARK    8  A    between atoms: N2_23  and  C2_16 
REMARK    9  A    between atoms: C3_17  and  O3_24 
REMARK   10  A    between atoms: C4_18  and  O4_25 
REMARK   11  A    between atoms: C5_19  and  C6_20 
REMARK   12  A    between atoms: C6_20  and  O6_27 
REMARK   13  A    between atoms: C7_21  and  C8_22 
REMARK       I    between atoms: C7_21  and  N2_23 
REMARK   14  A    between atoms: O4_25  and  C1_29 
REMARK   15  A    between atoms: C2_30  and  O2_35 
REMARK   16  A    between atoms: C3_31  and  O3_36 
REMARK   17  A    between atoms: C4_32  and  O4_37 
REMARK   18  A    between atoms: C5_33  and  C6_34 
REMARK   19  A    between atoms: C6_34  and  O6_39 
ROOT
ATOM      1  C1  NAG d   1      46.410  10.901  23.615  0.00  0.00     0.154 C 
ATOM      2  C2  NAG d   1      46.476  11.951  24.712  0.00  0.00     0.087 C 
ATOM      3  C3  NAG d   1      45.290  11.919  25.601  0.00  0.00     0.087 C 
ATOM      4  C4  NAG d   1      43.994  11.911  24.850  0.00  0.00     0.095 C 
ATOM      5  C5  NAG d   1      43.971  10.915  23.690  0.00  0.00     0.089 C 
ATOM      6  O5  NAG d   1      45.150  11.055  22.837  0.00  0.00    -0.349 OA
ATOM      7  H15 NAG d   1      46.412   9.905  24.083  0.00  0.00     0.132 H 
ATOM      8  H16 NAG d   1      46.542  12.949  24.255  0.00  0.00     0.084 H 
ATOM      9  H17 NAG d   1      45.338  11.033  26.251  0.00  0.00     0.090 H 
ATOM     10  H18 NAG d   1      43.826  12.921  24.448  0.00  0.00     0.091 H 
ATOM     11  H19 NAG d   1      43.924   9.892  24.091  0.00  0.00     0.090 H 
ENDROOT
BRANCH   1  12
ATOM     12  O4  NAG d   1      47.554  11.000  22.755  0.00  0.00    -0.348 OA
BRANCH  12  13
ATOM     13  C4  NAG d   1      47.877   9.796  22.056  0.00  0.00     0.095 C 
ATOM     14  C3  NAG d   1      47.265   9.779  20.668  0.00  0.00     0.084 C 
ATOM     15  C2  NAG d   1      47.755   8.641  19.853  0.00  0.00     0.060 C 
ATOM     16  H4  NAG d   1      47.548  10.715  20.164  0.00  0.00     0.090 H 
ATOM     17  C1  NAG d   1      49.270   8.582  19.827  0.00  0.00     0.041 C 
ATOM     18  H3  NAG d   1      47.355   7.706  20.272  0.00  0.00     0.080 H 
ATOM     19  O5  NAG d   1      49.824   8.625  21.196  0.00  0.00    -0.379 OA
ATOM     20  H1  NAG d   1      49.654   9.440  19.256  0.00  0.00     0.077 H 
ATOM     21  H2  NAG d   1      49.586   7.647  19.340  0.00  0.00     0.077 H 
ATOM     22  C5  NAG d   1      49.393   9.781  21.959  0.00  0.00     0.086 C 
ATOM     23  H6  NAG d   1      49.718  10.707  21.461  0.00  0.00     0.090 H 
ATOM     24  H5  NAG d   1      47.519   8.922  22.620  0.00  0.00     0.091 H 
BRANCH  14  25
ATOM     25  O3  NAG d   1      45.824   9.706  20.727  0.00  0.00    -0.391 OA
ATOM     26  H13 NAG d   1      45.489  10.461  21.195  0.00  0.00     0.210 HD
ENDBRANCH  14  25
BRANCH  15  27
ATOM     27  N2  NAG d   1      47.317   8.789  18.432  0.00  0.00    -0.352 N 
ATOM     28  C7  NAG d   1      46.866   7.617  17.704  0.00  0.00     0.214 C 
ATOM     29  O7  NAG d   1      46.840   6.552  18.233  0.00  0.00    -0.274 OA
ATOM     30  H12 NAG d   1      47.334   9.685  17.988  0.00  0.00     0.163 HD
BRANCH  28  31
ATOM     31  C8  NAG d   1      46.428   7.786  16.252  0.00  0.00    -0.003 C 
ATOM     32  H9  NAG d   1      46.118   6.811  15.847  0.00  0.00     0.040 H 
ATOM     33  H10 NAG d   1      47.267   8.179  15.659  0.00  0.00     0.040 H 
ATOM     34  H11 NAG d   1      45.584   8.489  16.203  0.00  0.00     0.040 H 
ENDBRANCH  28  31
ENDBRANCH  15  27
BRANCH  22  35
ATOM     35  C6  NAG d   1      50.093   9.658  23.287  0.00  0.00     0.043 C 
ATOM     36  H7  NAG d   1      49.841  10.513  23.932  0.00  0.00     0.078 H 
ATOM     37  H8  NAG d   1      51.183   9.616  23.142  0.00  0.00     0.078 H 
BRANCH  35  38
ATOM     38  O6  NAG d   1      49.635   8.473  23.854  0.00  0.00    -0.398 OA
ATOM     39  H14 NAG d   1      49.852   7.745  23.283  0.00  0.00     0.209 HD
ENDBRANCH  35  38
ENDBRANCH  22  35
ENDBRANCH  12  13
ENDBRANCH   1  12
BRANCH   2  40
ATOM     40  N2  NAG d   1      47.716  11.672  25.488  0.00  0.00    -0.349 N 
ATOM     41  C7  NAG d   1      48.842  12.600  25.436  0.00  0.00     0.214 C 
ATOM     42  O7  NAG d   1      48.779  13.600  24.783  0.00  0.00    -0.274 OA
ATOM     43  H25 NAG d   1      47.778  10.845  26.047  0.00  0.00     0.163 HD
BRANCH  41  44
ATOM     44  C8  NAG d   1      50.098  12.272  26.227  0.00  0.00    -0.003 C 
ATOM     45  H22 NAG d   1      50.843  13.068  26.079  0.00  0.00     0.040 H 
ATOM     46  H23 NAG d   1      50.511  11.314  25.878  0.00  0.00     0.040 H 
ATOM     47  H24 NAG d   1      49.849  12.197  27.296  0.00  0.00     0.040 H 
ENDBRANCH  41  44
ENDBRANCH   2  40
BRANCH   3  48
ATOM     48  O3  NAG d   1      45.350  13.133  26.388  0.00  0.00    -0.391 OA
ATOM     49  H26 NAG d   1      44.620  13.152  26.996  0.00  0.00     0.210 HD
ENDBRANCH   3  48
BRANCH   5  50
ATOM     50  C6  NAG d   1      42.777  11.190  22.838  0.00  0.00     0.043 C 
ATOM     51  H20 NAG d   1      42.786  12.240  22.511  0.00  0.00     0.078 H 
ATOM     52  H21 NAG d   1      41.858  10.991  23.409  0.00  0.00     0.078 H 
BRANCH  50  53
ATOM     53  O6  NAG d   1      42.836  10.344  21.721  0.00  0.00    -0.398 OA
ATOM     54  H27 NAG d   1      43.633  10.518  21.235  0.00  0.00     0.209 HD
ENDBRANCH  50  53
ENDBRANCH   5  50
BRANCH   4  55
ATOM     55  O4  NAG d   1      42.927  11.570  25.725  0.00  0.00    -0.348 OA
BRANCH  55  56
ATOM     56  C1  NAG d   1      42.406  12.715  26.420  0.00  0.00     0.159 C 
ATOM     57  C2  NAG d   1      40.899  12.487  26.528  0.00  0.00     0.110 C 
ATOM     58  C3  NAG d   1      40.264  13.600  27.348  0.00  0.00     0.092 C 
ATOM     59  H29 NAG d   1      40.448  12.451  25.526  0.00  0.00     0.094 H 
ATOM     60  C4  NAG d   1      40.974  13.763  28.692  0.00  0.00     0.090 C 
ATOM     61  H30 NAG d   1      40.402  14.535  26.785  0.00  0.00     0.091 H 
ATOM     62  C5  NAG d   1      42.506  13.894  28.489  0.00  0.00     0.089 C 
ATOM     63  H31 NAG d   1      40.763  12.890  29.327  0.00  0.00     0.091 H 
ATOM     64  O5  NAG d   1      42.999  12.795  27.675  0.00  0.00    -0.348 OA
ATOM     65  H32 NAG d   1      42.695  14.841  27.963  0.00  0.00     0.090 H 
ATOM     66  H28 NAG d   1      42.611  13.637  25.857  0.00  0.00     0.133 H 
BRANCH  57  67
ATOM     67  O2  NAG d   1      40.696  11.273  27.202  0.00  0.00    -0.388 OA
ATOM     68  H35 NAG d   1      41.087  10.566  26.703  0.00  0.00     0.210 HD
ENDBRANCH  57  67
BRANCH  58  69
ATOM     69  O3  NAG d   1      38.845  13.424  27.535  0.00  0.00    -0.390 OA
ATOM     70  H36 NAG d   1      38.489  14.184  27.980  0.00  0.00     0.210 HD
ENDBRANCH  58  69
BRANCH  60  71
ATOM     71  O4  NAG d   1      40.493  14.932  29.313  0.00  0.00    -0.390 OA
ATOM     72  H37 NAG d   1      40.681  15.682  28.762  0.00  0.00     0.210 HD
ENDBRANCH  60  71
BRANCH  62  73
ATOM     73  C6  NAG d   1      43.303  13.905  29.797  0.00  0.00     0.043 C 
ATOM     74  H33 NAG d   1      43.093  14.835  30.346  0.00  0.00     0.078 H 
ATOM     75  H34 NAG d   1      44.378  13.847  29.572  0.00  0.00     0.078 H 
BRANCH  73  76
ATOM     76  O6  NAG d   1      42.926  12.793  30.589  0.00  0.00    -0.398 OA
ATOM     77  H38 NAG d   1      43.108  11.991  30.114  0.00  0.00     0.209 HD
ENDBRANCH  73  76
ENDBRANCH  62  73
ENDBRANCH  55  56
ENDBRANCH   4  55
TORSDOF 19
