REMARK  10 active torsions:
REMARK  status: ('A' for Active; 'I' for Inactive)
REMARK       I    between atoms: C11_15  and  N_1 
REMARK    1  A    between atoms: C09_12  and  C01_4 
REMARK    2  A    between atoms: C02_5  and  C05_8 
REMARK    3  A    between atoms: C03_6  and  O01_25 
REMARK       I    between atoms: C05_8  and  N03_24 
REMARK    4  A    between atoms: C06_9  and  C1_13 
REMARK    5  A    between atoms: N03_24  and  C06_9 
REMARK    6  A    between atoms: C1_13  and  O11_29 
REMARK    7  A    between atoms: C12_16  and  C11_15 
REMARK    8  A    between atoms: O1_28  and  C12_16 
REMARK    9  A    between atoms: C16_20  and  O1_28 
REMARK   10  A    between atoms: O11_29  and  C18_30 
ROOT
ATOM      1  N   GY5 d   1      24.234 -20.893   9.432  0.00  0.00    -0.339 N 
ATOM      2  O   GY5 d   1      26.474 -21.144   9.678  0.00  0.00    -0.271 OA
ATOM      3  C07 GY5 d   1      22.285 -20.649  10.914  0.00  0.00    -0.048 C 
ATOM      4  C08 GY5 d   1      21.849 -21.174   9.549  0.00  0.00    -0.038 C 
ATOM      5  C09 GY5 d   1      23.019 -20.879   8.569  0.00  0.00     0.072 C 
ATOM      6  C10 GY5 d   1      23.828 -20.533  10.816  0.00  0.00    -0.001 C 
ATOM      7  C11 GY5 d   1      25.573 -21.176   8.910  0.00  0.00     0.244 C 
ATOM      8  H4  GY5 d   1      21.999 -21.352  11.710  0.00  0.00     0.035 H 
ATOM      9  H5  GY5 d   1      21.834 -19.666  11.114  0.00  0.00     0.035 H 
ATOM     10  H6  GY5 d   1      20.936 -20.658   9.217  0.00  0.00     0.036 H 
ATOM     11  H7  GY5 d   1      21.660 -22.256   9.601  0.00  0.00     0.036 H 
ATOM     12  H8  GY5 d   1      23.104 -21.665   7.804  0.00  0.00     0.085 H 
ATOM     13  H11 GY5 d   1      24.139 -19.502  11.039  0.00  0.00     0.064 H 
ATOM     14  H12 GY5 d   1      24.299 -21.221  11.533  0.00  0.00     0.064 H 
ENDROOT
BRANCH   5  15
ATOM     15  C01 GY5 d   1      22.705 -19.519   7.863  0.00  0.00     0.131 A 
ATOM     16  N01 GY5 d   1      23.012 -18.359   8.401  0.00  0.00    -0.225 NA
ATOM     17  C02 GY5 d   1      22.702 -17.142   7.711  0.00  0.00     0.165 A 
ATOM     18  C03 GY5 d   1      22.080 -17.201   6.483  0.00  0.00     0.169 A 
ATOM     19  C04 GY5 d   1      21.722 -18.535   5.854  0.00  0.00     0.282 A 
ATOM     20  N02 GY5 d   1      22.087 -19.662   6.650  0.00  0.00    -0.307 N 
ATOM     21  O02 GY5 d   1      21.173 -18.686   4.792  0.00  0.00    -0.265 OA
ATOM     22  H19 GY5 d   1      21.886 -20.581   6.312  0.00  0.00     0.170 HD
BRANCH  17  23
ATOM     23  C05 GY5 d   1      23.107 -15.826   8.443  0.00  0.00     0.273 C 
ATOM     24  N03 GY5 d   1      23.742 -15.974   9.707  0.00  0.00    -0.353 N 
ATOM     25  H20 GY5 d   1      23.875 -16.909  10.035  0.00  0.00     0.162 HD
ATOM     26  O03 GY5 d   1      22.891 -14.750   7.981  0.00  0.00    -0.266 OA
BRANCH  24  27
ATOM     27  C06 GY5 d   1      24.232 -14.875  10.596  0.00  0.00     0.015 C 
ATOM     28  H2  GY5 d   1      24.418 -13.982   9.981  0.00  0.00     0.067 H 
ATOM     29  H3  GY5 d   1      23.454 -14.652  11.341  0.00  0.00     0.067 H 
BRANCH  27  30
ATOM     30  C1  GY5 d   1      25.575 -15.253  11.362  0.00  0.00     0.034 C 
ATOM     31  H9  GY5 d   1      25.630 -14.668  12.292  0.00  0.00     0.076 H 
ATOM     32  H10 GY5 d   1      26.432 -15.002  10.720  0.00  0.00     0.076 H 
BRANCH  30  33
ATOM     33  O11 GY5 d   1      25.635 -16.653  11.690  0.00  0.00    -0.394 OA
BRANCH  33  34
ATOM     34  C18 GY5 d   1      26.292 -17.491  10.740  0.00  0.00     0.004 C 
ATOM     35  H22 GY5 d   1      26.276 -18.532  11.096  0.00  0.00     0.066 H 
ATOM     36  H23 GY5 d   1      27.334 -17.161  10.619  0.00  0.00     0.066 H 
ATOM     37  H24 GY5 d   1      25.772 -17.426   9.773  0.00  0.00     0.066 H 
ENDBRANCH  33  34
ENDBRANCH  30  33
ENDBRANCH  27  30
ENDBRANCH  24  27
ENDBRANCH  17  23
BRANCH  18  38
ATOM     38  O01 GY5 d   1      21.749 -16.151   5.779  0.00  0.00    -0.354 OA
ATOM     39  H21 GY5 d   1      22.008 -15.364   6.244  0.00  0.00     0.218 HD
ENDBRANCH  18  38
ENDBRANCH   5  15
BRANCH   7  40
ATOM     40  C12 GY5 d   1      25.791 -21.551   7.319  0.00  0.00     0.099 C 
ATOM     41  H13 GY5 d   1      24.823 -21.452   6.806  0.00  0.00     0.089 H 
ATOM     42  H14 GY5 d   1      26.135 -22.594   7.255  0.00  0.00     0.089 H 
BRANCH  40  43
ATOM     43  O1  GY5 d   1      26.751 -20.715   6.640  0.00  0.00    -0.342 OA
BRANCH  43  44
ATOM     44  C16 GY5 d   1      26.448 -19.360   6.486  0.00  0.00     0.069 A 
ATOM     45  C15 GY5 d   1      26.887 -18.373   7.398  0.00  0.00    -0.051 A 
ATOM     46  C14 GY5 d   1      26.577 -17.016   7.235  0.00  0.00    -0.080 A 
ATOM     47  H17 GY5 d   1      27.483 -18.676   8.251  0.00  0.00     0.087 H 
ATOM     48  C13 GY5 d   1      25.815 -16.595   6.153  0.00  0.00    -0.083 A 
ATOM     49  H16 GY5 d   1      26.934 -16.291   7.957  0.00  0.00     0.083 H 
ATOM     50  C   GY5 d   1      25.371 -17.558   5.243  0.00  0.00    -0.080 A 
ATOM     51  H15 GY5 d   1      25.571 -15.547   6.018  0.00  0.00     0.083 H 
ATOM     52  C17 GY5 d   1      25.677 -18.912   5.403  0.00  0.00    -0.051 A 
ATOM     53  H1  GY5 d   1      24.775 -17.247   4.393  0.00  0.00     0.083 H 
ATOM     54  H18 GY5 d   1      25.312 -19.629   4.677  0.00  0.00     0.087 H 
ENDBRANCH  43  44
ENDBRANCH  40  43
ENDBRANCH   7  40
TORSDOF 10
