REMARK WARNING: 32 MAX_TORS EXCEEDED!!!
REMARK  46 active torsions:
REMARK  status: ('A' for Active; 'I' for Inactive)
REMARK    1  A    between atoms: N_1  and  CA_2 
REMARK    2  A    between atoms: CA_2  and  C_3 
REMARK    3  A    between atoms: CA_2  and  CB_5 
REMARK       I    between atoms: C_3  and  N_7 
REMARK    4  A    between atoms: CB_5  and  OG_6 
REMARK    5  A    between atoms: CA_8  and  C_9 
REMARK       I    between atoms: C_9  and  N_14 
REMARK    6  A    between atoms: N_14  and  CA_15 
REMARK    7  A    between atoms: CA_15  and  C_16 
REMARK    8  A    between atoms: CA_15  and  CB_18 
REMARK       I    between atoms: C_16  and  N_25 
REMARK    9  A    between atoms: CB_18  and  CG_19 
REMARK   10  A    between atoms: CG_19  and  CD_20 
REMARK   11  A    between atoms: CD_20  and  NE_21 
REMARK       I    between atoms: NE_21  and  CZ_22 
REMARK       I    between atoms: CZ_22  and  NH1_23 
REMARK       I    between atoms: CZ_22  and  NH2_24 
REMARK   12  A    between atoms: N_25  and  CA_26 
REMARK   13  A    between atoms: CA_26  and  C_27 
REMARK   14  A    between atoms: CA_26  and  CB_29 
REMARK       I    between atoms: C_27  and  N_32 
REMARK   15  A    between atoms: CB_29  and  CG_30 
REMARK   16  A    between atoms: CG_30  and  CD_31 
REMARK   17  A    between atoms: N_32  and  CA_33 
REMARK   18  A    between atoms: CA_33  and  C_34 
REMARK   19  A    between atoms: CA_33  and  CB_36 
REMARK       I    between atoms: C_34  and  N_41 
REMARK   20  A    between atoms: CB_36  and  CG_37 
REMARK   21  A    between atoms: CG_37  and  CD_38 
REMARK   22  A    between atoms: CD_38  and  CE_39 
REMARK   23  A    between atoms: CE_39  and  NZ_40 
REMARK   24  A    between atoms: N_41  and  CA_42 
REMARK   25  A    between atoms: CA_42  and  C_43 
REMARK   26  A    between atoms: CA_42  and  CB_45 
REMARK       I    between atoms: C_43  and  N_52 
REMARK   27  A    between atoms: CB_45  and  CG_46 
REMARK   28  A    between atoms: CG_46  and  CD_47 
REMARK   29  A    between atoms: CD_47  and  NE_48 
REMARK       I    between atoms: NE_48  and  CZ_49 
REMARK       I    between atoms: CZ_49  and  NH1_50 
REMARK       I    between atoms: CZ_49  and  NH2_51 
REMARK   30  A    between atoms: CA_53  and  C_54 
REMARK       I    between atoms: C_54  and  N_59 
REMARK   31  A    between atoms: N_59  and  CA_60 
REMARK   32  A    between atoms: CA_60  and  C_61 
REMARK   33  A    between atoms: CA_60  and  CB_63 
REMARK       I    between atoms: C_61  and  N_70 
REMARK   34  A    between atoms: CB_63  and  CG_64 
REMARK   35  A    between atoms: CG_64  and  CD_65 
REMARK   36  A    between atoms: CD_65  and  NE_66 
REMARK       I    between atoms: NE_66  and  CZ_67 
REMARK       I    between atoms: CZ_67  and  NH1_68 
REMARK   37  A    between atoms: N_70  and  CA_71 
REMARK   38  A    between atoms: CA_71  and  C_72 
REMARK   39  A    between atoms: CA_71  and  CB_74 
REMARK       I    between atoms: C_72  and  N_79 
REMARK   40  A    between atoms: CB_74  and  CG_75 
REMARK   41  A    between atoms: CG_75  and  CD_76 
REMARK       I    between atoms: CD_76  and  NE2_78 
REMARK   42  A    between atoms: N_79  and  CA_80 
REMARK   43  A    between atoms: CA_80  and  C_81 
REMARK   44  A    between atoms: CA_80  and  CB_83 
REMARK   45  A    between atoms: CB_83  and  OG1_84 
REMARK   46  A    between atoms: CB_83  and  CG2_85 
ROOT
ATOM      1  CA  SER d   1      -0.998  39.852   8.015  0.00  0.00     0.089 C 
ATOM      2  H51 SER d   1      -1.556  40.124   7.107  0.00  0.00     0.087 H 
ENDROOT
BRANCH   1   3
ATOM      3  N   SER d   1       0.262  39.197   7.653  0.00  0.00    -0.346 N 
ATOM      4  C   SER d   1       0.477  38.604   6.484  0.00  0.00     0.241 C 
ATOM      5  O   SER d   1      -0.354  38.588   5.574  0.00  0.00    -0.271 OA
ATOM      6  H50 SER d   1       1.003  39.196   8.325  0.00  0.00     0.163 HD
BRANCH   4   7
ATOM      7  CA  SER d   1       1.828  37.904   6.317  0.00  0.00     0.089 C 
ATOM      8  H38 SER d   1       2.196  37.572   7.299  0.00  0.00     0.087 H 
BRANCH   7   9
ATOM      9  N   SER d   1       1.640  36.745   5.449  0.00  0.00    -0.346 N 
ATOM     10  C   SER d   1       2.254  35.575   5.615  0.00  0.00     0.241 C 
ATOM     11  O   SER d   1       2.934  35.301   6.599  0.00  0.00    -0.271 OA
ATOM     12  H37 SER d   1       1.008  36.836   4.679  0.00  0.00     0.163 HD
BRANCH  10  13
ATOM     13  CA  SER d   1       2.046  34.543   4.493  0.00  0.00     0.089 C 
ATOM     14  H29 SER d   1       2.188  33.538   4.917  0.00  0.00     0.087 H 
BRANCH  13  15
ATOM     15  N   SER d   1       0.695  34.632   3.956  0.00  0.00    -0.346 N 
ATOM     16  C   SER d   1      -0.341  34.324   4.722  0.00  0.00     0.241 C 
ATOM     17  O   SER d   1      -0.214  33.785   5.814  0.00  0.00    -0.271 OA
ATOM     18  H28 SER d   1       0.550  34.925   3.011  0.00  0.00     0.163 HD
BRANCH  16  19
ATOM     19  CA  SER d   1      -1.723  34.678   4.201  0.00  0.00     0.089 C 
ATOM     20  H16 SER d   1      -1.694  34.787   3.107  0.00  0.00     0.087 H 
BRANCH  19  21
ATOM     21  N   SER d   1      -2.619  33.617   4.571  0.00  0.00    -0.346 N 
ATOM     22  C   SER d   1      -2.447  32.387   4.126  0.00  0.00     0.241 C 
ATOM     23  O   SER d   1      -1.572  32.080   3.300  0.00  0.00    -0.271 OA
ATOM     24  H15 SER d   1      -3.389  33.815   5.178  0.00  0.00     0.163 HD
BRANCH  22  25
ATOM     25  CA  SER d   1      -3.452  31.382   4.673  0.00  0.00     0.091 C 
ATOM     26  N   SER d   1      -3.589  30.234   3.778  0.00  0.00    -0.337 N 
ATOM     27  C   SER d   1      -4.015  30.455   2.531  0.00  0.00     0.253 C 
ATOM     28  CD  SER d   1      -3.183  28.978   4.430  0.00  0.00    -0.001 C 
ATOM     29  O   SER d   1      -4.269  31.578   2.108  0.00  0.00    -0.271 OA
ATOM     30  CG  SER d   1      -3.306  29.302   5.907  0.00  0.00    -0.048 C 
ATOM     31  H13 SER d   1      -2.148  28.714   4.168  0.00  0.00     0.064 H 
ATOM     32  H14 SER d   1      -3.854  28.153   4.150  0.00  0.00     0.064 H 
ATOM     33  CB  SER d   1      -2.954  30.762   6.000  0.00  0.00    -0.036 C 
ATOM     34  H11 SER d   1      -4.333  29.126   6.260  0.00  0.00     0.035 H 
ATOM     35  H12 SER d   1      -2.606  28.694   6.498  0.00  0.00     0.035 H 
ATOM     36  H9  SER d   1      -3.461  31.227   6.858  0.00  0.00     0.036 H 
ATOM     37  H10 SER d   1      -1.866  30.891   6.103  0.00  0.00     0.036 H 
ATOM     38  H8  SER d   1      -4.422  31.880   4.817  0.00  0.00     0.087 H 
BRANCH  27  39
ATOM     39  CA  SER d   1      -4.215  29.239   1.644  0.00  0.00     0.196 C 
ATOM     40  H4  SER d   1      -4.546  28.402   2.276  0.00  0.00     0.102 H 
BRANCH  39  41
ATOM     41  N   SER d   1      -5.275  29.486   0.639  0.00  0.00    -0.064 N 
ATOM     42  H1  SER d   1      -5.389  28.667   0.063  0.00  0.00     0.275 HD
ATOM     43  H2  SER d   1      -5.014  30.269   0.061  0.00  0.00     0.275 HD
ATOM     44  H3  SER d   1      -6.143  29.690   1.109  0.00  0.00     0.275 HD
ENDBRANCH  39  41
BRANCH  39  45
ATOM     45  CB  SER d   1      -2.870  28.848   1.012  0.00  0.00     0.051 C 
ATOM     46  H5  SER d   1      -3.058  28.189   0.151  0.00  0.00     0.077 H 
ATOM     47  H6  SER d   1      -2.266  28.312   1.759  0.00  0.00     0.077 H 
BRANCH  45  48
ATOM     48  OG  SER d   1      -2.152  29.989   0.571  0.00  0.00    -0.398 OA
ATOM     49  H7  SER d   1      -1.983  30.561   1.311  0.00  0.00     0.209 HD
ENDBRANCH  45  48
ENDBRANCH  39  45
ENDBRANCH  27  39
ENDBRANCH  22  25
ENDBRANCH  19  21
BRANCH  19  50
ATOM     50  CB  SER d   1      -2.214  35.975   4.833  0.00  0.00    -0.036 C 
ATOM     51  H17 SER d   1      -1.546  36.792   4.524  0.00  0.00     0.036 H 
ATOM     52  H18 SER d   1      -2.180  35.868   5.927  0.00  0.00     0.036 H 
BRANCH  50  53
ATOM     53  CG  SER d   1      -3.647  36.328   4.418  0.00  0.00    -0.048 C 
ATOM     54  H19 SER d   1      -4.347  35.688   4.975  0.00  0.00     0.035 H 
ATOM     55  H20 SER d   1      -3.761  36.145   3.339  0.00  0.00     0.035 H 
BRANCH  53  56
ATOM     56  CD  SER d   1      -3.966  37.751   4.701  0.00  0.00     0.009 C 
ATOM     57  H21 SER d   1      -3.943  37.918   5.788  0.00  0.00     0.064 H 
ATOM     58  H22 SER d   1      -4.970  37.981   4.316  0.00  0.00     0.064 H 
BRANCH  56  59
ATOM     59  NE  SER d   1      -2.994  38.626   4.060  0.00  0.00    -0.227 N 
ATOM     60  CZ  SER d   1      -2.926  39.936   4.261  0.00  0.00     0.665 C 
ATOM     61  NH1 SER d   1      -3.791  40.521   5.084  0.00  0.00    -0.235 N 
ATOM     62  NH2 SER d   1      -2.000  40.657   3.637  0.00  0.00    -0.235 N 
ATOM     63  H24 SER d   1      -3.743  41.537   5.244  0.00  0.00     0.174 HD
ATOM     64  H25 SER d   1      -4.509  39.958   5.562  0.00  0.00     0.174 HD
ATOM     65  H26 SER d   1      -1.333  40.198   3.001  0.00  0.00     0.174 HD
ATOM     66  H27 SER d   1      -1.950  41.674   3.790  0.00  0.00     0.174 HD
ATOM     67  H23 SER d   1      -2.317  38.202   3.410  0.00  0.00     0.177 HD
ENDBRANCH  56  59
ENDBRANCH  53  56
ENDBRANCH  50  53
ENDBRANCH  19  50
ENDBRANCH  16  19
ENDBRANCH  13  15
BRANCH  13  68
ATOM     68  CB  SER d   1       3.064  34.744   3.374  0.00  0.00    -0.038 C 
ATOM     69  H30 SER d   1       4.054  34.906   3.825  0.00  0.00     0.036 H 
ATOM     70  H31 SER d   1       2.776  35.632   2.792  0.00  0.00     0.036 H 
BRANCH  68  71
ATOM     71  CG  SER d   1       3.149  33.550   2.429  0.00  0.00    -0.066 C 
ATOM     72  H32 SER d   1       2.136  33.298   2.081  0.00  0.00     0.032 H 
ATOM     73  H33 SER d   1       3.573  32.694   2.974  0.00  0.00     0.032 H 
BRANCH  71  74
ATOM     74  CD  SER d   1       4.028  33.848   1.217  0.00  0.00    -0.076 C 
ATOM     75  H34 SER d   1       4.063  32.964   0.563  0.00  0.00     0.027 H 
ATOM     76  H35 SER d   1       5.046  34.095   1.554  0.00  0.00     0.027 H 
ATOM     77  H36 SER d   1       3.609  34.700   0.661  0.00  0.00     0.027 H 
ENDBRANCH  71  74
ENDBRANCH  68  71
ENDBRANCH  13  68
ENDBRANCH  10  13
ENDBRANCH   7   9
BRANCH   7  78
ATOM     78  CB  SER d   1       2.846  38.881   5.697  0.00  0.00    -0.038 C 
ATOM     79  H39 SER d   1       2.858  39.796   6.308  0.00  0.00     0.036 H 
ATOM     80  H40 SER d   1       2.510  39.125   4.678  0.00  0.00     0.036 H 
BRANCH  78  81
ATOM     81  CG  SER d   1       4.275  38.346   5.612  0.00  0.00    -0.061 C 
ATOM     82  H41 SER d   1       4.265  37.382   5.083  0.00  0.00     0.033 H 
ATOM     83  H42 SER d   1       4.664  38.201   6.631  0.00  0.00     0.033 H 
BRANCH  81  84
ATOM     84  CD  SER d   1       5.182  39.305   4.871  0.00  0.00    -0.043 C 
ATOM     85  H43 SER d   1       5.255  40.242   5.443  0.00  0.00     0.035 H 
ATOM     86  H44 SER d   1       4.750  39.513   3.881  0.00  0.00     0.035 H 
BRANCH  84  87
ATOM     87  CE  SER d   1       6.574  38.729   4.689  0.00  0.00     0.080 C 
ATOM     88  H45 SER d   1       6.485  37.761   4.174  0.00  0.00     0.075 H 
ATOM     89  H46 SER d   1       7.020  38.576   5.683  0.00  0.00     0.075 H 
BRANCH  87  90
ATOM     90  NZ  SER d   1       7.487  39.608   3.891  0.00  0.00    -0.079 N 
ATOM     91  H47 SER d   1       8.390  39.168   3.809  0.00  0.00     0.274 HD
ATOM     92  H48 SER d   1       7.588  40.497   4.355  0.00  0.00     0.274 HD
ATOM     93  H49 SER d   1       7.098  39.751   2.972  0.00  0.00     0.274 HD
ENDBRANCH  87  90
ENDBRANCH  84  87
ENDBRANCH  81  84
ENDBRANCH  78  81
ENDBRANCH   7  78
ENDBRANCH   4   7
ENDBRANCH   1   3
BRANCH   1  94
ATOM     94  C   SER d   1      -0.685  41.076   8.857  0.00  0.00     0.243 C 
ATOM     95  O   SER d   1      -0.064  40.939   9.916  0.00  0.00    -0.271 OA
ATOM     96  N   SER d   1      -1.125  42.263   8.419  0.00  0.00    -0.337 N 
ATOM     97  CA  SER d   1      -1.065  43.398   9.336  0.00  0.00     0.091 C 
ATOM     98  CD  SER d   1      -1.776  42.623   7.144  0.00  0.00    -0.001 C 
ATOM     99  CB  SER d   1      -1.272  44.605   8.408  0.00  0.00    -0.036 C 
ATOM    100  H63 SER d   1      -0.096  43.449   9.853  0.00  0.00     0.087 H 
ATOM    101  CG  SER d   1      -2.127  44.086   7.324  0.00  0.00    -0.048 C 
ATOM    102  H64 SER d   1      -0.310  44.960   8.010  0.00  0.00     0.036 H 
ATOM    103  H65 SER d   1      -1.774  45.426   8.941  0.00  0.00     0.036 H 
ATOM    104  H66 SER d   1      -1.933  44.638   6.393  0.00  0.00     0.035 H 
ATOM    105  H67 SER d   1      -3.188  44.189   7.597  0.00  0.00     0.035 H 
ATOM    106  H68 SER d   1      -2.681  42.019   6.981  0.00  0.00     0.064 H 
ATOM    107  H69 SER d   1      -1.086  42.486   6.298  0.00  0.00     0.064 H 
BRANCH  97 108
ATOM    108  C   SER d   1      -2.200  43.310  10.355  0.00  0.00     0.241 C 
ATOM    109  O   SER d   1      -3.217  42.658  10.106  0.00  0.00    -0.271 OA
ATOM    110  N   SER d   1      -2.012  43.936  11.508  0.00  0.00    -0.346 N 
ATOM    111  H70 SER d   1      -1.103  44.288  11.733  0.00  0.00     0.163 HD
BRANCH 110 112
ATOM    112  CA  SER d   1      -3.100  44.120  12.450  0.00  0.00     0.089 C 
ATOM    113  H71 SER d   1      -3.862  43.344  12.285  0.00  0.00     0.087 H 
BRANCH 112 114
ATOM    114  C   SER d   1      -3.703  45.489  12.178  0.00  0.00     0.241 C 
ATOM    115  O   SER d   1      -3.043  46.524  12.336  0.00  0.00    -0.271 OA
ATOM    116  N   SER d   1      -4.946  45.487  11.726  0.00  0.00    -0.346 N 
ATOM    117  H83 SER d   1      -5.439  44.620  11.650  0.00  0.00     0.163 HD
BRANCH 116 118
ATOM    118  CA  SER d   1      -5.611  46.725  11.336  0.00  0.00     0.090 C 
ATOM    119  H84 SER d   1      -4.840  47.508  11.280  0.00  0.00     0.087 H 
BRANCH 118 120
ATOM    120  C   SER d   1      -6.638  47.186  12.367  0.00  0.00     0.241 C 
ATOM    121  O   SER d   1      -6.973  46.462  13.312  0.00  0.00    -0.271 OA
ATOM    122  N   SER d   1      -7.106  48.411  12.180  0.00  0.00    -0.343 N 
ATOM    123  H91 SER d   1      -6.882  48.883  11.327  0.00  0.00     0.163 HD
BRANCH 122 124
ATOM    124  CA  SER d   1      -7.935  49.105  13.165  0.00  0.00     0.120 C 
ATOM    125  H92 SER d   1      -7.348  49.220  14.088  0.00  0.00     0.093 H 
BRANCH 124 126
ATOM    126  C   SER d   1      -9.214  48.336  13.493  0.00  0.00     0.199 C 
ATOM    127  O   SER d   1      -9.349  47.777  14.585  0.00  0.00    -0.646 OA
ATOM    128  OXT SER d   1     -10.132  48.262  12.671  0.00  0.00    -0.646 OA
ENDBRANCH 124 126
BRANCH 124 129
ATOM    129  CB  SER d   1      -8.327  50.497  12.644  0.00  0.00     0.061 C 
ATOM    130  H93 SER d   1      -8.854  51.042  13.441  0.00  0.00     0.086 H 
BRANCH 129 131
ATOM    131  OG1 SER d   1      -9.200  50.349  11.515  0.00  0.00    -0.393 OA
ATOM    132  H94 SER d   1      -9.980  49.875  11.779  0.00  0.00     0.210 HD
ENDBRANCH 129 131
BRANCH 129 133
ATOM    133  CG2 SER d   1      -7.080  51.299  12.231  0.00  0.00    -0.050 C 
ATOM    134  H95 SER d   1      -7.386  52.289  11.863  0.00  0.00     0.031 H 
ATOM    135  H96 SER d   1      -6.545  50.761  11.435  0.00  0.00     0.031 H 
ATOM    136  H97 SER d   1      -6.417  51.420  13.101  0.00  0.00     0.031 H 
ENDBRANCH 129 133
ENDBRANCH 124 129
ENDBRANCH 122 124
ENDBRANCH 118 120
BRANCH 118 137
ATOM    137  CB  SER d   1      -6.213  46.577   9.940  0.00  0.00    -0.030 C 
ATOM    138  H85 SER d   1      -6.944  47.382   9.772  0.00  0.00     0.037 H 
ATOM    139  H86 SER d   1      -6.716  45.602   9.863  0.00  0.00     0.037 H 
BRANCH 137 140
ATOM    140  CG  SER d   1      -5.122  46.663   8.887  0.00  0.00     0.011 C 
ATOM    141  H87 SER d   1      -4.315  45.971   9.170  0.00  0.00     0.047 H 
ATOM    142  H88 SER d   1      -4.735  47.693   8.875  0.00  0.00     0.047 H 
BRANCH 140 143
ATOM    143  CD  SER d   1      -5.575  46.313   7.491  0.00  0.00     0.215 C 
ATOM    144  OE1 SER d   1      -6.625  45.700   7.290  0.00  0.00    -0.274 OA
ATOM    145  NE2 SER d   1      -4.772  46.702   6.507  0.00  0.00    -0.370 N 
ATOM    146  H89 SER d   1      -5.012  46.502   5.557  0.00  0.00     0.159 HD
ATOM    147  H90 SER d   1      -3.927  47.194   6.716  0.00  0.00     0.159 HD
ENDBRANCH 140 143
ENDBRANCH 137 140
ENDBRANCH 118 137
ENDBRANCH 116 118
ENDBRANCH 112 114
BRANCH 112 148
ATOM    148  CB  SER d   1      -2.604  44.021  13.889  0.00  0.00    -0.036 C 
ATOM    149  H72 SER d   1      -1.862  44.815  14.060  0.00  0.00     0.036 H 
ATOM    150  H73 SER d   1      -2.129  43.039  14.030  0.00  0.00     0.036 H 
BRANCH 148 151
ATOM    151  CG  SER d   1      -3.720  44.171  14.909  0.00  0.00    -0.048 C 
ATOM    152  H74 SER d   1      -4.467  43.382  14.738  0.00  0.00     0.035 H 
ATOM    153  H75 SER d   1      -4.191  45.156  14.778  0.00  0.00     0.035 H 
BRANCH 151 154
ATOM    154  CD  SER d   1      -3.208  44.059  16.322  0.00  0.00     0.009 C 
ATOM    155  H76 SER d   1      -2.419  44.808  16.483  0.00  0.00     0.064 H 
ATOM    156  H77 SER d   1      -2.795  43.052  16.480  0.00  0.00     0.064 H 
BRANCH 154 157
ATOM    157  NE  SER d   1      -4.289  44.289  17.266  0.00  0.00    -0.227 N 
ATOM    158  CZ  SER d   1      -4.268  43.914  18.539  0.00  0.00     0.665 C 
ATOM    159  NH1 SER d   1      -3.215  43.300  19.035  0.00  0.00    -0.235 N 
ATOM    160  NH2 SER d   1      -5.313  44.152  19.319  0.00  0.00    -0.235 N 
ATOM    161  H79 SER d   1      -3.205  43.012  20.024  0.00  0.00     0.174 HD
ATOM    162  H80 SER d   1      -2.401  43.108  18.434  0.00  0.00     0.174 HD
ATOM    163  H81 SER d   1      -6.141  44.632  18.938  0.00  0.00     0.174 HD
ATOM    164  H82 SER d   1      -5.297  43.857  20.306  0.00  0.00     0.174 HD
ATOM    165  H78 SER d   1      -5.129  44.777  16.924  0.00  0.00     0.177 HD
ENDBRANCH 154 157
ENDBRANCH 151 154
ENDBRANCH 148 151
ENDBRANCH 112 148
ENDBRANCH 110 112
ENDBRANCH  97 108
ENDBRANCH   1  94
BRANCH   1 166
ATOM    166  CB  SER d   1      -1.843  38.955   8.924  0.00  0.00    -0.036 C 
ATOM    167  H52 SER d   1      -2.731  39.531   9.224  0.00  0.00     0.036 H 
ATOM    168  H53 SER d   1      -1.239  38.722   9.813  0.00  0.00     0.036 H 
BRANCH 166 169
ATOM    169  CG  SER d   1      -2.316  37.669   8.357  0.00  0.00    -0.048 C 
ATOM    170  H54 SER d   1      -1.562  37.270   7.663  0.00  0.00     0.035 H 
ATOM    171  H55 SER d   1      -3.263  37.827   7.819  0.00  0.00     0.035 H 
BRANCH 169 172
ATOM    172  CD  SER d   1      -2.531  36.692   9.492  0.00  0.00     0.009 C 
ATOM    173  H56 SER d   1      -1.577  36.539  10.018  0.00  0.00     0.064 H 
ATOM    174  H57 SER d   1      -2.880  35.734   9.079  0.00  0.00     0.064 H 
BRANCH 172 175
ATOM    175  NE  SER d   1      -3.524  37.190  10.443  0.00  0.00    -0.227 N 
ATOM    176  CZ  SER d   1      -3.451  37.062  11.768  0.00  0.00     0.665 C 
ATOM    177  NH1 SER d   1      -2.404  36.458  12.333  0.00  0.00    -0.235 N 
ATOM    178  NH2 SER d   1      -4.434  37.548  12.537  0.00  0.00    -0.235 N 
ATOM    179  H59 SER d   1      -2.355  36.363  13.357  0.00  0.00     0.174 HD
ATOM    180  H60 SER d   1      -1.645  36.087  11.745  0.00  0.00     0.174 HD
ATOM    181  H61 SER d   1      -5.244  38.015  12.104  0.00  0.00     0.174 HD
ATOM    182  H62 SER d   1      -4.380  37.455  13.561  0.00  0.00     0.174 HD
ATOM    183  H58 SER d   1      -4.345  37.679  10.059  0.00  0.00     0.177 HD
ENDBRANCH 172 175
ENDBRANCH 169 172
ENDBRANCH 166 169
ENDBRANCH   1 166
TORSDOF 46
