REMARK  11 active torsions:
REMARK  status: ('A' for Active; 'I' for Inactive)
REMARK    1  A    between atoms: C10_1  and  C11_2 
REMARK    2  A    between atoms: C11_2  and  C12_3 
REMARK    3  A    between atoms: C15_6  and  N02_29 
REMARK    4  A    between atoms: C21_10  and  C22_11 
REMARK    5  A    between atoms: C21_10  and  C06_23 
REMARK    6  A    between atoms: C21_10  and  O02_32 
REMARK    7  A    between atoms: C26_37  and  C21_10 
REMARK       I    between atoms: N_39  and  C31_15 
REMARK    8  A    between atoms: C31_15  and  C_41 
REMARK    9  A    between atoms: O01_17  and  C01_16 
REMARK   10  A    between atoms: C02_18  and  O01_17 
REMARK   11  A    between atoms: N05_35  and  C25_36 
ROOT
ATOM      1  C10 9WD d   1     -31.614   6.630  -2.650  0.00  0.00     0.022 A 
ATOM      2  C02 9WD d   1     -31.537   6.896  -1.267  0.00  0.00     0.172 A 
ATOM      3  N01 9WD d   1     -30.967   6.043  -0.386  0.00  0.00    -0.224 NA
ATOM      4  C03 9WD d   1     -30.440   4.882  -0.835  0.00  0.00     0.071 A 
ATOM      5  C04 9WD d   1     -29.845   3.991   0.081  0.00  0.00    -0.054 A 
ATOM      6  C05 9WD d   1     -29.287   2.774  -0.347  0.00  0.00    -0.071 A 
ATOM      7  C06 9WD d   1     -29.307   2.403  -1.709  0.00  0.00    -0.017 A 
ATOM      8  C07 9WD d   1     -29.902   3.299  -2.631  0.00  0.00    -0.060 A 
ATOM      9  C08 9WD d   1     -30.466   4.525  -2.208  0.00  0.00     0.016 A 
ATOM     10  C09 9WD d   1     -31.065   5.417  -3.132  0.00  0.00     0.057 A 
ATOM     11 CL   9WD d   1     -31.126   5.035  -4.823  0.00  0.00    -0.083 Cl
ATOM     12  H16 9WD d   1     -29.817   4.249   1.133  0.00  0.00     0.087 H 
ATOM     13  H17 9WD d   1     -28.834   2.110   0.380  0.00  0.00     0.084 H 
ATOM     14  H18 9WD d   1     -29.925   3.039  -3.683  0.00  0.00     0.086 H 
ENDROOT
BRANCH   7  15
ATOM     15  C21 9WD d   1     -28.676   1.056  -2.125  0.00  0.00     0.132 C 
BRANCH  15  16
ATOM     16  C22 9WD d   1     -29.632  -0.088  -1.811  0.00  0.00     0.069 A 
ATOM     17  C23 9WD d   1     -29.438  -1.141  -0.936  0.00  0.00     0.029 A 
ATOM     18  N04 9WD d   1     -30.541  -1.991  -0.924  0.00  0.00    -0.254 NA
ATOM     19  H22 9WD d   1     -28.541  -1.286  -0.336  0.00  0.00     0.118 H 
ATOM     20  C24 9WD d   1     -31.366  -1.429  -1.795  0.00  0.00     0.065 A 
ATOM     21  N05 9WD d   1     -30.910  -0.305  -2.365  0.00  0.00    -0.345 N 
ATOM     22  H8  9WD d   1     -32.343  -1.849  -2.030  0.00  0.00     0.143 H 
BRANCH  21  23
ATOM     23  C25 9WD d   1     -31.661   0.463  -3.346  0.00  0.00    -0.013 C 
ATOM     24  H23 9WD d   1     -31.070   1.337  -3.658  0.00  0.00     0.057 H 
ATOM     25  H24 9WD d   1     -32.608   0.801  -2.900  0.00  0.00     0.057 H 
ATOM     26  H25 9WD d   1     -31.872  -0.168  -4.222  0.00  0.00     0.057 H 
ENDBRANCH  21  23
ENDBRANCH  15  16
BRANCH  15  27
ATOM     27  O02 9WD d   1     -27.480   0.841  -1.394  0.00  0.00    -0.378 OA
ATOM     28  H21 9WD d   1     -26.868   1.545  -1.576  0.00  0.00     0.211 HD
ENDBRANCH  15  27
BRANCH  15  29
ATOM     29  C26 9WD d   1     -28.184   1.066  -3.616  0.00  0.00    -0.011 C 
ATOM     30  C27 9WD d   1     -27.847  -0.361  -4.133  0.00  0.00    -0.043 C 
ATOM     31  C28 9WD d   1     -27.329  -0.355  -5.581  0.00  0.00    -0.002 C 
ATOM     32  H9  9WD d   1     -28.757  -0.977  -4.086  0.00  0.00     0.036 H 
ATOM     33  H10 9WD d   1     -27.074  -0.798  -3.484  0.00  0.00     0.036 H 
ATOM     34  N   9WD d   1     -26.181   0.552  -5.677  0.00  0.00    -0.352 N 
ATOM     35  H27 9WD d   1     -28.127  -0.012  -6.256  0.00  0.00     0.064 H 
ATOM     36  H28 9WD d   1     -27.020  -1.371  -5.866  0.00  0.00     0.064 H 
ATOM     37  C31 9WD d   1     -24.919   0.178  -5.998  0.00  0.00     0.215 C 
ATOM     38  C29 9WD d   1     -26.563   1.942  -5.398  0.00  0.00    -0.002 C 
ATOM     39  O   9WD d   1     -23.983   0.980  -6.069  0.00  0.00    -0.274 OA
ATOM     40  C30 9WD d   1     -27.011   2.042  -3.929  0.00  0.00    -0.043 C 
ATOM     41  H29 9WD d   1     -25.702   2.604  -5.569  0.00  0.00     0.064 H 
ATOM     42  H30 9WD d   1     -27.391   2.239  -6.059  0.00  0.00     0.064 H 
ATOM     43  H11 9WD d   1     -26.159   1.795  -3.279  0.00  0.00     0.036 H 
ATOM     44  H12 9WD d   1     -27.340   3.072  -3.726  0.00  0.00     0.036 H 
ATOM     45  H26 9WD d   1     -29.040   1.422  -4.208  0.00  0.00     0.045 H 
BRANCH  37  46
ATOM     46  C   9WD d   1     -24.619  -1.297  -6.272  0.00  0.00    -0.003 C 
ATOM     47  H31 9WD d   1     -23.553  -1.415  -6.515  0.00  0.00     0.040 H 
ATOM     48  H32 9WD d   1     -25.229  -1.644  -7.119  0.00  0.00     0.040 H 
ATOM     49  H33 9WD d   1     -24.860  -1.892  -5.379  0.00  0.00     0.040 H 
ENDBRANCH  37  46
ENDBRANCH  15  29
ENDBRANCH   7  15
BRANCH   1  50
ATOM     50  C11 9WD d   1     -32.274   7.651  -3.572  0.00  0.00    -0.011 C 
ATOM     51  H1  9WD d   1     -31.947   7.452  -4.603  0.00  0.00     0.047 H 
ATOM     52  H2  9WD d   1     -31.945   8.656  -3.271  0.00  0.00     0.047 H 
BRANCH  50  53
ATOM     53  C12 9WD d   1     -33.792   7.609  -3.532  0.00  0.00    -0.054 A 
ATOM     54  C13 9WD d   1     -34.469   6.568  -2.864  0.00  0.00    -0.074 A 
ATOM     55  C14 9WD d   1     -35.877   6.540  -2.832  0.00  0.00    -0.055 A 
ATOM     56  H3  9WD d   1     -33.903   5.785  -2.373  0.00  0.00     0.084 H 
ATOM     57  C15 9WD d   1     -36.631   7.556  -3.469  0.00  0.00     0.058 A 
ATOM     58  H4  9WD d   1     -36.387   5.735  -2.316  0.00  0.00     0.087 H 
ATOM     59  C16 9WD d   1     -35.944   8.596  -4.136  0.00  0.00    -0.055 A 
ATOM     60  C17 9WD d   1     -34.537   8.622  -4.166  0.00  0.00    -0.074 A 
ATOM     61  H5  9WD d   1     -36.506   9.381  -4.629  0.00  0.00     0.087 H 
ATOM     62  H19 9WD d   1     -34.024   9.427  -4.680  0.00  0.00     0.084 H 
BRANCH  57  63
ATOM     63  N02 9WD d   1     -38.053   7.549  -3.448  0.00  0.00    -0.245 N 
ATOM     64  C18 9WD d   1     -38.922   8.402  -4.107  0.00  0.00     0.006 A 
ATOM     65  C19 9WD d   1     -40.197   8.026  -3.794  0.00  0.00    -0.048 A 
ATOM     66  H20 9WD d   1     -38.639   9.227  -4.759  0.00  0.00     0.114 H 
ATOM     67  C20 9WD d   1     -40.022   6.921  -2.920  0.00  0.00     0.023 A 
ATOM     68  H6  9WD d   1     -41.131   8.470  -4.135  0.00  0.00     0.087 H 
ATOM     69  N03 9WD d   1     -38.743   6.638  -2.715  0.00  0.00    -0.180 NA
ATOM     70  H7  9WD d   1     -40.845   6.369  -2.469  0.00  0.00     0.117 H 
ENDBRANCH  57  63
ENDBRANCH  50  53
ENDBRANCH   1  50
BRANCH   2  71
ATOM     71  O01 9WD d   1     -32.071   8.077  -0.790  0.00  0.00    -0.339 OA
BRANCH  71  72
ATOM     72  C01 9WD d   1     -32.083   8.318   0.613  0.00  0.00     0.012 C 
ATOM     73  H13 9WD d   1     -32.541   9.298   0.813  0.00  0.00     0.067 H 
ATOM     74  H14 9WD d   1     -31.052   8.310   0.995  0.00  0.00     0.067 H 
ATOM     75  H15 9WD d   1     -32.666   7.532   1.115  0.00  0.00     0.067 H 
ENDBRANCH  71  72
ENDBRANCH   2  71
TORSDOF 11
