REMARK WARNING: 32 MAX_TORS EXCEEDED!!!
REMARK  43 active torsions:
REMARK  status: ('A' for Active; 'I' for Inactive)
REMARK    1  A    between atoms: C_1  and  CH3_3 
REMARK       I    between atoms: C_1  and  N_4 
REMARK    2  A    between atoms: N_4  and  CA_5 
REMARK    3  A    between atoms: CA_5  and  C_6 
REMARK    4  A    between atoms: CA_5  and  CB_8 
REMARK       I    between atoms: C_6  and  N_12 
REMARK    5  A    between atoms: CB_8  and  CG_9 
REMARK    6  A    between atoms: N_12  and  CA_13 
REMARK    7  A    between atoms: CA_13  and  C_14 
REMARK    8  A    between atoms: CA_13  and  CB_16 
REMARK       I    between atoms: C_14  and  N_21 
REMARK    9  A    between atoms: CB_16  and  CG_17 
REMARK   10  A    between atoms: CG_17  and  CD_18 
REMARK       I    between atoms: CD_18  and  NE2_20 
REMARK   11  A    between atoms: N_21  and  CA_22 
REMARK   12  A    between atoms: CA_22  and  C_23 
REMARK   13  A    between atoms: CA_22  and  CB_25 
REMARK       I    between atoms: C_23  and  N_27 
REMARK   14  A    between atoms: CB_25  and  OG_26 
REMARK   15  A    between atoms: N_27  and  CA_28 
REMARK   16  A    between atoms: CA_28  and  C_29 
REMARK   17  A    between atoms: CA_28  and  CB_31 
REMARK       I    between atoms: C_29  and  N_35 
REMARK   18  A    between atoms: CB_31  and  CG_32 
REMARK   19  A    between atoms: N_35  and  CA_36 
REMARK   20  A    between atoms: CA_36  and  C_37 
REMARK   21  A    between atoms: CA_36  and  CB_39 
REMARK       I    between atoms: C_37  and  N_46 
REMARK   22  A    between atoms: CB_39  and  CG_40 
REMARK   23  A    between atoms: N_46  and  CA_47 
REMARK   24  A    between atoms: CA_47  and  C_48 
REMARK   25  A    between atoms: CA_47  and  CB_50 
REMARK       I    between atoms: C_48  and  N_55 
REMARK   26  A    between atoms: CB_50  and  CG_51 
REMARK   27  A    between atoms: CG_51  and  CD_52 
REMARK   28  A    between atoms: N_55  and  CA_56 
REMARK   29  A    between atoms: CA_56  and  C_57 
REMARK       I    between atoms: C_57  and  N_59 
REMARK   30  A    between atoms: N_59  and  CA_60 
REMARK   31  A    between atoms: CA_60  and  C_61 
REMARK   32  A    between atoms: CA_60  and  CB_63 
REMARK       I    between atoms: C_61  and  N_70 
REMARK   33  A    between atoms: CB_63  and  CG_64 
REMARK   34  A    between atoms: N_70  and  CA_71 
REMARK   35  A    between atoms: CA_71  and  CB_72 
REMARK   36  A    between atoms: CA_71  and  C_74 
REMARK   37  A    between atoms: CB_72  and  OG_73 
REMARK   38  A    between atoms: OG_73  and  P_76 
REMARK       I    between atoms: C_74  and  N_80 
REMARK   39  A    between atoms: N_80  and  CA_81 
REMARK   40  A    between atoms: CA_81  and  C_82 
REMARK   41  A    between atoms: CA_81  and  CB_84 
REMARK       I    between atoms: C_82  and  N_92 
REMARK   42  A    between atoms: CB_84  and  CG_85 
REMARK   43  A    between atoms: CZ_90  and  OH_91 
ROOT
ATOM      1  C   PHE d   1       6.405 -11.374   2.891  0.00  0.00     0.241 C 
ATOM      2  O   PHE d   1       7.059 -10.461   2.389  0.00  0.00    -0.271 OA
ATOM      3  N   GLU d   1       6.877 -12.596   3.058  0.00  0.00    -0.346 N 
ATOM      4  H34 GLU d   1       6.287 -13.292   3.467  0.00  0.00     0.163 HD
ENDROOT
BRANCH   3   5
ATOM      5  CA  GLU d   1       8.223 -12.957   2.666  0.00  0.00     0.090 C 
ATOM      6  H35 GLU d   1       8.753 -12.045   2.353  0.00  0.00     0.087 H 
BRANCH   5   7
ATOM      7  C   GLU d   1       8.198 -13.926   1.487  0.00  0.00     0.240 C 
ATOM      8  O   GLU d   1       8.852 -14.971   1.508  0.00  0.00    -0.271 OA
ATOM      9  N   GLY d   1       7.440 -13.566   0.458  0.00  0.00    -0.351 N 
ATOM     10  H40 GLY d   1       6.934 -12.704   0.495  0.00  0.00     0.163 HD
BRANCH   9  11
ATOM     11  CA  GLY d   1       7.337 -14.406  -0.718  0.00  0.00     0.069 C 
ATOM     12  H41 GLY d   1       6.386 -14.958  -0.674  0.00  0.00     0.078 H 
ATOM     13  H42 GLY d   1       8.175 -15.118  -0.717  0.00  0.00     0.078 H 
BRANCH  11  14
ATOM     14  C   GLY d   1       7.378 -13.612  -2.007  0.00  0.00     0.236 C 
ATOM     15  O   GLY d   1       6.338 -13.240  -2.554  0.00  0.00    -0.272 OA
ATOM     16  N   PHE d   1       8.588 -13.342  -2.480  0.00  0.00    -0.346 N 
ATOM     17  H43 PHE d   1       9.387 -13.660  -1.969  0.00  0.00     0.163 HD
BRANCH  16  18
ATOM     18  CA  PHE d   1       8.797 -12.598  -3.719  0.00  0.00     0.093 C 
ATOM     19  H44 PHE d   1       7.898 -12.699  -4.345  0.00  0.00     0.088 H 
BRANCH  18  20
ATOM     20  C   PHE d   1       9.989 -13.170  -4.470  0.00  0.00     0.241 C 
ATOM     21  O   PHE d   1       9.835 -13.833  -5.497  0.00  0.00    -0.271 OA
ATOM     22  N   SEP d   1      11.174 -12.922  -3.940  0.00  0.00    -0.344 N 
ATOM     23  H52 SEP d   1      11.227 -12.382  -3.100  0.00  0.00     0.163 HD
BRANCH  22  24
ATOM     24  CA  SEP d   1      12.401 -13.410  -4.542  0.00  0.00     0.110 C 
ATOM     25  H53 SEP d   1      12.171 -13.834  -5.531  0.00  0.00     0.090 H 
BRANCH  24  26
ATOM     26  CB  SEP d   1      13.386 -12.253  -4.718  0.00  0.00     0.059 C 
ATOM     27  H54 SEP d   1      14.165 -12.549  -5.435  0.00  0.00     0.079 H 
ATOM     28  H55 SEP d   1      13.849 -12.023  -3.747  0.00  0.00     0.079 H 
BRANCH  26  29
ATOM     29  OG  SEP d   1      12.723 -11.092  -5.204  0.00  0.00    -0.280 OA
BRANCH  29  30
ATOM     30  P   SEP d   1      13.456 -10.128  -6.251  0.00  0.00     0.422 P 
ATOM     31  O1P SEP d   1      13.462 -10.940  -7.630  0.00  0.00    -0.617 OA
ATOM     32  O2P SEP d   1      12.698  -8.898  -6.561  0.00  0.00    -0.617 OA
ATOM     33  O3P SEP d   1      14.883  -9.893  -5.964  0.00  0.00    -0.617 OA
ENDBRANCH  29  30
ENDBRANCH  26  29
ENDBRANCH  24  26
BRANCH  24  34
ATOM     34  C   SEP d   1      13.005 -14.504  -3.664  0.00  0.00     0.243 C 
ATOM     35  O   SEP d   1      12.579 -14.693  -2.522  0.00  0.00    -0.271 OA
ATOM     36  N   TYR d   1      13.977 -15.225  -4.197  0.00  0.00    -0.346 N 
ATOM     37  H56 TYR d   1      14.271 -15.030  -5.133  0.00  0.00     0.163 HD
BRANCH  36  38
ATOM     38  CA  TYR d   1      14.630 -16.296  -3.455  0.00  0.00     0.093 C 
ATOM     39  H57 TYR d   1      14.091 -16.452  -2.509  0.00  0.00     0.088 H 
BRANCH  38  40
ATOM     40  C   TYR d   1      16.076 -15.919  -3.139  0.00  0.00     0.238 C 
ATOM     41  O   TYR d   1      16.993 -16.727  -3.298  0.00  0.00    -0.271 OA
ATOM     42  N   NH2 d   1      16.273 -14.687  -2.694  0.00  0.00    -0.368 N 
ATOM     43  H65 NH2 d   1      17.197 -14.379  -2.469  0.00  0.00     0.159 HD
ATOM     44  H66 NH2 d   1      15.498 -14.066  -2.583  0.00  0.00     0.159 HD
ENDBRANCH  38  40
BRANCH  38  45
ATOM     45  CB  TYR d   1      14.588 -17.591  -4.268  0.00  0.00    -0.014 C 
ATOM     46  H58 TYR d   1      15.569 -17.730  -4.747  0.00  0.00     0.043 H 
ATOM     47  H59 TYR d   1      13.813 -17.488  -5.042  0.00  0.00     0.043 H 
BRANCH  45  48
ATOM     48  CG  TYR d   1      14.279 -18.829  -3.448  0.00  0.00    -0.056 A 
ATOM     49  CD1 TYR d   1      15.299 -19.606  -2.913  0.00  0.00    -0.074 A 
ATOM     50  CE1 TYR d   1      15.020 -20.743  -2.178  0.00  0.00    -0.051 A 
ATOM     51  H60 TYR d   1      16.331 -19.316  -3.075  0.00  0.00     0.084 H 
ATOM     52  CZ  TYR d   1      13.708 -21.115  -1.968  0.00  0.00     0.065 A 
ATOM     53  H62 TYR d   1      15.828 -21.339  -1.769  0.00  0.00     0.087 H 
ATOM     54  CE2 TYR d   1      12.679 -20.360  -2.485  0.00  0.00    -0.051 A 
ATOM     55  CD2 TYR d   1      12.966 -19.224  -3.222  0.00  0.00    -0.074 A 
ATOM     56  H63 TYR d   1      11.649 -20.654  -2.316  0.00  0.00     0.087 H 
ATOM     57  H61 TYR d   1      12.154 -18.633  -3.629  0.00  0.00     0.084 H 
BRANCH  52  58
ATOM     58  OH  TYR d   1      13.426 -22.251  -1.244  0.00  0.00    -0.361 OA
ATOM     59  H64 TYR d   1      14.238 -22.654  -0.960  0.00  0.00     0.217 HD
ENDBRANCH  52  58
ENDBRANCH  45  48
ENDBRANCH  38  45
ENDBRANCH  36  38
ENDBRANCH  24  34
ENDBRANCH  22  24
ENDBRANCH  18  20
BRANCH  18  60
ATOM     60  CB  PHE d   1       9.037 -11.112  -3.441  0.00  0.00    -0.014 C 
ATOM     61  H45 PHE d   1       9.323 -10.625  -4.385  0.00  0.00     0.043 H 
ATOM     62  H46 PHE d   1       9.862 -11.024  -2.719  0.00  0.00     0.043 H 
BRANCH  60  63
ATOM     63  CG  PHE d   1       7.843 -10.394  -2.883  0.00  0.00    -0.056 A 
ATOM     64  CD1 PHE d   1       7.798 -10.034  -1.547  0.00  0.00    -0.077 A 
ATOM     65  CE1 PHE d   1       6.700  -9.380  -1.031  0.00  0.00    -0.082 A 
ATOM     66  H47 PHE d   1       8.635 -10.269  -0.900  0.00  0.00     0.084 H 
ATOM     67  CZ  PHE d   1       5.631  -9.075  -1.850  0.00  0.00    -0.083 A 
ATOM     68  H49 PHE d   1       6.676  -9.105   0.017  0.00  0.00     0.083 H 
ATOM     69  CE2 PHE d   1       5.663  -9.426  -3.184  0.00  0.00    -0.082 A 
ATOM     70  H51 PHE d   1       4.767  -8.560  -1.445  0.00  0.00     0.083 H 
ATOM     71  CD2 PHE d   1       6.765 -10.082  -3.696  0.00  0.00    -0.077 A 
ATOM     72  H50 PHE d   1       4.825  -9.187  -3.829  0.00  0.00     0.083 H 
ATOM     73  H48 PHE d   1       6.787 -10.356  -4.745  0.00  0.00     0.084 H 
ENDBRANCH  60  63
ENDBRANCH  18  60
ENDBRANCH  16  18
ENDBRANCH  11  14
ENDBRANCH   9  11
ENDBRANCH   5   7
BRANCH   5  74
ATOM     74  CB  GLU d   1       8.962 -13.563   3.857  0.00  0.00    -0.029 C 
ATOM     75  H36 GLU d   1       9.954 -13.898   3.521  0.00  0.00     0.037 H 
ATOM     76  H37 GLU d   1       8.388 -14.427   4.223  0.00  0.00     0.037 H 
BRANCH  74  77
ATOM     77  CG  GLU d   1       9.145 -12.581   5.004  0.00  0.00     0.018 C 
ATOM     78  H38 GLU d   1       8.633 -11.642   4.746  0.00  0.00     0.049 H 
ATOM     79  H39 GLU d   1      10.220 -12.389   5.132  0.00  0.00     0.049 H 
BRANCH  77  80
ATOM     80  CD  GLU d   1       8.587 -13.090   6.318  0.00  0.00     0.172 C 
ATOM     81  OE1 GLU d   1       7.423 -12.765   6.644  0.00  0.00    -0.648 OA
ATOM     82  OE2 GLU d   1       9.312 -13.800   7.039  0.00  0.00    -0.648 OA
ENDBRANCH  77  80
ENDBRANCH  74  77
ENDBRANCH   5  74
ENDBRANCH   3   5
BRANCH   1  83
ATOM     83  CA  PHE d   1       4.978 -11.155   3.356  0.00  0.00     0.093 C 
ATOM     84  H26 PHE d   1       4.570 -10.270   2.846  0.00  0.00     0.088 H 
BRANCH  83  85
ATOM     85  N   PHE d   1       4.151 -12.309   3.023  0.00  0.00    -0.346 N 
ATOM     86  C   ASP d   1       3.967 -12.711   1.767  0.00  0.00     0.241 C 
ATOM     87  O   ASP d   1       4.492 -12.160   0.794  0.00  0.00    -0.271 OA
ATOM     88  H25 PHE d   1       3.707 -12.815   3.763  0.00  0.00     0.163 HD
BRANCH  86  89
ATOM     89  CA  ASP d   1       3.066 -13.925   1.577  0.00  0.00     0.098 C 
ATOM     90  H22 ASP d   1       3.386 -14.453   0.666  0.00  0.00     0.088 H 
BRANCH  89  91
ATOM     91  N   ASP d   1       3.191 -14.845   2.704  0.00  0.00    -0.345 N 
ATOM     92  C   SER d   1       4.126 -15.785   2.728  0.00  0.00     0.243 C 
ATOM     93  O   SER d   1       4.935 -15.939   1.814  0.00  0.00    -0.271 OA
ATOM     94  H21 ASP d   1       2.558 -14.764   3.474  0.00  0.00     0.163 HD
BRANCH  92  95
ATOM     95  CA  SER d   1       4.153 -16.691   3.961  0.00  0.00     0.109 C 
ATOM     96  H17 SER d   1       4.061 -16.061   4.858  0.00  0.00     0.090 H 
BRANCH  95  97
ATOM     97  N   SER d   1       3.049 -17.636   3.941  0.00  0.00    -0.344 N 
ATOM     98  C   GLN d   1       1.837 -17.307   4.358  0.00  0.00     0.241 C 
ATOM     99  O   GLN d   1       1.562 -16.189   4.797  0.00  0.00    -0.271 OA
ATOM    100  H16 SER d   1       3.210 -18.563   3.602  0.00  0.00     0.163 HD
BRANCH  98 101
ATOM    101  CA  GLN d   1       0.770 -18.391   4.279  0.00  0.00     0.090 C 
ATOM    102  H9  GLN d   1       0.936 -19.110   5.095  0.00  0.00     0.087 H 
BRANCH 101 103
ATOM    103  N   GLN d   1      -0.553 -17.806   4.435  0.00  0.00    -0.346 N 
ATOM    104  C   ASP d   1      -1.293 -18.043   5.504  0.00  0.00     0.241 C 
ATOM    105  O   ASP d   1      -0.921 -18.764   6.429  0.00  0.00    -0.271 OA
ATOM    106  H8  GLN d   1      -0.911 -17.210   3.716  0.00  0.00     0.163 HD
BRANCH 104 107
ATOM    107  CA  ASP d   1      -2.660 -17.382   5.537  0.00  0.00     0.098 C 
ATOM    108  H5  ASP d   1      -2.858 -16.932   4.553  0.00  0.00     0.088 H 
BRANCH 107 109
ATOM    109  N   ASP d   1      -3.695 -18.371   5.810  0.00  0.00    -0.348 N 
ATOM    110  C   ACE d   1      -4.050 -19.278   4.910  0.00  0.00     0.214 C 
ATOM    111  O   ACE d   1      -3.535 -19.355   3.793  0.00  0.00    -0.274 OA
ATOM    112  H4  ASP d   1      -4.150 -18.366   6.700  0.00  0.00     0.163 HD
BRANCH 110 113
ATOM    113  CH3 ACE d   1      -5.132 -20.238   5.325  0.00  0.00    -0.003 C 
ATOM    114  H1  ACE d   1      -5.457 -20.004   6.349  0.00  0.00     0.040 H 
ATOM    115  H2  ACE d   1      -4.743 -21.266   5.290  0.00  0.00     0.040 H 
ATOM    116  H3  ACE d   1      -5.987 -20.146   4.639  0.00  0.00     0.040 H 
ENDBRANCH 110 113
ENDBRANCH 107 109
BRANCH 107 117
ATOM    117  CB  ASP d   1      -2.677 -16.275   6.592  0.00  0.00     0.043 C 
ATOM    118  H6  ASP d   1      -1.688 -16.228   7.071  0.00  0.00     0.052 H 
ATOM    119  H7  ASP d   1      -3.439 -16.519   7.347  0.00  0.00     0.052 H 
BRANCH 117 120
ATOM    120  CG  ASP d   1      -2.996 -14.916   6.000  0.00  0.00     0.175 C 
ATOM    121  OD1 ASP d   1      -3.674 -14.111   6.675  0.00  0.00    -0.648 OA
ATOM    122  OD2 ASP d   1      -2.586 -14.651   4.850  0.00  0.00    -0.648 OA
ENDBRANCH 117 120
ENDBRANCH 107 117
ENDBRANCH 104 107
ENDBRANCH 101 103
BRANCH 101 123
ATOM    123  CB  GLN d   1       0.871 -19.133   2.944  0.00  0.00    -0.030 C 
ATOM    124  H10 GLN d   1       1.820 -19.689   2.926  0.00  0.00     0.037 H 
ATOM    125  H11 GLN d   1       0.866 -18.391   2.132  0.00  0.00     0.037 H 
BRANCH 123 126
ATOM    126  CG  GLN d   1      -0.267 -20.114   2.707  0.00  0.00     0.011 C 
ATOM    127  H12 GLN d   1      -0.146 -20.559   1.708  0.00  0.00     0.047 H 
ATOM    128  H13 GLN d   1      -1.219 -19.565   2.751  0.00  0.00     0.047 H 
BRANCH 126 129
ATOM    129  CD  GLN d   1      -0.303 -21.228   3.732  0.00  0.00     0.215 C 
ATOM    130  OE1 GLN d   1       0.735 -21.692   4.204  0.00  0.00    -0.274 OA
ATOM    131  NE2 GLN d   1      -1.499 -21.661   4.091  0.00  0.00    -0.370 N 
ATOM    132  H14 GLN d   1      -1.583 -22.395   4.765  0.00  0.00     0.159 HD
ATOM    133  H15 GLN d   1      -2.319 -21.254   3.689  0.00  0.00     0.159 HD
ENDBRANCH 126 129
ENDBRANCH 123 126
ENDBRANCH 101 123
ENDBRANCH  98 101
ENDBRANCH  95  97
BRANCH  95 134
ATOM    134  CB  SER d   1       5.472 -17.460   4.033  0.00  0.00     0.044 C 
ATOM    135  H18 SER d   1       5.885 -17.375   5.049  0.00  0.00     0.077 H 
ATOM    136  H19 SER d   1       6.181 -17.029   3.311  0.00  0.00     0.077 H 
BRANCH 134 137
ATOM    137  OG  SER d   1       5.270 -18.834   3.725  0.00  0.00    -0.398 OA
ATOM    138  H20 SER d   1       6.100 -19.294   3.775  0.00  0.00     0.209 HD
ENDBRANCH 134 137
ENDBRANCH  95 134
ENDBRANCH  92  95
ENDBRANCH  89  91
BRANCH  89 139
ATOM    139  CB  ASP d   1       1.605 -13.484   1.389  0.00  0.00     0.043 C 
ATOM    140  H23 ASP d   1       0.949 -14.278   1.777  0.00  0.00     0.052 H 
ATOM    141  H24 ASP d   1       1.419 -13.347   0.314  0.00  0.00     0.052 H 
BRANCH 139 142
ATOM    142  CG  ASP d   1       1.264 -12.185   2.106  0.00  0.00     0.175 C 
ATOM    143  OD1 ASP d   1       0.668 -12.247   3.203  0.00  0.00    -0.648 OA
ATOM    144  OD2 ASP d   1       1.573 -11.101   1.569  0.00  0.00    -0.648 OA
ENDBRANCH 139 142
ENDBRANCH  89 139
ENDBRANCH  86  89
ENDBRANCH  83  85
BRANCH  83 145
ATOM    145  CB  PHE d   1       4.960 -10.907   4.867  0.00  0.00    -0.014 C 
ATOM    146  H27 PHE d   1       5.993 -10.966   5.240  0.00  0.00     0.043 H 
ATOM    147  H28 PHE d   1       4.354 -11.693   5.340  0.00  0.00     0.043 H 
BRANCH 145 148
ATOM    148  CG  PHE d   1       4.391  -9.571   5.257  0.00  0.00    -0.056 A 
ATOM    149  CD1 PHE d   1       3.040  -9.436   5.532  0.00  0.00    -0.077 A 
ATOM    150  CE1 PHE d   1       2.511  -8.213   5.895  0.00  0.00    -0.082 A 
ATOM    151  H29 PHE d   1       2.390 -10.301   5.461  0.00  0.00     0.084 H 
ATOM    152  CZ  PHE d   1       3.333  -7.108   5.987  0.00  0.00    -0.083 A 
ATOM    153  H31 PHE d   1       1.452  -8.121   6.107  0.00  0.00     0.083 H 
ATOM    154  CE2 PHE d   1       4.681  -7.228   5.717  0.00  0.00    -0.082 A 
ATOM    155  H33 PHE d   1       2.920  -6.147   6.271  0.00  0.00     0.083 H 
ATOM    156  CD2 PHE d   1       5.205  -8.453   5.355  0.00  0.00    -0.077 A 
ATOM    157  H32 PHE d   1       5.328  -6.361   5.789  0.00  0.00     0.083 H 
ATOM    158  H30 PHE d   1       6.265  -8.542   5.145  0.00  0.00     0.084 H 
ENDBRANCH 145 148
ENDBRANCH  83 145
ENDBRANCH   1  83
TORSDOF 43
