REMARK  11 active torsions:
REMARK  status: ('A' for Active; 'I' for Inactive)
REMARK    1  A    between atoms: C10_29  and  C11_17 
REMARK    2  A    between atoms: C20_30  and  C5_18 
REMARK    3  A    between atoms: C20_30  and  C25_19 
REMARK    4  A    between atoms: C9_20  and  C10_29 
REMARK    5  A    between atoms: C14_22  and  N1_36 
REMARK    6  A    between atoms: C28_24  and  C30_31 
REMARK    7  A    between atoms: C21_25  and  C20_30 
REMARK    8  A    between atoms: C1_26  and  O_39 
REMARK    9  A    between atoms: N4_37  and  C24_27 
REMARK   10  A    between atoms: O_39  and  C_28 
REMARK   11  A    between atoms: C20_30  and  O1_38 
ROOT
ATOM      1  C4  9WA d   1       1.473  14.584 -16.282  0.00  0.00    -0.071 A 
ATOM      2  C3  9WA d   1       1.421  13.287 -16.731  0.00  0.00    -0.054 A 
ATOM      3  C6  9WA d   1       1.127  15.342 -18.503  0.00  0.00    -0.059 A 
ATOM      4  C7  9WA d   1       1.080  14.038 -18.944  0.00  0.00     0.016 A 
ATOM      5  C5  9WA d   1       1.319  15.620 -17.169  0.00  0.00    -0.012 A 
ATOM      6  C9  9WA d   1       0.841  12.425 -20.699  0.00  0.00     0.022 A 
ATOM      7  C2  9WA d   1       1.226  12.996 -18.058  0.00  0.00     0.071 A 
ATOM      8  C8  9WA d   1       0.884  13.731 -20.273  0.00  0.00     0.057 A 
ATOM      9  C1  9WA d   1       0.996  11.460 -19.737  0.00  0.00     0.172 A 
ATOM     10  N   9WA d   1       1.184  11.722 -18.445  0.00  0.00    -0.224 NA
ATOM     11 CL   9WA d   1       0.693  14.996 -21.420  0.00  0.00    -0.083 Cl
ATOM     12  H1  9WA d   1       1.635  14.789 -15.230  0.00  0.00     0.084 H 
ATOM     13  H5  9WA d   1       1.536  12.475 -16.022  0.00  0.00     0.087 H 
ATOM     14  H10 9WA d   1       1.012  16.154 -19.211  0.00  0.00     0.086 H 
ENDROOT
BRANCH   5  15
ATOM     15  C20 9WA d   1       1.388  17.028 -16.686  0.00  0.00     0.158 C 
BRANCH  15  16
ATOM     16  C25 9WA d   1       0.159  17.562 -16.028  0.00  0.00     0.004 A 
ATOM     17  C26 9WA d   1       0.170  18.842 -15.525  0.00  0.00    -0.070 A 
ATOM     18  C27 9WA d   1      -0.951  19.347 -14.916  0.00  0.00    -0.050 A 
ATOM     19  H4  9WA d   1       1.063  19.451 -15.610  0.00  0.00     0.084 H 
ATOM     20  C28 9WA d   1      -2.062  18.544 -14.831  0.00  0.00     0.140 A 
ATOM     21  H8  9WA d   1      -0.960  20.353 -14.513  0.00  0.00     0.087 H 
ATOM     22  N5  9WA d   1      -2.105  17.299 -15.308  0.00  0.00    -0.256 NA
ATOM     23  C29 9WA d   1      -0.999  16.834 -15.895  0.00  0.00     0.013 A 
ATOM     24  H12 9WA d   1      -1.016  15.824 -16.289  0.00  0.00     0.115 H 
BRANCH  20  25
ATOM     25  C30 9WA d   1      -3.280  19.084 -14.173  0.00  0.00     0.434 C 
ATOM     26  F2  9WA d   1      -2.980  20.039 -13.252  0.00  0.00    -0.165 F 
ATOM     27  F   9WA d   1      -4.136  19.662 -15.057  0.00  0.00    -0.165 F 
ATOM     28  F1  9WA d   1      -3.993  18.132 -13.515  0.00  0.00    -0.165 F 
ENDBRANCH  20  25
ENDBRANCH  15  16
BRANCH  15  29
ATOM     29  C21 9WA d   1       2.556  17.156 -15.794  0.00  0.00     0.074 A 
ATOM     30  C22 9WA d   1       2.690  17.316 -14.432  0.00  0.00     0.029 A 
ATOM     31  N3  9WA d   1       4.005  17.382 -14.057  0.00  0.00    -0.254 NA
ATOM     32  H13 9WA d   1       1.853  17.382 -13.739  0.00  0.00     0.118 H 
ATOM     33  C23 9WA d   1       4.674  17.259 -15.180  0.00  0.00     0.065 A 
ATOM     34  N4  9WA d   1       3.839  17.120 -16.249  0.00  0.00    -0.345 N 
ATOM     35  H15 9WA d   1       5.761  17.267 -15.249  0.00  0.00     0.143 H 
BRANCH  34  36
ATOM     36  C24 9WA d   1       4.242  16.961 -17.626  0.00  0.00    -0.013 C 
ATOM     37  H16 9WA d   1       5.340  16.969 -17.690  0.00  0.00     0.057 H 
ATOM     38  H17 9WA d   1       3.834  17.788 -18.225  0.00  0.00     0.057 H 
ATOM     39  H18 9WA d   1       3.859  16.005 -18.012  0.00  0.00     0.057 H 
ENDBRANCH  34  36
ENDBRANCH  15  29
BRANCH  15  40
ATOM     40  O1  9WA d   1       1.658  17.842 -17.816  0.00  0.00    -0.374 OA
ATOM     41  H24 9WA d   1       2.438  17.524 -18.255  0.00  0.00     0.212 HD
ENDBRANCH  15  40
ENDBRANCH   5  15
BRANCH   6  42
ATOM     42  C10 9WA d   1       0.624  12.059 -22.126  0.00  0.00    -0.011 C 
ATOM     43  H22 9WA d   1       0.273  11.017 -22.161  0.00  0.00     0.047 H 
ATOM     44  H23 9WA d   1      -0.154  12.722 -22.533  0.00  0.00     0.047 H 
BRANCH  42  45
ATOM     45  C11 9WA d   1       1.827  12.170 -22.998  0.00  0.00    -0.054 A 
ATOM     46  C16 9WA d   1       1.654  12.461 -24.330  0.00  0.00    -0.074 A 
ATOM     47  C15 9WA d   1       2.738  12.567 -25.165  0.00  0.00    -0.055 A 
ATOM     48  H2  9WA d   1       0.655  12.608 -24.724  0.00  0.00     0.084 H 
ATOM     49  C14 9WA d   1       4.006  12.381 -24.669  0.00  0.00     0.058 A 
ATOM     50  H6  9WA d   1       2.594  12.797 -26.215  0.00  0.00     0.087 H 
ATOM     51  C13 9WA d   1       4.182  12.090 -23.336  0.00  0.00    -0.055 A 
ATOM     52  C12 9WA d   1       3.095  11.983 -22.500  0.00  0.00    -0.074 A 
ATOM     53  H7  9WA d   1       5.182  11.944 -22.943  0.00  0.00     0.087 H 
ATOM     54  H3  9WA d   1       3.238  11.752 -21.451  0.00  0.00     0.084 H 
BRANCH  49  55
ATOM     55  N1  9WA d   1       5.111  12.481 -25.509  0.00  0.00    -0.245 N 
ATOM     56  C17 9WA d   1       5.078  12.780 -26.841  0.00  0.00     0.006 A 
ATOM     57  C18 9WA d   1       6.370  12.647 -27.293  0.00  0.00    -0.048 A 
ATOM     58  H14 9WA d   1       4.205  13.066 -27.427  0.00  0.00     0.114 H 
ATOM     59  C19 9WA d   1       7.101  12.260 -26.143  0.00  0.00     0.023 A 
ATOM     60  H9  9WA d   1       6.745  12.803 -28.303  0.00  0.00     0.087 H 
ATOM     61  N2  9WA d   1       6.331  12.160 -25.057  0.00  0.00    -0.180 NA
ATOM     62  H11 9WA d   1       8.172  12.066 -26.145  0.00  0.00     0.117 H 
ENDBRANCH  49  55
ENDBRANCH  42  45
ENDBRANCH   6  42
BRANCH   9  63
ATOM     63  O   9WA d   1       0.948  10.143 -20.148  0.00  0.00    -0.339 OA
BRANCH  63  64
ATOM     64  C   9WA d   1       1.510   9.344 -19.113  0.00  0.00     0.012 C 
ATOM     65  H19 9WA d   1       1.486   8.286 -19.413  0.00  0.00     0.067 H 
ATOM     66  H20 9WA d   1       0.927   9.477 -18.190  0.00  0.00     0.067 H 
ATOM     67  H21 9WA d   1       2.551   9.651 -18.937  0.00  0.00     0.067 H 
ENDBRANCH  63  64
ENDBRANCH   9  63
TORSDOF 11
