REMARK  4 active torsions:
REMARK  status: ('A' for Active; 'I' for Inactive)
REMARK    1  A    between atoms: C14_18  and  C4_1 
REMARK    2  A    between atoms: N2_2  and  C1_10 
REMARK    3  A    between atoms: C5_12  and  C7_3 
REMARK    4  A    between atoms: N22_22  and  C24_24 
ROOT
ATOM      1  C4  9WG d   1      51.393  92.650 117.789  0.00  0.00     0.024 A 
ATOM      2  N2  9WG d   1      52.463  93.417 116.050  0.00  0.00    -0.284 N 
ATOM      3  C3  9WG d   1      52.628  92.747 117.197  0.00  0.00     0.011 A 
ATOM      4  C5  9WG d   1      50.516  93.320 116.885  0.00  0.00     0.100 A 
ATOM      5  N6  9WG d   1      51.175  93.780 115.825  0.00  0.00    -0.172 NA
ATOM      6  H7  9WG d   1      53.565  92.353 117.587  0.00  0.00     0.115 H 
ENDROOT
BRANCH   1   7
ATOM      7  C14 9WG d   1      51.080  91.964 119.072  0.00  0.00    -0.003 A 
ATOM      8  C19 9WG d   1      51.936  92.048 120.193  0.00  0.00     0.069 A 
ATOM      9  C20 9WG d   1      53.104  92.919 120.529  0.00  0.00     0.256 C 
ATOM     10  C18 9WG d   1      51.618  91.241 121.326  0.00  0.00     0.068 A 
ATOM     11  O21 9WG d   1      53.581  93.838 119.886  0.00  0.00    -0.267 OA
ATOM     12  N22 9WG d   1      53.531  92.517 121.762  0.00  0.00    -0.347 N 
ATOM     13  C23 9WG d   1      52.715  91.441 122.319  0.00  0.00     0.038 C 
ATOM     14  H11 9WG d   1      53.309  90.522 122.430  0.00  0.00     0.074 H 
ATOM     15  H12 9WG d   1      52.304  91.733 123.297  0.00  0.00     0.074 H 
ATOM     16  N17 9WG d   1      50.525  90.464 121.377  0.00  0.00    -0.263 NA
ATOM     17  C16 9WG d   1      49.715  90.443 120.306  0.00  0.00     0.003 A 
ATOM     18  C15 9WG d   1      49.948  91.153 119.145  0.00  0.00    -0.054 A 
ATOM     19  H3  9WG d   1      48.822  89.830 120.356  0.00  0.00     0.114 H 
ATOM     20  H10 9WG d   1      49.264  91.081 118.307  0.00  0.00     0.087 H 
BRANCH  12  21
ATOM     21  C24 9WG d   1      54.685  93.063 122.463  0.00  0.00    -0.015 C 
ATOM     22  H13 9WG d   1      55.141  93.859 121.855  0.00  0.00     0.056 H 
ATOM     23  H14 9WG d   1      55.422  92.264 122.634  0.00  0.00     0.056 H 
ATOM     24  H15 9WG d   1      54.364  93.479 123.430  0.00  0.00     0.056 H 
ENDBRANCH  12  21
ENDBRANCH   1   7
BRANCH   4  25
ATOM     25  C7  9WG d   1      49.062  93.582 116.972  0.00  0.00    -0.005 A 
ATOM     26  C8  9WG d   1      48.467  93.958 118.177  0.00  0.00    -0.068 A 
ATOM     27  C9  9WG d   1      47.109  94.233 118.248  0.00  0.00    -0.045 A 
ATOM     28  H2  9WG d   1      49.075  94.036 119.071  0.00  0.00     0.085 H 
ATOM     29  C10 9WG d   1      46.362  94.104 117.105  0.00  0.00     0.116 A 
ATOM     30  H1  9WG d   1      46.651  94.541 119.181  0.00  0.00     0.088 H 
ATOM     31  C11 9WG d   1      46.904  93.749 115.893  0.00  0.00    -0.045 A 
ATOM     32  F13 9WG d   1      45.013  94.262 117.192  0.00  0.00    -0.206 F 
ATOM     33  C12 9WG d   1      48.262  93.484 115.834  0.00  0.00    -0.068 A 
ATOM     34  H8  9WG d   1      46.285  93.678 115.006  0.00  0.00     0.088 H 
ATOM     35  H9  9WG d   1      48.710  93.196 114.890  0.00  0.00     0.085 H 
ENDBRANCH   4  25
BRANCH   2  36
ATOM     36  C1  9WG d   1      53.484  93.761 115.069  0.00  0.00     0.002 C 
ATOM     37  H4  9WG d   1      54.462  93.391 115.412  0.00  0.00     0.059 H 
ATOM     38  H5  9WG d   1      53.526  94.854 114.951  0.00  0.00     0.059 H 
ATOM     39  H6  9WG d   1      53.235  93.297 114.103  0.00  0.00     0.059 H 
ENDBRANCH   2  36
TORSDOF 4
