REMARK  2 active torsions:
REMARK  status: ('A' for Active; 'I' for Inactive)
REMARK    1  A    between atoms: C3_3  and  C1_1 
REMARK       I    between atoms: N7_14  and  C3_3 
REMARK    2  A    between atoms: N7_14  and  C8_15 
ROOT
ATOM      1  C3  9WS d   1     -18.577   3.925 -20.197  0.00  0.00     0.260 C 
ATOM      2  N7  9WS d   1     -17.800   2.893 -19.788  0.00  0.00    -0.321 N 
ATOM      3  O11 9WS d   1     -18.204   4.696 -21.065  0.00  0.00    -0.267 OA
ATOM      4  H8  9WS d   1     -18.140   2.281 -19.073  0.00  0.00     0.169 HD
ENDROOT
BRANCH   1   5
ATOM      5  C1  9WS d   1     -19.913   4.154 -19.601  0.00  0.00     0.080 A 
ATOM      6  C2  9WS d   1     -20.902   4.944 -20.042  0.00  0.00     0.075 A 
ATOM      7  N4  9WS d   1     -21.925   4.871 -19.233  0.00  0.00    -0.244 N 
ATOM      8  C9  9WS d   1     -20.969   5.813 -21.233  0.00  0.00    -0.054 A 
ATOM      9  N5  9WS d   1     -21.624   4.020 -18.231  0.00  0.00    -0.179 NA
ATOM     10  C10 9WS d   1     -23.039   5.529 -19.400  0.00  0.00     0.004 A 
ATOM     11  C6  9WS d   1     -20.455   3.552 -18.371  0.00  0.00     0.040 A 
ATOM     12  H7  9WS d   1     -19.951   2.845 -17.713  0.00  0.00     0.119 H 
ATOM     13  C14 9WS d   1     -23.197   6.344 -20.451  0.00  0.00    -0.066 A 
ATOM     14  H10 9WS d   1     -23.847   5.415 -18.679  0.00  0.00     0.114 H 
ATOM     15  C13 9WS d   1     -22.101   6.497 -21.424  0.00  0.00    -0.079 A 
ATOM     16  H2  9WS d   1     -24.130   6.890 -20.586  0.00  0.00     0.085 H 
ATOM     17  H1  9WS d   1     -22.212   7.156 -22.284  0.00  0.00     0.083 H 
ATOM     18  H9  9WS d   1     -20.133   5.893 -21.926  0.00  0.00     0.087 H 
ENDBRANCH   1   5
BRANCH   2  19
ATOM     19  C8  9WS d   1     -16.515   2.657 -20.348  0.00  0.00     0.056 A 
ATOM     20  C12 9WS d   1     -16.174   1.377 -20.803  0.00  0.00     0.060 A 
ATOM     21  C17 9WS d   1     -14.912   1.139 -21.355  0.00  0.00    -0.060 A 
ATOM     22 CL15 9WS d   1     -17.324   0.059 -20.686  0.00  0.00    -0.082 Cl
ATOM     23  C19 9WS d   1     -13.983   2.178 -21.456  0.00  0.00    -0.081 A 
ATOM     24  H4  9WS d   1     -14.653   0.146 -21.706  0.00  0.00     0.086 H 
ATOM     25  C18 9WS d   1     -14.319   3.456 -21.003  0.00  0.00    -0.081 A 
ATOM     26  H6  9WS d   1     -13.005   1.993 -21.884  0.00  0.00     0.083 H 
ATOM     27  C16 9WS d   1     -15.581   3.694 -20.451  0.00  0.00    -0.055 A 
ATOM     28  H5  9WS d   1     -13.600   4.264 -21.080  0.00  0.00     0.083 H 
ATOM     29  H3  9WS d   1     -15.838   4.687 -20.101  0.00  0.00     0.087 H 
ENDBRANCH   2  19
TORSDOF 2
