REMARK  4 active torsions:
REMARK  status: ('A' for Active; 'I' for Inactive)
REMARK    1  A    between atoms: C05_2  and  C02_1 
REMARK       I    between atoms: C02_1  and  N03_20 
REMARK    2  A    between atoms: C09_6  and  C08_5 
REMARK    3  A    between atoms: N10_21  and  C09_6 
REMARK    4  A    between atoms: N03_20  and  O04_24 
ROOT
ATOM      1  C11 K70 d   1     -38.764   1.740  21.712  0.00  0.00     0.053 A 
ATOM      2  C12 K70 d   1     -40.077   1.174  21.485  0.00  0.00    -0.056 A 
ATOM      3  C13 K70 d   1     -40.851   1.508  20.342  0.00  0.00    -0.081 A 
ATOM      4  C14 K70 d   1     -40.331   2.416  19.393  0.00  0.00    -0.082 A 
ATOM      5  C15 K70 d   1     -39.033   2.990  19.591  0.00  0.00    -0.064 A 
ATOM      6  C16 K70 d   1     -38.261   2.644  20.752  0.00  0.00     0.032 A 
ATOM      7  C18 K70 d   1     -36.089   2.886  22.845  0.00  0.00     0.051 A 
ATOM      8  C19 K70 d   1     -34.957   3.438  23.533  0.00  0.00    -0.061 A 
ATOM      9  C20 K70 d   1     -34.682   3.024  24.878  0.00  0.00    -0.065 A 
ATOM     10  C21 K70 d   1     -35.546   2.072  25.480  0.00  0.00     0.004 A 
ATOM     11  C23 K70 d   1     -36.913   1.940  23.501  0.00  0.00     0.147 A 
ATOM     12  N10 K70 d   1     -38.051   1.342  22.900  0.00  0.00    -0.325 N 
ATOM     13  N22 K70 d   1     -36.614   1.557  24.814  0.00  0.00    -0.242 NA
ATOM     14  S17 K70 d   1     -36.585   3.304  21.137  0.00  0.00    -0.084 SA
ATOM     15  H5  K70 d   1     -40.481   0.475  22.208  0.00  0.00     0.087 H 
ATOM     16  H6  K70 d   1     -41.832   1.070  20.199  0.00  0.00     0.083 H 
ATOM     17  H7  K70 d   1     -40.913   2.678  18.517  0.00  0.00     0.083 H 
ATOM     18  H8  K70 d   1     -38.633   3.687  18.863  0.00  0.00     0.085 H 
ATOM     19  H9  K70 d   1     -34.316   4.161  23.041  0.00  0.00     0.085 H 
ATOM     20  H10 K70 d   1     -33.836   3.428  25.422  0.00  0.00     0.085 H 
ATOM     21  H11 K70 d   1     -35.350   1.748  26.495  0.00  0.00     0.114 H 
ENDROOT
BRANCH  12  22
ATOM     22  C09 K70 d   1     -38.350  -0.050  23.406  0.00  0.00     0.025 C 
ATOM     23  H3  K70 d   1     -37.877  -0.169  24.392  0.00  0.00     0.072 H 
ATOM     24  H4  K70 d   1     -39.440  -0.154  23.507  0.00  0.00     0.072 H 
BRANCH  22  25
ATOM     25  C08 K70 d   1     -37.835  -1.184  22.478  0.00  0.00    -0.040 A 
ATOM     26  C07 K70 d   1     -36.793  -0.953  21.544  0.00  0.00    -0.074 A 
ATOM     27  C06 K70 d   1     -36.315  -1.991  20.683  0.00  0.00    -0.067 A 
ATOM     28  H2  K70 d   1     -36.348   0.034  21.481  0.00  0.00     0.084 H 
ATOM     29  C05 K70 d   1     -36.860  -3.303  20.723  0.00  0.00     0.034 A 
ATOM     30  H1  K70 d   1     -35.517  -1.771  19.983  0.00  0.00     0.085 H 
ATOM     31  C25 K70 d   1     -37.904  -3.530  21.656  0.00  0.00    -0.067 A 
ATOM     32  C24 K70 d   1     -38.386  -2.494  22.518  0.00  0.00    -0.074 A 
ATOM     33  H13 K70 d   1     -38.349  -4.516  21.718  0.00  0.00     0.085 H 
ATOM     34  H12 K70 d   1     -39.187  -2.712  23.215  0.00  0.00     0.084 H 
BRANCH  29  35
ATOM     35  C02 K70 d   1     -36.333  -4.412  19.784  0.00  0.00     0.275 C 
ATOM     36  N03 K70 d   1     -35.224  -4.234  18.914  0.00  0.00    -0.233 N 
ATOM     37  H14 K70 d   1     -34.736  -3.361  18.887  0.00  0.00     0.197 HD
ATOM     38  O01 K70 d   1     -36.918  -5.528  19.786  0.00  0.00    -0.265 OA
BRANCH  36  39
ATOM     39  O04 K70 d   1     -34.819  -5.308  18.087  0.00  0.00    -0.287 OA
ATOM     40  H15 K70 d   1     -34.071  -5.040  17.566  0.00  0.00     0.244 HD
ENDBRANCH  36  39
ENDBRANCH  29  35
ENDBRANCH  22  25
ENDBRANCH  12  22
TORSDOF 4
