REMARK  12 active torsions:
REMARK  status: ('A' for Active; 'I' for Inactive)
REMARK    1  A    between atoms: C11_3  and  C12_4 
REMARK    2  A    between atoms: O10_22  and  C11_3 
REMARK    3  A    between atoms: C12_4  and  N13_23 
REMARK    4  A    between atoms: C7_19  and  C14_5 
REMARK    5  A    between atoms: C21_11  and  N26_27 
REMARK    6  A    between atoms: N17_24  and  C27_14 
REMARK    7  A    between atoms: C4_16  and  O10_22 
REMARK    8  A    between atoms: C5_17  and  S28_28 
REMARK    9  A    between atoms: S28_28  and  C31_31 
REMARK   10  A    between atoms: C31_31  and  C32_32 
REMARK   11  A    between atoms: C31_31  and  C33_33 
REMARK   12  A    between atoms: C31_31  and  C34_34 
ROOT
ATOM      1  C2  9XA d   1       1.915  15.133  93.461  0.00  0.00     0.136 A 
ATOM      2  C3  9XA d   1       0.809  14.239  93.080  0.00  0.00    -0.004 A 
ATOM      3  N1  9XA d   1       1.718  16.304  93.996  0.00  0.00    -0.303 N 
ATOM      4  C4  9XA d   1      -0.443  14.690  93.293  0.00  0.00     0.095 A 
ATOM      5  C5  9XA d   1      -0.597  16.081  93.864  0.00  0.00     0.109 A 
ATOM      6  C6  9XA d   1       0.512  16.796  94.169  0.00  0.00     0.011 A 
ATOM      7  C7  9XA d   1       2.893  16.883  94.215  0.00  0.00     0.068 A 
ATOM      8  C8  9XA d   1       3.888  16.026  93.884  0.00  0.00     0.032 A 
ATOM      9  N9  9XA d   1       3.141  14.916  93.359  0.00  0.00    -0.240 NA
ATOM     10  H1  9XA d   1       0.994  13.258  92.646  0.00  0.00     0.093 H 
ATOM     11  H19 9XA d   1       0.402  17.803  94.567  0.00  0.00     0.114 H 
ATOM     12  H20 9XA d   1       4.965  16.146  93.988  0.00  0.00     0.118 H 
ENDROOT
BRANCH   4  13
ATOM     13  O10 9XA d   1      -1.529  13.950  92.983  0.00  0.00    -0.348 OA
BRANCH  13  14
ATOM     14  C11 9XA d   1      -1.471  12.614  92.437  0.00  0.00     0.040 C 
ATOM     15  H2  9XA d   1      -0.548  12.468  91.857  0.00  0.00     0.077 H 
ATOM     16  H3  9XA d   1      -1.524  11.861  93.237  0.00  0.00     0.077 H 
BRANCH  14  17
ATOM     17  C12 9XA d   1      -2.720  12.534  91.519  0.00  0.00     0.011 C 
ATOM     18  H4  9XA d   1      -2.574  11.695  90.822  0.00  0.00     0.066 H 
ATOM     19  H5  9XA d   1      -2.784  13.475  90.952  0.00  0.00     0.066 H 
BRANCH  17  20
ATOM     20  N13 9XA d   1      -4.034  12.328  92.220  0.00  0.00    -0.407 N 
ATOM     21  C15 9XA d   1      -4.705  13.411  93.021  0.00  0.00     0.005 C 
ATOM     22  C16 9XA d   1      -5.802  14.182  92.229  0.00  0.00     0.004 C 
ATOM     23  H6  9XA d   1      -5.172  12.952  93.905  0.00  0.00     0.066 H 
ATOM     24  H7  9XA d   1      -3.938  14.131  93.344  0.00  0.00     0.066 H 
ATOM     25  N17 9XA d   1      -6.760  13.164  91.711  0.00  0.00    -0.414 N 
ATOM     26  H8  9XA d   1      -5.347  14.733  91.393  0.00  0.00     0.066 H 
ATOM     27  H9  9XA d   1      -6.323  14.887  92.893  0.00  0.00     0.066 H 
ATOM     28  C18 9XA d   1      -6.158  12.107  90.844  0.00  0.00     0.004 C 
ATOM     29  C19 9XA d   1      -4.975  11.383  91.557  0.00  0.00     0.005 C 
ATOM     30  H10 9XA d   1      -6.932  11.366  90.595  0.00  0.00     0.066 H 
ATOM     31  H11 9XA d   1      -5.786  12.573  89.920  0.00  0.00     0.066 H 
ATOM     32  H12 9XA d   1      -4.418  10.800  90.809  0.00  0.00     0.066 H 
ATOM     33  H13 9XA d   1      -5.386  10.705  92.319  0.00  0.00     0.066 H 
BRANCH  25  34
ATOM     34  C27 9XA d   1      -8.064  13.704  91.249  0.00  0.00    -0.023 C 
ATOM     35  H16 9XA d   1      -8.415  14.470  91.956  0.00  0.00     0.055 H 
ATOM     36  H17 9XA d   1      -8.801  12.889  91.197  0.00  0.00     0.055 H 
ATOM     37  H18 9XA d   1      -7.943  14.153  90.252  0.00  0.00     0.055 H 
ENDBRANCH  25  34
ENDBRANCH  17  20
ENDBRANCH  14  17
ENDBRANCH  13  14
ENDBRANCH   4  13
BRANCH   5  38
ATOM     38  S28 9XA d   1      -2.146  16.899  94.101  0.00  0.00     0.187 S 
ATOM     39  O29 9XA d   1      -1.896  18.339  94.081  0.00  0.00    -0.222 OA
ATOM     40  O30 9XA d   1      -3.102  16.409  93.100  0.00  0.00    -0.222 OA
BRANCH  38  41
ATOM     41  C31 9XA d   1      -2.757  16.454  95.764  0.00  0.00     0.058 C 
BRANCH  41  42
ATOM     42  C32 9XA d   1      -1.874  17.022  96.908  0.00  0.00    -0.056 C 
ATOM     43  H23 9XA d   1      -2.293  16.720  97.879  0.00  0.00     0.029 H 
ATOM     44  H24 9XA d   1      -1.852  18.120  96.844  0.00  0.00     0.029 H 
ATOM     45  H25 9XA d   1      -0.851  16.628  96.812  0.00  0.00     0.029 H 
ENDBRANCH  41  42
BRANCH  41  46
ATOM     46  C33 9XA d   1      -4.162  17.098  95.864  0.00  0.00    -0.056 C 
ATOM     47  H26 9XA d   1      -4.600  16.872  96.848  0.00  0.00     0.029 H 
ATOM     48  H27 9XA d   1      -4.809  16.691  95.073  0.00  0.00     0.029 H 
ATOM     49  H28 9XA d   1      -4.075  18.188  95.743  0.00  0.00     0.029 H 
ENDBRANCH  41  46
BRANCH  41  50
ATOM     50  C34 9XA d   1      -2.896  14.925  95.936  0.00  0.00    -0.056 C 
ATOM     51  H29 9XA d   1      -3.265  14.702  96.948  0.00  0.00     0.029 H 
ATOM     52  H30 9XA d   1      -1.915  14.449  95.790  0.00  0.00     0.029 H 
ATOM     53  H31 9XA d   1      -3.607  14.535  95.192  0.00  0.00     0.029 H 
ENDBRANCH  41  50
ENDBRANCH  38  41
ENDBRANCH   5  38
BRANCH   7  54
ATOM     54  C14 9XA d   1       3.195  18.220  94.857  0.00  0.00    -0.001 A 
ATOM     55  C20 9XA d   1       2.472  18.679  95.971  0.00  0.00    -0.027 A 
ATOM     56  C21 9XA d   1       2.835  19.884  96.592  0.00  0.00     0.123 A 
ATOM     57  H14 9XA d   1       1.635  18.103  96.350  0.00  0.00     0.090 H 
ATOM     58  N22 9XA d   1       3.908  20.582  96.122  0.00  0.00    -0.220 NA
ATOM     59  C23 9XA d   1       4.641  20.169  95.037  0.00  0.00     0.129 A 
ATOM     60  C24 9XA d   1       4.292  18.965  94.405  0.00  0.00    -0.032 A 
ATOM     61 CL25 9XA d   1       6.009  21.104  94.395  0.00  0.00    -0.062 Cl
ATOM     62  H15 9XA d   1       4.875  18.610  93.563  0.00  0.00     0.089 H 
BRANCH  56  63
ATOM     63  N26 9XA d   1       2.134  20.348  97.656  0.00  0.00    -0.384 N 
ATOM     64  H21 9XA d   1       2.407  21.233  98.106  0.00  0.00     0.157 HD
ATOM     65  H22 9XA d   1       1.329  19.815  98.014  0.00  0.00     0.157 HD
ENDBRANCH  56  63
ENDBRANCH   7  54
TORSDOF 12
