REMARK  31 active torsions:
REMARK  status: ('A' for Active; 'I' for Inactive)
REMARK    1  A    between atoms: C_1  and  CH3_3 
REMARK       I    between atoms: N_5  and  C_1 
REMARK    2  A    between atoms: C_4  and  CA_7 
REMARK       I    between atoms: N_17  and  C_4 
REMARK    3  A    between atoms: CA_7  and  N_5 
REMARK    4  A    between atoms: CA_7  and  CB_8 
REMARK    5  A    between atoms: CB_8  and  CI_10 
REMARK    6  A    between atoms: CJ_11  and  CG_9 
REMARK    7  A    between atoms: CI_10  and  CJ_11 
REMARK    8  A    between atoms: CA_18  and  N_17 
REMARK    9  A    between atoms: CA_26  and  CB_29 
REMARK   10  A    between atoms: CB_29  and  CG_30 
REMARK   11  A    between atoms: CG_30  and  CD1_31 
REMARK   12  A    between atoms: CG_30  and  CD2_32 
REMARK   13  A    between atoms: CA_34  and  CB_37 
REMARK   14  A    between atoms: CB_37  and  CG_38 
REMARK   15  A    between atoms: CG_38  and  CD_39 
REMARK   16  A    between atoms: CA_43  and  CB_46 
REMARK   17  A    between atoms: CB_46  and  CG_47 
REMARK   18  A    between atoms: CZ_52  and  OH_53 
REMARK   19  A    between atoms: CB_62  and  CG_65 
REMARK   20  A    between atoms: CA_66  and  CB_62 
REMARK   21  A    between atoms: CA_68  and  CB_71 
REMARK   22  A    between atoms: CB_71  and  CG_72 
REMARK   23  A    between atoms: CG_72  and  CD_73 
REMARK   24  A    between atoms: CA_77  and  CB_80 
REMARK   25  A    between atoms: CB_80  and  CG_81 
REMARK   26  A    between atoms: CA_91  and  CB_94 
REMARK   27  A    between atoms: CB_94  and  CG_95 
REMARK   28  A    between atoms: CG_95  and  CD1_96 
REMARK   29  A    between atoms: CG_95  and  CD2_97 
REMARK   30  A    between atoms: CA_99  and  CB_102 
REMARK   31  A    between atoms: CB_102  and  OG_103 
ROOT
ATOM      1  CA  ORN d   1     -27.753 -54.754 -23.830  0.00  0.00     0.089 C 
ATOM      2  CB  ORN d   1     -27.150 -56.081 -23.479  0.00  0.00    -0.036 C 
ATOM      3  CG  ORN d   1     -25.822 -56.316 -24.147  0.00  0.00    -0.048 C 
ATOM      4  CD  ORN d   1     -25.786 -57.729 -24.661  0.00  0.00    -0.005 C 
ATOM      5  NE  ORN d   1     -24.963 -57.806 -25.861  0.00  0.00    -0.361 N 
ATOM      6  C   ORN d   1     -29.043 -54.782 -23.402  0.00  0.00     0.241 C 
ATOM      7  O   ORN d   1     -29.327 -54.605 -22.241  0.00  0.00    -0.271 OA
ATOM      8  H18 ORN d   1     -27.735 -54.584 -24.917  0.00  0.00     0.087 H 
ATOM      9  H19 ORN d   1     -27.845 -56.875 -23.790  0.00  0.00     0.036 H 
ATOM     10  H20 ORN d   1     -27.007 -56.124 -22.389  0.00  0.00     0.036 H 
ATOM     11  H21 ORN d   1     -25.010 -56.165 -23.420  0.00  0.00     0.035 H 
ATOM     12  H22 ORN d   1     -25.699 -55.614 -24.985  0.00  0.00     0.035 H 
ATOM     13  H23 ORN d   1     -26.809 -58.055 -24.900  0.00  0.00     0.064 H 
ATOM     14  H24 ORN d   1     -25.363 -58.387 -23.887  0.00  0.00     0.064 H 
ATOM     15  H25 ORN d   1     -24.067 -57.363 -25.846  0.00  0.00     0.162 HD
ATOM     16  N   LEU d   1     -30.019 -55.078 -24.293  0.00  0.00    -0.346 N 
ATOM     17  CA  LEU d   1     -31.408 -55.171 -23.894  0.00  0.00     0.089 C 
ATOM     18  C   LEU d   1     -31.683 -56.512 -23.883  0.00  0.00     0.241 C 
ATOM     19  O   LEU d   1     -31.915 -57.105 -24.908  0.00  0.00    -0.271 OA
ATOM     20  N   LEU d   1     -32.082 -63.885 -28.169  0.00  0.00    -0.346 N 
ATOM     21  CA  LEU d   1     -31.380 -62.763 -28.831  0.00  0.00     0.089 C 
ATOM     22  C   LEU d   1     -30.070 -63.051 -29.050  0.00  0.00     0.241 C 
ATOM     23  O   LEU d   1     -29.500 -63.860 -28.361  0.00  0.00    -0.271 OA
ATOM     24  H26 LEU d   1     -29.775 -55.236 -25.250  0.00  0.00     0.163 HD
ATOM     25  H27 LEU d   1     -31.546 -54.748 -22.888  0.00  0.00     0.087 H 
ATOM     26  H75 LEU d   1     -32.645 -63.692 -27.365  0.00  0.00     0.163 HD
ATOM     27  H76 LEU d   1     -31.860 -62.601 -29.808  0.00  0.00     0.087 H 
ATOM     28  N   GLU d   1     -31.660 -57.223 -22.726  0.00  0.00    -0.346 N 
ATOM     29  CA  GLU d   1     -31.865 -58.671 -22.703  0.00  0.00     0.090 C 
ATOM     30  C   GLU d   1     -33.190 -58.991 -22.510  0.00  0.00     0.241 C 
ATOM     31  O   GLU d   1     -33.629 -59.417 -21.461  0.00  0.00    -0.271 OA
ATOM     32  N   GLU d   1     -34.399 -64.621 -24.639  0.00  0.00    -0.346 N 
ATOM     33  CA  GLU d   1     -33.171 -65.391 -24.452  0.00  0.00     0.090 C 
ATOM     34  C   GLU d   1     -32.616 -65.802 -25.622  0.00  0.00     0.241 C 
ATOM     35  O   GLU d   1     -31.459 -66.137 -25.639  0.00  0.00    -0.271 OA
ATOM     36  H37 GLU d   1     -31.498 -56.742 -21.864  0.00  0.00     0.163 HD
ATOM     37  H38 GLU d   1     -31.569 -59.078 -23.681  0.00  0.00     0.087 H 
ATOM     38  H59 GLU d   1     -35.286 -65.080 -24.582  0.00  0.00     0.163 HD
ATOM     39  H60 GLU d   1     -32.441 -64.726 -23.968  0.00  0.00     0.087 H 
ATOM     40  N   TYR d   1     -34.040 -58.871 -23.559  0.00  0.00    -0.346 N 
ATOM     41  CA  TYR d   1     -35.463 -59.095 -23.422  0.00  0.00     0.093 C 
ATOM     42  C   TYR d   1     -35.872 -60.374 -23.743  0.00  0.00     0.241 C 
ATOM     43  O   TYR d   1     -36.894 -60.832 -23.289  0.00  0.00    -0.271 OA
ATOM     44  H43 TYR d   1     -33.673 -58.620 -24.455  0.00  0.00     0.163 HD
ATOM     45  H44 TYR d   1     -35.751 -58.901 -22.378  0.00  0.00     0.088 H 
ATOM     46  N   ZCL d   1     -35.119 -61.159 -24.575  0.00  0.00    -0.346 N 
ATOM     47  O   ZCL d   1     -33.259 -62.747 -25.003  0.00  0.00    -0.271 OA
ATOM     48  C   ZCL d   1     -34.345 -63.273 -24.892  0.00  0.00     0.241 C 
ATOM     49  CA  ZCL d   1     -35.487 -62.522 -24.958  0.00  0.00     0.093 C 
ATOM     50  H52 ZCL d   1     -34.270 -60.779 -24.941  0.00  0.00     0.163 HD
ATOM     51  H58 ZCL d   1     -36.224 -62.916 -24.242  0.00  0.00     0.088 H 
ATOM     52  N   TRP d   1     -33.315 -65.786 -26.780  0.00  0.00    -0.346 N 
ATOM     53  CA  TRP d   1     -32.701 -66.204 -28.034  0.00  0.00     0.093 C 
ATOM     54  C   TRP d   1     -31.991 -65.184 -28.616  0.00  0.00     0.241 C 
ATOM     55  O   TRP d   1     -31.272 -65.423 -29.558  0.00  0.00    -0.271 OA
ATOM     56  H65 TRP d   1     -34.268 -65.483 -26.776  0.00  0.00     0.163 HD
ATOM     57  H66 TRP d   1     -32.010 -67.033 -27.821  0.00  0.00     0.088 H 
ATOM     58  N   SER d   1     -29.380 -62.409 -30.027  0.00  0.00    -0.344 N 
ATOM     59  CA  SER d   1     -27.984 -62.728 -30.288  0.00  0.00     0.109 C 
ATOM     60  C   SER d   1     -27.084 -62.146 -29.435  0.00  0.00     0.242 C 
ATOM     61  O   SER d   1     -26.011 -62.704 -29.302  0.00  0.00    -0.271 OA
ATOM     62  H86 SER d   1     -29.837 -61.708 -30.575  0.00  0.00     0.163 HD
ATOM     63  H87 SER d   1     -27.889 -63.814 -30.142  0.00  0.00     0.090 H 
ATOM     64  N   BAL d   1     -27.326 -60.974 -28.727  0.00  0.00    -0.359 N 
ATOM     65  CB  BAL d   1     -26.275 -60.467 -27.819  0.00  0.00     0.003 C 
ATOM     66  CA  BAL d   1     -26.537 -59.136 -27.142  0.00  0.00     0.024 C 
ATOM     67  C   BAL d   1     -25.343 -58.447 -27.006  0.00  0.00     0.219 C 
ATOM     68  O   BAL d   1     -24.554 -58.385 -27.924  0.00  0.00    -0.274 OA
ATOM     69  H91 BAL d   1     -28.192 -60.485 -28.830  0.00  0.00     0.162 HD
ATOM     70  H92 BAL d   1     -26.128 -61.218 -27.029  0.00  0.00     0.064 H 
ATOM     71  H93 BAL d   1     -25.350 -60.365 -28.405  0.00  0.00     0.064 H 
ATOM     72  H94 BAL d   1     -26.976 -59.309 -26.148  0.00  0.00     0.049 H 
ATOM     73  H95 BAL d   1     -27.235 -58.544 -27.753  0.00  0.00     0.049 H 
ENDROOT
BRANCH   1  74
ATOM     74  N   ORN d   1     -26.916 -53.767 -23.169  0.00  0.00    -0.346 N 
ATOM     75  C   PH8 d   1     -26.076 -52.926 -23.780  0.00  0.00     0.241 C 
ATOM     76  O   PH8 d   1     -25.972 -52.720 -24.963  0.00  0.00    -0.271 OA
ATOM     77  H17 ORN d   1     -26.973 -53.712 -22.172  0.00  0.00     0.163 HD
BRANCH  75  78
ATOM     78  CA  PH8 d   1     -25.270 -52.112 -22.793  0.00  0.00     0.089 C 
ATOM     79  H5  PH8 d   1     -24.994 -52.734 -21.929  0.00  0.00     0.087 H 
BRANCH  78  80
ATOM     80  N   PH8 d   1     -24.161 -51.524 -23.431  0.00  0.00    -0.348 N 
ATOM     81  C   ACE d   1     -22.964 -51.924 -23.177  0.00  0.00     0.214 C 
ATOM     82  O   ACE d   1     -22.701 -52.865 -22.443  0.00  0.00    -0.274 OA
ATOM     83  H4  PH8 d   1     -24.305 -50.786 -24.090  0.00  0.00     0.163 HD
BRANCH  81  84
ATOM     84  CH3 ACE d   1     -21.913 -51.150 -23.939  0.00  0.00    -0.003 C 
ATOM     85  H1  ACE d   1     -22.397 -50.355 -24.526  0.00  0.00     0.040 H 
ATOM     86  H2  ACE d   1     -21.375 -51.830 -24.616  0.00  0.00     0.040 H 
ATOM     87  H3  ACE d   1     -21.202 -50.701 -23.230  0.00  0.00     0.040 H 
ENDBRANCH  81  84
ENDBRANCH  78  80
BRANCH  78  88
ATOM     88  CB  PH8 d   1     -25.919 -50.888 -22.408  0.00  0.00    -0.038 C 
ATOM     89  H6  PH8 d   1     -26.172 -50.290 -23.296  0.00  0.00     0.036 H 
ATOM     90  H7  PH8 d   1     -25.270 -50.300 -21.743  0.00  0.00     0.036 H 
BRANCH  88  91
ATOM     91  CI  PH8 d   1     -27.123 -51.298 -21.711  0.00  0.00    -0.059 C 
ATOM     92  H8  PH8 d   1     -27.056 -51.105 -20.630  0.00  0.00     0.033 H 
ATOM     93  H9  PH8 d   1     -27.352 -52.361 -21.880  0.00  0.00     0.033 H 
BRANCH  91  94
ATOM     94  CJ  PH8 d   1     -28.111 -50.408 -22.371  0.00  0.00    -0.041 C 
ATOM     95  H10 PH8 d   1     -27.626 -49.609 -22.951  0.00  0.00     0.040 H 
ATOM     96  H11 PH8 d   1     -28.802 -50.965 -23.021  0.00  0.00     0.040 H 
BRANCH  94  97
ATOM     97  CG  PH8 d   1     -28.700 -49.952 -21.307  0.00  0.00    -0.058 A 
ATOM     98  CD1 PH8 d   1     -29.779 -50.649 -20.904  0.00  0.00    -0.077 A 
ATOM     99  CE1 PH8 d   1     -30.404 -50.252 -19.764  0.00  0.00    -0.082 A 
ATOM    100  H13 PH8 d   1     -30.138 -51.500 -21.471  0.00  0.00     0.084 H 
ATOM    101  CZ  PH8 d   1     -29.886 -49.162 -19.114  0.00  0.00    -0.083 A 
ATOM    102  H15 PH8 d   1     -31.275 -50.775 -19.385  0.00  0.00     0.083 H 
ATOM    103  CE2 PH8 d   1     -28.778 -48.465 -19.508  0.00  0.00    -0.082 A 
ATOM    104  H12 PH8 d   1     -30.395 -48.827 -18.218  0.00  0.00     0.083 H 
ATOM    105  CD2 PH8 d   1     -28.180 -48.889 -20.644  0.00  0.00    -0.077 A 
ATOM    106  H16 PH8 d   1     -28.401 -47.621 -18.942  0.00  0.00     0.083 H 
ATOM    107  H14 PH8 d   1     -27.297 -48.386 -21.020  0.00  0.00     0.084 H 
ENDBRANCH  94  97
ENDBRANCH  91  94
ENDBRANCH  88  91
ENDBRANCH  78  88
ENDBRANCH  75  78
ENDBRANCH   1  74
BRANCH  17 108
ATOM    108  CB  LEU d   1     -32.305 -54.419 -24.877  0.00  0.00    -0.035 C 
ATOM    109  H28 LEU d   1     -33.312 -54.319 -24.445  0.00  0.00     0.037 H 
ATOM    110  H29 LEU d   1     -32.365 -54.986 -25.818  0.00  0.00     0.037 H 
BRANCH 108 111
ATOM    111  CG  LEU d   1     -31.742 -53.029 -25.163  0.00  0.00    -0.059 C 
ATOM    112  H30 LEU d   1     -30.675 -53.119 -25.413  0.00  0.00     0.038 H 
BRANCH 111 113
ATOM    113  CD1 LEU d   1     -32.484 -52.379 -26.312  0.00  0.00    -0.073 C 
ATOM    114  H31 LEU d   1     -32.064 -51.380 -26.502  0.00  0.00     0.028 H 
ATOM    115  H32 LEU d   1     -33.549 -52.286 -26.055  0.00  0.00     0.028 H 
ATOM    116  H33 LEU d   1     -32.378 -52.999 -27.215  0.00  0.00     0.028 H 
ENDBRANCH 111 113
BRANCH 111 117
ATOM    117  CD2 LEU d   1     -31.910 -52.124 -23.960  0.00  0.00    -0.073 C 
ATOM    118  H34 LEU d   1     -31.384 -52.559 -23.097  0.00  0.00     0.028 H 
ATOM    119  H35 LEU d   1     -32.980 -52.022 -23.724  0.00  0.00     0.028 H 
ATOM    120  H36 LEU d   1     -31.488 -51.133 -24.185  0.00  0.00     0.028 H 
ENDBRANCH 111 117
ENDBRANCH 108 111
ENDBRANCH  17 108
BRANCH  29 121
ATOM    121  CB  GLU d   1     -30.941 -59.269 -21.644  0.00  0.00    -0.029 C 
ATOM    122  H39 GLU d   1     -30.923 -60.364 -21.743  0.00  0.00     0.037 H 
ATOM    123  H40 GLU d   1     -31.301 -58.997 -20.641  0.00  0.00     0.037 H 
BRANCH 121 124
ATOM    124  CG  GLU d   1     -29.547 -58.713 -21.855  0.00  0.00     0.018 C 
ATOM    125  H41 GLU d   1     -29.613 -57.621 -21.972  0.00  0.00     0.049 H 
ATOM    126  H42 GLU d   1     -29.122 -59.154 -22.769  0.00  0.00     0.049 H 
BRANCH 124 127
ATOM    127  CD  GLU d   1     -28.634 -59.025 -20.692  0.00  0.00     0.172 C 
ATOM    128  OE2 GLU d   1     -27.570 -59.594 -20.960  0.00  0.00    -0.648 OA
ATOM    129  OE1 GLU d   1     -28.994 -58.675 -19.572  0.00  0.00    -0.648 OA
ENDBRANCH 124 127
ENDBRANCH 121 124
ENDBRANCH  29 121
BRANCH  41 130
ATOM    130  CB  TYR d   1     -36.134 -58.090 -24.326  0.00  0.00    -0.014 C 
ATOM    131  H45 TYR d   1     -37.218 -58.276 -24.297  0.00  0.00     0.043 H 
ATOM    132  H46 TYR d   1     -35.762 -58.250 -25.349  0.00  0.00     0.043 H 
BRANCH 130 133
ATOM    133  CG  TYR d   1     -35.918 -56.762 -23.994  0.00  0.00    -0.056 A 
ATOM    134  CD1 TYR d   1     -35.525 -56.323 -22.753  0.00  0.00    -0.074 A 
ATOM    135  CE1 TYR d   1     -35.356 -54.981 -22.490  0.00  0.00    -0.051 A 
ATOM    136  H47 TYR d   1     -35.344 -57.046 -21.966  0.00  0.00     0.084 H 
ATOM    137  CZ  TYR d   1     -35.573 -54.038 -23.462  0.00  0.00     0.065 A 
ATOM    138  H49 TYR d   1     -35.047 -54.666 -21.500  0.00  0.00     0.087 H 
ATOM    139  CE2 TYR d   1     -35.974 -54.464 -24.701  0.00  0.00    -0.051 A 
ATOM    140  CD2 TYR d   1     -36.144 -55.806 -24.953  0.00  0.00    -0.074 A 
ATOM    141  H50 TYR d   1     -36.158 -53.740 -25.487  0.00  0.00     0.087 H 
ATOM    142  H48 TYR d   1     -36.467 -56.118 -25.940  0.00  0.00     0.084 H 
BRANCH 137 143
ATOM    143  OH  TYR d   1     -35.404 -52.745 -23.201  0.00  0.00    -0.361 OA
ATOM    144  H51 TYR d   1     -35.126 -52.639 -22.299  0.00  0.00     0.217 HD
ENDBRANCH 137 143
ENDBRANCH 130 133
ENDBRANCH  41 130
BRANCH  59 145
ATOM    145  CB  SER d   1     -27.610 -62.444 -31.714  0.00  0.00     0.044 C 
ATOM    146  H88 SER d   1     -28.438 -62.748 -32.371  0.00  0.00     0.077 H 
ATOM    147  H89 SER d   1     -26.708 -63.019 -31.971  0.00  0.00     0.077 H 
BRANCH 145 148
ATOM    148  OG  SER d   1     -27.353 -61.080 -31.901  0.00  0.00    -0.398 OA
ATOM    149  H90 SER d   1     -27.119 -60.925 -32.809  0.00  0.00     0.209 HD
ENDBRANCH 145 148
ENDBRANCH  59 145
BRANCH  49 150
ATOM    150  CB  ZCL d   1     -36.096 -62.560 -26.342  0.00  0.00    -0.014 C 
ATOM    151  H56 ZCL d   1     -35.343 -62.260 -27.085  0.00  0.00     0.043 H 
ATOM    152  H57 ZCL d   1     -36.444 -63.579 -26.564  0.00  0.00     0.043 H 
BRANCH 150 153
ATOM    153  CG  ZCL d   1     -37.158 -61.690 -26.384  0.00  0.00    -0.054 A 
ATOM    154  CD2 ZCL d   1     -38.328 -62.048 -25.775  0.00  0.00    -0.075 A 
ATOM    155  CE2 ZCL d   1     -39.393 -61.194 -25.814  0.00  0.00    -0.060 A 
ATOM    156  H54 ZCL d   1     -38.410 -63.001 -25.266  0.00  0.00     0.084 H 
ATOM    157  CZ  ZCL d   1     -39.310 -59.986 -26.448  0.00  0.00     0.055 A 
ATOM    158  H53 ZCL d   1     -40.322 -61.480 -25.333  0.00  0.00     0.086 H 
ATOM    159 CLZ  ZCL d   1     -40.635 -59.050 -26.422  0.00  0.00    -0.083 Cl
ATOM    160  CE1 ZCL d   1     -38.140 -59.604 -27.066  0.00  0.00     0.056 A 
ATOM    161 CLE1 ZCL d   1     -37.977 -58.174 -27.840  0.00  0.00    -0.083 Cl
ATOM    162  CD1 ZCL d   1     -37.074 -60.470 -27.028  0.00  0.00    -0.054 A 
ATOM    163  H55 ZCL d   1     -36.146 -60.190 -27.514  0.00  0.00     0.086 H 
ENDBRANCH 150 153
ENDBRANCH  49 150
BRANCH  21 164
ATOM    164  CB  LEU d   1     -31.498 -61.474 -28.032  0.00  0.00    -0.035 C 
ATOM    165  H77 LEU d   1     -30.950 -60.668 -28.542  0.00  0.00     0.037 H 
ATOM    166  H78 LEU d   1     -31.081 -61.621 -27.025  0.00  0.00     0.037 H 
BRANCH 164 167
ATOM    167  CG  LEU d   1     -32.957 -61.115 -27.933  0.00  0.00    -0.059 C 
ATOM    168  H79 LEU d   1     -33.507 -61.938 -27.454  0.00  0.00     0.038 H 
BRANCH 167 169
ATOM    169  CD1 LEU d   1     -33.126 -59.862 -27.129  0.00  0.00    -0.073 C 
ATOM    170  H80 LEU d   1     -34.195 -59.610 -27.064  0.00  0.00     0.028 H 
ATOM    171  H81 LEU d   1     -32.584 -59.038 -27.616  0.00  0.00     0.028 H 
ATOM    172  H82 LEU d   1     -32.724 -60.018 -26.117  0.00  0.00     0.028 H 
ENDBRANCH 167 169
BRANCH 167 173
ATOM    173  CD2 LEU d   1     -33.499 -60.876 -29.317  0.00  0.00    -0.073 C 
ATOM    174  H83 LEU d   1     -33.381 -61.789 -29.919  0.00  0.00     0.028 H 
ATOM    175  H84 LEU d   1     -32.946 -60.051 -29.790  0.00  0.00     0.028 H 
ATOM    176  H85 LEU d   1     -34.565 -60.614 -29.253  0.00  0.00     0.028 H 
ENDBRANCH 167 173
ENDBRANCH 164 167
ENDBRANCH  21 164
BRANCH  33 177
ATOM    177  CB  GLU d   1     -33.421 -66.551 -23.513  0.00  0.00    -0.029 C 
ATOM    178  H61 GLU d   1     -34.133 -67.250 -23.977  0.00  0.00     0.037 H 
ATOM    179  H62 GLU d   1     -33.840 -66.173 -22.569  0.00  0.00     0.037 H 
BRANCH 177 180
ATOM    180  CG  GLU d   1     -32.110 -67.276 -23.231  0.00  0.00     0.018 C 
ATOM    181  H63 GLU d   1     -31.531 -67.328 -24.165  0.00  0.00     0.049 H 
ATOM    182  H64 GLU d   1     -32.340 -68.294 -22.885  0.00  0.00     0.049 H 
BRANCH 180 183
ATOM    183  CD  GLU d   1     -31.257 -66.581 -22.167  0.00  0.00     0.172 C 
ATOM    184  OE2 GLU d   1     -31.776 -66.365 -21.063  0.00  0.00    -0.648 OA
ATOM    185  OE1 GLU d   1     -30.091 -66.285 -22.486  0.00  0.00    -0.648 OA
ENDBRANCH 180 183
ENDBRANCH 177 180
ENDBRANCH  33 177
BRANCH  53 186
ATOM    186  CB  TRP d   1     -33.767 -66.690 -29.004  0.00  0.00    -0.012 C 
ATOM    187  H67 TRP d   1     -34.181 -67.634 -28.620  0.00  0.00     0.044 H 
ATOM    188  H68 TRP d   1     -33.293 -66.868 -29.980  0.00  0.00     0.044 H 
BRANCH 186 189
ATOM    189  CG  TRP d   1     -34.912 -65.707 -29.199  0.00  0.00    -0.028 A 
ATOM    190  CD1 TRP d   1     -36.033 -65.686 -28.526  0.00  0.00    -0.015 A 
ATOM    191  NE1 TRP d   1     -36.753 -64.704 -28.998  0.00  0.00    -0.365 N 
ATOM    192  H69 TRP d   1     -36.314 -66.363 -27.720  0.00  0.00     0.112 H 
ATOM    193  CE2 TRP d   1     -36.068 -64.135 -29.952  0.00  0.00     0.042 A 
ATOM    194  H70 TRP d   1     -37.692 -64.428 -28.676  0.00  0.00     0.165 HD
ATOM    195  CD2 TRP d   1     -34.928 -64.764 -30.090  0.00  0.00    -0.002 A 
ATOM    196  CZ2 TRP d   1     -36.356 -63.122 -30.723  0.00  0.00    -0.056 A 
ATOM    197  CE3 TRP d   1     -34.041 -64.398 -30.982  0.00  0.00    -0.070 A 
ATOM    198  CZ3 TRP d   1     -34.295 -63.346 -31.822  0.00  0.00    -0.082 A 
ATOM    199  H71 TRP d   1     -33.100 -64.931 -31.056  0.00  0.00     0.084 H 
ATOM    200  CH2 TRP d   1     -35.482 -62.692 -31.682  0.00  0.00    -0.081 A 
ATOM    201  H73 TRP d   1     -33.575 -63.044 -32.574  0.00  0.00     0.083 H 
ATOM    202  H74 TRP d   1     -35.728 -61.849 -32.317  0.00  0.00     0.083 H 
ATOM    203  H72 TRP d   1     -37.305 -62.613 -30.601  0.00  0.00     0.086 H 
ENDBRANCH 186 189
ENDBRANCH  53 186
TORSDOF 31
