REMARK  32 active torsions:
REMARK  status: ('A' for Active; 'I' for Inactive)
REMARK    1  A    between atoms: C_1  and  CH3_3 
REMARK       I    between atoms: N_5  and  C_1 
REMARK    2  A    between atoms: C_4  and  CA_7 
REMARK       I    between atoms: N_17  and  C_4 
REMARK    3  A    between atoms: CA_7  and  N_5 
REMARK    4  A    between atoms: CA_7  and  CB_8 
REMARK    5  A    between atoms: CB_8  and  CI_10 
REMARK    6  A    between atoms: CJ_11  and  CG_9 
REMARK    7  A    between atoms: CI_10  and  CJ_11 
REMARK    8  A    between atoms: CA_18  and  N_17 
REMARK    9  A    between atoms: N_25  and  CN_26 
REMARK   10  A    between atoms: CA_27  and  CB_28 
REMARK   11  A    between atoms: CB_28  and  CG_29 
REMARK   12  A    between atoms: CG_29  and  CD1_30 
REMARK   13  A    between atoms: CG_29  and  CD2_31 
REMARK   14  A    between atoms: CA_35  and  CB_38 
REMARK   15  A    between atoms: CB_38  and  CG_39 
REMARK   16  A    between atoms: CG_39  and  CD_40 
REMARK   17  A    between atoms: CA_44  and  CB_47 
REMARK   18  A    between atoms: CB_47  and  CG_48 
REMARK   19  A    between atoms: CZ_53  and  OH_54 
REMARK   20  A    between atoms: CA_56  and  CB_59 
REMARK   21  A    between atoms: CB_59  and  CG_60 
REMARK   22  A    between atoms: CA_67  and  CB_70 
REMARK   23  A    between atoms: CB_70  and  CG_71 
REMARK   24  A    between atoms: CG_71  and  CD_72 
REMARK   25  A    between atoms: CA_76  and  CB_79 
REMARK   26  A    between atoms: CB_79  and  CG_80 
REMARK   27  A    between atoms: CA_90  and  CB_93 
REMARK   28  A    between atoms: CB_93  and  CG_94 
REMARK   29  A    between atoms: CG_94  and  CD1_95 
REMARK   30  A    between atoms: CG_94  and  CD2_96 
REMARK   31  A    between atoms: CA_98  and  CB_101 
REMARK   32  A    between atoms: CB_101  and  OG_102 
ROOT
ATOM      1  CA  ORN d   1     -27.435 -54.246 -22.954  0.00  0.00     0.089 C 
ATOM      2  CB  ORN d   1     -26.819 -55.524 -22.498  0.00  0.00    -0.036 C 
ATOM      3  CG  ORN d   1     -25.498 -55.797 -23.172  0.00  0.00    -0.048 C 
ATOM      4  CD  ORN d   1     -25.473 -57.207 -23.695  0.00  0.00    -0.005 C 
ATOM      5  NE  ORN d   1     -25.075 -57.146 -25.095  0.00  0.00    -0.361 N 
ATOM      6  C   ORN d   1     -28.784 -54.331 -22.724  0.00  0.00     0.243 C 
ATOM      7  O   ORN d   1     -29.187 -54.035 -21.620  0.00  0.00    -0.271 OA
ATOM      8  H18 ORN d   1     -27.227 -54.073 -24.020  0.00  0.00     0.087 H 
ATOM      9  H19 ORN d   1     -27.509 -56.350 -22.725  0.00  0.00     0.036 H 
ATOM     10  H20 ORN d   1     -26.657 -55.470 -21.411  0.00  0.00     0.036 H 
ATOM     11  H21 ORN d   1     -24.683 -55.663 -22.445  0.00  0.00     0.035 H 
ATOM     12  H22 ORN d   1     -25.363 -55.095 -24.008  0.00  0.00     0.035 H 
ATOM     13  H23 ORN d   1     -26.473 -57.658 -23.608  0.00  0.00     0.064 H 
ATOM     14  H24 ORN d   1     -24.749 -57.807 -23.124  0.00  0.00     0.064 H 
ATOM     15  H25 ORN d   1     -24.479 -56.382 -25.341  0.00  0.00     0.162 HD
ATOM     16  N   MLE d   1     -29.660 -54.734 -23.649  0.00  0.00    -0.341 N 
ATOM     17  CA  MLE d   1     -31.102 -54.838 -23.339  0.00  0.00     0.091 C 
ATOM     18  C   MLE d   1     -31.458 -56.164 -23.357  0.00  0.00     0.241 C 
ATOM     19  O   MLE d   1     -31.789 -56.717 -24.384  0.00  0.00    -0.271 OA
ATOM     20  H29 MLE d   1     -31.258 -54.450 -22.322  0.00  0.00     0.087 H 
ATOM     21  N   GLU d   1     -31.427 -56.901 -22.201  0.00  0.00    -0.346 N 
ATOM     22  CA  GLU d   1     -31.748 -58.327 -22.213  0.00  0.00     0.090 C 
ATOM     23  C   GLU d   1     -33.086 -58.487 -21.978  0.00  0.00     0.241 C 
ATOM     24  O   GLU d   1     -33.546 -58.723 -20.878  0.00  0.00    -0.271 OA
ATOM     25  N   GLU d   1     -34.822 -63.999 -24.130  0.00  0.00    -0.346 N 
ATOM     26  CA  GLU d   1     -33.690 -64.899 -23.855  0.00  0.00     0.090 C 
ATOM     27  C   GLU d   1     -32.926 -65.208 -24.928  0.00  0.00     0.241 C 
ATOM     28  O   GLU d   1     -31.774 -65.539 -24.740  0.00  0.00    -0.271 OA
ATOM     29  H39 GLU d   1     -31.182 -56.457 -21.339  0.00  0.00     0.163 HD
ATOM     30  H40 GLU d   1     -31.516 -58.742 -23.205  0.00  0.00     0.087 H 
ATOM     31  H63 GLU d   1     -35.746 -64.376 -24.195  0.00  0.00     0.163 HD
ATOM     32  H64 GLU d   1     -33.048 -64.389 -23.122  0.00  0.00     0.087 H 
ATOM     33  N   TYR d   1     -33.949 -58.364 -23.021  0.00  0.00    -0.346 N 
ATOM     34  CA  TYR d   1     -35.387 -58.419 -22.833  0.00  0.00     0.093 C 
ATOM     35  C   TYR d   1     -35.901 -59.610 -23.226  0.00  0.00     0.241 C 
ATOM     36  O   TYR d   1     -37.037 -59.903 -22.938  0.00  0.00    -0.271 OA
ATOM     37  H45 TYR d   1     -33.583 -58.232 -23.942  0.00  0.00     0.163 HD
ATOM     38  H46 TYR d   1     -35.636 -58.232 -21.778  0.00  0.00     0.088 H 
ATOM     39  N   PHE d   1     -35.159 -60.464 -23.988  0.00  0.00    -0.346 N 
ATOM     40  CA  PHE d   1     -35.670 -61.752 -24.429  0.00  0.00     0.093 C 
ATOM     41  C   PHE d   1     -34.627 -62.641 -24.300  0.00  0.00     0.241 C 
ATOM     42  O   PHE d   1     -33.489 -62.231 -24.277  0.00  0.00    -0.271 OA
ATOM     43  H54 PHE d   1     -34.233 -60.195 -24.252  0.00  0.00     0.163 HD
ATOM     44  H55 PHE d   1     -36.507 -62.064 -23.787  0.00  0.00     0.088 H 
ATOM     45  N   TRP d   1     -33.415 -65.170 -26.198  0.00  0.00    -0.346 N 
ATOM     46  CA  TRP d   1     -32.583 -65.550 -27.318  0.00  0.00     0.093 C 
ATOM     47  C   TRP d   1     -31.935 -64.506 -27.927  0.00  0.00     0.241 C 
ATOM     48  O   TRP d   1     -31.361 -64.684 -28.984  0.00  0.00    -0.271 OA
ATOM     49  H69 TRP d   1     -34.358 -64.877 -26.358  0.00  0.00     0.163 HD
ATOM     50  H70 TRP d   1     -31.830 -66.276 -26.976  0.00  0.00     0.088 H 
ATOM     51  N   LEU d   1     -31.877 -63.260 -27.357  0.00  0.00    -0.346 N 
ATOM     52  CA  LEU d   1     -31.197 -62.160 -28.046  0.00  0.00     0.089 C 
ATOM     53  C   LEU d   1     -29.887 -62.436 -28.095  0.00  0.00     0.241 C 
ATOM     54  O   LEU d   1     -29.405 -63.130 -27.230  0.00  0.00    -0.271 OA
ATOM     55  H79 LEU d   1     -32.301 -63.101 -26.466  0.00  0.00     0.163 HD
ATOM     56  H80 LEU d   1     -31.596 -62.056 -29.066  0.00  0.00     0.087 H 
ATOM     57  N   SER d   1     -29.110 -61.922 -29.096  0.00  0.00    -0.344 N 
ATOM     58  CA  SER d   1     -27.701 -62.237 -29.125  0.00  0.00     0.109 C 
ATOM     59  C   SER d   1     -26.957 -61.221 -28.598  0.00  0.00     0.242 C 
ATOM     60  O   SER d   1     -26.740 -60.206 -29.221  0.00  0.00    -0.271 OA
ATOM     61  H90 SER d   1     -29.512 -61.336 -29.799  0.00  0.00     0.163 HD
ATOM     62  H91 SER d   1     -27.535 -63.141 -28.521  0.00  0.00     0.090 H 
ATOM     63  N   BAL d   1     -26.419 -61.332 -27.344  0.00  0.00    -0.359 N 
ATOM     64  CB  BAL d   1     -25.545 -60.277 -26.796  0.00  0.00     0.003 C 
ATOM     65  CA  BAL d   1     -26.195 -59.143 -25.994  0.00  0.00     0.024 C 
ATOM     66  C   BAL d   1     -25.408 -57.999 -26.128  0.00  0.00     0.219 C 
ATOM     67  O   BAL d   1     -24.951 -57.677 -27.211  0.00  0.00    -0.274 OA
ATOM     68  H95 BAL d   1     -26.621 -62.140 -26.791  0.00  0.00     0.162 HD
ATOM     69  H96 BAL d   1     -24.816 -60.768 -26.135  0.00  0.00     0.064 H 
ATOM     70  H97 BAL d   1     -25.018 -59.816 -27.645  0.00  0.00     0.064 H 
ATOM     71  H98 BAL d   1     -26.258 -59.428 -24.933  0.00  0.00     0.049 H 
ATOM     72  H99 BAL d   1     -27.205 -58.946 -26.382  0.00  0.00     0.049 H 
ENDROOT
BRANCH   1  73
ATOM     73  N   ORN d   1     -26.924 -53.164 -22.154  0.00  0.00    -0.346 N 
ATOM     74  C   PH8 d   1     -26.157 -52.228 -22.658  0.00  0.00     0.241 C 
ATOM     75  O   PH8 d   1     -25.762 -52.228 -23.797  0.00  0.00    -0.271 OA
ATOM     76  H17 ORN d   1     -27.162 -53.125 -21.183  0.00  0.00     0.163 HD
BRANCH  74  77
ATOM     77  CA  PH8 d   1     -25.722 -51.156 -21.710  0.00  0.00     0.089 C 
ATOM     78  H5  PH8 d   1     -25.730 -51.536 -20.678  0.00  0.00     0.087 H 
BRANCH  77  79
ATOM     79  N   PH8 d   1     -24.409 -50.704 -22.092  0.00  0.00    -0.348 N 
ATOM     80  C   ACE d   1     -23.363 -51.489 -22.105  0.00  0.00     0.214 C 
ATOM     81  O   ACE d   1     -23.396 -52.666 -21.819  0.00  0.00    -0.274 OA
ATOM     82  H4  PH8 d   1     -24.292 -49.748 -22.359  0.00  0.00     0.163 HD
BRANCH  80  83
ATOM     83  CH3 ACE d   1     -22.081 -50.822 -22.520  0.00  0.00    -0.003 C 
ATOM     84  H1  ACE d   1     -22.273 -49.760 -22.734  0.00  0.00     0.040 H 
ATOM     85  H2  ACE d   1     -21.688 -51.312 -23.423  0.00  0.00     0.040 H 
ATOM     86  H3  ACE d   1     -21.345 -50.905 -21.707  0.00  0.00     0.040 H 
ENDBRANCH  80  83
ENDBRANCH  77  79
BRANCH  77  87
ATOM     87  CB  PH8 d   1     -26.603 -49.945 -21.844  0.00  0.00    -0.038 C 
ATOM     88  H6  PH8 d   1     -26.412 -49.471 -22.818  0.00  0.00     0.036 H 
ATOM     89  H7  PH8 d   1     -26.360 -49.237 -21.038  0.00  0.00     0.036 H 
BRANCH  87  90
ATOM     90  CI  PH8 d   1     -28.065 -50.305 -21.754  0.00  0.00    -0.059 C 
ATOM     91  H8  PH8 d   1     -28.221 -51.303 -22.191  0.00  0.00     0.033 H 
ATOM     92  H9  PH8 d   1     -28.656 -49.564 -22.312  0.00  0.00     0.033 H 
BRANCH  90  93
ATOM     93  CJ  PH8 d   1     -28.515 -50.317 -20.307  0.00  0.00    -0.041 C 
ATOM     94  H10 PH8 d   1     -29.599 -50.501 -20.278  0.00  0.00     0.040 H 
ATOM     95  H11 PH8 d   1     -27.991 -51.130 -19.783  0.00  0.00     0.040 H 
BRANCH  93  96
ATOM     96  CG  PH8 d   1     -28.253 -49.137 -19.659  0.00  0.00    -0.058 A 
ATOM     97  CD1 PH8 d   1     -26.977 -48.841 -19.238  0.00  0.00    -0.077 A 
ATOM     98  CE1 PH8 d   1     -26.707 -47.664 -18.573  0.00  0.00    -0.082 A 
ATOM     99  H13 PH8 d   1     -26.174 -49.542 -19.432  0.00  0.00     0.084 H 
ATOM    100  CZ  PH8 d   1     -27.740 -46.785 -18.346  0.00  0.00    -0.083 A 
ATOM    101  H15 PH8 d   1     -25.702 -47.436 -18.236  0.00  0.00     0.083 H 
ATOM    102  CE2 PH8 d   1     -29.018 -47.078 -18.759  0.00  0.00    -0.082 A 
ATOM    103  H12 PH8 d   1     -27.544 -45.849 -17.835  0.00  0.00     0.083 H 
ATOM    104  CD2 PH8 d   1     -29.276 -48.259 -19.415  0.00  0.00    -0.077 A 
ATOM    105  H16 PH8 d   1     -29.823 -46.378 -18.567  0.00  0.00     0.083 H 
ATOM    106  H14 PH8 d   1     -30.284 -48.494 -19.737  0.00  0.00     0.084 H 
ENDBRANCH  93  96
ENDBRANCH  90  93
ENDBRANCH  87  90
ENDBRANCH  77  87
ENDBRANCH  74  77
ENDBRANCH   1  73
BRANCH  16 107
ATOM    107  CN  MLE d   1     -29.231 -55.080 -25.000  0.00  0.00    -0.015 C 
ATOM    108  H26 MLE d   1     -30.105 -55.383 -25.596  0.00  0.00     0.056 H 
ATOM    109  H27 MLE d   1     -28.512 -55.911 -24.955  0.00  0.00     0.056 H 
ATOM    110  H28 MLE d   1     -28.754 -54.207 -25.468  0.00  0.00     0.056 H 
ENDBRANCH  16 107
BRANCH  17 111
ATOM    111  CB  MLE d   1     -31.988 -54.025 -24.280  0.00  0.00    -0.035 C 
ATOM    112  H30 MLE d   1     -33.001 -53.962 -23.856  0.00  0.00     0.037 H 
ATOM    113  H31 MLE d   1     -32.030 -54.527 -25.258  0.00  0.00     0.037 H 
BRANCH 111 114
ATOM    114  CG  MLE d   1     -31.440 -52.626 -24.464  0.00  0.00    -0.059 C 
ATOM    115  H32 MLE d   1     -30.343 -52.654 -24.545  0.00  0.00     0.038 H 
BRANCH 114 116
ATOM    116  CD1 MLE d   1     -32.057 -52.053 -25.714  0.00  0.00    -0.073 C 
ATOM    117  H33 MLE d   1     -31.677 -51.033 -25.876  0.00  0.00     0.028 H 
ATOM    118  H34 MLE d   1     -33.151 -52.024 -25.603  0.00  0.00     0.028 H 
ATOM    119  H35 MLE d   1     -31.793 -52.684 -26.576  0.00  0.00     0.028 H 
ENDBRANCH 114 116
BRANCH 114 120
ATOM    120  CD2 MLE d   1     -31.859 -51.746 -23.318  0.00  0.00    -0.073 C 
ATOM    121  H36 MLE d   1     -31.427 -52.132 -22.383  0.00  0.00     0.028 H 
ATOM    122  H37 MLE d   1     -32.956 -51.742 -23.241  0.00  0.00     0.028 H 
ATOM    123  H38 MLE d   1     -31.500 -50.721 -23.492  0.00  0.00     0.028 H 
ENDBRANCH 114 120
ENDBRANCH 111 114
ENDBRANCH  17 111
BRANCH  22 124
ATOM    124  CB  GLU d   1     -30.888 -59.033 -21.183  0.00  0.00    -0.029 C 
ATOM    125  H41 GLU d   1     -31.020 -60.119 -21.293  0.00  0.00     0.037 H 
ATOM    126  H42 GLU d   1     -31.211 -58.724 -20.178  0.00  0.00     0.037 H 
BRANCH 124 127
ATOM    127  CG  GLU d   1     -29.423 -58.699 -21.351  0.00  0.00     0.018 C 
ATOM    128  H43 GLU d   1     -29.304 -57.706 -21.808  0.00  0.00     0.049 H 
ATOM    129  H44 GLU d   1     -28.925 -59.453 -21.978  0.00  0.00     0.049 H 
BRANCH 127 130
ATOM    130  CD  GLU d   1     -28.852 -58.711 -19.954  0.00  0.00     0.172 C 
ATOM    131  OE2 GLU d   1     -27.883 -59.440 -19.734  0.00  0.00    -0.648 OA
ATOM    132  OE1 GLU d   1     -29.440 -58.013 -19.121  0.00  0.00    -0.648 OA
ENDBRANCH 127 130
ENDBRANCH 124 127
ENDBRANCH  22 124
BRANCH  34 133
ATOM    133  CB  TYR d   1     -35.985 -57.363 -23.724  0.00  0.00    -0.014 C 
ATOM    134  H47 TYR d   1     -37.072 -57.528 -23.763  0.00  0.00     0.043 H 
ATOM    135  H48 TYR d   1     -35.559 -57.487 -24.730  0.00  0.00     0.043 H 
BRANCH 133 136
ATOM    136  CG  TYR d   1     -35.767 -56.063 -23.328  0.00  0.00    -0.056 A 
ATOM    137  CD1 TYR d   1     -35.439 -55.679 -22.046  0.00  0.00    -0.074 A 
ATOM    138  CE1 TYR d   1     -35.263 -54.343 -21.727  0.00  0.00    -0.051 A 
ATOM    139  H49 TYR d   1     -35.317 -56.433 -21.277  0.00  0.00     0.084 H 
ATOM    140  CZ  TYR d   1     -35.425 -53.379 -22.691  0.00  0.00     0.065 A 
ATOM    141  H51 TYR d   1     -34.997 -54.058 -20.715  0.00  0.00     0.087 H 
ATOM    142  CE2 TYR d   1     -35.758 -53.756 -23.962  0.00  0.00    -0.051 A 
ATOM    143  CD2 TYR d   1     -35.937 -55.083 -24.269  0.00  0.00    -0.074 A 
ATOM    144  H52 TYR d   1     -35.882 -53.003 -24.732  0.00  0.00     0.087 H 
ATOM    145  H50 TYR d   1     -36.219 -55.360 -25.278  0.00  0.00     0.084 H 
BRANCH 140 146
ATOM    146  OH  TYR d   1     -35.266 -52.083 -22.412  0.00  0.00    -0.361 OA
ATOM    147  H53 TYR d   1     -36.076 -51.620 -22.590  0.00  0.00     0.217 HD
ENDBRANCH 140 146
ENDBRANCH 133 136
ENDBRANCH  34 133
BRANCH  58 148
ATOM    148  CB  SER d   1     -27.253 -62.511 -30.537  0.00  0.00     0.044 C 
ATOM    149  H92 SER d   1     -27.900 -63.278 -30.988  0.00  0.00     0.077 H 
ATOM    150  H93 SER d   1     -26.212 -62.866 -30.532  0.00  0.00     0.077 H 
BRANCH 148 151
ATOM    151  OG  SER d   1     -27.342 -61.332 -31.272  0.00  0.00    -0.398 OA
ATOM    152  H94 SER d   1     -26.783 -60.672 -30.879  0.00  0.00     0.209 HD
ENDBRANCH 148 151
ENDBRANCH  58 148
BRANCH  40 153
ATOM    153  CB  PHE d   1     -36.151 -61.668 -25.853  0.00  0.00    -0.014 C 
ATOM    154  H56 PHE d   1     -36.547 -62.648 -26.158  0.00  0.00     0.043 H 
ATOM    155  H57 PHE d   1     -35.307 -61.395 -26.503  0.00  0.00     0.043 H 
BRANCH 153 156
ATOM    156  CG  PHE d   1     -37.147 -60.717 -25.981  0.00  0.00    -0.056 A 
ATOM    157  CD1 PHE d   1     -38.369 -60.876 -25.390  0.00  0.00    -0.077 A 
ATOM    158  CE1 PHE d   1     -39.329 -59.915 -25.552  0.00  0.00    -0.082 A 
ATOM    159  H58 PHE d   1     -38.576 -61.759 -24.796  0.00  0.00     0.084 H 
ATOM    160  CZ  PHE d   1     -39.093 -58.797 -26.306  0.00  0.00    -0.083 A 
ATOM    161  H60 PHE d   1     -40.294 -60.041 -25.075  0.00  0.00     0.083 H 
ATOM    162  CE2 PHE d   1     -37.881 -58.640 -26.903  0.00  0.00    -0.082 A 
ATOM    163  H62 PHE d   1     -39.864 -58.045 -26.426  0.00  0.00     0.083 H 
ATOM    164  CD2 PHE d   1     -36.920 -59.599 -26.741  0.00  0.00    -0.077 A 
ATOM    165  H61 PHE d   1     -37.678 -57.760 -27.503  0.00  0.00     0.083 H 
ATOM    166  H59 PHE d   1     -35.958 -59.472 -27.224  0.00  0.00     0.084 H 
ENDBRANCH 153 156
ENDBRANCH  40 153
BRANCH  52 167
ATOM    167  CB  LEU d   1     -31.405 -60.880 -27.290  0.00  0.00    -0.035 C 
ATOM    168  H81 LEU d   1     -30.780 -60.080 -27.714  0.00  0.00     0.037 H 
ATOM    169  H82 LEU d   1     -31.153 -61.018 -26.228  0.00  0.00     0.037 H 
BRANCH 167 170
ATOM    170  CG  LEU d   1     -32.858 -60.541 -27.440  0.00  0.00    -0.059 C 
ATOM    171  H83 LEU d   1     -33.486 -61.394 -27.145  0.00  0.00     0.038 H 
BRANCH 170 172
ATOM    172  CD1 LEU d   1     -33.159 -59.353 -26.587  0.00  0.00    -0.073 C 
ATOM    173  H84 LEU d   1     -34.223 -59.091 -26.686  0.00  0.00     0.028 H 
ATOM    174  H85 LEU d   1     -32.540 -58.503 -26.911  0.00  0.00     0.028 H 
ATOM    175  H86 LEU d   1     -32.936 -59.590 -25.536  0.00  0.00     0.028 H 
ENDBRANCH 170 172
BRANCH 170 176
ATOM    176  CD2 LEU d   1     -33.103 -60.179 -28.876  0.00  0.00    -0.073 C 
ATOM    177  H87 LEU d   1     -32.885 -61.047 -29.515  0.00  0.00     0.028 H 
ATOM    178  H88 LEU d   1     -32.449 -59.341 -29.160  0.00  0.00     0.028 H 
ATOM    179  H89 LEU d   1     -34.155 -59.884 -29.006  0.00  0.00     0.028 H 
ENDBRANCH 170 176
ENDBRANCH 167 170
ENDBRANCH  52 167
BRANCH  26 180
ATOM    180  CB  GLU d   1     -34.160 -66.214 -23.254  0.00  0.00    -0.029 C 
ATOM    181  H65 GLU d   1     -33.491 -67.025 -23.578  0.00  0.00     0.037 H 
ATOM    182  H66 GLU d   1     -35.185 -66.426 -23.593  0.00  0.00     0.037 H 
BRANCH 180 183
ATOM    183  CG  GLU d   1     -34.139 -66.116 -21.735  0.00  0.00     0.018 C 
ATOM    184  H67 GLU d   1     -35.168 -65.970 -21.375  0.00  0.00     0.049 H 
ATOM    185  H68 GLU d   1     -33.522 -65.253 -21.444  0.00  0.00     0.049 H 
BRANCH 183 186
ATOM    186  CD  GLU d   1     -33.561 -67.380 -21.083  0.00  0.00     0.172 C 
ATOM    187  OE2 GLU d   1     -32.574 -67.225 -20.335  0.00  0.00    -0.648 OA
ATOM    188  OE1 GLU d   1     -34.141 -68.461 -21.300  0.00  0.00    -0.648 OA
ENDBRANCH 183 186
ENDBRANCH 180 183
ENDBRANCH  26 180
BRANCH  46 189
ATOM    189  CB  TRP d   1     -33.504 -66.187 -28.309  0.00  0.00    -0.012 C 
ATOM    190  H71 TRP d   1     -33.917 -67.113 -27.881  0.00  0.00     0.044 H 
ATOM    191  H72 TRP d   1     -32.946 -66.424 -29.227  0.00  0.00     0.044 H 
BRANCH 189 192
ATOM    192  CG  TRP d   1     -34.633 -65.241 -28.640  0.00  0.00    -0.028 A 
ATOM    193  CD1 TRP d   1     -35.807 -65.259 -28.073  0.00  0.00    -0.015 A 
ATOM    194  NE1 TRP d   1     -36.502 -64.310 -28.640  0.00  0.00    -0.365 N 
ATOM    195  H73 TRP d   1     -36.141 -65.931 -27.284  0.00  0.00     0.112 H 
ATOM    196  CE2 TRP d   1     -35.757 -63.720 -29.540  0.00  0.00     0.042 A 
ATOM    197  H74 TRP d   1     -37.477 -64.066 -28.416  0.00  0.00     0.165 HD
ATOM    198  CD2 TRP d   1     -34.588 -64.305 -29.549  0.00  0.00    -0.002 A 
ATOM    199  CZ2 TRP d   1     -36.018 -62.718 -30.345  0.00  0.00    -0.056 A 
ATOM    200  CE3 TRP d   1     -33.631 -63.917 -30.361  0.00  0.00    -0.070 A 
ATOM    201  CZ3 TRP d   1     -33.841 -62.878 -31.232  0.00  0.00    -0.082 A 
ATOM    202  H75 TRP d   1     -32.671 -64.420 -30.343  0.00  0.00     0.084 H 
ATOM    203  CH2 TRP d   1     -35.065 -62.260 -31.222  0.00  0.00    -0.081 A 
ATOM    204  H77 TRP d   1     -33.060 -62.554 -31.910  0.00  0.00     0.083 H 
ATOM    205  H78 TRP d   1     -35.275 -61.432 -31.889  0.00  0.00     0.083 H 
ATOM    206  H76 TRP d   1     -36.994 -62.247 -30.318  0.00  0.00     0.086 H 
ENDBRANCH 189 192
ENDBRANCH  46 189
TORSDOF 32
