REMARK  5 active torsions:
REMARK  status: ('A' for Active; 'I' for Inactive)
REMARK    1  A    between atoms: CAM_13  and  NAB_2 
REMARK    2  A    between atoms: CAD_4  and  CAC_3 
REMARK    3  A    between atoms: CAD_4  and  CAE_5 
REMARK    4  A    between atoms: CAF_6  and  CAD_4 
REMARK    5  A    between atoms: CAN_14  and  CAR_18 
ROOT
ATOM      1  NAA ANW d   1     -39.714 128.357  -0.145  0.00  0.00    -0.205 NA
ATOM      2  CAF ANW d   1     -40.726 128.722   6.270  0.00  0.00    -0.054 A 
ATOM      3  CAG ANW d   1     -40.910 129.658   5.261  0.00  0.00    -0.060 A 
ATOM      4  CAH ANW d   1     -40.676 129.304   3.924  0.00  0.00     0.049 A 
ATOM      5  CAI ANW d   1     -40.263 128.025   3.612  0.00  0.00     0.092 A 
ATOM      6  CAJ ANW d   1     -40.077 127.080   4.632  0.00  0.00    -0.049 A 
ATOM      7  CAK ANW d   1     -40.309 127.432   5.956  0.00  0.00    -0.074 A 
ATOM      8  CAL ANW d   1     -40.072 128.679   1.139  0.00  0.00     0.186 A 
ATOM      9  CAM ANW d   1     -39.764 129.296  -1.120  0.00  0.00     0.141 A 
ATOM     10  CAN ANW d   1     -40.179 130.590  -0.821  0.00  0.00     0.087 A 
ATOM     11  CAO ANW d   1     -40.535 130.913   0.450  0.00  0.00    -0.045 A 
ATOM     12  CAP ANW d   1     -40.484 129.960   1.439  0.00  0.00     0.069 A 
ATOM     13  CAQ ANW d   1     -40.872 130.303   2.836  0.00  0.00     0.199 A 
ATOM     14  OAS ANW d   1     -40.016 127.651   2.202  0.00  0.00    -0.290 OA
ATOM     15  OAT ANW d   1     -41.335 131.366   3.082  0.00  0.00    -0.286 OA
ATOM     16  H10 ANW d   1     -41.235 130.663   5.507  0.00  0.00     0.086 H 
ATOM     17  H11 ANW d   1     -39.752 126.075   4.387  0.00  0.00     0.087 H 
ATOM     18  H12 ANW d   1     -40.165 126.702   6.744  0.00  0.00     0.084 H 
ATOM     19  H13 ANW d   1     -40.859 131.921   0.683  0.00  0.00     0.087 H 
ENDROOT
BRANCH   2  20
ATOM     20  CAD ANW d   1     -40.981 129.109   7.725  0.00  0.00    -0.036 C 
ATOM     21  H6  ANW d   1     -41.231 130.179   7.782  0.00  0.00     0.046 H 
BRANCH  20  22
ATOM     22  CAC ANW d   1     -42.143 128.284   8.275  0.00  0.00    -0.069 C 
ATOM     23  H3  ANW d   1     -42.327 128.563   9.323  0.00  0.00     0.028 H 
ATOM     24  H4  ANW d   1     -41.892 127.214   8.219  0.00  0.00     0.028 H 
ATOM     25  H5  ANW d   1     -43.047 128.481   7.679  0.00  0.00     0.028 H 
ENDBRANCH  20  22
BRANCH  20  26
ATOM     26  CAE ANW d   1     -39.726 128.834   8.552  0.00  0.00    -0.069 C 
ATOM     27  H7  ANW d   1     -38.889 129.428   8.156  0.00  0.00     0.028 H 
ATOM     28  H8  ANW d   1     -39.476 127.764   8.495  0.00  0.00     0.028 H 
ATOM     29  H9  ANW d   1     -39.910 129.112   9.600  0.00  0.00     0.028 H 
ENDBRANCH  20  26
ENDBRANCH   2  20
BRANCH  10  30
ATOM     30  CAR ANW d   1     -40.235 131.648  -1.921  0.00  0.00     0.213 C 
ATOM     31  OAU ANW d   1     -39.832 131.371  -3.082  0.00  0.00    -0.644 OA
ATOM     32  OAV ANW d   1     -40.684 132.797  -1.668  0.00  0.00    -0.644 OA
ENDBRANCH  10  30
BRANCH   9  33
ATOM     33  NAB ANW d   1     -39.384 128.952  -2.478  0.00  0.00    -0.383 N 
ATOM     34  H1  ANW d   1     -39.422 129.666  -3.220  0.00  0.00     0.157 HD
ATOM     35  H2  ANW d   1     -39.077 127.994  -2.700  0.00  0.00     0.157 HD
ENDBRANCH   9  33
TORSDOF 5
