REMARK  31 active torsions:
REMARK  status: ('A' for Active; 'I' for Inactive)
REMARK    1  A    between atoms: C_1  and  CH3_3 
REMARK       I    between atoms: N_5  and  C_1 
REMARK    2  A    between atoms: C_4  and  CA_7 
REMARK       I    between atoms: N_17  and  C_4 
REMARK    3  A    between atoms: CA_7  and  N_5 
REMARK    4  A    between atoms: CA_7  and  CB_8 
REMARK    5  A    between atoms: CB_8  and  CI_10 
REMARK    6  A    between atoms: CJ_11  and  CG_9 
REMARK    7  A    between atoms: CI_10  and  CJ_11 
REMARK    8  A    between atoms: CA_18  and  N_17 
REMARK    9  A    between atoms: CA_26  and  CB_29 
REMARK   10  A    between atoms: CB_29  and  CG_30 
REMARK   11  A    between atoms: CG_30  and  CD1_31 
REMARK   12  A    between atoms: CG_30  and  CD2_32 
REMARK   13  A    between atoms: CA_34  and  CB_37 
REMARK   14  A    between atoms: CB_37  and  CG_38 
REMARK   15  A    between atoms: CG_38  and  CD_39 
REMARK   16  A    between atoms: CA_43  and  CB_46 
REMARK   17  A    between atoms: CB_46  and  CG_47 
REMARK   18  A    between atoms: CZ_52  and  OH_53 
REMARK   19  A    between atoms: CA_55  and  CB_58 
REMARK   20  A    between atoms: CB_58  and  CG_59 
REMARK   21  A    between atoms: CA_66  and  CB_69 
REMARK   22  A    between atoms: CB_69  and  CG_70 
REMARK   23  A    between atoms: CG_70  and  CD_71 
REMARK   24  A    between atoms: CA_75  and  CB_78 
REMARK   25  A    between atoms: CB_78  and  CG_79 
REMARK   26  A    between atoms: CA_89  and  CB_92 
REMARK   27  A    between atoms: CB_92  and  CG_93 
REMARK   28  A    between atoms: CG_93  and  CD1_94 
REMARK   29  A    between atoms: CG_93  and  CD2_95 
REMARK   30  A    between atoms: CA_97  and  CB_100 
REMARK   31  A    between atoms: CB_100  and  OG_101 
ROOT
ATOM      1  CA  ORN d   1     -27.603 -55.251 -24.530  0.00  0.00     0.089 C 
ATOM      2  CB  ORN d   1     -27.092 -56.612 -24.186  0.00  0.00    -0.036 C 
ATOM      3  CG  ORN d   1     -25.847 -56.952 -24.939  0.00  0.00    -0.048 C 
ATOM      4  CD  ORN d   1     -26.198 -57.971 -25.978  0.00  0.00    -0.005 C 
ATOM      5  NE  ORN d   1     -24.998 -58.403 -26.689  0.00  0.00    -0.361 N 
ATOM      6  C   ORN d   1     -28.905 -55.285 -24.131  0.00  0.00     0.241 C 
ATOM      7  O   ORN d   1     -29.207 -55.194 -22.955  0.00  0.00    -0.271 OA
ATOM      8  H18 ORN d   1     -27.515 -55.025 -25.603  0.00  0.00     0.087 H 
ATOM      9  H19 ORN d   1     -27.867 -57.354 -24.429  0.00  0.00     0.036 H 
ATOM     10  H20 ORN d   1     -26.875 -56.648 -23.108  0.00  0.00     0.036 H 
ATOM     11  H21 ORN d   1     -25.095 -57.365 -24.250  0.00  0.00     0.035 H 
ATOM     12  H22 ORN d   1     -25.445 -56.049 -25.422  0.00  0.00     0.035 H 
ATOM     13  H23 ORN d   1     -26.905 -57.529 -26.695  0.00  0.00     0.064 H 
ATOM     14  H24 ORN d   1     -26.664 -58.840 -25.491  0.00  0.00     0.064 H 
ATOM     15  H25 ORN d   1     -24.104 -58.059 -26.402  0.00  0.00     0.162 HD
ATOM     16  N   LEU d   1     -29.885 -55.537 -25.055  0.00  0.00    -0.346 N 
ATOM     17  CA  LEU d   1     -31.269 -55.650 -24.643  0.00  0.00     0.089 C 
ATOM     18  C   LEU d   1     -31.530 -56.991 -24.701  0.00  0.00     0.241 C 
ATOM     19  O   LEU d   1     -31.612 -57.564 -25.776  0.00  0.00    -0.271 OA
ATOM     20  N   LEU d   1     -31.795 -64.059 -29.033  0.00  0.00    -0.346 N 
ATOM     21  CA  LEU d   1     -31.149 -62.996 -29.802  0.00  0.00     0.089 C 
ATOM     22  C   LEU d   1     -29.860 -63.321 -30.027  0.00  0.00     0.241 C 
ATOM     23  O   LEU d   1     -29.353 -64.220 -29.388  0.00  0.00    -0.271 OA
ATOM     24  H26 LEU d   1     -29.643 -55.644 -26.020  0.00  0.00     0.163 HD
ATOM     25  H27 LEU d   1     -31.423 -55.254 -23.629  0.00  0.00     0.087 H 
ATOM     26  H77 LEU d   1     -32.224 -63.852 -28.154  0.00  0.00     0.163 HD
ATOM     27  H78 LEU d   1     -31.670 -62.877 -30.763  0.00  0.00     0.087 H 
ATOM     28  N   GLU d   1     -31.618 -57.733 -23.542  0.00  0.00    -0.346 N 
ATOM     29  CA  GLU d   1     -31.819 -59.176 -23.617  0.00  0.00     0.090 C 
ATOM     30  C   GLU d   1     -33.151 -59.377 -23.441  0.00  0.00     0.241 C 
ATOM     31  O   GLU d   1     -33.642 -59.550 -22.332  0.00  0.00    -0.271 OA
ATOM     32  N   GLU d   1     -34.713 -64.920 -25.569  0.00  0.00    -0.346 N 
ATOM     33  CA  GLU d   1     -33.577 -65.800 -25.324  0.00  0.00     0.090 C 
ATOM     34  C   GLU d   1     -32.868 -66.190 -26.430  0.00  0.00     0.241 C 
ATOM     35  O   GLU d   1     -31.887 -66.905 -26.270  0.00  0.00    -0.271 OA
ATOM     36  H37 GLU d   1     -31.544 -57.283 -22.652  0.00  0.00     0.163 HD
ATOM     37  H38 GLU d   1     -31.517 -59.555 -24.605  0.00  0.00     0.087 H 
ATOM     38  H61 GLU d   1     -35.643 -65.287 -25.557  0.00  0.00     0.163 HD
ATOM     39  H62 GLU d   1     -32.878 -65.257 -24.671  0.00  0.00     0.087 H 
ATOM     40  N   TYR d   1     -33.949 -59.301 -24.550  0.00  0.00    -0.346 N 
ATOM     41  CA  TYR d   1     -35.388 -59.397 -24.384  0.00  0.00     0.093 C 
ATOM     42  C   TYR d   1     -35.852 -60.619 -24.745  0.00  0.00     0.241 C 
ATOM     43  O   TYR d   1     -36.934 -61.018 -24.339  0.00  0.00    -0.271 OA
ATOM     44  H43 TYR d   1     -33.548 -59.181 -25.458  0.00  0.00     0.163 HD
ATOM     45  H44 TYR d   1     -35.631 -59.244 -23.322  0.00  0.00     0.088 H 
ATOM     46  N   PHE d   1     -35.085 -61.414 -25.554  0.00  0.00    -0.346 N 
ATOM     47  CA  PHE d   1     -35.575 -62.735 -25.924  0.00  0.00     0.093 C 
ATOM     48  C   PHE d   1     -34.504 -63.591 -25.815  0.00  0.00     0.241 C 
ATOM     49  O   PHE d   1     -33.359 -63.170 -25.888  0.00  0.00    -0.271 OA
ATOM     50  H52 PHE d   1     -34.199 -61.092 -25.887  0.00  0.00     0.163 HD
ATOM     51  H53 PHE d   1     -36.377 -63.054 -25.242  0.00  0.00     0.088 H 
ATOM     52  N   TRP d   1     -33.217 -65.785 -27.699  0.00  0.00    -0.346 N 
ATOM     53  CA  TRP d   1     -32.458 -66.311 -28.840  0.00  0.00     0.093 C 
ATOM     54  C   TRP d   1     -31.812 -65.338 -29.519  0.00  0.00     0.241 C 
ATOM     55  O   TRP d   1     -31.229 -65.592 -30.556  0.00  0.00    -0.271 OA
ATOM     56  H67 TRP d   1     -33.972 -65.145 -27.840  0.00  0.00     0.163 HD
ATOM     57  H68 TRP d   1     -31.727 -67.049 -28.479  0.00  0.00     0.088 H 
ATOM     58  N   SER d   1     -29.154 -62.645 -30.999  0.00  0.00    -0.344 N 
ATOM     59  CA  SER d   1     -27.794 -63.064 -31.310  0.00  0.00     0.109 C 
ATOM     60  C   SER d   1     -26.869 -62.549 -30.457  0.00  0.00     0.242 C 
ATOM     61  O   SER d   1     -25.687 -62.741 -30.695  0.00  0.00    -0.271 OA
ATOM     62  H88 SER d   1     -29.570 -61.876 -31.485  0.00  0.00     0.163 HD
ATOM     63  H89 SER d   1     -27.758 -64.159 -31.210  0.00  0.00     0.090 H 
ATOM     64  N   BAL d   1     -27.237 -61.786 -29.367  0.00  0.00    -0.359 N 
ATOM     65  CB  BAL d   1     -26.169 -61.265 -28.481  0.00  0.00     0.003 C 
ATOM     66  CA  BAL d   1     -26.299 -59.776 -28.187  0.00  0.00     0.024 C 
ATOM     67  C   BAL d   1     -25.080 -59.281 -27.753  0.00  0.00     0.219 C 
ATOM     68  O   BAL d   1     -24.039 -59.608 -28.304  0.00  0.00    -0.274 OA
ATOM     69  H93 BAL d   1     -28.200 -61.590 -29.180  0.00  0.00     0.162 HD
ATOM     70  H94 BAL d   1     -26.208 -61.813 -27.528  0.00  0.00     0.064 H 
ATOM     71  H95 BAL d   1     -25.197 -61.441 -28.966  0.00  0.00     0.064 H 
ATOM     72  H96 BAL d   1     -27.056 -59.622 -27.404  0.00  0.00     0.049 H 
ATOM     73  H97 BAL d   1     -26.604 -59.247 -29.102  0.00  0.00     0.049 H 
ENDROOT
BRANCH   1  74
ATOM     74  N   ORN d   1     -26.826 -54.312 -23.732  0.00  0.00    -0.346 N 
ATOM     75  C   PH8 d   1     -25.928 -53.487 -24.262  0.00  0.00     0.241 C 
ATOM     76  O   PH8 d   1     -25.726 -53.355 -25.452  0.00  0.00    -0.271 OA
ATOM     77  H17 ORN d   1     -26.974 -54.287 -22.743  0.00  0.00     0.163 HD
BRANCH  75  78
ATOM     78  CA  PH8 d   1     -25.163 -52.666 -23.235  0.00  0.00     0.089 C 
ATOM     79  H5  PH8 d   1     -24.910 -53.302 -22.374  0.00  0.00     0.087 H 
BRANCH  78  80
ATOM     80  N   PH8 d   1     -24.034 -52.072 -23.831  0.00  0.00    -0.348 N 
ATOM     81  C   ACE d   1     -22.847 -52.491 -23.561  0.00  0.00     0.214 C 
ATOM     82  O   ACE d   1     -22.603 -53.398 -22.772  0.00  0.00    -0.274 OA
ATOM     83  H4  PH8 d   1     -24.156 -51.315 -24.473  0.00  0.00     0.163 HD
BRANCH  81  84
ATOM     84  CH3 ACE d   1     -21.731 -51.737 -24.266  0.00  0.00    -0.003 C 
ATOM     85  H1  ACE d   1     -22.166 -50.970 -24.924  0.00  0.00     0.040 H 
ATOM     86  H2  ACE d   1     -21.135 -52.441 -24.866  0.00  0.00     0.040 H 
ATOM     87  H3  ACE d   1     -21.085 -51.254 -23.518  0.00  0.00     0.040 H 
ENDBRANCH  81  84
ENDBRANCH  78  80
BRANCH  78  88
ATOM     88  CB  PH8 d   1     -25.816 -51.432 -22.826  0.00  0.00    -0.038 C 
ATOM     89  H6  PH8 d   1     -26.019 -50.791 -23.697  0.00  0.00     0.036 H 
ATOM     90  H7  PH8 d   1     -25.195 -50.883 -22.103  0.00  0.00     0.036 H 
BRANCH  88  91
ATOM     91  CI  PH8 d   1     -27.050 -51.869 -22.213  0.00  0.00    -0.059 C 
ATOM     92  H8  PH8 d   1     -27.029 -51.737 -21.121  0.00  0.00     0.033 H 
ATOM     93  H9  PH8 d   1     -27.271 -52.920 -22.451  0.00  0.00     0.033 H 
BRANCH  91  94
ATOM     94  CJ  PH8 d   1     -28.014 -50.951 -22.855  0.00  0.00    -0.041 C 
ATOM     95  H10 PH8 d   1     -27.513 -50.143 -23.409  0.00  0.00     0.040 H 
ATOM     96  H11 PH8 d   1     -28.709 -51.479 -23.524  0.00  0.00     0.040 H 
BRANCH  94  97
ATOM     97  CG  PH8 d   1     -28.607 -50.514 -21.769  0.00  0.00    -0.058 A 
ATOM     98  CD1 PH8 d   1     -29.701 -51.212 -21.410  0.00  0.00    -0.077 A 
ATOM     99  CE1 PH8 d   1     -30.349 -50.840 -20.274  0.00  0.00    -0.082 A 
ATOM    100  H13 PH8 d   1     -30.054 -52.044 -22.008  0.00  0.00     0.084 H 
ATOM    101  CZ  PH8 d   1     -29.836 -49.775 -19.582  0.00  0.00    -0.083 A 
ATOM    102  H15 PH8 d   1     -31.234 -51.364 -19.931  0.00  0.00     0.083 H 
ATOM    103  CE2 PH8 d   1     -28.712 -49.078 -19.930  0.00  0.00    -0.082 A 
ATOM    104  H12 PH8 d   1     -30.362 -49.460 -18.688  0.00  0.00     0.083 H 
ATOM    105  CD2 PH8 d   1     -28.092 -49.476 -21.063  0.00  0.00    -0.077 A 
ATOM    106  H16 PH8 d   1     -28.340 -48.254 -19.332  0.00  0.00     0.083 H 
ATOM    107  H14 PH8 d   1     -27.195 -48.972 -21.404  0.00  0.00     0.084 H 
ENDBRANCH  94  97
ENDBRANCH  91  94
ENDBRANCH  88  91
ENDBRANCH  78  88
ENDBRANCH  75  78
ENDBRANCH   1  74
BRANCH  17 108
ATOM    108  CB  LEU d   1     -32.138 -54.919 -25.634  0.00  0.00    -0.035 C 
ATOM    109  H28 LEU d   1     -33.186 -54.947 -25.301  0.00  0.00     0.037 H 
ATOM    110  H29 LEU d   1     -32.054 -55.393 -26.623  0.00  0.00     0.037 H 
BRANCH 108 111
ATOM    111  CG  LEU d   1     -31.668 -53.492 -25.713  0.00  0.00    -0.059 C 
ATOM    112  H30 LEU d   1     -30.595 -53.452 -25.954  0.00  0.00     0.038 H 
BRANCH 111 113
ATOM    113  CD1 LEU d   1     -32.469 -52.765 -26.764  0.00  0.00    -0.073 C 
ATOM    114  H31 LEU d   1     -32.130 -51.721 -26.826  0.00  0.00     0.028 H 
ATOM    115  H32 LEU d   1     -33.535 -52.789 -26.494  0.00  0.00     0.028 H 
ATOM    116  H33 LEU d   1     -32.327 -53.255 -27.738  0.00  0.00     0.028 H 
ENDBRANCH 111 113
BRANCH 111 117
ATOM    117  CD2 LEU d   1     -31.938 -52.845 -24.377  0.00  0.00    -0.073 C 
ATOM    118  H34 LEU d   1     -31.361 -53.362 -23.596  0.00  0.00     0.028 H 
ATOM    119  H35 LEU d   1     -33.011 -52.914 -24.147  0.00  0.00     0.028 H 
ATOM    120  H36 LEU d   1     -31.638 -51.787 -24.414  0.00  0.00     0.028 H 
ENDBRANCH 111 117
ENDBRANCH 108 111
ENDBRANCH  17 108
BRANCH  29 121
ATOM    121  CB  GLU d   1     -30.970 -59.844 -22.551  0.00  0.00    -0.029 C 
ATOM    122  H39 GLU d   1     -30.960 -60.932 -22.710  0.00  0.00     0.037 H 
ATOM    123  H40 GLU d   1     -31.381 -59.623 -21.555  0.00  0.00     0.037 H 
BRANCH 121 124
ATOM    124  CG  GLU d   1     -29.565 -59.299 -22.658  0.00  0.00     0.018 C 
ATOM    125  H41 GLU d   1     -29.521 -58.299 -22.202  0.00  0.00     0.049 H 
ATOM    126  H42 GLU d   1     -29.274 -59.232 -23.717  0.00  0.00     0.049 H 
BRANCH 124 127
ATOM    127  CD  GLU d   1     -28.626 -60.228 -21.933  0.00  0.00     0.172 C 
ATOM    128  OE2 GLU d   1     -28.290 -59.901 -20.781  0.00  0.00    -0.648 OA
ATOM    129  OE1 GLU d   1     -28.264 -61.242 -22.552  0.00  0.00    -0.648 OA
ENDBRANCH 124 127
ENDBRANCH 121 124
ENDBRANCH  29 121
BRANCH  41 130
ATOM    130  CB  TYR d   1     -36.031 -58.280 -25.195  0.00  0.00    -0.014 C 
ATOM    131  H45 TYR d   1     -37.121 -58.426 -25.175  0.00  0.00     0.043 H 
ATOM    132  H46 TYR d   1     -35.669 -58.357 -26.231  0.00  0.00     0.043 H 
BRANCH 130 133
ATOM    133  CG  TYR d   1     -35.756 -56.986 -24.732  0.00  0.00    -0.056 A 
ATOM    134  CD1 TYR d   1     -35.109 -56.693 -23.541  0.00  0.00    -0.074 A 
ATOM    135  CE1 TYR d   1     -34.885 -55.388 -23.162  0.00  0.00    -0.051 A 
ATOM    136  H47 TYR d   1     -34.775 -57.501 -22.900  0.00  0.00     0.084 H 
ATOM    137  CZ  TYR d   1     -35.301 -54.359 -23.960  0.00  0.00     0.065 A 
ATOM    138  H49 TYR d   1     -34.377 -55.176 -22.228  0.00  0.00     0.087 H 
ATOM    139  CE2 TYR d   1     -35.943 -54.626 -25.136  0.00  0.00    -0.051 A 
ATOM    140  CD2 TYR d   1     -36.161 -55.932 -25.517  0.00  0.00    -0.074 A 
ATOM    141  H50 TYR d   1     -36.280 -53.812 -25.768  0.00  0.00     0.087 H 
ATOM    142  H48 TYR d   1     -36.663 -56.133 -26.456  0.00  0.00     0.084 H 
BRANCH 137 143
ATOM    143  OH  TYR d   1     -35.083 -53.094 -23.586  0.00  0.00    -0.361 OA
ATOM    144  H51 TYR d   1     -35.914 -52.642 -23.500  0.00  0.00     0.217 HD
ENDBRANCH 137 143
ENDBRANCH 130 133
ENDBRANCH  41 130
BRANCH  59 145
ATOM    145  CB  SER d   1     -27.441 -62.714 -32.753  0.00  0.00     0.044 C 
ATOM    146  H90 SER d   1     -28.348 -62.808 -33.369  0.00  0.00     0.077 H 
ATOM    147  H91 SER d   1     -26.680 -63.424 -33.110  0.00  0.00     0.077 H 
BRANCH 145 148
ATOM    148  OG  SER d   1     -26.932 -61.394 -32.895  0.00  0.00    -0.398 OA
ATOM    149  H92 SER d   1     -26.143 -61.302 -32.374  0.00  0.00     0.209 HD
ENDBRANCH 145 148
ENDBRANCH  59 145
BRANCH  47 150
ATOM    150  CB  PHE d   1     -36.111 -62.666 -27.322  0.00  0.00    -0.014 C 
ATOM    151  H54 PHE d   1     -36.507 -63.648 -27.619  0.00  0.00     0.043 H 
ATOM    152  H55 PHE d   1     -35.310 -62.369 -28.015  0.00  0.00     0.043 H 
BRANCH 150 153
ATOM    153  CG  PHE d   1     -37.120 -61.729 -27.346  0.00  0.00    -0.056 A 
ATOM    154  CD1 PHE d   1     -38.232 -61.877 -26.550  0.00  0.00    -0.077 A 
ATOM    155  CE1 PHE d   1     -39.243 -60.941 -26.588  0.00  0.00    -0.082 A 
ATOM    156  H56 PHE d   1     -38.313 -62.733 -25.890  0.00  0.00     0.084 H 
ATOM    157  CZ  PHE d   1     -39.145 -59.849 -27.418  0.00  0.00    -0.083 A 
ATOM    158  H58 PHE d   1     -40.119 -61.066 -25.961  0.00  0.00     0.083 H 
ATOM    159  CE2 PHE d   1     -38.033 -59.698 -28.205  0.00  0.00    -0.082 A 
ATOM    160  H60 PHE d   1     -39.941 -59.114 -27.450  0.00  0.00     0.083 H 
ATOM    161  CD2 PHE d   1     -37.024 -60.638 -28.171  0.00  0.00    -0.077 A 
ATOM    162  H59 PHE d   1     -37.946 -58.836 -28.857  0.00  0.00     0.083 H 
ATOM    163  H57 PHE d   1     -36.150 -60.513 -28.800  0.00  0.00     0.084 H 
ENDBRANCH 150 153
ENDBRANCH  47 150
BRANCH  21 164
ATOM    164  CB  LEU d   1     -31.201 -61.705 -29.048  0.00  0.00    -0.035 C 
ATOM    165  H79 LEU d   1     -30.865 -60.878 -29.691  0.00  0.00     0.037 H 
ATOM    166  H80 LEU d   1     -30.557 -61.761 -28.158  0.00  0.00     0.037 H 
BRANCH 164 167
ATOM    167  CG  LEU d   1     -32.627 -61.492 -28.639  0.00  0.00    -0.059 C 
ATOM    168  H81 LEU d   1     -33.011 -62.361 -28.085  0.00  0.00     0.038 H 
BRANCH 167 169
ATOM    169  CD1 LEU d   1     -32.688 -60.247 -27.779  0.00  0.00    -0.073 C 
ATOM    170  H82 LEU d   1     -33.727 -60.069 -27.465  0.00  0.00     0.028 H 
ATOM    171  H83 LEU d   1     -32.326 -59.384 -28.357  0.00  0.00     0.028 H 
ATOM    172  H84 LEU d   1     -32.055 -60.384 -26.890  0.00  0.00     0.028 H 
ENDBRANCH 167 169
BRANCH 167 173
ATOM    173  CD2 LEU d   1     -33.424 -61.272 -29.899  0.00  0.00    -0.073 C 
ATOM    174  H85 LEU d   1     -33.380 -62.176 -30.523  0.00  0.00     0.028 H 
ATOM    175  H86 LEU d   1     -33.003 -60.421 -30.455  0.00  0.00     0.028 H 
ATOM    176  H87 LEU d   1     -34.471 -61.058 -29.638  0.00  0.00     0.028 H 
ENDBRANCH 167 173
ENDBRANCH 164 167
ENDBRANCH  21 164
BRANCH  33 177
ATOM    177  CB  GLU d   1     -34.083 -67.023 -24.580  0.00  0.00    -0.029 C 
ATOM    178  H63 GLU d   1     -33.600 -67.928 -24.978  0.00  0.00     0.037 H 
ATOM    179  H64 GLU d   1     -35.173 -67.107 -24.699  0.00  0.00     0.037 H 
BRANCH 177 180
ATOM    180  CG  GLU d   1     -33.735 -66.858 -23.100  0.00  0.00     0.018 C 
ATOM    181  H65 GLU d   1     -33.396 -65.826 -22.927  0.00  0.00     0.049 H 
ATOM    182  H66 GLU d   1     -32.925 -67.557 -22.845  0.00  0.00     0.049 H 
BRANCH 180 183
ATOM    183  CD  GLU d   1     -34.937 -67.142 -22.194  0.00  0.00     0.172 C 
ATOM    184  OE2 GLU d   1     -34.696 -67.668 -21.091  0.00  0.00    -0.648 OA
ATOM    185  OE1 GLU d   1     -36.062 -66.815 -22.613  0.00  0.00    -0.648 OA
ENDBRANCH 180 183
ENDBRANCH 177 180
ENDBRANCH  33 177
BRANCH  53 186
ATOM    186  CB  TRP d   1     -33.429 -66.965 -29.790  0.00  0.00    -0.012 C 
ATOM    187  H69 TRP d   1     -33.826 -67.882 -29.330  0.00  0.00     0.044 H 
ATOM    188  H70 TRP d   1     -32.908 -67.219 -30.725  0.00  0.00     0.044 H 
BRANCH 186 189
ATOM    189  CG  TRP d   1     -34.575 -66.022 -30.096  0.00  0.00    -0.028 A 
ATOM    190  CD1 TRP d   1     -35.711 -65.952 -29.453  0.00  0.00    -0.015 A 
ATOM    191  NE1 TRP d   1     -36.425 -65.014 -30.040  0.00  0.00    -0.365 N 
ATOM    192  H71 TRP d   1     -36.010 -66.554 -28.596  0.00  0.00     0.112 H 
ATOM    193  CE2 TRP d   1     -35.724 -64.538 -31.039  0.00  0.00     0.042 A 
ATOM    194  H72 TRP d   1     -37.369 -64.708 -29.762  0.00  0.00     0.165 HD
ATOM    195  CD2 TRP d   1     -34.577 -65.163 -31.074  0.00  0.00    -0.002 A 
ATOM    196  CZ2 TRP d   1     -35.995 -63.603 -31.918  0.00  0.00    -0.056 A 
ATOM    197  CE3 TRP d   1     -33.667 -64.882 -31.980  0.00  0.00    -0.070 A 
ATOM    198  CZ3 TRP d   1     -33.888 -63.909 -32.932  0.00  0.00    -0.082 A 
ATOM    199  H73 TRP d   1     -32.728 -65.424 -31.979  0.00  0.00     0.084 H 
ATOM    200  CH2 TRP d   1     -35.089 -63.255 -32.897  0.00  0.00    -0.081 A 
ATOM    201  H75 TRP d   1     -33.139 -63.672 -33.679  0.00  0.00     0.083 H 
ATOM    202  H76 TRP d   1     -35.322 -62.483 -33.621  0.00  0.00     0.083 H 
ATOM    203  H74 TRP d   1     -36.951 -63.094 -31.874  0.00  0.00     0.086 H 
ENDBRANCH 186 189
ENDBRANCH  53 186
TORSDOF 31
