REMARK  11 active torsions:
REMARK  status: ('A' for Active; 'I' for Inactive)
REMARK    1  A    between atoms: N1_19  and  C1_1 
REMARK    2  A    between atoms: C26_10  and  C23_34 
REMARK    3  A    between atoms: C32_12  and  N33_13 
REMARK    4  A    between atoms: C29_38  and  C32_12 
REMARK    5  A    between atoms: C36_16  and  N43_44 
REMARK    6  A    between atoms: N1_19  and  C8_20 
REMARK    7  A    between atoms: C9_21  and  N1_19 
REMARK    8  A    between atoms: C19_31  and  N12_30 
REMARK    9  A    between atoms: C20_32  and  C19_31 
REMARK   10  A    between atoms: N43_44  and  C44_45 
REMARK   11  A    between atoms: N43_44  and  C45_46 
ROOT
ATOM      1  C26 9X1 d   1      -5.053 -13.533  22.867  0.00  0.00    -0.026 A 
ATOM      2  C27 9X1 d   1      -5.274 -14.757  22.220  0.00  0.00    -0.072 A 
ATOM      3  C31 9X1 d   1      -4.875 -12.393  22.097  0.00  0.00    -0.072 A 
ATOM      4  C30 9X1 d   1      -4.903 -12.441  20.716  0.00  0.00    -0.074 A 
ATOM      5  C28 9X1 d   1      -5.310 -14.800  20.801  0.00  0.00    -0.074 A 
ATOM      6  C29 9X1 d   1      -5.129 -13.637  20.035  0.00  0.00    -0.040 A 
ATOM      7  H8  9X1 d   1      -5.416 -15.663  22.798  0.00  0.00     0.084 H 
ATOM      8  H27 9X1 d   1      -4.710 -11.442  22.590  0.00  0.00     0.084 H 
ATOM      9  H28 9X1 d   1      -4.746 -11.530  20.150  0.00  0.00     0.084 H 
ATOM     10  H29 9X1 d   1      -5.480 -15.746  20.301  0.00  0.00     0.084 H 
ENDROOT
BRANCH   1  11
ATOM     11  C23 9X1 d   1      -4.969 -13.286  24.231  0.00  0.00    -0.026 A 
ATOM     12  C22 9X1 d   1      -3.729 -12.904  24.738  0.00  0.00    -0.072 A 
ATOM     13  C21 9X1 d   1      -3.574 -12.582  26.085  0.00  0.00    -0.074 A 
ATOM     14  H5  9X1 d   1      -2.873 -12.857  24.075  0.00  0.00     0.084 H 
ATOM     15  C20 9X1 d   1      -4.661 -12.610  26.971  0.00  0.00    -0.040 A 
ATOM     16  H26 9X1 d   1      -2.594 -12.304  26.455  0.00  0.00     0.084 H 
ATOM     17  C25 9X1 d   1      -5.907 -12.982  26.442  0.00  0.00    -0.074 A 
ATOM     18  C24 9X1 d   1      -6.064 -13.303  25.086  0.00  0.00    -0.072 A 
ATOM     19  H7  9X1 d   1      -6.769 -13.022  27.098  0.00  0.00     0.084 H 
ATOM     20  H6  9X1 d   1      -7.044 -13.566  24.703  0.00  0.00     0.084 H 
BRANCH  15  21
ATOM     21  C19 9X1 d   1      -4.523 -12.292  28.362  0.00  0.00     0.019 C 
ATOM     22  H24 9X1 d   1      -3.704 -11.570  28.496  0.00  0.00     0.071 H 
ATOM     23  H25 9X1 d   1      -5.461 -11.855  28.735  0.00  0.00     0.071 H 
BRANCH  21  24
ATOM     24  N12 9X1 d   1      -4.214 -13.555  29.127  0.00  0.00    -0.372 N 
ATOM     25  C11 9X1 d   1      -5.320 -14.223  29.632  0.00  0.00     0.013 A 
ATOM     26  C10 9X1 d   1      -5.179 -15.399  30.332  0.00  0.00    -0.059 A 
ATOM     27  H18 9X1 d   1      -5.831 -13.518  30.304  0.00  0.00     0.070 H 
ATOM     28  H19 9X1 d   1      -5.970 -14.446  28.773  0.00  0.00     0.070 H 
ATOM     29  C9  9X1 d   1      -3.933 -15.988  30.559  0.00  0.00     0.044 A 
ATOM     30  H17 9X1 d   1      -6.070 -15.888  30.723  0.00  0.00     0.083 H 
ATOM     31  C14 9X1 d   1      -2.782 -15.301  30.020  0.00  0.00     0.017 A 
ATOM     32  C15 9X1 d   1      -1.438 -15.743  30.136  0.00  0.00    -0.069 A 
ATOM     33  C13 9X1 d   1      -2.966 -14.078  29.312  0.00  0.00     0.043 A 
ATOM     34  C16 9X1 d   1      -0.347 -15.053  29.626  0.00  0.00    -0.082 A 
ATOM     35  H20 9X1 d   1      -1.252 -16.677  30.655  0.00  0.00     0.085 H 
ATOM     36  C17 9X1 d   1      -0.545 -13.874  28.943  0.00  0.00    -0.081 A 
ATOM     37  H21 9X1 d   1       0.656 -15.440  29.765  0.00  0.00     0.083 H 
ATOM     38  C18 9X1 d   1      -1.837 -13.405  28.803  0.00  0.00    -0.056 A 
ATOM     39  H22 9X1 d   1       0.292 -13.327  28.525  0.00  0.00     0.083 H 
ATOM     40  H23 9X1 d   1      -1.990 -12.471  28.274  0.00  0.00     0.086 H 
BRANCH  29  41
ATOM     41  N1  9X1 d   1      -3.867 -17.184  31.269  0.00  0.00    -0.351 N 
BRANCH  41  42
ATOM     42  C1  9X1 d   1      -2.795 -17.542  31.983  0.00  0.00     0.034 A 
ATOM     43  C2  9X1 d   1      -2.118 -16.639  32.816  0.00  0.00    -0.055 A 
ATOM     44  C3  9X1 d   1      -0.974 -17.031  33.507  0.00  0.00    -0.060 A 
ATOM     45  H1  9X1 d   1      -2.489 -15.626  32.923  0.00  0.00     0.087 H 
ATOM     46  C4  9X1 d   1      -0.501 -18.331  33.391  0.00  0.00     0.034 A 
ATOM     47  H2  9X1 d   1      -0.452 -16.320  34.137  0.00  0.00     0.086 H 
ATOM     48  C5  9X1 d   1      -1.160 -19.238  32.576  0.00  0.00    -0.060 A 
ATOM     49 CL7  9X1 d   1       0.881 -18.821  34.236  0.00  0.00    -0.084 Cl
ATOM     50  C6  9X1 d   1      -2.296 -18.849  31.869  0.00  0.00    -0.055 A 
ATOM     51  H3  9X1 d   1      -0.790 -20.253  32.488  0.00  0.00     0.086 H 
ATOM     52  H4  9X1 d   1      -2.799 -19.562  31.225  0.00  0.00     0.087 H 
ENDBRANCH  41  42
BRANCH  41  53
ATOM     53  C8  9X1 d   1      -4.946 -18.209  31.170  0.00  0.00    -0.013 C 
ATOM     54  H14 9X1 d   1      -4.694 -19.069  31.808  0.00  0.00     0.057 H 
ATOM     55  H15 9X1 d   1      -5.041 -18.542  30.126  0.00  0.00     0.057 H 
ATOM     56  H16 9X1 d   1      -5.899 -17.772  31.503  0.00  0.00     0.057 H 
ENDBRANCH  41  53
ENDBRANCH  29  41
ENDBRANCH  21  24
ENDBRANCH  15  21
ENDBRANCH   1  11
BRANCH   6  57
ATOM     57  C32 9X1 d   1      -5.155 -13.647  18.618  0.00  0.00     0.023 C 
ATOM     58  H9  9X1 d   1      -4.187 -14.026  18.259  0.00  0.00     0.072 H 
ATOM     59  H10 9X1 d   1      -5.958 -14.325  18.294  0.00  0.00     0.072 H 
BRANCH  57  60
ATOM     60  N33 9X1 d   1      -5.400 -12.270  17.977  0.00  0.00    -0.352 N 
ATOM     61  C34 9X1 d   1      -4.270 -11.538  17.512  0.00  0.00    -0.021 A 
ATOM     62  C35 9X1 d   1      -4.412 -10.274  16.941  0.00  0.00    -0.062 A 
ATOM     63  H11 9X1 d   1      -3.276 -11.974  17.604  0.00  0.00     0.111 H 
ATOM     64  C36 9X1 d   1      -5.676  -9.688  16.770  0.00  0.00     0.057 A 
ATOM     65  H12 9X1 d   1      -3.524  -9.730  16.621  0.00  0.00     0.082 H 
ATOM     66  C37 9X1 d   1      -6.808 -10.417  17.249  0.00  0.00    -0.005 A 
ATOM     67  H13 9X1 d   1      -5.774 -10.140  15.772  0.00  0.00     0.087 H 
ATOM     68  C38 9X1 d   1      -6.635 -11.701  17.851  0.00  0.00     0.043 A 
ATOM     69  C42 9X1 d   1      -8.129  -9.913  17.153  0.00  0.00    -0.072 A 
ATOM     70  C39 9X1 d   1      -7.772 -12.395  18.303  0.00  0.00    -0.056 A 
ATOM     71  C40 9X1 d   1      -9.054 -11.857  18.201  0.00  0.00    -0.081 A 
ATOM     72  H30 9X1 d   1      -7.648 -13.377  18.744  0.00  0.00     0.086 H 
ATOM     73  C41 9X1 d   1      -9.238 -10.613  17.615  0.00  0.00    -0.082 A 
ATOM     74  H31 9X1 d   1      -9.906 -12.410  18.579  0.00  0.00     0.083 H 
ATOM     75  H32 9X1 d   1     -10.232 -10.193  17.519  0.00  0.00     0.083 H 
ATOM     76  H33 9X1 d   1      -8.281  -8.940  16.700  0.00  0.00     0.084 H 
BRANCH  64  77
ATOM     77  N43 9X1 d   1      -5.832  -8.420  16.223  0.00  0.00    -0.373 N 
BRANCH  77  78
ATOM     78  C44 9X1 d   1      -6.523  -7.373  17.040  0.00  0.00    -0.018 C 
ATOM     79  H34 9X1 d   1      -6.566  -6.433  16.471  0.00  0.00     0.056 H 
ATOM     80  H35 9X1 d   1      -5.966  -7.210  17.975  0.00  0.00     0.056 H 
ATOM     81  H36 9X1 d   1      -7.545  -7.706  17.275  0.00  0.00     0.056 H 
ENDBRANCH  77  78
BRANCH  77  82
ATOM     82  C45 9X1 d   1      -5.254  -7.973  15.056  0.00  0.00     0.030 A 
ATOM     83  C46 9X1 d   1      -5.454  -6.624  14.645  0.00  0.00    -0.056 A 
ATOM     84  C47 9X1 d   1      -4.892  -6.095  13.494  0.00  0.00    -0.060 A 
ATOM     85  H37 9X1 d   1      -6.074  -5.982  15.260  0.00  0.00     0.087 H 
ATOM     86  C48 9X1 d   1      -4.102  -6.895  12.693  0.00  0.00     0.034 A 
ATOM     87  H38 9X1 d   1      -5.071  -5.061  13.225  0.00  0.00     0.086 H 
ATOM     88 CL5  9X1 d   1      -3.470  -6.238  11.330  0.00  0.00    -0.084 Cl
ATOM     89  C49 9X1 d   1      -3.867  -8.220  13.051  0.00  0.00    -0.060 A 
ATOM     90  C50 9X1 d   1      -4.428  -8.749  14.214  0.00  0.00    -0.056 A 
ATOM     91  H39 9X1 d   1      -3.244  -8.845  12.422  0.00  0.00     0.086 H 
ATOM     92  H40 9X1 d   1      -4.225  -9.781  14.477  0.00  0.00     0.087 H 
ENDBRANCH  77  82
ENDBRANCH  64  77
ENDBRANCH  57  60
ENDBRANCH   6  57
TORSDOF 11
