REMARK WARNING: 32 MAX_TORS EXCEEDED!!!
REMARK  36 active torsions:
REMARK  status: ('A' for Active; 'I' for Inactive)
REMARK    1  A    between atoms: C_1  and  CH3_3 
REMARK       I    between atoms: N_5  and  C_1 
REMARK    2  A    between atoms: CA_7  and  C_4 
REMARK       I    between atoms: C_4  and  N_17 
REMARK    3  A    between atoms: CA_7  and  N_5 
REMARK    4  A    between atoms: CB_8  and  CA_7 
REMARK    5  A    between atoms: CI_10  and  CB_8 
REMARK    6  A    between atoms: CG_9  and  CJ_11 
REMARK    7  A    between atoms: CJ_11  and  CI_10 
REMARK    8  A    between atoms: N_17  and  CA_18 
REMARK    9  A    between atoms: CA_26  and  CB_29 
REMARK   10  A    between atoms: CB_29  and  CG_30 
REMARK   11  A    between atoms: CG_30  and  CD1_31 
REMARK   12  A    between atoms: CG_30  and  CD2_32 
REMARK   13  A    between atoms: CA_34  and  CB_37 
REMARK   14  A    between atoms: CB_37  and  CG_38 
REMARK   15  A    between atoms: CG_38  and  CD_39 
REMARK   16  A    between atoms: CA_43  and  CB_46 
REMARK   17  A    between atoms: CB_46  and  CG_47 
REMARK   18  A    between atoms: CZ_52  and  OH_53 
REMARK   19  A    between atoms: CA_55  and  CB_58 
REMARK   20  A    between atoms: CB_58  and  CG_59 
REMARK   21  A    between atoms: CA_66  and  CB_69 
REMARK   22  A    between atoms: CB_69  and  CG_70 
REMARK   23  A    between atoms: CG_70  and  CD_71 
REMARK   24  A    between atoms: CA_75  and  CB_78 
REMARK   25  A    between atoms: CB_78  and  CG_79 
REMARK   26  A    between atoms: CA_89  and  CB_92 
REMARK   27  A    between atoms: CB_92  and  CG_93 
REMARK   28  A    between atoms: CG_93  and  CD1_94 
REMARK   29  A    between atoms: CG_93  and  CD2_95 
REMARK   30  A    between atoms: CA_97  and  CB_100 
REMARK   31  A    between atoms: CB_100  and  OG_101 
REMARK   32  A    between atoms: CA_104  and  N_105 
REMARK       I    between atoms: N_105  and  CEG_106 
REMARK   33  A    between atoms: CEG_106  and  CEH_108 
REMARK   34  A    between atoms: CEH_108  and  CEI_109 
REMARK   35  A    between atoms: CEI_109  and  NEJ_110 
REMARK   36  A    between atoms: C_111  and  O_112 
ROOT
ATOM      1  CA  ORN d   1      21.900 -10.811  61.465  0.00  0.00     0.089 C 
ATOM      2  CB  ORN d   1      23.084 -11.692  61.869  0.00  0.00    -0.036 C 
ATOM      3  CG  ORN d   1      22.920 -13.110  61.346  0.00  0.00    -0.037 C 
ATOM      4  CD  ORN d   1      21.875 -13.851  62.164  0.00  0.00     0.117 C 
ATOM      5  NE  ORN d   1      22.391 -14.302  63.484  0.00  0.00     0.111 N 
ATOM      6  C   ORN d   1      22.081  -9.560  62.042  0.00  0.00     0.241 C 
ATOM      7  O   ORN d   1      22.735  -8.687  61.472  0.00  0.00    -0.271 OA
ATOM      8  H18 ORN d   1      20.965 -11.258  61.833  0.00  0.00     0.087 H 
ATOM      9  H19 ORN d   1      23.152 -11.720  62.967  0.00  0.00     0.036 H 
ATOM     10  H20 ORN d   1      24.008 -11.262  61.456  0.00  0.00     0.036 H 
ATOM     11  H21 ORN d   1      23.882 -13.639  61.420  0.00  0.00     0.035 H 
ATOM     12  H22 ORN d   1      22.601 -13.075  60.294  0.00  0.00     0.035 H 
ATOM     13  H23 ORN d   1      21.544 -14.733  61.596  0.00  0.00     0.080 H 
ATOM     14  H24 ORN d   1      21.019 -13.181  62.331  0.00  0.00     0.080 H 
ATOM     15  H25 ORN d   1      22.328 -13.594  64.199  0.00  0.00     0.325 HD
ATOM     16  N   LEU d   1      21.509  -9.300  63.291  0.00  0.00    -0.346 N 
ATOM     17  CA  LEU d   1      21.707  -8.001  63.966  0.00  0.00     0.089 C 
ATOM     18  C   LEU d   1      22.677  -8.209  64.941  0.00  0.00     0.241 C 
ATOM     19  O   LEU d   1      22.353  -8.540  66.081  0.00  0.00    -0.271 OA
ATOM     20  N   LEU d   1      24.486 -12.638  71.964  0.00  0.00    -0.346 N 
ATOM     21  CA  LEU d   1      23.333 -13.021  71.092  0.00  0.00     0.089 C 
ATOM     22  C   LEU d   1      23.533 -14.213  70.396  0.00  0.00     0.241 C 
ATOM     23  O   LEU d   1      24.650 -14.522  69.980  0.00  0.00    -0.271 OA
ATOM     24  H26 LEU d   1      20.956 -10.005  63.735  0.00  0.00     0.163 HD
ATOM     25  H27 LEU d   1      22.042  -7.243  63.243  0.00  0.00     0.087 H 
ATOM     26  H77 LEU d   1      24.747 -11.673  71.986  0.00  0.00     0.163 HD
ATOM     27  H78 LEU d   1      22.443 -13.126  71.730  0.00  0.00     0.087 H 
ATOM     28  N   GLU d   1      24.038  -8.077  64.636  0.00  0.00    -0.346 N 
ATOM     29  CA  GLU d   1      25.031  -8.347  65.706  0.00  0.00     0.090 C 
ATOM     30  C   GLU d   1      25.293  -7.192  66.432  0.00  0.00     0.241 C 
ATOM     31  O   GLU d   1      26.266  -6.487  66.171  0.00  0.00    -0.271 OA
ATOM     32  N   GLU d   1      27.513  -9.363  71.653  0.00  0.00    -0.346 N 
ATOM     33  CA  GLU d   1      28.235 -10.634  71.356  0.00  0.00     0.090 C 
ATOM     34  C   GLU d   1      27.653 -11.800  71.850  0.00  0.00     0.241 C 
ATOM     35  O   GLU d   1      27.847 -12.869  71.274  0.00  0.00    -0.271 OA
ATOM     36  H37 GLU d   1      24.334  -7.807  63.719  0.00  0.00     0.163 HD
ATOM     37  H38 GLU d   1      24.607  -9.100  66.387  0.00  0.00     0.087 H 
ATOM     38  H61 GLU d   1      27.845  -8.783  72.397  0.00  0.00     0.163 HD
ATOM     39  H62 GLU d   1      28.281 -10.729  70.261  0.00  0.00     0.087 H 
ATOM     40  N   TYR d   1      24.417  -6.827  67.460  0.00  0.00    -0.346 N 
ATOM     41  CA  TYR d   1      24.642  -5.603  68.260  0.00  0.00     0.093 C 
ATOM     42  C   TYR d   1      25.283  -5.954  69.444  0.00  0.00     0.241 C 
ATOM     43  O   TYR d   1      25.991  -5.146  70.041  0.00  0.00    -0.271 OA
ATOM     44  H43 TYR d   1      23.624  -7.404  67.658  0.00  0.00     0.163 HD
ATOM     45  H44 TYR d   1      25.286  -4.915  67.692  0.00  0.00     0.088 H 
ATOM     46  N   PHE d   1      25.139  -7.258  69.934  0.00  0.00    -0.346 N 
ATOM     47  CA  PHE d   1      25.793  -7.712  71.184  0.00  0.00     0.093 C 
ATOM     48  C   PHE d   1      26.384  -8.952  70.926  0.00  0.00     0.241 C 
ATOM     49  O   PHE d   1      25.938  -9.682  70.043  0.00  0.00    -0.271 OA
ATOM     50  H52 PHE d   1      24.575  -7.906  69.422  0.00  0.00     0.163 HD
ATOM     51  H53 PHE d   1      26.581  -6.995  71.457  0.00  0.00     0.088 H 
ATOM     52  N   TRP d   1      26.863 -11.791  72.999  0.00  0.00    -0.346 N 
ATOM     53  CA  TRP d   1      26.303 -13.063  73.523  0.00  0.00     0.093 C 
ATOM     54  C   TRP d   1      25.234 -13.532  72.757  0.00  0.00     0.241 C 
ATOM     55  O   TRP d   1      24.959 -14.731  72.781  0.00  0.00    -0.271 OA
ATOM     56  H67 TRP d   1      26.674 -10.929  73.470  0.00  0.00     0.163 HD
ATOM     57  H68 TRP d   1      27.100 -13.819  73.472  0.00  0.00     0.088 H 
ATOM     58  N   SER d   1      22.449 -15.065  70.132  0.00  0.00    -0.344 N 
ATOM     59  CA  SER d   1      22.703 -16.295  69.351  0.00  0.00     0.109 C 
ATOM     60  C   SER d   1      22.474 -15.984  68.018  0.00  0.00     0.242 C 
ATOM     61  O   SER d   1      22.382 -14.810  67.666  0.00  0.00    -0.271 OA
ATOM     62  H88 SER d   1      21.531 -14.846  70.463  0.00  0.00     0.163 HD
ATOM     63  H89 SER d   1      23.748 -16.608  69.490  0.00  0.00     0.090 H 
ATOM     64  NDV 9WV d   1      22.363 -16.985  67.046  0.00  0.00    -0.357 N 
ATOM     65  CB  9WV d   1      22.097 -16.574  65.645  0.00  0.00     0.021 C 
ATOM     66  CA  9WV d   1      23.324 -16.036  64.893  0.00  0.00     0.114 C 
ATOM     67  C   9WV d   1      22.880 -15.611  63.645  0.00  0.00     0.416 A 
ATOM     68  OXT 9WV d   1      22.484 -14.457  63.481  0.00  0.00    -0.124 OA
ATOM     69  H93 9WV d   1      22.460 -17.950  67.289  0.00  0.00     0.162 HD
ATOM     70  H94 9WV d   1      21.330 -15.786  65.658  0.00  0.00     0.067 H 
ATOM     71  H95 9WV d   1      21.715 -17.448  65.097  0.00  0.00     0.067 H 
ATOM     72  H96 9WV d   1      24.075 -16.832  64.778  0.00  0.00     0.086 H 
ENDROOT
BRANCH   1  73
ATOM     73  N   ORN d   1      21.831 -10.679  60.001  0.00  0.00    -0.346 N 
ATOM     74  C   PH8 d   1      20.692 -10.893  59.323  0.00  0.00     0.241 C 
ATOM     75  O   PH8 d   1      19.629 -11.219  59.850  0.00  0.00    -0.271 OA
ATOM     76  H17 ORN d   1      22.656 -10.423  59.497  0.00  0.00     0.163 HD
BRANCH  74  77
ATOM     77  CA  PH8 d   1      20.793 -10.712  57.805  0.00  0.00     0.089 C 
ATOM     78  H5  PH8 d   1      21.675 -11.252  57.431  0.00  0.00     0.087 H 
BRANCH  77  79
ATOM     79  N   PH8 d   1      19.581 -11.259  57.176  0.00  0.00    -0.348 N 
ATOM     80  C   ACE d   1      19.587 -12.415  56.498  0.00  0.00     0.214 C 
ATOM     81  O   ACE d   1      20.586 -13.114  56.339  0.00  0.00    -0.274 OA
ATOM     82  H4  PH8 d   1      18.723 -10.751  57.257  0.00  0.00     0.163 HD
BRANCH  80  83
ATOM     83  CH3 ACE d   1      18.234 -12.831  55.918  0.00  0.00    -0.003 C 
ATOM     84  H1  ACE d   1      17.478 -12.073  56.172  0.00  0.00     0.040 H 
ATOM     85  H2  ACE d   1      17.937 -13.802  56.341  0.00  0.00     0.040 H 
ATOM     86  H3  ACE d   1      18.315 -12.917  54.824  0.00  0.00     0.040 H 
ENDBRANCH  80  83
ENDBRANCH  77  79
BRANCH  77  87
ATOM     87  CB  PH8 d   1      20.927  -9.225  57.462  0.00  0.00    -0.038 C 
ATOM     88  H6  PH8 d   1      21.279  -9.120  56.425  0.00  0.00     0.036 H 
ATOM     89  H7  PH8 d   1      21.651  -8.757  58.145  0.00  0.00     0.036 H 
BRANCH  87  90
ATOM     90  CI  PH8 d   1      19.569  -8.533  57.610  0.00  0.00    -0.059 C 
ATOM     91  H8  PH8 d   1      18.878  -9.197  58.150  0.00  0.00     0.033 H 
ATOM     92  H9  PH8 d   1      19.161  -8.312  56.613  0.00  0.00     0.033 H 
BRANCH  90  93
ATOM     93  CJ  PH8 d   1      19.734  -7.227  58.392  0.00  0.00    -0.041 C 
ATOM     94  H10 PH8 d   1      18.747  -6.878  58.728  0.00  0.00     0.040 H 
ATOM     95  H11 PH8 d   1      20.377  -7.406  59.266  0.00  0.00     0.040 H 
BRANCH  93  96
ATOM     96  CG  PH8 d   1      20.316  -6.252  57.586  0.00  0.00    -0.058 A 
ATOM     97  CD1 PH8 d   1      21.440  -5.564  58.029  0.00  0.00    -0.077 A 
ATOM     98  CE1 PH8 d   1      22.023  -4.590  57.226  0.00  0.00    -0.082 A 
ATOM     99  H13 PH8 d   1      21.863  -5.787  59.002  0.00  0.00     0.084 H 
ATOM    100  CZ  PH8 d   1      21.481  -4.300  55.979  0.00  0.00    -0.083 A 
ATOM    101  H15 PH8 d   1      22.901  -4.056  57.572  0.00  0.00     0.083 H 
ATOM    102  CE2 PH8 d   1      20.356  -4.985  55.537  0.00  0.00    -0.082 A 
ATOM    103  H12 PH8 d   1      21.935  -3.541  55.353  0.00  0.00     0.083 H 
ATOM    104  CD2 PH8 d   1      19.774  -5.960  56.339  0.00  0.00    -0.077 A 
ATOM    105  H16 PH8 d   1      19.931  -4.759  54.566  0.00  0.00     0.083 H 
ATOM    106  H14 PH8 d   1      18.896  -6.493  55.992  0.00  0.00     0.084 H 
ENDBRANCH  93  96
ENDBRANCH  90  93
ENDBRANCH  87  90
ENDBRANCH  77  87
ENDBRANCH  74  77
ENDBRANCH   1  73
BRANCH  17 107
ATOM    107  CB  LEU d   1      20.413  -7.539  64.635  0.00  0.00    -0.035 C 
ATOM    108  H28 LEU d   1      20.641  -7.185  65.651  0.00  0.00     0.037 H 
ATOM    109  H29 LEU d   1      19.715  -8.387  64.690  0.00  0.00     0.037 H 
BRANCH 107 110
ATOM    110  CG  LEU d   1      19.758  -6.402  63.844  0.00  0.00    -0.059 C 
ATOM    111  H30 LEU d   1      20.338  -5.477  63.982  0.00  0.00     0.038 H 
BRANCH 110 112
ATOM    112  CD1 LEU d   1      19.696  -6.746  62.355  0.00  0.00    -0.073 C 
ATOM    113  H31 LEU d   1      19.223  -5.918  61.807  0.00  0.00     0.028 H 
ATOM    114  H32 LEU d   1      19.105  -7.663  62.215  0.00  0.00     0.028 H 
ATOM    115  H33 LEU d   1      20.715  -6.904  61.972  0.00  0.00     0.028 H 
ENDBRANCH 110 112
BRANCH 110 116
ATOM    116  CD2 LEU d   1      18.336  -6.205  64.365  0.00  0.00    -0.073 C 
ATOM    117  H34 LEU d   1      18.369  -5.957  65.436  0.00  0.00     0.028 H 
ATOM    118  H35 LEU d   1      17.761  -7.132  64.221  0.00  0.00     0.028 H 
ATOM    119  H36 LEU d   1      17.854  -5.385  63.813  0.00  0.00     0.028 H 
ENDBRANCH 110 116
ENDBRANCH 107 110
ENDBRANCH  17 107
BRANCH  67 120
ATOM    120  O   9WV d   1      22.876 -16.382  62.686  0.00  0.00    -0.338 OA
ATOM    121 5H10 9WV d   1      23.431 -16.033  61.998  0.00  0.00     0.215 HD
ENDBRANCH  67 120
BRANCH  66 122
ATOM    122  N   9WV d   1      23.918 -14.900  65.622  0.00  0.00    -0.347 N 
ATOM    123  CEG 9WV d   1      25.195 -14.877  66.046  0.00  0.00     0.219 C 
ATOM    124  OEK 9WV d   1      25.695 -13.934  66.659  0.00  0.00    -0.274 OA
ATOM    125  H97 9WV d   1      23.342 -14.105  65.811  0.00  0.00     0.163 HD
BRANCH 123 126
ATOM    126  CEH 9WV d   1      26.035 -16.114  65.715  0.00  0.00     0.031 C 
ATOM    127  H98 9WV d   1      25.932 -16.354  64.646  0.00  0.00     0.049 H 
ATOM    128  H99 9WV d   1      25.688 -16.967  66.317  0.00  0.00     0.049 H 
BRANCH 126 129
ATOM    129  CEI 9WV d   1      27.506 -15.824  66.037  0.00  0.00     0.087 C 
ATOM    130 0H10 9WV d   1      27.789 -16.376  66.945  0.00  0.00     0.075 H 
ATOM    131 1H10 9WV d   1      27.628 -14.745  66.211  0.00  0.00     0.075 H 
BRANCH 129 132
ATOM    132  NEJ 9WV d   1      28.390 -16.233  64.935  0.00  0.00    -0.079 N 
ATOM    133 2H10 9WV d   1      29.347 -16.029  65.178  0.00  0.00     0.274 HD
ATOM    134 3H10 9WV d   1      28.141 -15.728  64.099  0.00  0.00     0.274 HD
ATOM    135 4H10 9WV d   1      28.288 -17.223  64.772  0.00  0.00     0.274 HD
ENDBRANCH 129 132
ENDBRANCH 126 129
ENDBRANCH 123 126
ENDBRANCH  66 122
BRANCH  29 136
ATOM    136  CB  GLU d   1      26.337  -8.898  65.127  0.00  0.00    -0.029 C 
ATOM    137  H39 GLU d   1      26.617  -9.816  65.664  0.00  0.00     0.037 H 
ATOM    138  H40 GLU d   1      27.134  -8.148  65.242  0.00  0.00     0.037 H 
BRANCH 136 139
ATOM    139  CG  GLU d   1      26.145  -9.215  63.641  0.00  0.00     0.018 C 
ATOM    140  H41 GLU d   1      26.819  -8.584  63.043  0.00  0.00     0.049 H 
ATOM    141  H42 GLU d   1      25.102  -9.010  63.356  0.00  0.00     0.049 H 
BRANCH 139 142
ATOM    142  CD  GLU d   1      26.463 -10.689  63.378  0.00  0.00     0.172 C 
ATOM    143  OE1 GLU d   1      27.218 -10.942  62.414  0.00  0.00    -0.648 OA
ATOM    144  OE2 GLU d   1      25.942 -11.530  64.144  0.00  0.00    -0.648 OA
ENDBRANCH 139 142
ENDBRANCH 136 139
ENDBRANCH  29 136
BRANCH  41 145
ATOM    145  CB  TYR d   1      23.312  -4.903  68.554  0.00  0.00    -0.014 C 
ATOM    146  H45 TYR d   1      23.482  -4.078  69.262  0.00  0.00     0.043 H 
ATOM    147  H46 TYR d   1      22.609  -5.625  68.994  0.00  0.00     0.043 H 
BRANCH 145 148
ATOM    148  CG  TYR d   1      22.773  -4.394  67.370  0.00  0.00    -0.056 A 
ATOM    149  CD1 TYR d   1      23.607  -3.943  66.351  0.00  0.00    -0.074 A 
ATOM    150  CE1 TYR d   1      23.068  -3.437  65.173  0.00  0.00    -0.051 A 
ATOM    151  H47 TYR d   1      24.683  -3.986  66.476  0.00  0.00     0.084 H 
ATOM    152  CZ  TYR d   1      21.689  -3.378  65.009  0.00  0.00     0.065 A 
ATOM    153  H49 TYR d   1      23.723  -3.089  64.383  0.00  0.00     0.087 H 
ATOM    154  CE2 TYR d   1      20.852  -3.826  66.026  0.00  0.00    -0.051 A 
ATOM    155  CD2 TYR d   1      21.393  -4.333  67.204  0.00  0.00    -0.074 A 
ATOM    156  H50 TYR d   1      19.776  -3.780  65.901  0.00  0.00     0.087 H 
ATOM    157  H48 TYR d   1      20.738  -4.681  67.994  0.00  0.00     0.084 H 
BRANCH 152 158
ATOM    158  OH  TYR d   1      21.162  -2.882  63.856  0.00  0.00    -0.361 OA
ATOM    159  H51 TYR d   1      20.621  -2.127  64.055  0.00  0.00     0.217 HD
ENDBRANCH 152 158
ENDBRANCH 145 148
ENDBRANCH  41 145
BRANCH  59 160
ATOM    160  CB  SER d   1      21.780 -17.442  69.767  0.00  0.00     0.044 C 
ATOM    161  H90 SER d   1      21.980 -17.713  70.814  0.00  0.00     0.077 H 
ATOM    162  H91 SER d   1      21.964 -18.314  69.121  0.00  0.00     0.077 H 
BRANCH 160 163
ATOM    163  OG  SER d   1      20.416 -17.028  69.633  0.00  0.00    -0.398 OA
ATOM    164  H92 SER d   1      19.843 -17.741  69.891  0.00  0.00     0.209 HD
ENDBRANCH 160 163
ENDBRANCH  59 160
BRANCH  47 165
ATOM    165  CB  PHE d   1      24.784  -7.772  72.337  0.00  0.00    -0.014 C 
ATOM    166  H54 PHE d   1      25.308  -8.004  73.276  0.00  0.00     0.043 H 
ATOM    167  H55 PHE d   1      24.035  -8.551  72.133  0.00  0.00     0.043 H 
BRANCH 165 168
ATOM    168  CG  PHE d   1      24.153  -6.532  72.446  0.00  0.00    -0.056 A 
ATOM    169  CD1 PHE d   1      24.854  -5.430  72.924  0.00  0.00    -0.077 A 
ATOM    170  CE1 PHE d   1      24.229  -4.192  73.027  0.00  0.00    -0.082 A 
ATOM    171  H56 PHE d   1      25.892  -5.537  73.218  0.00  0.00     0.084 H 
ATOM    172  CZ  PHE d   1      22.898  -4.051  72.652  0.00  0.00    -0.083 A 
ATOM    173  H58 PHE d   1      24.780  -3.336  73.400  0.00  0.00     0.083 H 
ATOM    174  CE2 PHE d   1      22.197  -5.151  72.173  0.00  0.00    -0.082 A 
ATOM    175  H60 PHE d   1      22.409  -3.087  72.733  0.00  0.00     0.083 H 
ATOM    176  CD2 PHE d   1      22.822  -6.389  72.069  0.00  0.00    -0.077 A 
ATOM    177  H59 PHE d   1      21.159  -5.044  71.879  0.00  0.00     0.083 H 
ATOM    178  H57 PHE d   1      22.271  -7.244  71.694  0.00  0.00     0.084 H 
ENDBRANCH 165 168
ENDBRANCH  47 165
BRANCH  21 179
ATOM    179  CB  LEU d   1      23.077 -11.945  70.031  0.00  0.00    -0.035 C 
ATOM    180  H79 LEU d   1      22.207 -12.238  69.425  0.00  0.00     0.037 H 
ATOM    181  H80 LEU d   1      23.963 -11.861  69.384  0.00  0.00     0.037 H 
BRANCH 179 182
ATOM    182  CG  LEU d   1      22.800 -10.586  70.676  0.00  0.00    -0.059 C 
ATOM    183  H81 LEU d   1      23.633 -10.316  71.342  0.00  0.00     0.038 H 
BRANCH 182 184
ATOM    184  CD1 LEU d   1      22.653  -9.532  69.577  0.00  0.00    -0.073 C 
ATOM    185  H82 LEU d   1      22.453  -8.551  70.034  0.00  0.00     0.028 H 
ATOM    186  H83 LEU d   1      21.817  -9.805  68.916  0.00  0.00     0.028 H 
ATOM    187  H84 LEU d   1      23.582  -9.481  68.991  0.00  0.00     0.028 H 
ENDBRANCH 182 184
BRANCH 182 188
ATOM    188  CD2 LEU d   1      21.501 -10.655  71.480  0.00  0.00    -0.073 C 
ATOM    189  H85 LEU d   1      21.600 -11.412  72.272  0.00  0.00     0.028 H 
ATOM    190  H86 LEU d   1      20.671 -10.930  70.813  0.00  0.00     0.028 H 
ATOM    191  H87 LEU d   1      21.298  -9.674  71.933  0.00  0.00     0.028 H 
ENDBRANCH 182 188
ENDBRANCH 179 182
ENDBRANCH  21 179
BRANCH  33 192
ATOM    192  CB  GLU d   1      29.667 -10.558  71.902  0.00  0.00    -0.029 C 
ATOM    193  H63 GLU d   1      29.998 -11.564  72.199  0.00  0.00     0.037 H 
ATOM    194  H64 GLU d   1      29.689  -9.892  72.777  0.00  0.00     0.037 H 
BRANCH 192 195
ATOM    195  CG  GLU d   1      30.607 -10.012  70.825  0.00  0.00     0.018 C 
ATOM    196  H65 GLU d   1      31.408  -9.429  71.302  0.00  0.00     0.049 H 
ATOM    197  H66 GLU d   1      30.040  -9.364  70.140  0.00  0.00     0.049 H 
BRANCH 195 198
ATOM    198  CD  GLU d   1      31.225 -11.171  70.033  0.00  0.00     0.172 C 
ATOM    199  OE1 GLU d   1      32.368 -10.986  69.561  0.00  0.00    -0.648 OA
ATOM    200  OE2 GLU d   1      30.546 -12.215  69.913  0.00  0.00    -0.648 OA
ENDBRANCH 195 198
ENDBRANCH 192 195
ENDBRANCH  33 192
BRANCH  53 201
ATOM    201  CB  TRP d   1      25.898 -12.911  74.995  0.00  0.00    -0.012 C 
ATOM    202  H69 TRP d   1      26.799 -12.944  75.625  0.00  0.00     0.044 H 
ATOM    203  H70 TRP d   1      25.225 -13.736  75.274  0.00  0.00     0.044 H 
BRANCH 201 204
ATOM    204  CG  TRP d   1      25.181 -11.581  75.211  0.00  0.00    -0.028 A 
ATOM    205  CD1 TRP d   1      25.782 -10.423  75.455  0.00  0.00    -0.015 A 
ATOM    206  NE1 TRP d   1      24.816  -9.518  75.583  0.00  0.00    -0.365 N 
ATOM    207  H71 TRP d   1      26.854 -10.248  75.535  0.00  0.00     0.112 H 
ATOM    208  CE2 TRP d   1      23.638 -10.126  75.423  0.00  0.00     0.042 A 
ATOM    209  H72 TRP d   1      24.954  -8.515  75.774  0.00  0.00     0.165 HD
ATOM    210  CD2 TRP d   1      23.865 -11.421  75.191  0.00  0.00    -0.002 A 
ATOM    211  CZ2 TRP d   1      22.396  -9.650  75.463  0.00  0.00    -0.056 A 
ATOM    212  CE3 TRP d   1      22.867 -12.281  74.991  0.00  0.00    -0.070 A 
ATOM    213  CZ3 TRP d   1      21.551 -11.841  75.021  0.00  0.00    -0.082 A 
ATOM    214  H73 TRP d   1      23.083 -13.327  74.804  0.00  0.00     0.084 H 
ATOM    215  CH2 TRP d   1      21.313 -10.496  75.262  0.00  0.00    -0.081 A 
ATOM    216  H75 TRP d   1      20.730 -12.531  74.860  0.00  0.00     0.083 H 
ATOM    217  H76 TRP d   1      20.300 -10.112  75.293  0.00  0.00     0.083 H 
ATOM    218  H74 TRP d   1      22.229  -8.596  75.653  0.00  0.00     0.086 H 
ENDBRANCH 201 204
ENDBRANCH  53 201
TORSDOF 36
