REMARK WARNING: 32 MAX_TORS EXCEEDED!!!
REMARK  36 active torsions:
REMARK  status: ('A' for Active; 'I' for Inactive)
REMARK    1  A    between atoms: C_1  and  CH3_3 
REMARK       I    between atoms: N_5  and  C_1 
REMARK    2  A    between atoms: C_4  and  CA_7 
REMARK       I    between atoms: N_17  and  C_4 
REMARK    3  A    between atoms: CA_7  and  N_5 
REMARK    4  A    between atoms: CA_7  and  CB_8 
REMARK    5  A    between atoms: CB_8  and  CI_10 
REMARK    6  A    between atoms: CJ_11  and  CG_9 
REMARK    7  A    between atoms: CI_10  and  CJ_11 
REMARK    8  A    between atoms: CA_18  and  N_17 
REMARK    9  A    between atoms: N_25  and  CN_26 
REMARK   10  A    between atoms: CA_27  and  CB_28 
REMARK   11  A    between atoms: CB_28  and  CG_29 
REMARK   12  A    between atoms: CG_29  and  CD1_30 
REMARK   13  A    between atoms: CG_29  and  CD2_31 
REMARK   14  A    between atoms: CA_35  and  CB_38 
REMARK   15  A    between atoms: CB_38  and  CG_39 
REMARK   16  A    between atoms: CG_39  and  CD_40 
REMARK   17  A    between atoms: CA_44  and  CB_47 
REMARK   18  A    between atoms: CB_47  and  CG_48 
REMARK   19  A    between atoms: CZ_53  and  OH_54 
REMARK   20  A    between atoms: CB_63  and  CG_66 
REMARK   21  A    between atoms: CA_67  and  CB_63 
REMARK   22  A    between atoms: CA_69  and  CB_72 
REMARK   23  A    between atoms: CB_72  and  CG_73 
REMARK   24  A    between atoms: CG_73  and  CD_74 
REMARK   25  A    between atoms: CA_78  and  CB_81 
REMARK   26  A    between atoms: CB_81  and  CG_82 
REMARK   27  A    between atoms: CA_92  and  CB_95 
REMARK   28  A    between atoms: CB_95  and  CG_96 
REMARK   29  A    between atoms: CG_96  and  CD1_97 
REMARK   30  A    between atoms: CG_96  and  CD2_98 
REMARK   31  A    between atoms: CA_100  and  CB_103 
REMARK   32  A    between atoms: CB_103  and  OG_104 
REMARK   33  A    between atoms: CA_107  and  N_108 
REMARK       I    between atoms: N_108  and  CEG_109 
REMARK   34  A    between atoms: CEG_109  and  CEH_111 
REMARK   35  A    between atoms: CEH_111  and  CEI_112 
REMARK   36  A    between atoms: CEI_112  and  NEJ_113 
ROOT
ATOM      1  CA  ORN d   1     -27.222 -55.383 -25.073  0.00  0.00     0.089 C 
ATOM      2  CB  ORN d   1     -26.667 -56.738 -24.645  0.00  0.00    -0.036 C 
ATOM      3  CG  ORN d   1     -25.159 -56.722 -24.690  0.00  0.00    -0.048 C 
ATOM      4  CD  ORN d   1     -24.615 -58.034 -24.206  0.00  0.00    -0.005 C 
ATOM      5  NE  ORN d   1     -24.991 -59.095 -25.150  0.00  0.00    -0.359 N 
ATOM      6  C   ORN d   1     -28.590 -55.420 -24.842  0.00  0.00     0.243 C 
ATOM      7  O   ORN d   1     -29.084 -55.277 -23.725  0.00  0.00    -0.271 OA
ATOM      8  H18 ORN d   1     -27.041 -55.223 -26.146  0.00  0.00     0.087 H 
ATOM      9  H19 ORN d   1     -27.042 -57.516 -25.326  0.00  0.00     0.036 H 
ATOM     10  H20 ORN d   1     -26.997 -56.958 -23.619  0.00  0.00     0.036 H 
ATOM     11  H21 ORN d   1     -24.784 -55.913 -24.046  0.00  0.00     0.035 H 
ATOM     12  H22 ORN d   1     -24.828 -56.550 -25.725  0.00  0.00     0.035 H 
ATOM     13  H23 ORN d   1     -25.032 -58.261 -23.214  0.00  0.00     0.064 H 
ATOM     14  H24 ORN d   1     -23.519 -57.974 -24.138  0.00  0.00     0.064 H 
ATOM     15  H25 ORN d   1     -25.770 -59.689 -24.949  0.00  0.00     0.162 HD
ATOM     16  N   MLE d   1     -29.421 -55.656 -25.848  0.00  0.00    -0.341 N 
ATOM     17  CA  MLE d   1     -30.837 -55.755 -25.512  0.00  0.00     0.091 C 
ATOM     18  C   MLE d   1     -31.079 -57.120 -25.536  0.00  0.00     0.241 C 
ATOM     19  O   MLE d   1     -31.444 -57.679 -26.567  0.00  0.00    -0.271 OA
ATOM     20  H29 MLE d   1     -31.026 -55.341 -24.511  0.00  0.00     0.087 H 
ATOM     21  N   GLU d   1     -30.833 -57.902 -24.409  0.00  0.00    -0.346 N 
ATOM     22  CA  GLU d   1     -31.072 -59.362 -24.480  0.00  0.00     0.090 C 
ATOM     23  C   GLU d   1     -32.351 -59.591 -24.009  0.00  0.00     0.241 C 
ATOM     24  O   GLU d   1     -32.551 -59.891 -22.834  0.00  0.00    -0.271 OA
ATOM     25  N   GLU d   1     -33.443 -65.226 -25.403  0.00  0.00    -0.346 N 
ATOM     26  CA  GLU d   1     -32.076 -65.876 -25.475  0.00  0.00     0.090 C 
ATOM     27  C   GLU d   1     -31.584 -66.061 -26.769  0.00  0.00     0.241 C 
ATOM     28  O   GLU d   1     -30.375 -66.027 -27.012  0.00  0.00    -0.271 OA
ATOM     29  H39 GLU d   1     -30.500 -57.483 -23.564  0.00  0.00     0.163 HD
ATOM     30  H40 GLU d   1     -30.987 -59.703 -25.522  0.00  0.00     0.087 H 
ATOM     31  H61 GLU d   1     -34.218 -65.774 -25.088  0.00  0.00     0.163 HD
ATOM     32  H62 GLU d   1     -31.381 -65.181 -24.982  0.00  0.00     0.087 H 
ATOM     33  N   TYR d   1     -33.422 -59.437 -24.880  0.00  0.00    -0.346 N 
ATOM     34  CA  TYR d   1     -34.798 -59.615 -24.398  0.00  0.00     0.093 C 
ATOM     35  C   TYR d   1     -35.197 -60.942 -24.510  0.00  0.00     0.241 C 
ATOM     36  O   TYR d   1     -36.091 -61.369 -23.785  0.00  0.00    -0.271 OA
ATOM     37  H45 TYR d   1     -33.256 -59.204 -25.838  0.00  0.00     0.163 HD
ATOM     38  H46 TYR d   1     -34.844 -59.325 -23.338  0.00  0.00     0.088 H 
ATOM     39  N   ZCL d   1     -34.567 -61.799 -25.431  0.00  0.00    -0.346 N 
ATOM     40  O   ZCL d   1     -32.719 -63.238 -26.207  0.00  0.00    -0.271 OA
ATOM     41  C   ZCL d   1     -33.668 -63.877 -25.762  0.00  0.00     0.241 C 
ATOM     42  CA  ZCL d   1     -34.904 -63.239 -25.625  0.00  0.00     0.093 C 
ATOM     43  H54 ZCL d   1     -33.839 -61.414 -25.998  0.00  0.00     0.163 HD
ATOM     44  H60 ZCL d   1     -35.445 -63.624 -24.748  0.00  0.00     0.088 H 
ATOM     45  N   TRP d   1     -32.460 -66.220 -27.828  0.00  0.00    -0.346 N 
ATOM     46  CA  TRP d   1     -31.874 -66.394 -29.173  0.00  0.00     0.093 C 
ATOM     47  C   TRP d   1     -31.325 -65.219 -29.656  0.00  0.00     0.241 C 
ATOM     48  O   TRP d   1     -30.574 -65.282 -30.629  0.00  0.00    -0.271 OA
ATOM     49  H67 TRP d   1     -33.450 -66.217 -27.689  0.00  0.00     0.163 HD
ATOM     50  H68 TRP d   1     -31.071 -67.141 -29.093  0.00  0.00     0.088 H 
ATOM     51  N   LEU d   1     -31.565 -63.984 -29.011  0.00  0.00    -0.346 N 
ATOM     52  CA  LEU d   1     -30.900 -62.776 -29.545  0.00  0.00     0.089 C 
ATOM     53  C   LEU d   1     -29.571 -62.943 -29.272  0.00  0.00     0.241 C 
ATOM     54  O   LEU d   1     -29.210 -63.562 -28.271  0.00  0.00    -0.271 OA
ATOM     55  H77 LEU d   1     -32.168 -63.929 -28.215  0.00  0.00     0.163 HD
ATOM     56  H78 LEU d   1     -31.082 -62.698 -30.627  0.00  0.00     0.087 H 
ATOM     57  N   SER d   1     -28.638 -62.413 -30.145  0.00  0.00    -0.344 N 
ATOM     58  CA  SER d   1     -27.233 -62.649 -29.813  0.00  0.00     0.109 C 
ATOM     59  C   SER d   1     -26.841 -61.713 -28.884  0.00  0.00     0.242 C 
ATOM     60  O   SER d   1     -27.237 -61.768 -27.722  0.00  0.00    -0.271 OA
ATOM     61  H88 SER d   1     -28.909 -61.897 -30.958  0.00  0.00     0.163 HD
ATOM     62  H89 SER d   1     -27.102 -63.664 -29.409  0.00  0.00     0.090 H 
ATOM     63  NDV 9WV d   1     -25.963 -60.705 -29.245  0.00  0.00    -0.357 N 
ATOM     64  CB  9WV d   1     -25.573 -59.708 -28.230  0.00  0.00     0.022 C 
ATOM     65  CA  9WV d   1     -24.658 -60.291 -27.164  0.00  0.00     0.104 C 
ATOM     66  C   9WV d   1     -24.261 -59.276 -26.329  0.00  0.00     0.242 C 
ATOM     67  O   9WV d   1     -23.295 -58.565 -26.607  0.00  0.00    -0.271 OA
ATOM     68  H93 9WV d   1     -25.600 -60.654 -30.175  0.00  0.00     0.162 HD
ATOM     69  H94 9WV d   1     -26.482 -59.325 -27.744  0.00  0.00     0.067 H 
ATOM     70  H95 9WV d   1     -25.049 -58.881 -28.731  0.00  0.00     0.067 H 
ATOM     71  H96 9WV d   1     -23.787 -60.770 -27.635  0.00  0.00     0.090 H 
ENDROOT
BRANCH   1  72
ATOM     72  N   ORN d   1     -26.534 -54.328 -24.316  0.00  0.00    -0.346 N 
ATOM     73  C   PH8 d   1     -25.653 -53.537 -24.939  0.00  0.00     0.241 C 
ATOM     74  O   PH8 d   1     -25.376 -53.647 -26.132  0.00  0.00    -0.271 OA
ATOM     75  H17 ORN d   1     -26.723 -54.202 -23.342  0.00  0.00     0.163 HD
BRANCH  73  76
ATOM     76  CA  PH8 d   1     -24.945 -52.506 -24.073  0.00  0.00     0.089 C 
ATOM     77  H5  PH8 d   1     -24.760 -52.899 -23.062  0.00  0.00     0.087 H 
BRANCH  76  78
ATOM     78  N   PH8 d   1     -23.697 -52.180 -24.745  0.00  0.00    -0.348 N 
ATOM     79  C   ACE d   1     -22.544 -52.062 -24.097  0.00  0.00     0.214 C 
ATOM     80  O   ACE d   1     -22.415 -52.195 -22.880  0.00  0.00    -0.274 OA
ATOM     81  H4  PH8 d   1     -23.708 -52.039 -25.735  0.00  0.00     0.163 HD
BRANCH  79  82
ATOM     82  CH3 ACE d   1     -21.351 -51.741 -24.995  0.00  0.00    -0.003 C 
ATOM     83  H1  ACE d   1     -21.688 -51.666 -26.039  0.00  0.00     0.040 H 
ATOM     84  H2  ACE d   1     -20.601 -52.541 -24.908  0.00  0.00     0.040 H 
ATOM     85  H3  ACE d   1     -20.905 -50.785 -24.684  0.00  0.00     0.040 H 
ENDBRANCH  79  82
ENDBRANCH  76  78
BRANCH  76  86
ATOM     86  CB  PH8 d   1     -25.791 -51.266 -24.014  0.00  0.00    -0.038 C 
ATOM     87  H6  PH8 d   1     -26.512 -51.263 -24.845  0.00  0.00     0.036 H 
ATOM     88  H7  PH8 d   1     -25.153 -50.372 -24.078  0.00  0.00     0.036 H 
BRANCH  86  89
ATOM     89  CI  PH8 d   1     -26.519 -51.282 -22.706  0.00  0.00    -0.059 C 
ATOM     90  H8  PH8 d   1     -25.965 -50.685 -21.966  0.00  0.00     0.033 H 
ATOM     91  H9  PH8 d   1     -26.612 -52.317 -22.346  0.00  0.00     0.033 H 
BRANCH  89  92
ATOM     92  CJ  PH8 d   1     -27.895 -50.689 -22.911  0.00  0.00    -0.041 C 
ATOM     93  H10 PH8 d   1     -27.849 -49.834 -23.601  0.00  0.00     0.040 H 
ATOM     94  H11 PH8 d   1     -28.587 -51.445 -23.310  0.00  0.00     0.040 H 
BRANCH  92  95
ATOM     95  CG  PH8 d   1     -28.291 -50.283 -21.666  0.00  0.00    -0.058 A 
ATOM     96  CD1 PH8 d   1     -29.515 -50.695 -21.171  0.00  0.00    -0.077 A 
ATOM     97  CE1 PH8 d   1     -29.905 -50.302 -19.899  0.00  0.00    -0.082 A 
ATOM     98  H13 PH8 d   1     -30.165 -51.320 -21.773  0.00  0.00     0.084 H 
ATOM     99  CZ  PH8 d   1     -29.060 -49.500 -19.143  0.00  0.00    -0.083 A 
ATOM    100  H15 PH8 d   1     -30.861 -50.618 -19.498  0.00  0.00     0.083 H 
ATOM    101  CE2 PH8 d   1     -27.827 -49.096 -19.644  0.00  0.00    -0.082 A 
ATOM    102  H12 PH8 d   1     -29.365 -49.185 -18.151  0.00  0.00     0.083 H 
ATOM    103  CD2 PH8 d   1     -27.440 -49.494 -20.910  0.00  0.00    -0.077 A 
ATOM    104  H16 PH8 d   1     -27.173 -48.472 -19.045  0.00  0.00     0.083 H 
ATOM    105  H14 PH8 d   1     -26.478 -49.191 -21.308  0.00  0.00     0.084 H 
ENDBRANCH  92  95
ENDBRANCH  89  92
ENDBRANCH  86  89
ENDBRANCH  76  86
ENDBRANCH  73  76
ENDBRANCH   1  72
BRANCH  16 106
ATOM    106  CN  MLE d   1     -28.945 -55.865 -27.237  0.00  0.00    -0.015 C 
ATOM    107  H26 MLE d   1     -29.807 -56.043 -27.897  0.00  0.00     0.056 H 
ATOM    108  H27 MLE d   1     -28.274 -56.736 -27.267  0.00  0.00     0.056 H 
ATOM    109  H28 MLE d   1     -28.401 -54.971 -27.577  0.00  0.00     0.056 H 
ENDBRANCH  16 106
BRANCH  17 110
ATOM    110  CB  MLE d   1     -31.721 -55.040 -26.522  0.00  0.00    -0.035 C 
ATOM    111  H30 MLE d   1     -32.777 -55.239 -26.285  0.00  0.00     0.037 H 
ATOM    112  H31 MLE d   1     -31.494 -55.414 -27.531  0.00  0.00     0.037 H 
BRANCH 110 113
ATOM    113  CG  MLE d   1     -31.470 -53.534 -26.475  0.00  0.00    -0.059 C 
ATOM    114  H32 MLE d   1     -30.481 -53.309 -26.900  0.00  0.00     0.038 H 
BRANCH 113 115
ATOM    115  CD1 MLE d   1     -32.559 -52.847 -27.289  0.00  0.00    -0.073 C 
ATOM    116  H33 MLE d   1     -32.399 -51.759 -27.270  0.00  0.00     0.028 H 
ATOM    117  H34 MLE d   1     -33.543 -53.081 -26.856  0.00  0.00     0.028 H 
ATOM    118  H35 MLE d   1     -32.521 -53.205 -28.328  0.00  0.00     0.028 H 
ENDBRANCH 113 115
BRANCH 113 119
ATOM    119  CD2 MLE d   1     -31.538 -53.026 -25.039  0.00  0.00    -0.073 C 
ATOM    120  H36 MLE d   1     -30.756 -53.515 -24.440  0.00  0.00     0.028 H 
ATOM    121  H37 MLE d   1     -32.525 -53.260 -24.614  0.00  0.00     0.028 H 
ATOM    122  H38 MLE d   1     -31.382 -51.937 -25.027  0.00  0.00     0.028 H 
ENDBRANCH 113 119
ENDBRANCH 110 113
ENDBRANCH  17 110
BRANCH  65 123
ATOM    123  N   9WV d   1     -25.399 -61.268 -26.336  0.00  0.00    -0.346 N 
ATOM    124  CEG 9WV d   1     -24.837 -62.378 -25.827  0.00  0.00     0.220 C 
ATOM    125  OEK 9WV d   1     -25.434 -63.206 -25.135  0.00  0.00    -0.274 OA
ATOM    126  H97 9WV d   1     -26.365 -61.094 -26.146  0.00  0.00     0.163 HD
BRANCH 124 127
ATOM    127  CEH 9WV d   1     -23.353 -62.551 -26.159  0.00  0.00     0.031 C 
ATOM    128  H98 9WV d   1     -23.123 -62.037 -27.104  0.00  0.00     0.049 H 
ATOM    129  H99 9WV d   1     -23.119 -63.621 -26.257  0.00  0.00     0.049 H 
BRANCH 127 130
ATOM    130  CEI 9WV d   1     -22.517 -61.943 -25.026  0.00  0.00     0.087 C 
ATOM    131 0H10 9WV d   1     -22.433 -62.675 -24.209  0.00  0.00     0.075 H 
ATOM    132 1H10 9WV d   1     -23.019 -61.037 -24.656  0.00  0.00     0.075 H 
BRANCH 130 133
ATOM    133  NEJ 9WV d   1     -21.172 -61.589 -25.493  0.00  0.00    -0.079 N 
ATOM    134 2H10 9WV d   1     -20.645 -61.193 -24.730  0.00  0.00     0.274 HD
ATOM    135 3H10 9WV d   1     -21.242 -60.915 -26.239  0.00  0.00     0.274 HD
ATOM    136 4H10 9WV d   1     -20.705 -62.416 -25.830  0.00  0.00     0.274 HD
ENDBRANCH 130 133
ENDBRANCH 127 130
ENDBRANCH 124 127
ENDBRANCH  65 123
BRANCH  22 137
ATOM    137  CB  GLU d   1     -30.070 -60.117 -23.618  0.00  0.00    -0.029 C 
ATOM    138  H41 GLU d   1     -30.613 -60.781 -22.930  0.00  0.00     0.037 H 
ATOM    139  H42 GLU d   1     -29.476 -59.395 -23.038  0.00  0.00     0.037 H 
BRANCH 137 140
ATOM    140  CG  GLU d   1     -29.133 -60.954 -24.490  0.00  0.00     0.018 C 
ATOM    141  H43 GLU d   1     -28.469 -60.291 -25.063  0.00  0.00     0.049 H 
ATOM    142  H44 GLU d   1     -29.724 -61.570 -25.184  0.00  0.00     0.049 H 
BRANCH 140 143
ATOM    143  CD  GLU d   1     -28.297 -61.860 -23.578  0.00  0.00     0.172 C 
ATOM    144  OE2 GLU d   1     -27.985 -61.395 -22.460  0.00  0.00    -0.648 OA
ATOM    145  OE1 GLU d   1     -27.998 -62.998 -24.010  0.00  0.00    -0.648 OA
ENDBRANCH 140 143
ENDBRANCH 137 140
ENDBRANCH  22 137
BRANCH  34 146
ATOM    146  CB  TYR d   1     -35.722 -58.706 -25.199  0.00  0.00    -0.014 C 
ATOM    147  H47 TYR d   1     -36.767 -58.984 -24.998  0.00  0.00     0.043 H 
ATOM    148  H48 TYR d   1     -35.510 -58.829 -26.271  0.00  0.00     0.043 H 
BRANCH 146 149
ATOM    149  CG  TYR d   1     -35.525 -57.368 -24.841  0.00  0.00    -0.056 A 
ATOM    150  CD1 TYR d   1     -34.859 -57.020 -23.666  0.00  0.00    -0.074 A 
ATOM    151  CE1 TYR d   1     -34.673 -55.687 -23.319  0.00  0.00    -0.051 A 
ATOM    152  H49 TYR d   1     -34.481 -57.800 -23.015  0.00  0.00     0.084 H 
ATOM    153  CZ  TYR d   1     -35.166 -54.692 -24.149  0.00  0.00     0.065 A 
ATOM    154  H51 TYR d   1     -34.147 -55.428 -22.407  0.00  0.00     0.087 H 
ATOM    155  CE2 TYR d   1     -35.836 -55.028 -25.319  0.00  0.00    -0.051 A 
ATOM    156  CD2 TYR d   1     -36.018 -56.363 -25.665  0.00  0.00    -0.074 A 
ATOM    157  H52 TYR d   1     -36.219 -54.246 -25.965  0.00  0.00     0.087 H 
ATOM    158  H50 TYR d   1     -36.544 -56.620 -26.577  0.00  0.00     0.084 H 
BRANCH 153 159
ATOM    159  OH  TYR d   1     -35.003 -53.391 -23.816  0.00  0.00    -0.361 OA
ATOM    160  H53 TYR d   1     -35.855 -52.980 -23.721  0.00  0.00     0.217 HD
ENDBRANCH 153 159
ENDBRANCH 146 149
ENDBRANCH  34 146
BRANCH  58 161
ATOM    161  CB  SER d   1     -26.402 -62.475 -31.072  0.00  0.00     0.044 C 
ATOM    162  H90 SER d   1     -26.441 -63.389 -31.683  0.00  0.00     0.077 H 
ATOM    163  H91 SER d   1     -25.357 -62.253 -30.811  0.00  0.00     0.077 H 
BRANCH 161 164
ATOM    164  OG  SER d   1     -26.977 -61.379 -31.784  0.00  0.00    -0.398 OA
ATOM    165  H92 SER d   1     -26.488 -61.231 -32.585  0.00  0.00     0.209 HD
ENDBRANCH 161 164
ENDBRANCH  58 161
BRANCH  42 166
ATOM    166  CB  ZCL d   1     -35.749 -63.471 -26.877  0.00  0.00    -0.014 C 
ATOM    167  H58 ZCL d   1     -35.129 -63.288 -27.767  0.00  0.00     0.043 H 
ATOM    168  H59 ZCL d   1     -36.102 -64.513 -26.883  0.00  0.00     0.043 H 
BRANCH 166 169
ATOM    169  CG  ZCL d   1     -36.849 -62.620 -26.909  0.00  0.00    -0.054 A 
ATOM    170  CD2 ZCL d   1     -38.017 -62.952 -26.235  0.00  0.00    -0.075 A 
ATOM    171  CE2 ZCL d   1     -39.112 -62.091 -26.274  0.00  0.00    -0.060 A 
ATOM    172  H56 ZCL d   1     -38.077 -63.880 -25.679  0.00  0.00     0.084 H 
ATOM    173  CZ  ZCL d   1     -39.033 -60.902 -26.990  0.00  0.00     0.055 A 
ATOM    174  H55 ZCL d   1     -40.024 -62.348 -25.747  0.00  0.00     0.086 H 
ATOM    175 CLZ  ZCL d   1     -40.350 -59.795 -27.092  0.00  0.00    -0.083 Cl
ATOM    176  CE1 ZCL d   1     -37.871 -60.573 -27.659  0.00  0.00     0.056 A 
ATOM    177 CLE1 ZCL d   1     -37.806 -59.083 -28.531  0.00  0.00    -0.083 Cl
ATOM    178  CD1 ZCL d   1     -36.783 -61.432 -27.626  0.00  0.00    -0.054 A 
ATOM    179  H57 ZCL d   1     -35.877 -61.175 -28.162  0.00  0.00     0.086 H 
ENDBRANCH 166 169
ENDBRANCH  42 166
BRANCH  52 180
ATOM    180  CB  LEU d   1     -31.312 -61.482 -28.862  0.00  0.00    -0.035 C 
ATOM    181  H79 LEU d   1     -30.895 -60.632 -29.421  0.00  0.00     0.037 H 
ATOM    182  H80 LEU d   1     -30.917 -61.475 -27.835  0.00  0.00     0.037 H 
BRANCH 180 183
ATOM    183  CG  LEU d   1     -32.821 -61.350 -28.813  0.00  0.00    -0.059 C 
ATOM    184  H81 LEU d   1     -33.258 -62.209 -28.283  0.00  0.00     0.038 H 
BRANCH 183 185
ATOM    185  CD1 LEU d   1     -33.130 -60.058 -28.061  0.00  0.00    -0.073 C 
ATOM    186  H82 LEU d   1     -34.220 -59.920 -28.001  0.00  0.00     0.028 H 
ATOM    187  H83 LEU d   1     -32.682 -59.207 -28.595  0.00  0.00     0.028 H 
ATOM    188  H84 LEU d   1     -32.711 -60.116 -27.046  0.00  0.00     0.028 H 
ENDBRANCH 183 185
BRANCH 183 189
ATOM    189  CD2 LEU d   1     -33.391 -61.283 -30.234  0.00  0.00    -0.073 C 
ATOM    190  H85 LEU d   1     -33.162 -62.219 -30.765  0.00  0.00     0.028 H 
ATOM    191  H86 LEU d   1     -32.938 -60.436 -30.771  0.00  0.00     0.028 H 
ATOM    192  H87 LEU d   1     -34.481 -61.146 -30.186  0.00  0.00     0.028 H 
ENDBRANCH 183 189
ENDBRANCH 180 183
ENDBRANCH  52 180
BRANCH  26 193
ATOM    193  CB  GLU d   1     -32.041 -67.195 -24.663  0.00  0.00    -0.029 C 
ATOM    194  H63 GLU d   1     -33.059 -67.611 -24.632  0.00  0.00     0.037 H 
ATOM    195  H64 GLU d   1     -31.708 -66.965 -23.640  0.00  0.00     0.037 H 
BRANCH 193 196
ATOM    196  CG  GLU d   1     -31.093 -68.265 -25.257  0.00  0.00     0.018 C 
ATOM    197  H65 GLU d   1     -31.191 -68.243 -26.352  0.00  0.00     0.049 H 
ATOM    198  H66 GLU d   1     -31.405 -69.250 -24.881  0.00  0.00     0.049 H 
BRANCH 196 199
ATOM    199  CD  GLU d   1     -29.600 -68.057 -24.897  0.00  0.00     0.172 C 
ATOM    200  OE2 GLU d   1     -29.334 -67.611 -23.758  0.00  0.00    -0.648 OA
ATOM    201  OE1 GLU d   1     -28.751 -68.395 -25.759  0.00  0.00    -0.648 OA
ENDBRANCH 196 199
ENDBRANCH 193 196
ENDBRANCH  26 193
BRANCH  46 202
ATOM    202  CB  TRP d   1     -32.894 -66.899 -30.161  0.00  0.00    -0.012 C 
ATOM    203  H69 TRP d   1     -33.242 -67.893 -29.844  0.00  0.00     0.044 H 
ATOM    204  H70 TRP d   1     -32.428 -66.974 -31.154  0.00  0.00     0.044 H 
BRANCH 202 205
ATOM    205  CG  TRP d   1     -34.082 -65.958 -30.239  0.00  0.00    -0.028 A 
ATOM    206  CD1 TRP d   1     -35.098 -65.979 -29.392  0.00  0.00    -0.015 A 
ATOM    207  NE1 TRP d   1     -35.932 -65.032 -29.803  0.00  0.00    -0.365 N 
ATOM    208  H71 TRP d   1     -35.224 -66.638 -28.534  0.00  0.00     0.112 H 
ATOM    209  CE2 TRP d   1     -35.426 -64.445 -30.893  0.00  0.00     0.042 A 
ATOM    210  H72 TRP d   1     -36.826 -64.788 -29.354  0.00  0.00     0.165 HD
ATOM    211  CD2 TRP d   1     -34.263 -65.029 -31.171  0.00  0.00    -0.002 A 
ATOM    212  CZ2 TRP d   1     -35.886 -63.453 -31.659  0.00  0.00    -0.056 A 
ATOM    213  CE3 TRP d   1     -33.536 -64.634 -32.224  0.00  0.00    -0.070 A 
ATOM    214  CZ3 TRP d   1     -33.969 -63.599 -33.058  0.00  0.00    -0.082 A 
ATOM    215  H73 TRP d   1     -32.593 -65.126 -32.434  0.00  0.00     0.084 H 
ATOM    216  CH2 TRP d   1     -35.180 -62.994 -32.767  0.00  0.00    -0.081 A 
ATOM    217  H75 TRP d   1     -33.375 -63.280 -33.907  0.00  0.00     0.083 H 
ATOM    218  H76 TRP d   1     -35.566 -62.189 -33.382  0.00  0.00     0.083 H 
ATOM    219  H74 TRP d   1     -36.836 -62.992 -31.411  0.00  0.00     0.086 H 
ENDBRANCH 202 205
ENDBRANCH  46 202
TORSDOF 36
