REMARK  31 active torsions:
REMARK  status: ('A' for Active; 'I' for Inactive)
REMARK    1  A    between atoms: C_1  and  CH3_3 
REMARK       I    between atoms: N_4  and  C_1 
REMARK    2  A    between atoms: CA_5  and  N_4 
REMARK    3  A    between atoms: CA_5  and  CB_8 
REMARK    4  A    between atoms: C_6  and  CA_5 
REMARK       I    between atoms: N_15  and  C_6 
REMARK    5  A    between atoms: CB_8  and  CG_9 
REMARK    6  A    between atoms: CG_9  and  CD_10 
REMARK    7  A    between atoms: CD_10  and  NE_11 
REMARK       I    between atoms: NE_11  and  CZ_12 
REMARK       I    between atoms: CZ_12  and  NH1_13 
REMARK    8  A    between atoms: CA_16  and  N_15 
REMARK    9  A    between atoms: CA_24  and  CB_27 
REMARK   10  A    between atoms: CB_27  and  CG_28 
REMARK   11  A    between atoms: CG_28  and  CD1_29 
REMARK   12  A    between atoms: CG_28  and  CD2_30 
REMARK   13  A    between atoms: CA_32  and  CB_35 
REMARK   14  A    between atoms: CB_35  and  CG_36 
REMARK   15  A    between atoms: CG_36  and  CD_37 
REMARK   16  A    between atoms: CA_41  and  CB_44 
REMARK   17  A    between atoms: CB_44  and  CG_45 
REMARK   18  A    between atoms: CZ_50  and  OH_51 
REMARK   19  A    between atoms: CA_53  and  CB_56 
REMARK   20  A    between atoms: CB_56  and  CG_57 
REMARK   21  A    between atoms: CA_64  and  CB_67 
REMARK   22  A    between atoms: CB_67  and  CG_68 
REMARK   23  A    between atoms: CG_68  and  CD_69 
REMARK   24  A    between atoms: CA_73  and  CB_76 
REMARK   25  A    between atoms: CB_76  and  CG_77 
REMARK   26  A    between atoms: CA_87  and  CB_90 
REMARK   27  A    between atoms: CB_90  and  CG_91 
REMARK   28  A    between atoms: CG_91  and  CD1_92 
REMARK   29  A    between atoms: CG_91  and  CD2_93 
REMARK   30  A    between atoms: CA_95  and  CB_98 
REMARK   31  A    between atoms: CB_98  and  OG_99 
ROOT
ATOM      1  CA  ORN d   1     -27.640 -55.821 -25.224  0.00  0.00     0.089 C 
ATOM      2  CB  ORN d   1     -26.871 -57.026 -24.850  0.00  0.00    -0.036 C 
ATOM      3  CG  ORN d   1     -26.631 -57.953 -26.009  0.00  0.00    -0.048 C 
ATOM      4  CD  ORN d   1     -26.291 -57.245 -27.289  0.00  0.00    -0.005 C 
ATOM      5  NE  ORN d   1     -26.455 -58.229 -28.356  0.00  0.00    -0.361 N 
ATOM      6  C   ORN d   1     -28.948 -56.003 -24.919  0.00  0.00     0.241 C 
ATOM      7  O   ORN d   1     -29.288 -55.955 -23.756  0.00  0.00    -0.271 OA
ATOM      8  H18 ORN d   1     -27.520 -55.601 -26.295  0.00  0.00     0.087 H 
ATOM      9  H19 ORN d   1     -27.429 -57.571 -24.075  0.00  0.00     0.036 H 
ATOM     10  H20 ORN d   1     -25.898 -56.710 -24.447  0.00  0.00     0.036 H 
ATOM     11  H21 ORN d   1     -27.542 -58.547 -26.173  0.00  0.00     0.035 H 
ATOM     12  H22 ORN d   1     -25.797 -58.623 -25.751  0.00  0.00     0.035 H 
ATOM     13  H23 ORN d   1     -25.253 -56.883 -27.260  0.00  0.00     0.064 H 
ATOM     14  H24 ORN d   1     -26.971 -56.395 -27.447  0.00  0.00     0.064 H 
ATOM     15  H25 ORN d   1     -27.112 -58.080 -29.095  0.00  0.00     0.162 HD
ATOM     16  N   LEU d   1     -29.877 -56.209 -25.926  0.00  0.00    -0.346 N 
ATOM     17  CA  LEU d   1     -31.318 -56.396 -25.687  0.00  0.00     0.089 C 
ATOM     18  C   LEU d   1     -31.659 -57.741 -25.719  0.00  0.00     0.241 C 
ATOM     19  O   LEU d   1     -31.959 -58.320 -26.746  0.00  0.00    -0.271 OA
ATOM     20  N   LEU d   1     -31.947 -64.668 -30.163  0.00  0.00    -0.346 N 
ATOM     21  CA  LEU d   1     -31.270 -63.576 -30.851  0.00  0.00     0.089 C 
ATOM     22  C   LEU d   1     -29.918 -63.817 -30.886  0.00  0.00     0.241 C 
ATOM     23  O   LEU d   1     -29.427 -64.593 -30.081  0.00  0.00    -0.271 OA
ATOM     24  H26 LEU d   1     -29.550 -56.232 -26.871  0.00  0.00     0.163 HD
ATOM     25  H27 LEU d   1     -31.574 -55.992 -24.696  0.00  0.00     0.087 H 
ATOM     26  H77 LEU d   1     -32.429 -64.456 -29.313  0.00  0.00     0.163 HD
ATOM     27  H78 LEU d   1     -31.647 -63.505 -31.882  0.00  0.00     0.087 H 
ATOM     28  N   GLU d   1     -31.661 -58.465 -24.549  0.00  0.00    -0.346 N 
ATOM     29  CA  GLU d   1     -31.975 -59.882 -24.472  0.00  0.00     0.090 C 
ATOM     30  C   GLU d   1     -33.315 -60.056 -24.216  0.00  0.00     0.241 C 
ATOM     31  O   GLU d   1     -33.762 -60.446 -23.147  0.00  0.00    -0.271 OA
ATOM     32  N   GLU d   1     -34.941 -65.376 -26.609  0.00  0.00    -0.346 N 
ATOM     33  CA  GLU d   1     -33.720 -66.211 -26.392  0.00  0.00     0.090 C 
ATOM     34  C   GLU d   1     -33.085 -66.747 -27.490  0.00  0.00     0.241 C 
ATOM     35  O   GLU d   1     -32.224 -67.587 -27.352  0.00  0.00    -0.271 OA
ATOM     36  H37 GLU d   1     -31.433 -57.987 -23.701  0.00  0.00     0.163 HD
ATOM     37  H38 GLU d   1     -31.731 -60.382 -25.421  0.00  0.00     0.087 H 
ATOM     38  H61 GLU d   1     -35.837 -65.817 -26.672  0.00  0.00     0.163 HD
ATOM     39  H62 GLU d   1     -32.976 -65.546 -25.929  0.00  0.00     0.087 H 
ATOM     40  N   TYR d   1     -34.188 -59.784 -25.234  0.00  0.00    -0.346 N 
ATOM     41  CA  TYR d   1     -35.622 -59.896 -25.027  0.00  0.00     0.093 C 
ATOM     42  C   TYR d   1     -36.126 -61.091 -25.454  0.00  0.00     0.241 C 
ATOM     43  O   TYR d   1     -37.214 -61.478 -25.064  0.00  0.00    -0.271 OA
ATOM     44  H43 TYR d   1     -33.836 -59.506 -26.128  0.00  0.00     0.163 HD
ATOM     45  H44 TYR d   1     -35.848 -59.768 -23.958  0.00  0.00     0.088 H 
ATOM     46  N   PHE d   1     -35.424 -61.860 -26.345  0.00  0.00    -0.346 N 
ATOM     47  CA  PHE d   1     -35.936 -63.142 -26.832  0.00  0.00     0.093 C 
ATOM     48  C   PHE d   1     -34.845 -63.993 -26.724  0.00  0.00     0.241 C 
ATOM     49  O   PHE d   1     -33.724 -63.523 -26.678  0.00  0.00    -0.271 OA
ATOM     50  H52 PHE d   1     -34.536 -61.536 -26.672  0.00  0.00     0.163 HD
ATOM     51  H53 PHE d   1     -36.749 -63.506 -26.187  0.00  0.00     0.088 H 
ATOM     52  N   TRP d   1     -33.353 -66.322 -28.747  0.00  0.00    -0.346 N 
ATOM     53  CA  TRP d   1     -32.646 -66.898 -29.914  0.00  0.00     0.093 C 
ATOM     54  C   TRP d   1     -31.966 -65.955 -30.600  0.00  0.00     0.241 C 
ATOM     55  O   TRP d   1     -31.361 -66.258 -31.604  0.00  0.00    -0.271 OA
ATOM     56  H67 TRP d   1     -34.039 -65.608 -28.890  0.00  0.00     0.163 HD
ATOM     57  H68 TRP d   1     -31.942 -67.663 -29.556  0.00  0.00     0.088 H 
ATOM     58  N   SER d   1     -29.103 -63.195 -31.831  0.00  0.00    -0.344 N 
ATOM     59  CA  SER d   1     -27.671 -63.484 -31.809  0.00  0.00     0.109 C 
ATOM     60  C   SER d   1     -27.112 -62.839 -30.756  0.00  0.00     0.242 C 
ATOM     61  O   SER d   1     -26.017 -63.178 -30.362  0.00  0.00    -0.271 OA
ATOM     62  H88 SER d   1     -29.489 -62.567 -32.507  0.00  0.00     0.163 HD
ATOM     63  H89 SER d   1     -27.530 -64.570 -31.707  0.00  0.00     0.090 H 
ATOM     64  N   BAL d   1     -27.735 -61.782 -30.133  0.00  0.00    -0.359 N 
ATOM     65  CB  BAL d   1     -27.092 -61.120 -28.975  0.00  0.00     0.003 C 
ATOM     66  CA  BAL d   1     -25.819 -60.347 -29.294  0.00  0.00     0.024 C 
ATOM     67  C   BAL d   1     -25.670 -59.384 -28.318  0.00  0.00     0.219 C 
ATOM     68  O   BAL d   1     -24.860 -59.532 -27.419  0.00  0.00    -0.274 OA
ATOM     69  H93 BAL d   1     -28.623 -61.461 -30.463  0.00  0.00     0.162 HD
ATOM     70  H94 BAL d   1     -27.817 -60.417 -28.540  0.00  0.00     0.064 H 
ATOM     71  H95 BAL d   1     -26.843 -61.895 -28.235  0.00  0.00     0.064 H 
ATOM     72  H96 BAL d   1     -25.905 -59.872 -30.282  0.00  0.00     0.049 H 
ATOM     73  H97 BAL d   1     -24.954 -61.027 -29.288  0.00  0.00     0.049 H 
ENDROOT
BRANCH   1  74
ATOM     74  N   ORN d   1     -27.145 -54.723 -24.405  0.00  0.00    -0.346 N 
ATOM     75  C   ARG d   1     -26.304 -53.820 -24.871  0.00  0.00     0.241 C 
ATOM     76  O   ARG d   1     -25.879 -53.802 -26.004  0.00  0.00    -0.271 OA
ATOM     77  H17 ORN d   1     -27.453 -54.651 -23.456  0.00  0.00     0.163 HD
BRANCH  75  78
ATOM     78  CA  ARG d   1     -25.894 -52.767 -23.914  0.00  0.00     0.089 C 
ATOM     79  H5  ARG d   1     -25.761 -53.159 -22.895  0.00  0.00     0.087 H 
BRANCH  78  80
ATOM     80  N   ARG d   1     -24.701 -52.145 -24.425  0.00  0.00    -0.348 N 
ATOM     81  C   ACE d   1     -23.519 -52.700 -24.359  0.00  0.00     0.214 C 
ATOM     82  O   ACE d   1     -23.310 -53.794 -23.871  0.00  0.00    -0.274 OA
ATOM     83  H4  ARG d   1     -24.780 -51.244 -24.852  0.00  0.00     0.163 HD
BRANCH  81  84
ATOM     84  CH3 ACE d   1     -22.397 -51.885 -24.946  0.00  0.00    -0.003 C 
ATOM     85  H1  ACE d   1     -22.796 -50.935 -25.331  0.00  0.00     0.040 H 
ATOM     86  H2  ACE d   1     -21.927 -52.446 -25.768  0.00  0.00     0.040 H 
ATOM     87  H3  ACE d   1     -21.648 -51.678 -24.168  0.00  0.00     0.040 H 
ENDBRANCH  81  84
ENDBRANCH  78  80
BRANCH  78  88
ATOM     88  CB  ARG d   1     -26.941 -51.707 -23.997  0.00  0.00    -0.036 C 
ATOM     89  H6  ARG d   1     -27.677 -51.975 -24.769  0.00  0.00     0.036 H 
ATOM     90  H7  ARG d   1     -26.473 -50.745 -24.255  0.00  0.00     0.036 H 
BRANCH  88  91
ATOM     91  CG  ARG d   1     -27.624 -51.593 -22.671  0.00  0.00    -0.048 C 
ATOM     92  H8  ARG d   1     -28.032 -50.579 -22.547  0.00  0.00     0.035 H 
ATOM     93  H9  ARG d   1     -26.908 -51.802 -21.863  0.00  0.00     0.035 H 
BRANCH  91  94
ATOM     94  CD  ARG d   1     -28.743 -52.602 -22.636  0.00  0.00     0.009 C 
ATOM     95  H10 ARG d   1     -28.342 -53.605 -22.428  0.00  0.00     0.064 H 
ATOM     96  H11 ARG d   1     -29.274 -52.612 -23.599  0.00  0.00     0.064 H 
BRANCH  94  97
ATOM     97  NE  ARG d   1     -29.644 -52.194 -21.573  0.00  0.00    -0.227 N 
ATOM     98  CZ  ARG d   1     -30.813 -52.763 -21.376  0.00  0.00     0.665 C 
ATOM     99  NH2 ARG d   1     -31.595 -52.347 -20.399  0.00  0.00    -0.235 N 
ATOM    100  NH1 ARG d   1     -31.202 -53.753 -22.163  0.00  0.00    -0.235 N 
ATOM    101  H15 ARG d   1     -31.290 -51.576 -19.788  0.00  0.00     0.174 HD
ATOM    102  H16 ARG d   1     -32.511 -52.793 -20.247  0.00  0.00     0.174 HD
ATOM    103  H13 ARG d   1     -32.117 -54.202 -22.012  0.00  0.00     0.174 HD
ATOM    104  H14 ARG d   1     -30.590 -54.075 -22.926  0.00  0.00     0.174 HD
ATOM    105  H12 ARG d   1     -29.356 -51.428 -20.948  0.00  0.00     0.177 HD
ENDBRANCH  94  97
ENDBRANCH  91  94
ENDBRANCH  88  91
ENDBRANCH  78  88
ENDBRANCH  75  78
ENDBRANCH   1  74
BRANCH  17 106
ATOM    106  CB  LEU d   1     -32.077 -55.629 -26.747  0.00  0.00    -0.035 C 
ATOM    107  H28 LEU d   1     -32.978 -56.199 -27.019  0.00  0.00     0.037 H 
ATOM    108  H29 LEU d   1     -31.433 -55.517 -27.632  0.00  0.00     0.037 H 
BRANCH 106 109
ATOM    109  CG  LEU d   1     -32.494 -54.261 -26.275  0.00  0.00    -0.059 C 
ATOM    110  H30 LEU d   1     -33.332 -54.335 -25.567  0.00  0.00     0.038 H 
BRANCH 109 111
ATOM    111  CD1 LEU d   1     -31.337 -53.547 -25.647  0.00  0.00    -0.073 C 
ATOM    112  H31 LEU d   1     -31.660 -52.551 -25.309  0.00  0.00     0.028 H 
ATOM    113  H32 LEU d   1     -30.529 -53.439 -26.385  0.00  0.00     0.028 H 
ATOM    114  H33 LEU d   1     -30.973 -54.126 -24.786  0.00  0.00     0.028 H 
ENDBRANCH 109 111
BRANCH 109 115
ATOM    115  CD2 LEU d   1     -32.880 -53.481 -27.494  0.00  0.00    -0.073 C 
ATOM    116  H34 LEU d   1     -33.731 -53.972 -27.989  0.00  0.00     0.028 H 
ATOM    117  H35 LEU d   1     -32.027 -53.438 -28.187  0.00  0.00     0.028 H 
ATOM    118  H36 LEU d   1     -33.166 -52.460 -27.201  0.00  0.00     0.028 H 
ENDBRANCH 109 115
ENDBRANCH 106 109
ENDBRANCH  17 106
BRANCH  29 119
ATOM    119  CB  GLU d   1     -31.084 -60.400 -23.382  0.00  0.00    -0.029 C 
ATOM    120  H39 GLU d   1     -31.275 -61.470 -23.211  0.00  0.00     0.037 H 
ATOM    121  H40 GLU d   1     -31.260 -59.843 -22.450  0.00  0.00     0.037 H 
BRANCH 119 122
ATOM    122  CG  GLU d   1     -29.669 -60.193 -23.853  0.00  0.00     0.018 C 
ATOM    123  H41 GLU d   1     -29.552 -59.166 -24.228  0.00  0.00     0.049 H 
ATOM    124  H42 GLU d   1     -29.440 -60.906 -24.659  0.00  0.00     0.049 H 
BRANCH 122 125
ATOM    125  CD  GLU d   1     -28.734 -60.418 -22.700  0.00  0.00     0.172 C 
ATOM    126  OE2 GLU d   1     -27.767 -61.159 -22.909  0.00  0.00    -0.648 OA
ATOM    127  OE1 GLU d   1     -29.011 -59.857 -21.640  0.00  0.00    -0.648 OA
ENDBRANCH 122 125
ENDBRANCH 119 122
ENDBRANCH  29 119
BRANCH  41 128
ATOM    128  CB  TYR d   1     -36.278 -58.799 -25.842  0.00  0.00    -0.014 C 
ATOM    129  H45 TYR d   1     -37.362 -58.983 -25.849  0.00  0.00     0.043 H 
ATOM    130  H46 TYR d   1     -35.889 -58.859 -26.869  0.00  0.00     0.043 H 
BRANCH 128 131
ATOM    131  CG  TYR d   1     -36.064 -57.505 -25.376  0.00  0.00    -0.056 A 
ATOM    132  CD1 TYR d   1     -35.780 -57.222 -24.066  0.00  0.00    -0.074 A 
ATOM    133  CE1 TYR d   1     -35.604 -55.922 -23.669  0.00  0.00    -0.051 A 
ATOM    134  H47 TYR d   1     -35.694 -58.026 -23.344  0.00  0.00     0.084 H 
ATOM    135  CZ  TYR d   1     -35.715 -54.886 -24.551  0.00  0.00     0.065 A 
ATOM    136  H49 TYR d   1     -35.371 -55.712 -22.631  0.00  0.00     0.087 H 
ATOM    137  CE2 TYR d   1     -36.001 -55.160 -25.856  0.00  0.00    -0.051 A 
ATOM    138  CD2 TYR d   1     -36.179 -56.461 -26.258  0.00  0.00    -0.074 A 
ATOM    139  H50 TYR d   1     -36.088 -54.353 -26.574  0.00  0.00     0.087 H 
ATOM    140  H48 TYR d   1     -36.416 -56.667 -27.296  0.00  0.00     0.084 H 
BRANCH 135 141
ATOM    141  OH  TYR d   1     -35.530 -53.620 -24.123  0.00  0.00    -0.361 OA
ATOM    142  H51 TYR d   1     -36.318 -53.114 -24.285  0.00  0.00     0.217 HD
ENDBRANCH 135 141
ENDBRANCH 128 131
ENDBRANCH  41 128
BRANCH  59 143
ATOM    143  CB  SER d   1     -26.947 -63.004 -33.034  0.00  0.00     0.044 C 
ATOM    144  H90 SER d   1     -26.586 -63.870 -33.609  0.00  0.00     0.077 H 
ATOM    145  H91 SER d   1     -26.091 -62.382 -32.733  0.00  0.00     0.077 H 
BRANCH 143 146
ATOM    146  OG  SER d   1     -27.817 -62.247 -33.829  0.00  0.00    -0.398 OA
ATOM    147  H92 SER d   1     -27.355 -61.945 -34.603  0.00  0.00     0.209 HD
ENDBRANCH 143 146
ENDBRANCH  59 143
BRANCH  47 148
ATOM    148  CB  PHE d   1     -36.484 -62.965 -28.241  0.00  0.00    -0.014 C 
ATOM    149  H54 PHE d   1     -36.832 -63.937 -28.622  0.00  0.00     0.043 H 
ATOM    150  H55 PHE d   1     -35.690 -62.577 -28.896  0.00  0.00     0.043 H 
BRANCH 148 151
ATOM    151  CG  PHE d   1     -37.550 -62.066 -28.225  0.00  0.00    -0.056 A 
ATOM    152  CD1 PHE d   1     -38.670 -62.326 -27.486  0.00  0.00    -0.077 A 
ATOM    153  CE1 PHE d   1     -39.721 -61.435 -27.475  0.00  0.00    -0.082 A 
ATOM    154  H56 PHE d   1     -38.732 -63.239 -26.905  0.00  0.00     0.084 H 
ATOM    155  CZ  PHE d   1     -39.673 -60.272 -28.194  0.00  0.00    -0.083 A 
ATOM    156  H58 PHE d   1     -40.602 -61.660 -26.886  0.00  0.00     0.083 H 
ATOM    157  CE2 PHE d   1     -38.552 -60.014 -28.927  0.00  0.00    -0.082 A 
ATOM    158  H60 PHE d   1     -40.503 -59.575 -28.181  0.00  0.00     0.083 H 
ATOM    159  CD2 PHE d   1     -37.513 -60.906 -28.949  0.00  0.00    -0.077 A 
ATOM    160  H59 PHE d   1     -38.483 -59.095 -29.497  0.00  0.00     0.083 H 
ATOM    161  H57 PHE d   1     -36.641 -60.688 -29.554  0.00  0.00     0.084 H 
ENDBRANCH 148 151
ENDBRANCH  47 148
BRANCH  21 162
ATOM    162  CB  LEU d   1     -31.572 -62.269 -30.116  0.00  0.00    -0.035 C 
ATOM    163  H79 LEU d   1     -31.410 -61.426 -30.804  0.00  0.00     0.037 H 
ATOM    164  H80 LEU d   1     -30.892 -62.177 -29.256  0.00  0.00     0.037 H 
BRANCH 162 165
ATOM    165  CG  LEU d   1     -33.013 -62.231 -29.615  0.00  0.00    -0.059 C 
ATOM    166  H81 LEU d   1     -33.328 -63.241 -29.315  0.00  0.00     0.038 H 
BRANCH 165 167
ATOM    167  CD1 LEU d   1     -33.168 -61.281 -28.456  0.00  0.00    -0.073 C 
ATOM    168  H82 LEU d   1     -34.216 -61.279 -28.121  0.00  0.00     0.028 H 
ATOM    169  H83 LEU d   1     -32.882 -60.267 -28.772  0.00  0.00     0.028 H 
ATOM    170  H84 LEU d   1     -32.520 -61.604 -27.628  0.00  0.00     0.028 H 
ENDBRANCH 165 167
BRANCH 165 171
ATOM    171  CD2 LEU d   1     -33.874 -61.720 -30.726  0.00  0.00    -0.073 C 
ATOM    172  H85 LEU d   1     -33.788 -62.390 -31.594  0.00  0.00     0.028 H 
ATOM    173  H86 LEU d   1     -33.546 -60.709 -31.009  0.00  0.00     0.028 H 
ATOM    174  H87 LEU d   1     -34.922 -61.686 -30.392  0.00  0.00     0.028 H 
ENDBRANCH 165 171
ENDBRANCH 162 165
ENDBRANCH  21 162
BRANCH  33 175
ATOM    175  CB  GLU d   1     -34.087 -67.282 -25.352  0.00  0.00    -0.029 C 
ATOM    176  H63 GLU d   1     -34.805 -67.972 -25.819  0.00  0.00     0.037 H 
ATOM    177  H64 GLU d   1     -34.566 -66.775 -24.502  0.00  0.00     0.037 H 
BRANCH 175 178
ATOM    178  CG  GLU d   1     -32.920 -68.119 -24.803  0.00  0.00     0.018 C 
ATOM    179  H65 GLU d   1     -32.658 -68.872 -25.560  0.00  0.00     0.049 H 
ATOM    180  H66 GLU d   1     -33.265 -68.623 -23.889  0.00  0.00     0.049 H 
BRANCH 178 181
ATOM    181  CD  GLU d   1     -31.653 -67.336 -24.459  0.00  0.00     0.172 C 
ATOM    182  OE2 GLU d   1     -31.066 -67.632 -23.402  0.00  0.00    -0.648 OA
ATOM    183  OE1 GLU d   1     -31.276 -66.476 -25.267  0.00  0.00    -0.648 OA
ENDBRANCH 178 181
ENDBRANCH 175 178
ENDBRANCH  33 175
BRANCH  53 184
ATOM    184  CB  TRP d   1     -33.628 -67.526 -30.863  0.00  0.00    -0.012 C 
ATOM    185  H69 TRP d   1     -33.937 -68.507 -30.473  0.00  0.00     0.044 H 
ATOM    186  H70 TRP d   1     -33.154 -67.655 -31.847  0.00  0.00     0.044 H 
BRANCH 184 187
ATOM    187  CG  TRP d   1     -34.830 -66.645 -31.002  0.00  0.00    -0.028 A 
ATOM    188  CD1 TRP d   1     -35.892 -66.685 -30.238  0.00  0.00    -0.015 A 
ATOM    189  NE1 TRP d   1     -36.694 -65.749 -30.695  0.00  0.00    -0.365 N 
ATOM    190  H71 TRP d   1     -36.074 -67.354 -29.398  0.00  0.00     0.112 H 
ATOM    191  CE2 TRP d   1     -36.100 -65.154 -31.709  0.00  0.00     0.042 A 
ATOM    192  H72 TRP d   1     -37.627 -65.520 -30.324  0.00  0.00     0.165 HD
ATOM    193  CD2 TRP d   1     -34.928 -65.716 -31.892  0.00  0.00    -0.002 A 
ATOM    194  CZ2 TRP d   1     -36.494 -64.169 -32.480  0.00  0.00    -0.056 A 
ATOM    195  CE3 TRP d   1     -34.094 -65.348 -32.831  0.00  0.00    -0.070 A 
ATOM    196  CZ3 TRP d   1     -34.446 -64.323 -33.670  0.00  0.00    -0.082 A 
ATOM    197  H73 TRP d   1     -33.138 -65.847 -32.944  0.00  0.00     0.084 H 
ATOM    198  CH2 TRP d   1     -35.670 -63.724 -33.486  0.00  0.00    -0.081 A 
ATOM    199  H75 TRP d   1     -33.778 -63.993 -34.457  0.00  0.00     0.083 H 
ATOM    200  H76 TRP d   1     -35.982 -62.908 -34.128  0.00  0.00     0.083 H 
ATOM    201  H74 TRP d   1     -37.463 -63.709 -32.325  0.00  0.00     0.086 H 
ENDBRANCH 184 187
ENDBRANCH  53 184
TORSDOF 31
