REMARK  10 active torsions:
REMARK  status: ('A' for Active; 'I' for Inactive)
REMARK    1  A    between atoms: C8_24  and  C1_1 
REMARK    2  A    between atoms: C10_2  and  C11_3 
REMARK       I    between atoms: N4_29  and  C10_2 
REMARK    3  A    between atoms: C11_3  and  O4_33 
REMARK    4  A    between atoms: C12_4  and  C13_5 
REMARK    5  A    between atoms: N3_28  and  C12_4 
REMARK    6  A    between atoms: C13_5  and  O6_35 
REMARK    7  A    between atoms: O4_33  and  C17_9 
REMARK    8  A    between atoms: C2_12  and  C5_21 
REMARK    9  A    between atoms: O6_35  and  C23_16 
REMARK   10  A    between atoms: C3_19  and  O1_30 
REMARK       I    between atoms: C5_21  and  N3_28 
ROOT
ATOM      1  C1  GY9 d   1     128.310 103.050 287.436  0.00  0.00     0.131 A 
ATOM      2  C2  GY9 d   1     130.272 104.190 287.001  0.00  0.00     0.165 A 
ATOM      3  C3  GY9 d   1     129.901 105.224 287.808  0.00  0.00     0.169 A 
ATOM      4  C4  GY9 d   1     128.671 105.179 288.468  0.00  0.00     0.282 A 
ATOM      5  N1  GY9 d   1     129.489 103.117 286.818  0.00  0.00    -0.225 NA
ATOM      6  N2  GY9 d   1     127.894 104.066 288.247  0.00  0.00    -0.307 N 
ATOM      7  O2  GY9 d   1     128.250 106.067 289.224  0.00  0.00    -0.265 OA
ATOM      8  H23 GY9 d   1     127.001 103.999 288.692  0.00  0.00     0.170 HD
ENDROOT
BRANCH   1   9
ATOM      9  C8  GY9 d   1     127.454 101.823 287.198  0.00  0.00     0.072 C 
ATOM     10  C7  GY9 d   1     127.566 100.754 288.299  0.00  0.00    -0.038 C 
ATOM     11  C6  GY9 d   1     128.794  99.976 287.854  0.00  0.00    -0.048 C 
ATOM     12  H18 GY9 d   1     127.719 101.212 289.288  0.00  0.00     0.036 H 
ATOM     13  H19 GY9 d   1     126.673 100.112 288.326  0.00  0.00     0.036 H 
ATOM     14  C9  GY9 d   1     128.506  99.779 286.386  0.00  0.00    -0.001 C 
ATOM     15  H16 GY9 d   1     128.873  99.014 288.381  0.00  0.00     0.035 H 
ATOM     16  H17 GY9 d   1     129.716 100.556 288.009  0.00  0.00     0.035 H 
ATOM     17  N4  GY9 d   1     127.866 101.048 286.009  0.00  0.00    -0.339 N 
ATOM     18  H21 GY9 d   1     127.826  98.929 286.226  0.00  0.00     0.064 H 
ATOM     19  H22 GY9 d   1     129.434  99.619 285.818  0.00  0.00     0.064 H 
ATOM     20  C10 GY9 d   1     127.696 101.442 284.731  0.00  0.00     0.244 C 
ATOM     21  O5  GY9 d   1     127.713 100.615 283.824  0.00  0.00    -0.271 OA
ATOM     22  H20 GY9 d   1     126.410 102.155 287.096  0.00  0.00     0.085 H 
BRANCH  20  23
ATOM     23  C11 GY9 d   1     127.489 102.915 284.431  0.00  0.00     0.099 C 
ATOM     24  H1  GY9 d   1     128.141 103.191 283.589  0.00  0.00     0.089 H 
ATOM     25  H2  GY9 d   1     127.776 103.493 285.322  0.00  0.00     0.089 H 
BRANCH  23  26
ATOM     26  O4  GY9 d   1     126.149 103.257 284.089  0.00  0.00    -0.340 OA
BRANCH  26  27
ATOM     27  C17 GY9 d   1     125.375 103.953 284.983  0.00  0.00     0.091 A 
ATOM     28  C16 GY9 d   1     125.722 105.281 285.264  0.00  0.00     0.067 A 
ATOM     29  C15 GY9 d   1     124.973 106.049 286.146  0.00  0.00    -0.059 A 
ATOM     30 CL1  GY9 d   1     127.104 106.011 284.503  0.00  0.00    -0.081 Cl
ATOM     31  C14 GY9 d   1     123.875 105.506 286.761  0.00  0.00    -0.081 A 
ATOM     32  H8  GY9 d   1     125.256 107.076 286.348  0.00  0.00     0.086 H 
ATOM     33  C19 GY9 d   1     123.514 104.203 286.502  0.00  0.00    -0.080 A 
ATOM     34  H7  GY9 d   1     123.290 106.103 287.452  0.00  0.00     0.083 H 
ATOM     35  C18 GY9 d   1     124.252 103.429 285.619  0.00  0.00    -0.049 A 
ATOM     36  H10 GY9 d   1     122.645 103.778 286.992  0.00  0.00     0.083 H 
ATOM     37  H9  GY9 d   1     123.952 102.406 285.422  0.00  0.00     0.087 H 
ENDBRANCH  26  27
ENDBRANCH  23  26
ENDBRANCH  20  23
ENDBRANCH   1   9
BRANCH   2  38
ATOM     38  C5  GY9 d   1     131.585 104.193 286.267  0.00  0.00     0.273 C 
ATOM     39  N3  GY9 d   1     131.775 103.146 285.463  0.00  0.00    -0.353 N 
ATOM     40  H24 GY9 d   1     131.126 102.386 285.503  0.00  0.00     0.162 HD
ATOM     41  O3  GY9 d   1     132.399 105.108 286.384  0.00  0.00    -0.266 OA
BRANCH  39  42
ATOM     42  C12 GY9 d   1     132.887 103.066 284.531  0.00  0.00     0.016 C 
ATOM     43  H3  GY9 d   1     133.570 103.910 284.705  0.00  0.00     0.067 H 
ATOM     44  H4  GY9 d   1     133.426 102.120 284.687  0.00  0.00     0.067 H 
BRANCH  42  45
ATOM     45  C13 GY9 d   1     132.374 103.122 283.114  0.00  0.00     0.041 C 
ATOM     46  H5  GY9 d   1     133.215 103.033 282.411  0.00  0.00     0.077 H 
ATOM     47  H6  GY9 d   1     131.854 104.076 282.945  0.00  0.00     0.077 H 
BRANCH  45  48
ATOM     48  O6  GY9 d   1     131.464 102.035 282.918  0.00  0.00    -0.350 OA
BRANCH  48  49
ATOM     49  C23 GY9 d   1     130.697 102.019 281.782  0.00  0.00     0.068 A 
ATOM     50  C22 GY9 d   1     129.875 100.931 281.529  0.00  0.00    -0.051 A 
ATOM     51  C21 GY9 d   1     129.099 100.916 280.380  0.00  0.00    -0.080 A 
ATOM     52  H13 GY9 d   1     129.839 100.100 282.224  0.00  0.00     0.087 H 
ATOM     53  C20 GY9 d   1     129.131 101.968 279.495  0.00  0.00    -0.083 A 
ATOM     54  H12 GY9 d   1     128.459 100.065 280.177  0.00  0.00     0.083 H 
ATOM     55  C25 GY9 d   1     129.945 103.047 279.752  0.00  0.00    -0.080 A 
ATOM     56  H11 GY9 d   1     128.519 101.947 278.601  0.00  0.00     0.083 H 
ATOM     57  C24 GY9 d   1     130.729 103.087 280.894  0.00  0.00    -0.051 A 
ATOM     58  H15 GY9 d   1     129.973 103.875 279.053  0.00  0.00     0.083 H 
ATOM     59  H14 GY9 d   1     131.362 103.944 281.093  0.00  0.00     0.087 H 
ENDBRANCH  48  49
ENDBRANCH  45  48
ENDBRANCH  42  45
ENDBRANCH  39  42
ENDBRANCH   2  38
BRANCH   3  60
ATOM     60  O1  GY9 d   1     130.663 106.305 288.020  0.00  0.00    -0.354 OA
ATOM     61  H25 GY9 d   1     131.469 106.225 287.523  0.00  0.00     0.218 HD
ENDBRANCH   3  60
TORSDOF 10
