REMARK WARNING: 32 MAX_TORS EXCEEDED!!!
REMARK  36 active torsions:
REMARK  status: ('A' for Active; 'I' for Inactive)
REMARK    1  A    between atoms: N_1  and  CA_2 
REMARK    2  A    between atoms: CA_2  and  C_3 
REMARK       I    between atoms: C_3  and  N_5 
REMARK    3  A    between atoms: N_5  and  CA_6 
REMARK    4  A    between atoms: CA_6  and  C_7 
REMARK    5  A    between atoms: CA_6  and  CB_9 
REMARK       I    between atoms: C_7  and  N_12 
REMARK    6  A    between atoms: CB_9  and  CG1_10 
REMARK    7  A    between atoms: CB_9  and  CG2_11 
REMARK    8  A    between atoms: N_12  and  CA_13 
REMARK    9  A    between atoms: CA_13  and  C_14 
REMARK   10  A    between atoms: CA_13  and  CB_16 
REMARK       I    between atoms: C_14  and  N_19 
REMARK   11  A    between atoms: CB_16  and  CG1_17 
REMARK   12  A    between atoms: CB_16  and  CG2_18 
REMARK   13  A    between atoms: N_19  and  CA_20 
REMARK   14  A    between atoms: CA_20  and  C_21 
REMARK   15  A    between atoms: CA_20  and  CB_23 
REMARK       I    between atoms: C_21  and  N_24 
REMARK   16  A    between atoms: N_24  and  CA_25 
REMARK   17  A    between atoms: CA_25  and  C_26 
REMARK   18  A    between atoms: CA_25  and  CB_28 
REMARK       I    between atoms: C_26  and  N_30 
REMARK   19  A    between atoms: CB_28  and  OG_29 
REMARK   20  A    between atoms: N_30  and  CA_31 
REMARK   21  A    between atoms: CA_31  and  C_32 
REMARK   22  A    between atoms: CA_31  and  CB_34 
REMARK       I    between atoms: C_32  and  N_39 
REMARK   23  A    between atoms: CB_34  and  CG_35 
REMARK   24  A    between atoms: CG_35  and  CD_36 
REMARK       I    between atoms: CD_36  and  NE2_38 
REMARK   25  A    between atoms: CA_40  and  C_41 
REMARK       I    between atoms: C_41  and  N_46 
REMARK   26  A    between atoms: N_46  and  CA_47 
REMARK   27  A    between atoms: CA_47  and  C_48 
REMARK   28  A    between atoms: CA_47  and  CB_50 
REMARK       I    between atoms: C_48  and  N_51 
REMARK   29  A    between atoms: N_51  and  CA_52 
REMARK   30  A    between atoms: CA_52  and  C_53 
REMARK   31  A    between atoms: CA_52  and  CB_55 
REMARK       I    between atoms: C_53  and  N_56 
REMARK   32  A    between atoms: N_56  and  CA_57 
REMARK   33  A    between atoms: CA_57  and  C_58 
REMARK   34  A    between atoms: CA_57  and  CB_60 
REMARK   35  A    between atoms: CB_60  and  CG1_61 
REMARK   36  A    between atoms: CB_60  and  CG2_62 
ROOT
ATOM      1  CA  GLN d   1      -8.717  32.979  -7.856  0.00  0.00     0.090 C 
ATOM      2  H35 GLN d   1      -7.715  33.297  -8.179  0.00  0.00     0.087 H 
ENDROOT
BRANCH   1   3
ATOM      3  N   GLN d   1      -8.592  31.742  -7.106  0.00  0.00    -0.346 N 
ATOM      4  C   SER d   1      -7.660  31.629  -6.178  0.00  0.00     0.243 C 
ATOM      5  O   SER d   1      -6.918  32.557  -5.868  0.00  0.00    -0.271 OA
ATOM      6  H34 GLN d   1      -9.210  30.978  -7.292  0.00  0.00     0.163 HD
BRANCH   4   7
ATOM      7  CA  SER d   1      -7.559  30.292  -5.464  0.00  0.00     0.109 C 
ATOM      8  H30 SER d   1      -8.070  29.518  -6.055  0.00  0.00     0.090 H 
BRANCH   7   9
ATOM      9  N   SER d   1      -6.154  29.938  -5.331  0.00  0.00    -0.344 N 
ATOM     10  C   ALA d   1      -5.641  28.750  -5.664  0.00  0.00     0.240 C 
ATOM     11  O   ALA d   1      -6.322  27.818  -6.098  0.00  0.00    -0.271 OA
ATOM     12  H29 SER d   1      -5.531  30.630  -4.966  0.00  0.00     0.163 HD
BRANCH  10  13
ATOM     13  CA  ALA d   1      -4.140  28.582  -5.513  0.00  0.00     0.086 C 
ATOM     14  H25 ALA d   1      -3.684  28.728  -6.503  0.00  0.00     0.086 H 
BRANCH  13  15
ATOM     15  N   ALA d   1      -3.577  29.584  -4.616  0.00  0.00    -0.346 N 
ATOM     16  C   VAL d   1      -2.577  30.367  -5.021  0.00  0.00     0.241 C 
ATOM     17  O   VAL d   1      -2.062  30.264  -6.141  0.00  0.00    -0.271 OA
ATOM     18  H24 ALA d   1      -3.943  29.685  -3.691  0.00  0.00     0.163 HD
BRANCH  16  19
ATOM     19  CA  VAL d   1      -2.087  31.418  -4.034  0.00  0.00     0.092 C 
ATOM     20  H16 VAL d   1      -2.728  31.396  -3.140  0.00  0.00     0.088 H 
BRANCH  19  21
ATOM     21  N   VAL d   1      -0.720  31.072  -3.639  0.00  0.00    -0.346 N 
ATOM     22  C   VAL d   1      -0.471  30.249  -2.624  0.00  0.00     0.241 C 
ATOM     23  O   VAL d   1      -1.377  29.769  -1.934  0.00  0.00    -0.271 OA
ATOM     24  H15 VAL d   1       0.047  31.465  -4.146  0.00  0.00     0.163 HD
BRANCH  22  25
ATOM     25  CA  VAL d   1       0.995  29.950  -2.330  0.00  0.00     0.092 C 
ATOM     26  H7  VAL d   1       1.556  30.896  -2.351  0.00  0.00     0.088 H 
BRANCH  25  27
ATOM     27  N   VAL d   1       1.084  29.383  -0.999  0.00  0.00    -0.346 N 
ATOM     28  C   GLY d   1       1.249  30.147   0.073  0.00  0.00     0.243 C 
ATOM     29  O   GLY d   1       1.460  31.362   0.002  0.00  0.00    -0.272 OA
ATOM     30  H6  VAL d   1       1.019  28.392  -0.886  0.00  0.00     0.163 HD
BRANCH  28  31
ATOM     31  CA  GLY d   1       1.191  29.434   1.414  0.00  0.00     0.152 C 
ATOM     32  H4  GLY d   1       0.162  29.081   1.575  0.00  0.00     0.090 H 
ATOM     33  H5  GLY d   1       1.873  28.572   1.379  0.00  0.00     0.090 H 
BRANCH  31  34
ATOM     34  N   GLY d   1       1.569  30.272   2.536  0.00  0.00    -0.071 N 
ATOM     35  H1  GLY d   1       1.508  29.739   3.389  0.00  0.00     0.274 HD
ATOM     36  H2  GLY d   1       0.947  31.063   2.589  0.00  0.00     0.274 HD
ATOM     37  H3  GLY d   1       2.515  30.597   2.409  0.00  0.00     0.274 HD
ENDBRANCH  31  34
ENDBRANCH  28  31
ENDBRANCH  25  27
BRANCH  25  38
ATOM     38  CB  VAL d   1       1.622  28.999  -3.379  0.00  0.00    -0.033 C 
ATOM     39  H8  VAL d   1       1.704  29.538  -4.334  0.00  0.00     0.042 H 
BRANCH  38  40
ATOM     40  CG1 VAL d   1       3.005  28.571  -2.935  0.00  0.00    -0.071 C 
ATOM     41  H9  VAL d   1       3.439  27.896  -3.688  0.00  0.00     0.028 H 
ATOM     42  H10 VAL d   1       2.935  28.047  -1.970  0.00  0.00     0.028 H 
ATOM     43  H11 VAL d   1       3.646  29.458  -2.825  0.00  0.00     0.028 H 
ENDBRANCH  38  40
BRANCH  38  44
ATOM     44  CG2 VAL d   1       0.776  27.781  -3.586  0.00  0.00    -0.071 C 
ATOM     45  H12 VAL d   1      -0.231  28.084  -3.909  0.00  0.00     0.028 H 
ATOM     46  H13 VAL d   1       0.705  27.219  -2.643  0.00  0.00     0.028 H 
ATOM     47  H14 VAL d   1       1.232  27.145  -4.358  0.00  0.00     0.028 H 
ENDBRANCH  38  44
ENDBRANCH  25  38
ENDBRANCH  22  25
ENDBRANCH  19  21
BRANCH  19  48
ATOM     48  CB  VAL d   1      -2.177  32.817  -4.654  0.00  0.00    -0.033 C 
ATOM     49  H17 VAL d   1      -1.602  32.819  -5.591  0.00  0.00     0.042 H 
BRANCH  48  50
ATOM     50  CG1 VAL d   1      -3.630  33.130  -4.983  0.00  0.00    -0.071 C 
ATOM     51  H18 VAL d   1      -3.697  34.134  -5.428  0.00  0.00     0.028 H 
ATOM     52  H19 VAL d   1      -4.230  33.097  -4.062  0.00  0.00     0.028 H 
ATOM     53  H20 VAL d   1      -4.013  32.386  -5.697  0.00  0.00     0.028 H 
ENDBRANCH  48  50
BRANCH  48  54
ATOM     54  CG2 VAL d   1      -1.570  33.878  -3.723  0.00  0.00    -0.071 C 
ATOM     55  H21 VAL d   1      -0.523  33.620  -3.507  0.00  0.00     0.028 H 
ATOM     56  H22 VAL d   1      -2.141  33.911  -2.783  0.00  0.00     0.028 H 
ATOM     57  H23 VAL d   1      -1.612  34.862  -4.212  0.00  0.00     0.028 H 
ENDBRANCH  48  54
ENDBRANCH  19  48
ENDBRANCH  16  19
ENDBRANCH  13  15
BRANCH  13  58
ATOM     58  CB  ALA d   1      -3.806  27.167  -5.050  0.00  0.00    -0.049 C 
ATOM     59  H26 ALA d   1      -4.245  26.439  -5.748  0.00  0.00     0.030 H 
ATOM     60  H27 ALA d   1      -4.218  27.004  -4.043  0.00  0.00     0.030 H 
ATOM     61  H28 ALA d   1      -2.714  27.038  -5.025  0.00  0.00     0.030 H 
ENDBRANCH  13  58
ENDBRANCH  10  13
ENDBRANCH   7   9
BRANCH   7  62
ATOM     62  CB  SER d   1      -8.240  30.411  -4.099  0.00  0.00     0.044 C 
ATOM     63  H31 SER d   1      -9.321  30.250  -4.222  0.00  0.00     0.077 H 
ATOM     64  H32 SER d   1      -8.063  31.419  -3.696  0.00  0.00     0.077 H 
BRANCH  62  65
ATOM     65  OG  SER d   1      -7.729  29.452  -3.188  0.00  0.00    -0.398 OA
ATOM     66  H33 SER d   1      -8.167  29.547  -2.351  0.00  0.00     0.209 HD
ENDBRANCH  62  65
ENDBRANCH   7  62
ENDBRANCH   4   7
ENDBRANCH   1   3
BRANCH   1  67
ATOM     67  C   GLN d   1      -9.326  34.089  -6.993  0.00  0.00     0.243 C 
ATOM     68  O   GLN d   1     -10.119  33.818  -6.091  0.00  0.00    -0.271 OA
ATOM     69  N   PRO d   1      -8.985  35.353  -7.270  0.00  0.00    -0.337 N 
ATOM     70  CA  PRO d   1      -9.611  36.471  -6.549  0.00  0.00     0.091 C 
ATOM     71  CD  PRO d   1      -7.977  35.816  -8.240  0.00  0.00    -0.001 C 
ATOM     72  CB  PRO d   1      -9.068  37.706  -7.274  0.00  0.00    -0.036 C 
ATOM     73  H42 PRO d   1      -9.303  36.473  -5.493  0.00  0.00     0.087 H 
ATOM     74  CG  PRO d   1      -7.769  37.265  -7.854  0.00  0.00    -0.048 C 
ATOM     75  H43 PRO d   1      -8.915  38.535  -6.567  0.00  0.00     0.036 H 
ATOM     76  H44 PRO d   1      -9.759  38.024  -8.068  0.00  0.00     0.036 H 
ATOM     77  H45 PRO d   1      -6.964  37.354  -7.109  0.00  0.00     0.035 H 
ATOM     78  H46 PRO d   1      -7.518  37.867  -8.739  0.00  0.00     0.035 H 
ATOM     79  H47 PRO d   1      -8.353  35.732  -9.270  0.00  0.00     0.064 H 
ATOM     80  H48 PRO d   1      -7.043  35.243  -8.142  0.00  0.00     0.064 H 
BRANCH  70  81
ATOM     81  C   PRO d   1     -11.130  36.407  -6.623  0.00  0.00     0.241 C 
ATOM     82  O   PRO d   1     -11.702  36.042  -7.645  0.00  0.00    -0.271 OA
ATOM     83  N   ALA d   1     -11.791  36.768  -5.530  0.00  0.00    -0.346 N 
ATOM     84  H49 ALA d   1     -11.284  37.093  -4.732  0.00  0.00     0.163 HD
BRANCH  83  85
ATOM     85  CA  ALA d   1     -13.246  36.697  -5.476  0.00  0.00     0.086 C 
ATOM     86  H50 ALA d   1     -13.615  36.503  -6.494  0.00  0.00     0.086 H 
BRANCH  85  87
ATOM     87  C   ALA d   1     -13.833  38.021  -5.000  0.00  0.00     0.240 C 
ATOM     88  O   ALA d   1     -13.129  38.894  -4.481  0.00  0.00    -0.271 OA
ATOM     89  N   ARG d   1     -15.144  38.159  -5.204  0.00  0.00    -0.346 N 
ATOM     90  H54 ARG d   1     -15.623  37.480  -5.761  0.00  0.00     0.163 HD
BRANCH  89  91
ATOM     91  CA  ARG d   1     -15.899  39.270  -4.639  0.00  0.00     0.086 C 
ATOM     92  H55 ARG d   1     -15.502  40.211  -5.047  0.00  0.00     0.086 H 
BRANCH  91  93
ATOM     93  C   ARG d   1     -15.735  39.288  -3.119  0.00  0.00     0.240 C 
ATOM     94  O   ARG d   1     -15.473  38.261  -2.486  0.00  0.00    -0.271 OA
ATOM     95  N   VAL d   1     -15.851  40.473  -2.531  0.00  0.00    -0.344 N 
ATOM     96  H59 VAL d   1     -16.007  41.290  -3.086  0.00  0.00     0.163 HD
BRANCH  95  97
ATOM     97  CA  VAL d   1     -15.753  40.591  -1.084  0.00  0.00     0.099 C 
ATOM     98  H60 VAL d   1     -14.935  39.943  -0.736  0.00  0.00     0.090 H 
BRANCH  97  99
ATOM     99  C   VAL d   1     -17.054  40.104  -0.470  0.00  0.00     0.197 C 
ATOM    100  O   VAL d   1     -18.132  40.351  -1.014  0.00  0.00    -0.646 OA
ATOM    101  OXT VAL d   1     -17.053  39.442   0.573  0.00  0.00    -0.646 OA
ENDBRANCH  97  99
BRANCH  97 102
ATOM    102  CB  VAL d   1     -15.439  42.023  -0.648  0.00  0.00    -0.032 C 
ATOM    103  H61 VAL d   1     -16.198  42.698  -1.071  0.00  0.00     0.042 H 
BRANCH 102 104
ATOM    104  CG1 VAL d   1     -15.485  42.128   0.867  0.00  0.00    -0.071 C 
ATOM    105  H62 VAL d   1     -15.258  43.161   1.170  0.00  0.00     0.028 H 
ATOM    106  H63 VAL d   1     -14.741  41.446   1.305  0.00  0.00     0.028 H 
ATOM    107  H64 VAL d   1     -16.489  41.854   1.223  0.00  0.00     0.028 H 
ENDBRANCH 102 104
BRANCH 102 108
ATOM    108  CG2 VAL d   1     -14.071  42.435  -1.173  0.00  0.00    -0.071 C 
ATOM    109  H65 VAL d   1     -14.059  42.352  -2.270  0.00  0.00     0.028 H 
ATOM    110  H66 VAL d   1     -13.301  41.775  -0.747  0.00  0.00     0.028 H 
ATOM    111  H67 VAL d   1     -13.865  43.475  -0.882  0.00  0.00     0.028 H 
ENDBRANCH 102 108
ENDBRANCH  97 102
ENDBRANCH  95  97
ENDBRANCH  91  93
BRANCH  91 112
ATOM    112  CB  ARG d   1     -17.379  39.158  -5.024  0.00  0.00    -0.049 C 
ATOM    113  H56 ARG d   1     -17.935  40.002  -4.591  0.00  0.00     0.030 H 
ATOM    114  H57 ARG d   1     -17.788  38.213  -4.638  0.00  0.00     0.030 H 
ATOM    115  H58 ARG d   1     -17.476  39.179  -6.120  0.00  0.00     0.030 H 
ENDBRANCH  91 112
ENDBRANCH  89  91
ENDBRANCH  85  87
BRANCH  85 116
ATOM    116  CB  ALA d   1     -13.718  35.553  -4.572  0.00  0.00    -0.049 C 
ATOM    117  H51 ALA d   1     -14.818  35.529  -4.555  0.00  0.00     0.030 H 
ATOM    118  H52 ALA d   1     -13.339  35.712  -3.552  0.00  0.00     0.030 H 
ATOM    119  H53 ALA d   1     -13.337  34.597  -4.961  0.00  0.00     0.030 H 
ENDBRANCH  85 116
ENDBRANCH  83  85
ENDBRANCH  70  81
ENDBRANCH   1  67
BRANCH   1 120
ATOM    120  CB  GLN d   1      -9.579  32.746  -9.087  0.00  0.00    -0.030 C 
ATOM    121  H36 GLN d   1      -9.075  32.007  -9.727  0.00  0.00     0.037 H 
ATOM    122  H37 GLN d   1      -9.672  33.699  -9.629  0.00  0.00     0.037 H 
BRANCH 120 123
ATOM    123  CG  GLN d   1     -10.970  32.237  -8.778  0.00  0.00     0.011 C 
ATOM    124  H38 GLN d   1     -11.444  32.917  -8.054  0.00  0.00     0.047 H 
ATOM    125  H39 GLN d   1     -10.890  31.232  -8.339  0.00  0.00     0.047 H 
BRANCH 123 126
ATOM    126  CD  GLN d   1     -11.845  32.161 -10.029  0.00  0.00     0.215 C 
ATOM    127  OE1 GLN d   1     -11.995  33.149 -10.765  0.00  0.00    -0.274 OA
ATOM    128  NE2 GLN d   1     -12.409  30.977 -10.288  0.00  0.00    -0.370 N 
ATOM    129  H40 GLN d   1     -12.992  30.866 -11.093  0.00  0.00     0.159 HD
ATOM    130  H41 GLN d   1     -12.248  30.202  -9.677  0.00  0.00     0.159 HD
ENDBRANCH 123 126
ENDBRANCH 120 123
ENDBRANCH   1 120
TORSDOF 36
