REMARK WARNING: 32 MAX_TORS EXCEEDED!!!
REMARK  36 active torsions:
REMARK  status: ('A' for Active; 'I' for Inactive)
REMARK    1  A    between atoms: N_1  and  CA_2 
REMARK    2  A    between atoms: CA_2  and  C_3 
REMARK       I    between atoms: C_3  and  N_5 
REMARK    3  A    between atoms: N_5  and  CA_6 
REMARK    4  A    between atoms: CA_6  and  C_7 
REMARK    5  A    between atoms: CA_6  and  CB_9 
REMARK       I    between atoms: C_7  and  N_12 
REMARK    6  A    between atoms: CB_9  and  CG1_10 
REMARK    7  A    between atoms: CB_9  and  CG2_11 
REMARK    8  A    between atoms: N_12  and  CA_13 
REMARK    9  A    between atoms: CA_13  and  C_14 
REMARK   10  A    between atoms: CA_13  and  CB_16 
REMARK       I    between atoms: C_14  and  N_19 
REMARK   11  A    between atoms: CB_16  and  CG1_17 
REMARK   12  A    between atoms: CB_16  and  CG2_18 
REMARK   13  A    between atoms: N_19  and  CA_20 
REMARK   14  A    between atoms: CA_20  and  C_21 
REMARK   15  A    between atoms: CA_20  and  CB_23 
REMARK       I    between atoms: C_21  and  N_24 
REMARK   16  A    between atoms: N_24  and  CA_25 
REMARK   17  A    between atoms: CA_25  and  C_26 
REMARK   18  A    between atoms: CA_25  and  CB_28 
REMARK       I    between atoms: C_26  and  N_30 
REMARK   19  A    between atoms: CB_28  and  OG_29 
REMARK   20  A    between atoms: N_30  and  CA_31 
REMARK   21  A    between atoms: CA_31  and  C_32 
REMARK   22  A    between atoms: CA_31  and  CB_34 
REMARK       I    between atoms: C_32  and  N_39 
REMARK   23  A    between atoms: CB_34  and  CG_35 
REMARK   24  A    between atoms: CG_35  and  CD_36 
REMARK       I    between atoms: CD_36  and  NE2_38 
REMARK   25  A    between atoms: CA_40  and  C_41 
REMARK       I    between atoms: C_41  and  N_46 
REMARK   26  A    between atoms: N_46  and  CA_47 
REMARK   27  A    between atoms: CA_47  and  C_48 
REMARK   28  A    between atoms: CA_47  and  CB_50 
REMARK       I    between atoms: C_48  and  N_51 
REMARK   29  A    between atoms: N_51  and  CA_52 
REMARK   30  A    between atoms: CA_52  and  C_53 
REMARK   31  A    between atoms: CA_52  and  CB_55 
REMARK       I    between atoms: C_53  and  N_56 
REMARK   32  A    between atoms: N_56  and  CA_57 
REMARK   33  A    between atoms: CA_57  and  C_58 
REMARK   34  A    between atoms: CA_57  and  CB_60 
REMARK   35  A    between atoms: CB_60  and  CG1_61 
REMARK   36  A    between atoms: CB_60  and  CG2_62 
ROOT
ATOM      1  CA  GLN d   1     -32.836   8.795  -7.912  0.00  0.00     0.090 C 
ATOM      2  H35 GLN d   1     -32.589   9.818  -8.232  0.00  0.00     0.087 H 
ENDROOT
BRANCH   1   3
ATOM      3  N   GLN d   1     -31.714   8.256  -7.173  0.00  0.00    -0.346 N 
ATOM      4  C   SER d   1     -31.129   8.992  -6.240  0.00  0.00     0.243 C 
ATOM      5  O   SER d   1     -31.526  10.115  -5.932  0.00  0.00    -0.271 OA
ATOM      6  H34 GLN d   1     -31.382   7.333  -7.366  0.00  0.00     0.163 HD
BRANCH   4   7
ATOM      7  CA  SER d   1     -29.932   8.377  -5.536  0.00  0.00     0.109 C 
ATOM      8  H30 SER d   1     -29.505   7.586  -6.170  0.00  0.00     0.090 H 
BRANCH   7   9
ATOM      9  N   SER d   1     -28.924   9.404  -5.325  0.00  0.00    -0.344 N 
ATOM     10  C   ALA d   1     -27.648   9.261  -5.681  0.00  0.00     0.240 C 
ATOM     11  O   ALA d   1     -27.195   8.202  -6.121  0.00  0.00    -0.271 OA
ATOM     12  H29 SER d   1     -29.203  10.261  -4.891  0.00  0.00     0.163 HD
BRANCH  10  13
ATOM     13  CA  ALA d   1     -26.736  10.467  -5.534  0.00  0.00     0.086 C 
ATOM     14  H25 ALA d   1     -26.608  10.914  -6.531  0.00  0.00     0.086 H 
BRANCH  13  15
ATOM     15  N   ALA d   1     -27.314  11.488  -4.665  0.00  0.00    -0.346 N 
ATOM     16  C   VAL d   1     -27.509  12.730  -5.117  0.00  0.00     0.241 C 
ATOM     17  O   VAL d   1     -27.217  13.075  -6.267  0.00  0.00    -0.271 OA
ATOM     18  H24 ALA d   1     -27.566  11.256  -3.725  0.00  0.00     0.163 HD
BRANCH  16  19
ATOM     19  CA  VAL d   1     -28.113  13.732  -4.145  0.00  0.00     0.092 C 
ATOM     20  H16 VAL d   1     -28.404  13.212  -3.220  0.00  0.00     0.088 H 
BRANCH  19  21
ATOM     21  N   VAL d   1     -27.076  14.717  -3.835  0.00  0.00    -0.346 N 
ATOM     22  C   VAL d   1     -26.294  14.606  -2.765  0.00  0.00     0.241 C 
ATOM     23  O   VAL d   1     -26.401  13.665  -1.972  0.00  0.00    -0.271 OA
ATOM     24  H15 VAL d   1     -26.951  15.498  -4.447  0.00  0.00     0.163 HD
BRANCH  22  25
ATOM     25  CA  VAL d   1     -25.255  15.701  -2.532  0.00  0.00     0.092 C 
ATOM     26  H7  VAL d   1     -25.749  16.682  -2.591  0.00  0.00     0.088 H 
BRANCH  25  27
ATOM     27  N   VAL d   1     -24.716  15.515  -1.194  0.00  0.00    -0.346 N 
ATOM     28  C   GLY d   1     -25.247  16.038  -0.090  0.00  0.00     0.243 C 
ATOM     29  O   GLY d   1     -26.186  16.849  -0.096  0.00  0.00    -0.272 OA
ATOM     30  H6  VAL d   1     -23.892  14.957  -1.096  0.00  0.00     0.163 HD
BRANCH  28  31
ATOM     31  CA  GLY d   1     -24.590  15.583   1.203  0.00  0.00     0.152 C 
ATOM     32  H4  GLY d   1     -24.866  14.531   1.370  0.00  0.00     0.090 H 
ATOM     33  H5  GLY d   1     -23.500  15.659   1.073  0.00  0.00     0.090 H 
BRANCH  31  34
ATOM     34  N   GLY d   1     -24.950  16.333   2.395  0.00  0.00    -0.071 N 
ATOM     35  H1  GLY d   1     -24.463  15.953   3.191  0.00  0.00     0.274 HD
ATOM     36  H2  GLY d   1     -25.944  16.266   2.546  0.00  0.00     0.274 HD
ATOM     37  H3  GLY d   1     -24.693  17.300   2.274  0.00  0.00     0.274 HD
ENDBRANCH  31  34
ENDBRANCH  28  31
ENDBRANCH  25  27
BRANCH  25  38
ATOM     38  CB  VAL d   1     -24.129  15.659  -3.584  0.00  0.00    -0.033 C 
ATOM     39  H8  VAL d   1     -24.538  16.000  -4.547  0.00  0.00     0.042 H 
BRANCH  38  40
ATOM     40  CG1 VAL d   1     -22.988  16.576  -3.186  0.00  0.00    -0.071 C 
ATOM     41  H9  VAL d   1     -22.197  16.530  -3.950  0.00  0.00     0.028 H 
ATOM     42  H10 VAL d   1     -22.580  16.254  -2.216  0.00  0.00     0.028 H 
ATOM     43  H11 VAL d   1     -23.359  17.608  -3.104  0.00  0.00     0.028 H 
ENDBRANCH  38  40
BRANCH  38  44
ATOM     44  CG2 VAL d   1     -23.604  14.249  -3.750  0.00  0.00    -0.071 C 
ATOM     45  H12 VAL d   1     -24.430  13.582  -4.039  0.00  0.00     0.028 H 
ATOM     46  H13 VAL d   1     -23.170  13.905  -2.800  0.00  0.00     0.028 H 
ATOM     47  H14 VAL d   1     -22.831  14.235  -4.532  0.00  0.00     0.028 H 
ENDBRANCH  38  44
ENDBRANCH  25  38
ENDBRANCH  22  25
ENDBRANCH  19  21
BRANCH  19  48
ATOM     48  CB  VAL d   1     -29.365  14.387  -4.747  0.00  0.00    -0.033 C 
ATOM     49  H17 VAL d   1     -29.094  14.784  -5.736  0.00  0.00     0.042 H 
BRANCH  48  50
ATOM     50  CG1 VAL d   1     -30.478  13.353  -4.948  0.00  0.00    -0.071 C 
ATOM     51  H18 VAL d   1     -31.362  13.845  -5.379  0.00  0.00     0.028 H 
ATOM     52  H19 VAL d   1     -30.743  12.907  -3.978  0.00  0.00     0.028 H 
ATOM     53  H20 VAL d   1     -30.128  12.565  -5.631  0.00  0.00     0.028 H 
ENDBRANCH  48  50
BRANCH  48  54
ATOM     54  CG2 VAL d   1     -29.844  15.567  -3.887  0.00  0.00    -0.071 C 
ATOM     55  H21 VAL d   1     -29.022  16.288  -3.763  0.00  0.00     0.028 H 
ATOM     56  H22 VAL d   1     -30.159  15.197  -2.900  0.00  0.00     0.028 H 
ATOM     57  H23 VAL d   1     -30.693  16.061  -4.382  0.00  0.00     0.028 H 
ENDBRANCH  48  54
ENDBRANCH  19  48
ENDBRANCH  16  19
ENDBRANCH  13  15
BRANCH  13  58
ATOM     58  CB  ALA d   1     -25.361  10.029  -5.035  0.00  0.00    -0.049 C 
ATOM     59  H26 ALA d   1     -24.954   9.261  -5.709  0.00  0.00     0.030 H 
ATOM     60  H27 ALA d   1     -25.454   9.614  -4.021  0.00  0.00     0.030 H 
ATOM     61  H28 ALA d   1     -24.685  10.896  -5.016  0.00  0.00     0.030 H 
ENDBRANCH  13  58
ENDBRANCH  10  13
ENDBRANCH   7   9
BRANCH   7  62
ATOM     62  CB  SER d   1     -30.387   7.757  -4.215  0.00  0.00     0.044 C 
ATOM     63  H31 SER d   1     -30.824   6.767  -4.412  0.00  0.00     0.077 H 
ATOM     64  H32 SER d   1     -31.145   8.407  -3.753  0.00  0.00     0.077 H 
BRANCH  62  65
ATOM     65  OG  SER d   1     -29.296   7.614  -3.328  0.00  0.00    -0.398 OA
ATOM     66  H33 SER d   1     -29.599   7.228  -2.515  0.00  0.00     0.209 HD
ENDBRANCH  62  65
ENDBRANCH   7  62
ENDBRANCH   4   7
ENDBRANCH   1   3
BRANCH   1  67
ATOM     67  C   GLN d   1     -34.079   8.844  -7.026  0.00  0.00     0.243 C 
ATOM     68  O   GLN d   1     -34.211   8.052  -6.091  0.00  0.00    -0.271 OA
ATOM     69  N   PRO d   1     -35.005   9.771  -7.297  0.00  0.00    -0.337 N 
ATOM     70  CA  PRO d   1     -36.272   9.790  -6.551  0.00  0.00     0.091 C 
ATOM     71  CD  PRO d   1     -34.915  10.872  -8.267  0.00  0.00    -0.001 C 
ATOM     72  CB  PRO d   1     -37.057  10.932  -7.204  0.00  0.00    -0.036 C 
ATOM     73  H42 PRO d   1     -36.095   9.998  -5.485  0.00  0.00     0.087 H 
ATOM     74  CG  PRO d   1     -36.044  11.775  -7.869  0.00  0.00    -0.048 C 
ATOM     75  H43 PRO d   1     -37.599  11.511  -6.442  0.00  0.00     0.036 H 
ATOM     76  H44 PRO d   1     -37.771  10.536  -7.941  0.00  0.00     0.036 H 
ATOM     77  H45 PRO d   1     -35.682  12.549  -7.176  0.00  0.00     0.035 H 
ATOM     78  H46 PRO d   1     -36.477  12.254  -8.760  0.00  0.00     0.035 H 
ATOM     79  H47 PRO d   1     -35.049  10.504  -9.295  0.00  0.00     0.064 H 
ATOM     80  H48 PRO d   1     -33.948  11.391  -8.186  0.00  0.00     0.064 H 
BRANCH  70  81
ATOM     81  C   PRO d   1     -37.004   8.465  -6.689  0.00  0.00     0.241 C 
ATOM     82  O   PRO d   1     -37.009   7.852  -7.757  0.00  0.00    -0.271 OA
ATOM     83  N   ALA d   1     -37.634   8.037  -5.597  0.00  0.00    -0.346 N 
ATOM     84  H49 ALA d   1     -37.672   8.643  -4.802  0.00  0.00     0.163 HD
BRANCH  83  85
ATOM     85  CA  ALA d   1     -38.272   6.729  -5.501  0.00  0.00     0.086 C 
ATOM     86  H50 ALA d   1     -38.300   6.287  -6.508  0.00  0.00     0.086 H 
BRANCH  85  87
ATOM     87  C   ALA d   1     -39.704   6.848  -4.985  0.00  0.00     0.240 C 
ATOM     88  O   ALA d   1     -40.110   7.873  -4.426  0.00  0.00    -0.271 OA
ATOM     89  N   ARG d   1     -40.473   5.780  -5.206  0.00  0.00    -0.346 N 
ATOM     90  H54 ARG d   1     -40.115   5.028  -5.760  0.00  0.00     0.163 HD
BRANCH  89  91
ATOM     91  CA  ARG d   1     -41.819   5.682  -4.661  0.00  0.00     0.086 C 
ATOM     92  H55 ARG d   1     -42.446   6.462  -5.117  0.00  0.00     0.086 H 
BRANCH  91  93
ATOM     93  C   ARG d   1     -41.768   5.905  -3.158  0.00  0.00     0.240 C 
ATOM     94  O   ARG d   1     -40.798   5.539  -2.488  0.00  0.00    -0.271 OA
ATOM     95  N   VAL d   1     -42.799   6.548  -2.626  0.00  0.00    -0.344 N 
ATOM     96  H59 VAL d   1     -43.544   6.871  -3.210  0.00  0.00     0.163 HD
BRANCH  95  97
ATOM     97  CA  VAL d   1     -42.843   6.783  -1.185  0.00  0.00     0.099 C 
ATOM     98  H60 VAL d   1     -41.921   7.310  -0.897  0.00  0.00     0.090 H 
BRANCH  97  99
ATOM     99  C   VAL d   1     -42.885   5.446  -0.433  0.00  0.00     0.197 C 
ATOM    100  O   VAL d   1     -43.535   4.481  -0.861  0.00  0.00    -0.646 OA
ATOM    101  OXT VAL d   1     -42.248   5.293   0.618  0.00  0.00    -0.646 OA
ENDBRANCH  97  99
BRANCH  97 102
ATOM    102  CB  VAL d   1     -44.031   7.668  -0.798  0.00  0.00    -0.032 C 
ATOM    103  H61 VAL d   1     -44.933   7.292  -1.304  0.00  0.00     0.042 H 
BRANCH 102 104
ATOM    104  CG1 VAL d   1     -44.255   7.610   0.706  0.00  0.00    -0.071 C 
ATOM    105  H62 VAL d   1     -45.110   8.248   0.974  0.00  0.00     0.028 H 
ATOM    106  H63 VAL d   1     -43.353   7.967   1.225  0.00  0.00     0.028 H 
ATOM    107  H64 VAL d   1     -44.464   6.572   1.006  0.00  0.00     0.028 H 
ENDBRANCH 102 104
BRANCH 102 108
ATOM    108  CG2 VAL d   1     -43.781   9.105  -1.247  0.00  0.00    -0.071 C 
ATOM    109  H65 VAL d   1     -43.622   9.127  -2.335  0.00  0.00     0.028 H 
ATOM    110  H66 VAL d   1     -42.889   9.498  -0.738  0.00  0.00     0.028 H 
ATOM    111  H67 VAL d   1     -44.652   9.726  -0.992  0.00  0.00     0.028 H 
ENDBRANCH 102 108
ENDBRANCH  97 102
ENDBRANCH  95  97
ENDBRANCH  91  93
BRANCH  91 112
ATOM    112  CB  ARG d   1     -42.435   4.310  -4.976  0.00  0.00    -0.049 C 
ATOM    113  H56 ARG d   1     -43.450   4.259  -4.555  0.00  0.00     0.030 H 
ATOM    114  H57 ARG d   1     -41.814   3.518  -4.532  0.00  0.00     0.030 H 
ATOM    115  H58 ARG d   1     -42.482   4.171  -6.066  0.00  0.00     0.030 H 
ENDBRANCH  91 112
ENDBRANCH  89  91
ENDBRANCH  85  87
BRANCH  85 116
ATOM    116  CB  ALA d   1     -37.477   5.797  -4.583  0.00  0.00    -0.049 C 
ATOM    117  H51 ALA d   1     -37.979   4.820  -4.529  0.00  0.00     0.030 H 
ATOM    118  H52 ALA d   1     -37.419   6.236  -3.576  0.00  0.00     0.030 H 
ATOM    119  H53 ALA d   1     -36.461   5.665  -4.985  0.00  0.00     0.030 H 
ENDBRANCH  85 116
ENDBRANCH  83  85
ENDBRANCH  70  81
ENDBRANCH   1  67
BRANCH   1 120
ATOM    120  CB  GLN d   1     -33.108   7.948  -9.147  0.00  0.00    -0.030 C 
ATOM    121  H36 GLN d   1     -32.241   8.030  -9.819  0.00  0.00     0.037 H 
ATOM    122  H37 GLN d   1     -34.000   8.349  -9.650  0.00  0.00     0.037 H 
BRANCH 120 123
ATOM    123  CG  GLN d   1     -33.346   6.483  -8.859  0.00  0.00     0.011 C 
ATOM    124  H38 GLN d   1     -34.156   6.393  -8.120  0.00  0.00     0.047 H 
ATOM    125  H39 GLN d   1     -32.424   6.048  -8.447  0.00  0.00     0.047 H 
BRANCH 123 126
ATOM    126  CD  GLN d   1     -33.735   5.713 -10.109  0.00  0.00     0.215 C 
ATOM    127  OE1 GLN d   1     -34.679   6.075 -10.810  0.00  0.00    -0.274 OA
ATOM    128  NE2 GLN d   1     -32.990   4.657 -10.405  0.00  0.00    -0.370 N 
ATOM    129  H40 GLN d   1     -33.197   4.110 -11.216  0.00  0.00     0.159 HD
ATOM    130  H41 GLN d   1     -32.221   4.407  -9.817  0.00  0.00     0.159 HD
ENDBRANCH 123 126
ENDBRANCH 120 123
ENDBRANCH   1 120
TORSDOF 36
