REMARK  5 active torsions:
REMARK  status: ('A' for Active; 'I' for Inactive)
REMARK    1  A    between atoms: C17_9  and  O3_32 
REMARK    2  A    between atoms: C3_18  and  C2_12 
REMARK       I    between atoms: N1_25  and  C3_18 
REMARK    3  A    between atoms: C5_20  and  C4_19 
REMARK    4  A    between atoms: C7_22  and  C6_21 
REMARK       I    between atoms: N3_27  and  C7_22 
REMARK    5  A    between atoms: C8_23  and  N3_27 
ROOT
ATOM      1  C17 GY8 d   1     131.067 106.450 288.446  0.00  0.00     0.169 A 
ATOM      2  C18 GY8 d   1     129.824 106.348 289.080  0.00  0.00     0.282 A 
ATOM      3  C5  GY8 d   1     129.360 104.507 287.615  0.00  0.00     0.131 A 
ATOM      4  C6  GY8 d   1     131.399 105.584 287.442  0.00  0.00     0.165 A 
ATOM      5  N2  GY8 d   1     130.548 104.638 287.020  0.00  0.00    -0.225 NA
ATOM      6  N4  GY8 d   1     128.984 105.351 288.632  0.00  0.00    -0.307 N 
ATOM      7  O4  GY8 d   1     129.450 107.093 290.004  0.00  0.00    -0.265 OA
ATOM      8  H20 GY8 d   1     128.085 105.240 289.055  0.00  0.00     0.170 HD
ENDROOT
BRANCH   3   9
ATOM      9  C4  GY8 d   1     128.460 103.401 287.107  0.00  0.00     0.072 C 
ATOM     10  C19 GY8 d   1     128.711 102.014 287.723  0.00  0.00    -0.038 C 
ATOM     11  C20 GY8 d   1     129.821 101.468 286.838  0.00  0.00    -0.048 C 
ATOM     12  H7  GY8 d   1     129.039 102.096 288.770  0.00  0.00     0.036 H 
ATOM     13  H8  GY8 d   1     127.811 101.384 287.669  0.00  0.00     0.036 H 
ATOM     14  C21 GY8 d   1     129.325 101.822 285.451  0.00  0.00    -0.001 C 
ATOM     15  H9  GY8 d   1     129.928 100.380 286.958  0.00  0.00     0.035 H 
ATOM     16  H10 GY8 d   1     130.782 101.957 287.055  0.00  0.00     0.035 H 
ATOM     17  N1  GY8 d   1     128.649 103.115 285.664  0.00  0.00    -0.336 N 
ATOM     18  H11 GY8 d   1     128.621 101.064 285.077  0.00  0.00     0.064 H 
ATOM     19  H12 GY8 d   1     130.162 101.925 284.745  0.00  0.00     0.064 H 
ATOM     20  C3  GY8 d   1     128.253 103.932 284.676  0.00  0.00     0.258 C 
ATOM     21  O1  GY8 d   1     128.402 103.627 283.493  0.00  0.00    -0.267 OA
ATOM     22  H15 GY8 d   1     127.421 103.708 287.299  0.00  0.00     0.085 H 
BRANCH  20  23
ATOM     23  C2  GY8 d   1     127.649 105.248 285.074  0.00  0.00     0.078 A 
ATOM     24  C1  GY8 d   1     126.349 105.321 285.582  0.00  0.00     0.069 A 
ATOM     25  C24 GY8 d   1     125.825 106.544 285.978  0.00  0.00     0.024 A 
ATOM     26 CL1  GY8 d   1     125.379 103.902 285.710  0.00  0.00    -0.082 Cl
ATOM     27  N5  GY8 d   1     126.521 107.673 285.898  0.00  0.00    -0.270 NA
ATOM     28  H14 GY8 d   1     124.813 106.579 286.366  0.00  0.00     0.117 H 
ATOM     29  C23 GY8 d   1     127.763 107.625 285.422  0.00  0.00     0.024 A 
ATOM     30  C22 GY8 d   1     128.367 106.444 285.011  0.00  0.00     0.069 A 
ATOM     31  H13 GY8 d   1     128.327 108.548 285.352  0.00  0.00     0.117 H 
ATOM     32 CL2  GY8 d   1     129.984 106.478 284.411  0.00  0.00    -0.082 Cl
ENDBRANCH  20  23
ENDBRANCH   3   9
BRANCH   4  33
ATOM     33  C7  GY8 d   1     132.711 105.656 286.709  0.00  0.00     0.273 C 
ATOM     34  N3  GY8 d   1     132.739 105.011 285.538  0.00  0.00    -0.350 N 
ATOM     35  H19 GY8 d   1     131.899 104.580 285.208  0.00  0.00     0.163 HD
ATOM     36  O2  GY8 d   1     133.678 106.292 287.130  0.00  0.00    -0.266 OA
BRANCH  34  37
ATOM     37  C8  GY8 d   1     133.936 104.911 284.727  0.00  0.00     0.020 C 
ATOM     38  C16 GY8 d   1     133.921 103.562 283.981  0.00  0.00    -0.021 C 
ATOM     39  C11 GY8 d   1     133.011 103.853 282.816  0.00  0.00    -0.050 A 
ATOM     40  H5  GY8 d   1     134.929 103.284 283.640  0.00  0.00     0.043 H 
ATOM     41  H6  GY8 d   1     133.514 102.760 284.615  0.00  0.00     0.043 H 
ATOM     42  C10 GY8 d   1     132.989 105.219 282.573  0.00  0.00    -0.050 A 
ATOM     43  C12 GY8 d   1     132.265 102.987 282.030  0.00  0.00    -0.076 A 
ATOM     44  C15 GY8 d   1     132.221 105.738 281.540  0.00  0.00    -0.076 A 
ATOM     45  C9  GY8 d   1     133.880 105.921 283.563  0.00  0.00    -0.021 C 
ATOM     46  C14 GY8 d   1     131.476 104.870 280.760  0.00  0.00    -0.082 A 
ATOM     47  H4  GY8 d   1     132.205 106.805 281.347  0.00  0.00     0.084 H 
ATOM     48  C13 GY8 d   1     131.501 103.509 281.000  0.00  0.00    -0.082 A 
ATOM     49  H3  GY8 d   1     130.867 105.262 279.953  0.00  0.00     0.083 H 
ATOM     50  H2  GY8 d   1     130.916 102.843 280.375  0.00  0.00     0.083 H 
ATOM     51  H17 GY8 d   1     133.442 106.877 283.886  0.00  0.00     0.043 H 
ATOM     52  H18 GY8 d   1     134.880 106.100 283.142  0.00  0.00     0.043 H 
ATOM     53  H1  GY8 d   1     132.280 101.920 282.219  0.00  0.00     0.084 H 
ATOM     54  H16 GY8 d   1     134.837 105.040 285.344  0.00  0.00     0.073 H 
ENDBRANCH  34  37
ENDBRANCH   4  33
BRANCH   1  55
ATOM     55  O3  GY8 d   1     131.880 107.417 288.890  0.00  0.00    -0.354 OA
ATOM     56  H21 GY8 d   1     132.682 107.028 289.220  0.00  0.00     0.218 HD
ENDBRANCH   1  55
TORSDOF 5
