REMARK  26 active torsions:
REMARK  status: ('A' for Active; 'I' for Inactive)
REMARK    1  A    between atoms: CA_2  and  C_3 
REMARK       I    between atoms: C_3  and  N_8 
REMARK    2  A    between atoms: N_8  and  CA_9 
REMARK    3  A    between atoms: CA_9  and  C_10 
REMARK    4  A    between atoms: CA_9  and  CB_12 
REMARK       I    between atoms: C_10  and  N_20 
REMARK    5  A    between atoms: CB_12  and  CG_13 
REMARK    6  A    between atoms: CZ_18  and  OH_19 
REMARK    7  A    between atoms: N_20  and  CA_21 
REMARK    8  A    between atoms: CA_21  and  C_22 
REMARK    9  A    between atoms: CA_21  and  CB_24 
REMARK       I    between atoms: C_22  and  N_25 
REMARK   10  A    between atoms: N_25  and  CA_26 
REMARK   11  A    between atoms: CA_26  and  C_27 
REMARK       I    between atoms: C_27  and  N_29 
REMARK   12  A    between atoms: N_29  and  CA_30 
REMARK   13  A    between atoms: CA_30  and  CB_31 
REMARK   14  A    between atoms: CA_30  and  C_33 
REMARK   15  A    between atoms: CB_31  and  OG_32 
REMARK   16  A    between atoms: OG_32  and  P_35 
REMARK       I    between atoms: C_33  and  N_39 
REMARK   17  A    between atoms: N_39  and  CA_40 
REMARK   18  A    between atoms: CA_40  and  CB_41 
REMARK   19  A    between atoms: CA_40  and  C_48 
REMARK   20  A    between atoms: CB_41  and  CG2_42 
REMARK   21  A    between atoms: CB_41  and  OG1_43 
REMARK   22  A    between atoms: OG1_43  and  P_44 
REMARK       I    between atoms: C_48  and  N_50 
REMARK   23  A    between atoms: N_50  and  CA_51 
REMARK   24  A    between atoms: CA_51  and  C_52 
REMARK   25  A    between atoms: CA_51  and  CB_54 
REMARK   26  A    between atoms: CB_54  and  CG_55 
ROOT
ATOM      1  C   ALA d   1     -24.727  15.853 -24.162  0.00  0.00     0.240 C 
ATOM      2  O   ALA d   1     -25.113  15.880 -22.990  0.00  0.00    -0.271 OA
ATOM      3  N   GLY d   1     -24.512  16.958 -24.867  0.00  0.00    -0.351 N 
ATOM      4  H24 GLY d   1     -24.217  16.879 -25.819  0.00  0.00     0.163 HD
ENDROOT
BRANCH   3   5
ATOM      5  CA  GLY d   1     -24.695  18.277 -24.290  0.00  0.00     0.069 C 
ATOM      6  H25 GLY d   1     -25.438  18.211 -23.482  0.00  0.00     0.078 H 
ATOM      7  H26 GLY d   1     -25.062  18.959 -25.071  0.00  0.00     0.078 H 
BRANCH   5   8
ATOM      8  C   GLY d   1     -23.404  18.831 -23.724  0.00  0.00     0.236 C 
ATOM      9  O   GLY d   1     -22.530  18.079 -23.294  0.00  0.00    -0.272 OA
ATOM     10  N   SEP d   1     -23.282  20.154 -23.719  0.00  0.00    -0.344 N 
ATOM     11  H27 SEP d   1     -24.046  20.717 -24.034  0.00  0.00     0.163 HD
BRANCH  10  12
ATOM     12  CA  SEP d   1     -22.060  20.801 -23.265  0.00  0.00     0.110 C 
ATOM     13  H28 SEP d   1     -21.208  20.297 -23.745  0.00  0.00     0.090 H 
BRANCH  12  14
ATOM     14  CB  SEP d   1     -22.049  22.271 -23.686  0.00  0.00     0.059 C 
ATOM     15  H29 SEP d   1     -22.046  22.343 -24.784  0.00  0.00     0.079 H 
ATOM     16  H30 SEP d   1     -21.153  22.765 -23.284  0.00  0.00     0.079 H 
BRANCH  14  17
ATOM     17  OG  SEP d   1     -23.209  22.894 -23.171  0.00  0.00    -0.280 OA
BRANCH  17  18
ATOM     18  P   SEP d   1     -23.732  24.268 -23.823  0.00  0.00     0.422 P 
ATOM     19  O1P SEP d   1     -23.834  24.096 -25.350  0.00  0.00    -0.617 OA
ATOM     20  O2P SEP d   1     -22.741  25.402 -23.505  0.00  0.00    -0.617 OA
ATOM     21  O3P SEP d   1     -25.114  24.609 -23.236  0.00  0.00    -0.617 OA
ENDBRANCH  17  18
ENDBRANCH  14  17
ENDBRANCH  12  14
BRANCH  12  22
ATOM     22  C   SEP d   1     -21.889  20.684 -21.753  0.00  0.00     0.243 C 
ATOM     23  O   SEP d   1     -22.863  20.544 -21.012  0.00  0.00    -0.271 OA
ATOM     24  N   TPO d   1     -20.635  20.738 -21.312  0.00  0.00    -0.344 N 
ATOM     25  H31 TPO d   1     -19.898  20.837 -21.980  0.00  0.00     0.163 HD
BRANCH  24  26
ATOM     26  CA  TPO d   1     -20.287  20.659 -19.899  0.00  0.00     0.114 C 
ATOM     27  H32 TPO d   1     -20.924  19.904 -19.416  0.00  0.00     0.091 H 
BRANCH  26  28
ATOM     28  CB  TPO d   1     -18.823  20.242 -19.757  0.00  0.00     0.076 C 
ATOM     29  H33 TPO d   1     -18.191  21.000 -20.244  0.00  0.00     0.087 H 
BRANCH  28  30
ATOM     30  CG2 TPO d   1     -18.404  20.125 -18.290  0.00  0.00    -0.049 C 
ATOM     31  H34 TPO d   1     -17.348  19.824 -18.233  0.00  0.00     0.031 H 
ATOM     32  H35 TPO d   1     -19.028  19.370 -17.790  0.00  0.00     0.031 H 
ATOM     33  H36 TPO d   1     -18.535  21.097 -17.792  0.00  0.00     0.031 H 
ENDBRANCH  28  30
BRANCH  28  34
ATOM     34  OG1 TPO d   1     -18.634  18.986 -20.406  0.00  0.00    -0.275 OA
BRANCH  34  35
ATOM     35  P   TPO d   1     -17.813  18.927 -21.786  0.00  0.00     0.422 P 
ATOM     36  O1P TPO d   1     -18.462  19.874 -22.814  0.00  0.00    -0.617 OA
ATOM     37  O2P TPO d   1     -17.828  17.483 -22.322  0.00  0.00    -0.617 OA
ATOM     38  O3P TPO d   1     -16.363  19.382 -21.535  0.00  0.00    -0.617 OA
ENDBRANCH  34  35
ENDBRANCH  28  34
ENDBRANCH  26  28
BRANCH  26  39
ATOM     39  C   TPO d   1     -20.515  22.002 -19.220  0.00  0.00     0.243 C 
ATOM     40  O   TPO d   1     -20.289  23.053 -19.819  0.00  0.00    -0.271 OA
ATOM     41  N   ASP d   1     -20.956  21.965 -17.967  0.00  0.00    -0.344 N 
ATOM     42  H37 ASP d   1     -21.160  21.081 -17.547  0.00  0.00     0.163 HD
BRANCH  41  43
ATOM     43  CA  ASP d   1     -21.150  23.184 -17.189  0.00  0.00     0.105 C 
ATOM     44  H38 ASP d   1     -21.902  23.803 -17.700  0.00  0.00     0.090 H 
BRANCH  43  45
ATOM     45  C   ASP d   1     -19.854  23.985 -17.089  0.00  0.00     0.197 C 
ATOM     46  O   ASP d   1     -18.935  23.609 -16.361  0.00  0.00    -0.646 OA
ATOM     47  OXT ASP d   1     -19.703  25.023 -17.734  0.00  0.00    -0.646 OA
ENDBRANCH  43  45
BRANCH  43  48
ATOM     48  CB  ASP d   1     -21.667  22.849 -15.790  0.00  0.00     0.044 C 
ATOM     49  H39 ASP d   1     -21.471  23.705 -15.127  0.00  0.00     0.053 H 
ATOM     50  H40 ASP d   1     -21.128  21.966 -15.417  0.00  0.00     0.053 H 
BRANCH  48  51
ATOM     51  CG  ASP d   1     -23.153  22.553 -15.774  0.00  0.00     0.175 C 
ATOM     52  OD1 ASP d   1     -23.706  22.223 -16.844  0.00  0.00    -0.648 OA
ATOM     53  OD2 ASP d   1     -23.767  22.650 -14.691  0.00  0.00    -0.648 OA
ENDBRANCH  48  51
ENDBRANCH  43  48
ENDBRANCH  41  43
ENDBRANCH  26  39
ENDBRANCH  24  26
ENDBRANCH  12  22
ENDBRANCH  10  12
ENDBRANCH   5   8
ENDBRANCH   3   5
BRANCH   1  54
ATOM     54  CA  ALA d   1     -24.467  14.539 -24.894  0.00  0.00     0.086 C 
ATOM     55  H20 ALA d   1     -23.397  14.486 -25.143  0.00  0.00     0.086 H 
BRANCH  54  56
ATOM     56  N   ALA d   1     -24.798  13.422 -24.027  0.00  0.00    -0.346 N 
ATOM     57  C   TYR d   1     -23.887  12.794 -23.289  0.00  0.00     0.241 C 
ATOM     58  O   TYR d   1     -22.693  13.113 -23.302  0.00  0.00    -0.271 OA
ATOM     59  H19 ALA d   1     -25.748  13.113 -23.983  0.00  0.00     0.163 HD
BRANCH  57  60
ATOM     60  CA  TYR d   1     -24.349  11.648 -22.400  0.00  0.00     0.093 C 
ATOM     61  H11 TYR d   1     -24.293  11.987 -21.355  0.00  0.00     0.088 H 
BRANCH  60  62
ATOM     62  N   TYR d   1     -25.725  11.254 -22.671  0.00  0.00    -0.346 N 
ATOM     63  C   PRO d   1     -26.717  11.485 -21.813  0.00  0.00     0.249 C 
ATOM     64  O   PRO d   1     -26.557  12.059 -20.736  0.00  0.00    -0.271 OA
ATOM     65  H10 TYR d   1     -25.933  10.793 -23.534  0.00  0.00     0.163 HD
BRANCH  63  66
ATOM     66  CA  PRO d   1     -28.106  11.004 -22.226  0.00  0.00     0.178 C 
ATOM     67  N   PRO d   1     -28.103  10.276 -23.500  0.00  0.00    -0.062 N 
ATOM     68  CD  PRO d   1     -28.298   8.828 -23.309  0.00  0.00     0.083 C 
ATOM     69  H1  PRO d   1     -27.219  10.427 -23.959  0.00  0.00     0.278 HD
ATOM     70  H2  PRO d   1     -28.848  10.631 -24.079  0.00  0.00     0.278 HD
ATOM     71  CG  PRO d   1     -28.241   8.659 -21.815  0.00  0.00    -0.040 C 
ATOM     72  H8  PRO d   1     -27.497   8.255 -23.800  0.00  0.00     0.075 H 
ATOM     73  H9  PRO d   1     -29.273   8.507 -23.704  0.00  0.00     0.075 H 
ATOM     74  CB  PRO d   1     -28.641   9.967 -21.236  0.00  0.00    -0.028 C 
ATOM     75  H6  PRO d   1     -28.937   7.870 -21.493  0.00  0.00     0.035 H 
ATOM     76  H7  PRO d   1     -27.220   8.398 -21.499  0.00  0.00     0.035 H 
ATOM     77  H4  PRO d   1     -29.736  10.037 -21.153  0.00  0.00     0.036 H 
ATOM     78  H5  PRO d   1     -28.188  10.107 -20.243  0.00  0.00     0.036 H 
ATOM     79  H3  PRO d   1     -28.779  11.872 -22.283  0.00  0.00     0.099 H 
ENDBRANCH  63  66
ENDBRANCH  60  62
BRANCH  60  80
ATOM     80  CB  TYR d   1     -23.422  10.443 -22.567  0.00  0.00    -0.014 C 
ATOM     81  H12 TYR d   1     -22.408  10.737 -22.258  0.00  0.00     0.043 H 
ATOM     82  H13 TYR d   1     -23.413  10.154 -23.628  0.00  0.00     0.043 H 
BRANCH  80  83
ATOM     83  CG  TYR d   1     -23.845   9.246 -21.748  0.00  0.00    -0.056 A 
ATOM     84  CD1 TYR d   1     -23.765   9.267 -20.361  0.00  0.00    -0.074 A 
ATOM     85  CE1 TYR d   1     -24.149   8.176 -19.607  0.00  0.00    -0.051 A 
ATOM     86  H14 TYR d   1     -23.395  10.155 -19.862  0.00  0.00     0.084 H 
ATOM     87  CZ  TYR d   1     -24.622   7.045 -20.239  0.00  0.00     0.065 A 
ATOM     88  H16 TYR d   1     -24.079   8.208 -18.526  0.00  0.00     0.087 H 
ATOM     89  CE2 TYR d   1     -24.711   7.000 -21.614  0.00  0.00    -0.051 A 
ATOM     90  CD2 TYR d   1     -24.324   8.096 -22.359  0.00  0.00    -0.074 A 
ATOM     91  H17 TYR d   1     -25.083   6.109 -22.107  0.00  0.00     0.087 H 
ATOM     92  H15 TYR d   1     -24.396   8.057 -23.440  0.00  0.00     0.084 H 
BRANCH  87  93
ATOM     93  OH  TYR d   1     -25.008   5.955 -19.493  0.00  0.00    -0.361 OA
ATOM     94  H18 TYR d   1     -24.480   5.204 -19.735  0.00  0.00     0.217 HD
ENDBRANCH  87  93
ENDBRANCH  80  83
ENDBRANCH  60  80
ENDBRANCH  57  60
ENDBRANCH  54  56
BRANCH  54  95
ATOM     95  CB  ALA d   1     -25.267  14.458 -26.196  0.00  0.00    -0.049 C 
ATOM     96  H21 ALA d   1     -25.005  15.310 -26.841  0.00  0.00     0.030 H 
ATOM     97  H22 ALA d   1     -26.343  14.488 -25.968  0.00  0.00     0.030 H 
ATOM     98  H23 ALA d   1     -25.028  13.518 -26.715  0.00  0.00     0.030 H 
ENDBRANCH  54  95
ENDBRANCH   1  54
TORSDOF 26
