REMARK  6 active torsions:
REMARK  status: ('A' for Active; 'I' for Inactive)
REMARK    1  A    between atoms: C12_12  and  C13_1 
REMARK    2  A    between atoms: N8_20  and  C19_6 
REMARK    3  A    between atoms: N7_19  and  C12_12 
REMARK    4  A    between atoms: C1_13  and  C9_21 
REMARK    5  A    between atoms: C4_16  and  N8_20 
REMARK    6  A    between atoms: C6_18  and  N7_19 
REMARK       I    between atoms: C9_21  and  N10_22 
ROOT
ATOM      1  C1  9YY d   1       6.449  42.059   7.249  0.00  0.00     0.075 A 
ATOM      2  C2  9YY d   1       7.135  42.418   6.093  0.00  0.00     0.022 A 
ATOM      3  N3  9YY d   1       8.447  42.658   6.035  0.00  0.00    -0.242 NA
ATOM      4  C4  9YY d   1       9.148  42.547   7.165  0.00  0.00     0.129 A 
ATOM      5  C5  9YY d   1       8.573  42.182   8.391  0.00  0.00    -0.012 A 
ATOM      6  C6  9YY d   1       7.192  41.929   8.444  0.00  0.00     0.049 A 
ATOM      7  H10 9YY d   1       6.565  42.509   5.176  0.00  0.00     0.116 H 
ATOM      8  H11 9YY d   1       9.184  42.096   9.283  0.00  0.00     0.092 H 
ENDROOT
BRANCH   4   9
ATOM      9  N8  9YY d   1      10.493  42.843   7.039  0.00  0.00    -0.341 N 
ATOM     10  H13 9YY d   1      10.790  43.109   6.089  0.00  0.00     0.167 HD
BRANCH   9  11
ATOM     11  C19 9YY d   1      11.524  42.839   8.002  0.00  0.00     0.034 A 
ATOM     12  C20 9YY d   1      11.367  43.502   9.224  0.00  0.00    -0.049 A 
ATOM     13  C21 9YY d   1      12.415  43.500  10.139  0.00  0.00    -0.021 A 
ATOM     14  H5  9YY d   1      10.439  44.012   9.455  0.00  0.00     0.087 H 
ATOM     15  C22 9YY d   1      13.605  42.842   9.837  0.00  0.00     0.041 A 
ATOM     16  C25 9YY d   1      12.553  44.111  11.501  0.00  0.00     0.035 A 
ATOM     17  C23 9YY d   1      13.771  42.177   8.629  0.00  0.00    -0.054 A 
ATOM     18  N27 9YY d   1      14.496  42.988  10.896  0.00  0.00    -0.326 N 
ATOM     19  C24 9YY d   1      12.724  42.180   7.716  0.00  0.00    -0.055 A 
ATOM     20  H6  9YY d   1      14.700  41.666   8.403  0.00  0.00     0.087 H 
ATOM     21  H7  9YY d   1      12.839  41.665   6.769  0.00  0.00     0.087 H 
ATOM     22  C26 9YY d   1      13.951  43.725  11.915  0.00  0.00     0.226 A 
ATOM     23  H19 9YY d   1      15.419  42.603  10.912  0.00  0.00     0.169 HD
ATOM     24  O28 9YY d   1      14.516  44.014  12.970  0.00  0.00    -0.273 OA
ATOM     25  H17 9YY d   1      11.808  43.697  12.196  0.00  0.00     0.054 H 
ATOM     26  H18 9YY d   1      12.444  45.205  11.455  0.00  0.00     0.054 H 
ENDBRANCH   9  11
ENDBRANCH   4   9
BRANCH   6  27
ATOM     27  N7  9YY d   1       6.566  41.559   9.644  0.00  0.00    -0.385 N 
ATOM     28  H12 9YY d   1       5.551  41.384   9.650  0.00  0.00     0.160 HD
BRANCH  27  29
ATOM     29  C12 9YY d   1       7.322  41.417  10.881  0.00  0.00     0.016 C 
ATOM     30  H8  9YY d   1       6.711  40.847  11.597  0.00  0.00     0.071 H 
ATOM     31  H9  9YY d   1       8.245  40.860  10.661  0.00  0.00     0.071 H 
BRANCH  29  32
ATOM     32  C13 9YY d   1       7.701  42.730  11.520  0.00  0.00    -0.041 A 
ATOM     33  C18 9YY d   1       6.981  43.892  11.273  0.00  0.00    -0.075 A 
ATOM     34  C17 9YY d   1       7.342  45.088  11.872  0.00  0.00    -0.082 A 
ATOM     35  H1  9YY d   1       6.128  43.863  10.605  0.00  0.00     0.084 H 
ATOM     36  C16 9YY d   1       8.427  45.137  12.727  0.00  0.00    -0.083 A 
ATOM     37  H2  9YY d   1       6.772  45.988  11.670  0.00  0.00     0.083 H 
ATOM     38  C15 9YY d   1       9.151  43.988  12.980  0.00  0.00    -0.082 A 
ATOM     39  H3  9YY d   1       8.708  46.072  13.197  0.00  0.00     0.083 H 
ATOM     40  C14 9YY d   1       8.790  42.792  12.379  0.00  0.00    -0.075 A 
ATOM     41  H4  9YY d   1      10.003  44.022  13.650  0.00  0.00     0.083 H 
ATOM     42  H16 9YY d   1       9.364  41.895  12.582  0.00  0.00     0.084 H 
ENDBRANCH  29  32
ENDBRANCH  27  29
ENDBRANCH   6  27
BRANCH   1  43
ATOM     43  C9  9YY d   1       4.971  41.842   7.211  0.00  0.00     0.253 C 
ATOM     44  N10 9YY d   1       4.466  41.144   6.195  0.00  0.00    -0.366 N 
ATOM     45  H14 9YY d   1       3.481  40.981   6.141  0.00  0.00     0.159 HD
ATOM     46  H15 9YY d   1       5.072  40.783   5.487  0.00  0.00     0.159 HD
ATOM     47  O11 9YY d   1       4.258  42.314   8.111  0.00  0.00    -0.268 OA
ENDBRANCH   1  43
TORSDOF 6
