REMARK  10 active torsions:
REMARK  status: ('A' for Active; 'I' for Inactive)
REMARK    1  A    between atoms: C13_1  and  C15_4 
REMARK    2  A    between atoms: N7_19  and  C13_1 
REMARK    3  A    between atoms: C13_1  and  C14_24 
REMARK    4  A    between atoms: C14_24  and  C17_3 
REMARK    5  A    between atoms: C15_4  and  O16_25 
REMARK    6  A    between atoms: N8_20  and  C23_9 
REMARK    7  A    between atoms: N10_22  and  C12_11 
REMARK    8  A    between atoms: C9_21  and  C1_13 
REMARK    9  A    between atoms: C4_16  and  N8_20 
REMARK   10  A    between atoms: C6_18  and  N7_19 
REMARK       I    between atoms: C9_21  and  N10_22 
ROOT
ATOM      1  C1  9YS d   1       6.545  42.459   6.960  0.00  0.00     0.075 A 
ATOM      2  C2  9YS d   1       7.308  42.672   5.815  0.00  0.00     0.022 A 
ATOM      3  N3  9YS d   1       8.636  42.838   5.812  0.00  0.00    -0.242 NA
ATOM      4  C4  9YS d   1       9.274  42.806   6.988  0.00  0.00     0.129 A 
ATOM      5  C5  9YS d   1       8.612  42.599   8.201  0.00  0.00    -0.012 A 
ATOM      6  C6  9YS d   1       7.227  42.424   8.196  0.00  0.00     0.049 A 
ATOM      7  H14 9YS d   1       6.792  42.706   4.862  0.00  0.00     0.116 H 
ATOM      8  H15 9YS d   1       9.166  42.575   9.133  0.00  0.00     0.092 H 
ENDROOT
BRANCH   6   9
ATOM      9  N7  9YS d   1       6.509  42.214   9.371  0.00  0.00    -0.382 N 
ATOM     10  H16 9YS d   1       5.532  41.899   9.286  0.00  0.00     0.160 HD
BRANCH   9  11
ATOM     11  C13 9YS d   1       7.045  42.410  10.718  0.00  0.00     0.034 C 
ATOM     12  H1  9YS d   1       8.087  42.060  10.742  0.00  0.00     0.076 H 
BRANCH  11  13
ATOM     13  C15 9YS d   1       6.224  41.624  11.730  0.00  0.00     0.036 C 
ATOM     14  H3  9YS d   1       6.524  41.925  12.745  0.00  0.00     0.077 H 
ATOM     15  H4  9YS d   1       6.421  40.550  11.593  0.00  0.00     0.077 H 
BRANCH  13  16
ATOM     16  O16 9YS d   1       4.825  41.863  11.570  0.00  0.00    -0.399 OA
ATOM     17  H21 9YS d   1       4.343  41.359  12.215  0.00  0.00     0.209 HD
ENDBRANCH  13  16
ENDBRANCH  11  13
BRANCH  11  18
ATOM     18  C14 9YS d   1       6.999  43.900  11.106  0.00  0.00    -0.020 C 
ATOM     19  H19 9YS d   1       5.943  44.198  11.181  0.00  0.00     0.043 H 
ATOM     20  H20 9YS d   1       7.486  44.474  10.304  0.00  0.00     0.043 H 
BRANCH  18  21
ATOM     21  C17 9YS d   1       7.675  44.256  12.408  0.00  0.00    -0.056 A 
ATOM     22  C18 9YS d   1       6.943  44.791  13.465  0.00  0.00    -0.077 A 
ATOM     23  C19 9YS d   1       7.561  45.121  14.662  0.00  0.00    -0.082 A 
ATOM     24  H2  9YS d   1       5.877  44.952  13.351  0.00  0.00     0.084 H 
ATOM     25  C20 9YS d   1       8.920  44.916  14.821  0.00  0.00    -0.083 A 
ATOM     26  H5  9YS d   1       6.978  45.540  15.474  0.00  0.00     0.083 H 
ATOM     27  C21 9YS d   1       9.659  44.384  13.778  0.00  0.00    -0.082 A 
ATOM     28  H6  9YS d   1       9.404  45.170  15.757  0.00  0.00     0.083 H 
ATOM     29  C22 9YS d   1       9.040  44.055  12.582  0.00  0.00    -0.077 A 
ATOM     30  H7  9YS d   1      10.725  44.224  13.897  0.00  0.00     0.083 H 
ATOM     31  H8  9YS d   1       9.627  43.636  11.773  0.00  0.00     0.084 H 
ENDBRANCH  18  21
ENDBRANCH  11  18
ENDBRANCH   9  11
ENDBRANCH   6   9
BRANCH   1  32
ATOM     32  C9  9YS d   1       5.060  42.285   6.893  0.00  0.00     0.255 C 
ATOM     33  N10 9YS d   1       4.583  41.619   5.843  0.00  0.00    -0.361 N 
ATOM     34  H18 9YS d   1       5.227  41.227   5.185  0.00  0.00     0.162 HD
ATOM     35  O11 9YS d   1       4.335  42.741   7.775  0.00  0.00    -0.268 OA
BRANCH  33  36
ATOM     36  C12 9YS d   1       3.158  41.443   5.622  0.00  0.00    -0.018 C 
ATOM     37  H10 9YS d   1       2.999  40.865   4.700  0.00  0.00     0.056 H 
ATOM     38  H11 9YS d   1       2.678  42.428   5.525  0.00  0.00     0.056 H 
ATOM     39  H12 9YS d   1       2.719  40.903   6.474  0.00  0.00     0.056 H 
ENDBRANCH  33  36
ENDBRANCH   1  32
BRANCH   4  40
ATOM     40  N8  9YS d   1      10.647  42.995   6.900  0.00  0.00    -0.341 N 
ATOM     41  H17 9YS d   1      11.004  43.133   5.944  0.00  0.00     0.167 HD
BRANCH  40  42
ATOM     42  C23 9YS d   1      11.628  43.028   7.905  0.00  0.00     0.035 A 
ATOM     43  C24 9YS d   1      11.441  43.823   9.038  0.00  0.00    -0.038 A 
ATOM     44  C25 9YS d   1      12.425  43.824  10.020  0.00  0.00     0.037 A 
ATOM     45  H9  9YS d   1      10.547  44.426   9.149  0.00  0.00     0.089 H 
ATOM     46  C26 9YS d   1      13.590  43.058   9.900  0.00  0.00     0.074 A 
ATOM     47  S29 9YS d   1      12.451  44.703  11.517  0.00  0.00    -0.080 SA
ATOM     48  C27 9YS d   1      13.764  42.271   8.760  0.00  0.00    -0.052 A 
ATOM     49  N31 9YS d   1      14.473  43.170  10.975  0.00  0.00    -0.253 NA
ATOM     50  C28 9YS d   1      12.788  42.259   7.771  0.00  0.00    -0.055 A 
ATOM     51  H13 9YS d   1      14.659  41.670   8.647  0.00  0.00     0.087 H 
ATOM     52  H22 9YS d   1      12.927  41.647   6.887  0.00  0.00     0.087 H 
ATOM     53  C30 9YS d   1      13.994  43.984  11.859  0.00  0.00     0.041 A 
ATOM     54  H23 9YS d   1      14.535  44.208  12.777  0.00  0.00     0.126 H 
ENDBRANCH  40  42
ENDBRANCH   4  40
TORSDOF 10
