REMARK  9 active torsions:
REMARK  status: ('A' for Active; 'I' for Inactive)
REMARK    1  A    between atoms: C13_1  and  C16_3 
REMARK    2  A    between atoms: N17_24  and  C18_2 
REMARK       I    between atoms: C16_3  and  N17_24 
REMARK    3  A    between atoms: C1_13  and  C8_20 
REMARK    4  A    between atoms: C4_16  and  N9_21 
REMARK    5  A    between atoms: N7_19  and  C6_18 
REMARK    6  A    between atoms: C28_30  and  N7_19 
REMARK       I    between atoms: C8_20  and  N26_28 
REMARK    7  A    between atoms: N9_21  and  C10_22 
REMARK    8  A    between atoms: N22_26  and  C25_27 
REMARK    9  A    between atoms: C28_30  and  C29_31 
ROOT
ATOM      1  C13 9YV d   1      17.562  14.410  11.962  0.00  0.00     0.032 A 
ATOM      2  C15 9YV d   1      17.795  12.604  10.373  0.00  0.00    -0.056 A 
ATOM      3  C11 9YV d   1      16.633  14.609   9.742  0.00  0.00    -0.056 A 
ATOM      4  C12 9YV d   1      16.857  15.134  11.002  0.00  0.00    -0.066 A 
ATOM      5  C10 9YV d   1      17.124  13.349   9.408  0.00  0.00     0.033 A 
ATOM      6  C14 9YV d   1      18.013  13.129  11.637  0.00  0.00    -0.066 A 
ATOM      7  H2  9YV d   1      18.149  11.608  10.135  0.00  0.00     0.086 H 
ATOM      8  H11 9YV d   1      16.073  15.181   9.011  0.00  0.00     0.086 H 
ATOM      9  H12 9YV d   1      16.480  16.120  11.246  0.00  0.00     0.085 H 
ATOM     10  H19 9YV d   1      18.538  12.540  12.380  0.00  0.00     0.085 H 
ENDROOT
BRANCH   5  11
ATOM     11  N9  9YV d   1      17.005  12.938   8.056  0.00  0.00    -0.341 N 
ATOM     12  H18 9YV d   1      16.183  13.328   7.573  0.00  0.00     0.167 HD
BRANCH  11  13
ATOM     13  C4  9YV d   1      17.783  12.113   7.261  0.00  0.00     0.129 A 
ATOM     14  N3  9YV d   1      17.356  11.992   6.004  0.00  0.00    -0.242 NA
ATOM     15  C2  9YV d   1      17.999  11.125   5.208  0.00  0.00     0.022 A 
ATOM     16  C1  9YV d   1      19.078  10.328   5.606  0.00  0.00     0.075 A 
ATOM     17  H15 9YV d   1      17.658  11.035   4.183  0.00  0.00     0.116 H 
ATOM     18  C6  9YV d   1      19.530  10.472   6.940  0.00  0.00     0.049 A 
ATOM     19  C5  9YV d   1      18.872  11.391   7.757  0.00  0.00    -0.012 A 
ATOM     20  H16 9YV d   1      19.205  11.545   8.777  0.00  0.00     0.092 H 
BRANCH  16  21
ATOM     21  C8  9YV d   1      19.570   9.283   4.649  0.00  0.00     0.253 C 
ATOM     22  N26 9YV d   1      19.259   9.421   3.362  0.00  0.00    -0.366 N 
ATOM     23  H25 9YV d   1      19.571   8.743   2.697  0.00  0.00     0.159 HD
ATOM     24  H26 9YV d   1      18.714  10.203   3.061  0.00  0.00     0.159 HD
ATOM     25  O27 9YV d   1      20.164   8.294   5.066  0.00  0.00    -0.268 OA
ENDBRANCH  16  21
BRANCH  18  26
ATOM     26  N7  9YV d   1      20.597   9.721   7.435  0.00  0.00    -0.385 N 
ATOM     27  H17 9YV d   1      21.097   9.082   6.801  0.00  0.00     0.160 HD
BRANCH  26  28
ATOM     28  C28 9YV d   1      21.021   9.818   8.823  0.00  0.00     0.016 C 
ATOM     29  H27 9YV d   1      21.019  10.877   9.122  0.00  0.00     0.071 H 
ATOM     30  H28 9YV d   1      22.040   9.414   8.912  0.00  0.00     0.071 H 
BRANCH  28  31
ATOM     31  C29 9YV d   1      20.108   9.048   9.747  0.00  0.00    -0.041 A 
ATOM     32  C34 9YV d   1      19.781   9.543  11.008  0.00  0.00    -0.075 A 
ATOM     33  C33 9YV d   1      18.928   8.840  11.849  0.00  0.00    -0.082 A 
ATOM     34  H13 9YV d   1      20.198  10.488  11.336  0.00  0.00     0.084 H 
ATOM     35  C32 9YV d   1      18.388   7.631  11.442  0.00  0.00    -0.083 A 
ATOM     36  H14 9YV d   1      18.684   9.239  12.827  0.00  0.00     0.083 H 
ATOM     37  C31 9YV d   1      18.692   7.133  10.185  0.00  0.00    -0.082 A 
ATOM     38  H31 9YV d   1      17.731   7.077  12.103  0.00  0.00     0.083 H 
ATOM     39  C30 9YV d   1      19.547   7.835   9.345  0.00  0.00    -0.075 A 
ATOM     40  H30 9YV d   1      18.262   6.194   9.857  0.00  0.00     0.083 H 
ATOM     41  H29 9YV d   1      19.781   7.436   8.365  0.00  0.00     0.084 H 
ENDBRANCH  28  31
ENDBRANCH  26  28
ENDBRANCH  18  26
ENDBRANCH  11  13
ENDBRANCH   5  11
BRANCH   1  42
ATOM     42  C16 9YV d   1      17.823  15.053  13.289  0.00  0.00     0.252 C 
ATOM     43  N17 9YV d   1      18.963  14.711  13.927  0.00  0.00    -0.352 N 
ATOM     44  H20 9YV d   1      19.589  14.066  13.489  0.00  0.00     0.163 HD
ATOM     45  O19 9YV d   1      17.034  15.877  13.750  0.00  0.00    -0.268 OA
BRANCH  43  46
ATOM     46  C18 9YV d   1      19.312  15.256  15.242  0.00  0.00     0.015 C 
ATOM     47  C20 9YV d   1      20.182  16.515  15.152  0.00  0.00    -0.023 C 
ATOM     48  C21 9YV d   1      21.649  16.155  14.921  0.00  0.00     0.085 C 
ATOM     49  H3  9YV d   1      20.095  17.080  16.092  0.00  0.00     0.038 H 
ATOM     50  H4  9YV d   1      19.829  17.137  14.316  0.00  0.00     0.038 H 
ATOM     51  N22 9YV d   1      22.142  15.252  15.961  0.00  0.00    -0.075 N 
ATOM     52  H5  9YV d   1      22.250  17.076  14.931  0.00  0.00     0.076 H 
ATOM     53  H6  9YV d   1      21.748  15.663  13.942  0.00  0.00     0.076 H 
ATOM     54  C23 9YV d   1      21.398  13.992  15.901  0.00  0.00     0.085 C 
ATOM     55  H21 9YV d   1      21.991  15.678  16.862  0.00  0.00     0.279 HD
ATOM     56  C24 9YV d   1      19.911  14.213  16.192  0.00  0.00    -0.023 C 
ATOM     57  H7  9YV d   1      21.506  13.559  14.896  0.00  0.00     0.076 H 
ATOM     58  H8  9YV d   1      21.810  13.296  16.647  0.00  0.00     0.076 H 
ATOM     59  H9  9YV d   1      19.375  13.261  16.065  0.00  0.00     0.038 H 
ATOM     60  H10 9YV d   1      19.796  14.563  17.229  0.00  0.00     0.038 H 
ATOM     61  H1  9YV d   1      18.362  15.572  15.698  0.00  0.00     0.072 H 
BRANCH  51  62
ATOM     62  C25 9YV d   1      23.586  15.009  15.791  0.00  0.00     0.066 C 
ATOM     63  H22 9YV d   1      24.127  15.966  15.839  0.00  0.00     0.068 H 
ATOM     64  H23 9YV d   1      23.766  14.535  14.815  0.00  0.00     0.068 H 
ATOM     65  H24 9YV d   1      23.943  14.345  16.592  0.00  0.00     0.068 H 
ENDBRANCH  51  62
ENDBRANCH  43  46
ENDBRANCH   1  42
TORSDOF 9
