REMARK  3 active torsions:
REMARK  status: ('A' for Active; 'I' for Inactive)
REMARK    1  A    between atoms: CAL_11  and  CAA_1 
REMARK    2  A    between atoms: NAK_14  and  CAM_12 
REMARK    3  A    between atoms: CAN_13  and  NAK_14 
ROOT
ATOM      1  CAE 9XG d   1       1.493  -0.660   4.647  0.00  0.00    -0.080 A 
ATOM      2  CAF 9XG d   1       2.819  -0.302   4.855  0.00  0.00    -0.077 A 
ATOM      3  CAI 9XG d   1       0.962  -0.644   3.363  0.00  0.00    -0.057 A 
ATOM      4  CAJ 9XG d   1       3.085   0.083   2.493  0.00  0.00    -0.051 A 
ATOM      5  CAL 9XG d   1       3.613   0.077   3.779  0.00  0.00    -0.060 A 
ATOM      6  CAN 9XG d   1       1.760  -0.275   2.285  0.00  0.00     0.033 A 
ATOM      7  H7  9XG d   1       0.872  -0.952   5.487  0.00  0.00     0.083 H 
ATOM      8  H8  9XG d   1       3.234  -0.318   5.856  0.00  0.00     0.084 H 
ATOM      9  H11 9XG d   1      -0.074  -0.919   3.201  0.00  0.00     0.086 H 
ATOM     10  H12 9XG d   1       3.708   0.367   1.653  0.00  0.00     0.087 H 
ENDROOT
BRANCH   6  11
ATOM     11  NAK 9XG d   1       1.261  -0.288   1.053  0.00  0.00    -0.356 N 
ATOM     12  H13 9XG d   1       0.390   0.242   0.906  0.00  0.00     0.166 HD
BRANCH  11  13
ATOM     13  CAM 9XG d   1       1.761  -0.908  -0.010  0.00  0.00     0.032 A 
ATOM     14  CAG 9XG d   1       2.410  -0.189  -1.007  0.00  0.00    -0.057 A 
ATOM     15  CAC 9XG d   1       2.959  -0.855  -2.097  0.00  0.00    -0.081 A 
ATOM     16  H9  9XG d   1       2.488   0.890  -0.935  0.00  0.00     0.086 H 
ATOM     17  CAB 9XG d   1       2.862  -2.239  -2.187  0.00  0.00    -0.083 A 
ATOM     18  H5  9XG d   1       3.463  -0.295  -2.877  0.00  0.00     0.083 H 
ATOM     19  CAD 9XG d   1       2.209  -2.958  -1.192  0.00  0.00    -0.081 A 
ATOM     20  H4  9XG d   1       3.296  -2.758  -3.034  0.00  0.00     0.083 H 
ATOM     21  CAH 9XG d   1       1.660  -2.290  -0.103  0.00  0.00    -0.057 A 
ATOM     22  H6  9XG d   1       2.128  -4.037  -1.265  0.00  0.00     0.083 H 
ATOM     23  H10 9XG d   1       1.152  -2.849   0.675  0.00  0.00     0.086 H 
ENDBRANCH  11  13
ENDBRANCH   6  11
BRANCH   5  24
ATOM     24  CAA 9XG d   1       4.926   0.479   3.980  0.00  0.00    -0.051 C 
ATOM     25  H1  9XG d   1       5.171   0.410   5.050  0.00  0.00     0.033 H 
ATOM     26  H2  9XG d   1       5.047   1.519   3.642  0.00  0.00     0.033 H 
ATOM     27  H3  9XG d   1       5.601  -0.173   3.407  0.00  0.00     0.033 H 
ENDBRANCH   5  24
TORSDOF 3
