REMARK  4 active torsions:
REMARK  status: ('A' for Active; 'I' for Inactive)
REMARK    1  A    between atoms: N16_20  and  C17_5 
REMARK    2  A    between atoms: C19_6  and  C20_7 
REMARK    3  A    between atoms: C05_13  and  C02_10 
REMARK    4  A    between atoms: C07_15  and  C08_16 
ROOT
ATOM      1  N15 9Y1 d   1      41.424  19.380  47.655  0.00  0.00    -0.165 NA
ATOM      2  C05 9Y1 d   1      39.424  19.674  48.648  0.00  0.00     0.147 A 
ATOM      3  C06 9Y1 d   1      40.168  20.802  48.922  0.00  0.00    -0.020 A 
ATOM      4  C07 9Y1 d   1      41.415  20.602  48.282  0.00  0.00     0.090 A 
ATOM      5  N16 9Y1 d   1      40.222  18.834  47.869  0.00  0.00    -0.204 N 
ATOM      6  H4  9Y1 d   1      39.861  21.667  49.508  0.00  0.00     0.090 H 
ENDROOT
BRANCH   4   7
ATOM      7  C08 9Y1 d   1      42.520  21.522  48.321  0.00  0.00    -0.005 A 
ATOM      8  C14 9Y1 d   1      42.342  22.827  48.795  0.00  0.00    -0.068 A 
ATOM      9  C13 9Y1 d   1      43.422  23.700  48.848  0.00  0.00    -0.045 A 
ATOM     10  H2  9Y1 d   1      41.362  23.157  49.121  0.00  0.00     0.085 H 
ATOM     11  C11 9Y1 d   1      44.678  23.271  48.440  0.00  0.00     0.116 A 
ATOM     12  H1  9Y1 d   1      43.284  24.713  49.207  0.00  0.00     0.088 H 
ATOM     13  C10 9Y1 d   1      44.863  21.961  47.976  0.00  0.00    -0.045 A 
ATOM     14  F12 9Y1 d   1      45.705  24.103  48.492  0.00  0.00    -0.206 F 
ATOM     15  C09 9Y1 d   1      43.791  21.089  47.922  0.00  0.00    -0.068 A 
ATOM     16  H6  9Y1 d   1      45.846  21.632  47.660  0.00  0.00     0.088 H 
ATOM     17  H5  9Y1 d   1      43.934  20.073  47.572  0.00  0.00     0.085 H 
ENDBRANCH   4   7
BRANCH   5  18
ATOM     18  C17 9Y1 d   1      39.817  17.566  47.403  0.00  0.00     0.195 A 
ATOM     19  N18 9Y1 d   1      38.619  17.217  47.033  0.00  0.00    -0.215 NA
ATOM     20  C19 9Y1 d   1      38.613  15.860  46.650  0.00  0.00     0.142 A 
ATOM     21  C23 9Y1 d   1      39.809  15.216  46.749  0.00  0.00    -0.007 A 
ATOM     22  S24 9Y1 d   1      41.055  16.266  47.334  0.00  0.00    -0.059 SA
ATOM     23  H3  9Y1 d   1      39.963  14.169  46.492  0.00  0.00     0.099 H 
BRANCH  20  24
ATOM     24  C20 9Y1 d   1      37.334  15.179  46.169  0.00  0.00     0.229 C 
ATOM     25  O21 9Y1 d   1      36.362  15.938  46.062  0.00  0.00    -0.643 OA
ATOM     26  O22 9Y1 d   1      37.418  13.955  45.959  0.00  0.00    -0.643 OA
ENDBRANCH  20  24
ENDBRANCH   5  18
BRANCH   2  27
ATOM     27  C02 9Y1 d   1      38.022  19.396  49.104  0.00  0.00     0.434 C 
ATOM     28  F01 9Y1 d   1      37.086  19.400  48.158  0.00  0.00    -0.165 F 
ATOM     29  F03 9Y1 d   1      37.604  20.266  50.036  0.00  0.00    -0.165 F 
ATOM     30  F04 9Y1 d   1      37.919  18.189  49.690  0.00  0.00    -0.165 F 
ENDBRANCH   2  27
TORSDOF 4
