REMARK  4 active torsions:
REMARK  status: ('A' for Active; 'I' for Inactive)
REMARK    1  A    between atoms: C9_13  and  C5_4 
REMARK    2  A    between atoms: C12_6  and  O14_16 
REMARK    3  A    between atoms: C15_8  and  N11_15 
REMARK    4  A    between atoms: C18_19  and  C20_21 
ROOT
ATOM      1  C12 9YD d   1      40.124  19.680  47.676  0.00  0.00     0.168 A 
ATOM      2  C13 9YD d   1      40.894  20.790  47.947  0.00  0.00    -0.002 A 
ATOM      3  C9  9YD d   1      42.192  20.331  47.926  0.00  0.00     0.092 A 
ATOM      4  N10 9YD d   1      42.228  19.016  47.699  0.00  0.00    -0.163 NA
ATOM      5  N11 9YD d   1      40.936  18.639  47.554  0.00  0.00    -0.186 N 
ATOM      6  H3  9YD d   1      40.551  21.806  48.136  0.00  0.00     0.094 H 
ENDROOT
BRANCH   3   7
ATOM      7  C5  9YD d   1      43.401  21.130  48.140  0.00  0.00    -0.002 A 
ATOM      8  C4  9YD d   1      43.290  22.345  48.801  0.00  0.00    -0.030 A 
ATOM      9  C3  9YD d   1      44.444  23.092  49.035  0.00  0.00     0.155 A 
ATOM     10  H1  9YD d   1      42.323  22.707  49.130  0.00  0.00     0.089 H 
ATOM     11  C2  9YD d   1      45.681  22.665  48.620  0.00  0.00     0.154 A 
ATOM     12  F8  9YD d   1      44.373  24.257  49.672  0.00  0.00    -0.203 F 
ATOM     13  F1  9YD d   1      46.734  23.482  48.874  0.00  0.00    -0.203 F 
ATOM     14  C7  9YD d   1      45.799  21.423  47.965  0.00  0.00    -0.042 A 
ATOM     15  C6  9YD d   1      44.648  20.655  47.722  0.00  0.00    -0.068 A 
ATOM     16  H4  9YD d   1      46.772  21.062  47.651  0.00  0.00     0.088 H 
ATOM     17  H2  9YD d   1      44.726  19.701  47.214  0.00  0.00     0.085 H 
ENDBRANCH   3   7
BRANCH   1  18
ATOM     18  O14 9YD d   1      38.665  19.658  47.630  0.00  0.00    -0.345 OA
ATOM     19  H5  9YD d   1      38.332  20.541  47.744  0.00  0.00     0.219 HD
ENDBRANCH   1  18
BRANCH   5  20
ATOM     20  C15 9YD d   1      40.601  17.368  47.285  0.00  0.00     0.197 A 
ATOM     21  S16 9YD d   1      41.770  16.088  47.218  0.00  0.00    -0.059 SA
ATOM     22  C17 9YD d   1      40.463  14.992  46.827  0.00  0.00    -0.007 A 
ATOM     23  C18 9YD d   1      39.255  15.649  46.770  0.00  0.00     0.142 A 
ATOM     24  H6  9YD d   1      40.590  13.925  46.651  0.00  0.00     0.099 H 
ATOM     25  N19 9YD d   1      39.366  16.981  47.030  0.00  0.00    -0.215 NA
BRANCH  23  26
ATOM     26  C20 9YD d   1      37.950  15.026  46.483  0.00  0.00     0.229 C 
ATOM     27  O21 9YD d   1      36.998  15.801  46.512  0.00  0.00    -0.643 OA
ATOM     28  O22 9YD d   1      37.803  13.780  46.243  0.00  0.00    -0.643 OA
ENDBRANCH  23  26
ENDBRANCH   5  20
TORSDOF 4
