REMARK  8 active torsions:
REMARK  status: ('A' for Active; 'I' for Inactive)
REMARK    1  A    between atoms: C10_1  and  C09_17 
REMARK    2  A    between atoms: C11_2  and  O12_18 
REMARK    3  A    between atoms: C26_6  and  C29_8 
REMARK    4  A    between atoms: S02_10  and  N01_9 
REMARK    5  A    between atoms: C05_13  and  S02_10 
REMARK    6  A    between atoms: C09_17  and  C08_16 
REMARK    7  A    between atoms: C24_27  and  N13_19 
REMARK    8  A    between atoms: C15_21  and  C16_22 
ROOT
ATOM      1  C10 9Y7 d   1      40.321  20.582  48.439  0.00  0.00     0.030 A 
ATOM      2  C11 9Y7 d   1      39.527  19.521  48.067  0.00  0.00     0.175 A 
ATOM      3  N13 9Y7 d   1      40.381  18.514  47.614  0.00  0.00    -0.185 N 
ATOM      4  N14 9Y7 d   1      41.693  18.901  47.737  0.00  0.00    -0.162 NA
ATOM      5  C15 9Y7 d   1      41.678  20.194  48.216  0.00  0.00     0.099 A 
ENDROOT
BRANCH   1   6
ATOM      6  C09 9Y7 d   1      39.826  21.864  48.955  0.00  0.00    -0.011 C 
ATOM      7  H8  9Y7 d   1      40.500  22.177  49.766  0.00  0.00     0.047 H 
ATOM      8  H9  9Y7 d   1      38.819  21.691  49.361  0.00  0.00     0.047 H 
BRANCH   6   9
ATOM      9  C08 9Y7 d   1      39.734  22.971  48.008  0.00  0.00    -0.054 A 
ATOM     10  C07 9Y7 d   1      39.187  22.780  46.752  0.00  0.00    -0.075 A 
ATOM     11  C06 9Y7 d   1      39.099  23.834  45.852  0.00  0.00    -0.060 A 
ATOM     12  H7  9Y7 d   1      38.824  21.799  46.468  0.00  0.00     0.084 H 
ATOM     13  C05 9Y7 d   1      39.559  25.094  46.206  0.00  0.00     0.079 A 
ATOM     14  H6  9Y7 d   1      38.670  23.672  44.870  0.00  0.00     0.085 H 
ATOM     15  C33 9Y7 d   1      40.112  25.278  47.466  0.00  0.00    -0.060 A 
ATOM     16  C32 9Y7 d   1      40.199  24.232  48.356  0.00  0.00    -0.075 A 
ATOM     17  H13 9Y7 d   1      40.480  26.257  47.752  0.00  0.00     0.085 H 
ATOM     18  H12 9Y7 d   1      40.634  24.394  49.336  0.00  0.00     0.084 H 
BRANCH  13  19
ATOM     19  S02 9Y7 d   1      39.458  26.380  45.117  0.00  0.00     0.256 S 
ATOM     20  O03 9Y7 d   1      39.909  25.953  43.822  0.00  0.00    -0.201 OA
ATOM     21  O04 9Y7 d   1      40.169  27.496  45.715  0.00  0.00    -0.201 OA
BRANCH  19  22
ATOM     22  N01 9Y7 d   1      37.907  26.827  44.934  0.00  0.00    -0.324 N 
ATOM     23  H4  9Y7 d   1      37.247  26.191  44.535  0.00  0.00     0.169 HD
ATOM     24  H5  9Y7 d   1      37.612  27.738  45.221  0.00  0.00     0.169 HD
ENDBRANCH  19  22
ENDBRANCH  13  19
ENDBRANCH   6   9
ENDBRANCH   1   6
BRANCH   2  25
ATOM     25  O12 9Y7 d   1      38.186  19.493  48.120  0.00  0.00    -0.344 OA
ATOM     26  H10 9Y7 d   1      37.907  18.778  48.680  0.00  0.00     0.219 HD
ENDBRANCH   2  25
BRANCH   5  27
ATOM     27  C16 9Y7 d   1      42.926  20.948  48.478  0.00  0.00    -0.002 A 
ATOM     28  C22 9Y7 d   1      43.114  22.265  48.042  0.00  0.00    -0.030 A 
ATOM     29  C21 9Y7 d   1      44.348  22.939  48.354  0.00  0.00     0.155 A 
ATOM     30  H2  9Y7 d   1      42.340  22.771  47.476  0.00  0.00     0.089 H 
ATOM     31  C19 9Y7 d   1      45.359  22.270  49.107  0.00  0.00     0.154 A 
ATOM     32  F23 9Y7 d   1      44.567  24.143  47.965  0.00  0.00    -0.203 F 
ATOM     33  C18 9Y7 d   1      45.132  20.958  49.536  0.00  0.00    -0.042 A 
ATOM     34  F20 9Y7 d   1      46.455  22.889  49.376  0.00  0.00    -0.203 F 
ATOM     35  C17 9Y7 d   1      43.938  20.320  49.228  0.00  0.00    -0.068 A 
ATOM     36  H1  9Y7 d   1      45.890  20.438  50.110  0.00  0.00     0.088 H 
ATOM     37  H11 9Y7 d   1      43.780  19.306  49.576  0.00  0.00     0.085 H 
ENDBRANCH   5  27
BRANCH   3  38
ATOM     38  C24 9Y7 d   1      39.954  17.296  47.243  0.00  0.00     0.197 A 
ATOM     39  N25 9Y7 d   1      38.775  16.907  46.917  0.00  0.00    -0.215 NA
ATOM     40  C26 9Y7 d   1      38.699  15.503  46.665  0.00  0.00     0.142 A 
ATOM     41  C27 9Y7 d   1      39.879  14.846  46.858  0.00  0.00    -0.007 A 
ATOM     42  S28 9Y7 d   1      41.153  15.988  47.371  0.00  0.00    -0.059 SA
ATOM     43  H3  9Y7 d   1      40.024  13.776  46.719  0.00  0.00     0.099 H 
BRANCH  40  44
ATOM     44  C29 9Y7 d   1      37.408  14.857  46.275  0.00  0.00     0.229 C 
ATOM     45  O30 9Y7 d   1      37.493  13.644  46.065  0.00  0.00    -0.643 OA
ATOM     46  O31 9Y7 d   1      36.406  15.614  46.270  0.00  0.00    -0.643 OA
ENDBRANCH  40  44
ENDBRANCH   3  38
TORSDOF 8
