REMARK  12 active torsions:
REMARK  status: ('A' for Active; 'I' for Inactive)
REMARK    1  A    between atoms: PBA_2  and  CAL_5 
REMARK    2  A    between atoms: CAL_5  and  CAK_6 
REMARK    3  A    between atoms: CAK_6  and  OAS_7 
REMARK    4  A    between atoms: OAS_7  and  CAM_8 
REMARK    5  A    between atoms: CAM_8  and  CAY_9 
REMARK    6  A    between atoms: CAY_9  and  CAN_10 
REMARK    7  A    between atoms: CAY_9  and  CAP_17 
REMARK    8  A    between atoms: CAN_10  and  OAT_11 
REMARK    9  A    between atoms: OAT_11  and  CAO_12 
REMARK   10  A    between atoms: CAO_12  and  PBB_13 
REMARK   11  A    between atoms: CAP_17  and  NAZ_18 
REMARK   12  A    between atoms: CAU_21  and  NAA_22 
ROOT
ATOM      1  CAY 9YP d   1      -0.900  29.859  77.022  0.00  0.00     0.003 C 
ATOM      2  H7  9YP d   1      -1.108  28.787  77.158  0.00  0.00     0.049 H 
ENDROOT
BRANCH   1   3
ATOM      3  CAM 9YP d   1      -0.229  30.366  78.250  0.00  0.00     0.026 C 
ATOM      4  H5  9YP d   1       0.062  29.492  78.851  0.00  0.00     0.075 H 
ATOM      5  H6  9YP d   1       0.673  30.909  77.931  0.00  0.00     0.075 H 
BRANCH   3   6
ATOM      6  OAS 9YP d   1      -0.947  31.206  79.068  0.00  0.00    -0.390 OA
BRANCH   6   7
ATOM      7  CAK 9YP d   1      -0.457  31.484  80.323  0.00  0.00     0.031 C 
ATOM      8  H3  9YP d   1       0.606  31.203  80.338  0.00  0.00     0.075 H 
ATOM      9  H4  9YP d   1      -0.552  32.567  80.488  0.00  0.00     0.075 H 
BRANCH   7  10
ATOM     10  CAL 9YP d   1      -1.125  30.792  81.459  0.00  0.00     0.059 C 
ATOM     11  H1  9YP d   1      -1.092  31.470  82.324  0.00  0.00     0.057 H 
ATOM     12  H2  9YP d   1      -2.172  30.617  81.170  0.00  0.00     0.057 H 
BRANCH  10  13
ATOM     13  PBA 9YP d   1      -0.429  29.192  81.990  0.00  0.00     0.261 P 
ATOM     14  OAE 9YP d   1      -1.448  28.053  81.689  0.00  0.00    -0.640 OA
ATOM     15  OAF 9YP d   1       0.903  28.915  81.229  0.00  0.00    -0.640 OA
ATOM     16  OAC 9YP d   1      -0.160  29.250  83.461  0.00  0.00    -0.640 OA
ENDBRANCH  10  13
ENDBRANCH   7  10
ENDBRANCH   6   7
ENDBRANCH   3   6
ENDBRANCH   1   3
BRANCH   1  17
ATOM     17  CAN 9YP d   1       0.007  30.025  75.851  0.00  0.00     0.027 C 
ATOM     18  H8  9YP d   1      -0.629  30.242  74.980  0.00  0.00     0.075 H 
ATOM     19  H9  9YP d   1       0.518  29.063  75.701  0.00  0.00     0.075 H 
BRANCH  17  20
ATOM     20  OAT 9YP d   1       0.984  30.999  75.891  0.00  0.00    -0.377 OA
BRANCH  20  21
ATOM     21  CAO 9YP d   1       1.837  31.096  74.812  0.00  0.00     0.122 C 
ATOM     22  H10 9YP d   1       1.299  30.685  73.945  0.00  0.00     0.095 H 
ATOM     23  H11 9YP d   1       2.707  30.462  75.038  0.00  0.00     0.095 H 
BRANCH  21  24
ATOM     24  PBB 9YP d   1       2.493  32.724  74.299  0.00  0.00     0.283 P 
ATOM     25  OAG 9YP d   1       3.176  33.444  75.496  0.00  0.00    -0.638 OA
ATOM     26  OAH 9YP d   1       3.531  32.501  73.163  0.00  0.00    -0.638 OA
ATOM     27  OAD 9YP d   1       1.386  33.590  73.789  0.00  0.00    -0.638 OA
ENDBRANCH  21  24
ENDBRANCH  20  21
ENDBRANCH  17  20
ENDBRANCH   1  17
BRANCH   1  28
ATOM     28  CAP 9YP d   1      -2.198  30.560  76.769  0.00  0.00     0.009 C 
ATOM     29  H12 9YP d   1      -1.980  31.622  76.581  0.00  0.00     0.065 H 
ATOM     30  H13 9YP d   1      -2.816  30.467  77.674  0.00  0.00     0.065 H 
BRANCH  28  31
ATOM     31  NAZ 9YP d   1      -2.959  30.062  75.661  0.00  0.00    -0.323 N 
ATOM     32  CAW 9YP d   1      -3.812  28.973  75.700  0.00  0.00     0.183 A 
ATOM     33  CAJ 9YP d   1      -4.199  28.104  76.696  0.00  0.00    -0.044 NA
ATOM     34  CAX 9YP d   1      -4.331  28.819  74.430  0.00  0.00     0.159 A 
ATOM     35  CAU 9YP d   1      -5.071  27.120  76.444  0.00  0.00     0.702 A 
ATOM     36  NAR 9YP d   1      -5.587  26.953  75.211  0.00  0.00    -0.164 N 
ATOM     37  CAV 9YP d   1      -5.257  27.761  74.182  0.00  0.00     0.226 A 
ATOM     38  H16 9YP d   1      -6.234  26.207  75.053  0.00  0.00     0.186 HD
ATOM     39  OAB 9YP d   1      -5.802  27.563  72.935  0.00  0.00    -0.169 OA
ATOM     40  NAQ 9YP d   1      -3.771  29.819  73.653  0.00  0.00    -0.235 NA
ATOM     41  CAI 9YP d   1      -2.941  30.558  74.412  0.00  0.00     0.068 A 
ATOM     42  H17 9YP d   1      -2.356  31.411  74.073  0.00  0.00     0.143 H 
BRANCH  35  43
ATOM     43  NAA 9YP d   1      -5.456  26.233  77.496  0.00  0.00    -0.233 N 
ATOM     44  H14 9YP d   1      -5.065  26.355  78.441  0.00  0.00     0.174 HD
ATOM     45  H15 9YP d   1      -6.124  25.472  77.309  0.00  0.00     0.174 HD
ENDBRANCH  35  43
ENDBRANCH  28  31
ENDBRANCH   1  28
TORSDOF 12
