REMARK  8 active torsions:
REMARK  status: ('A' for Active; 'I' for Inactive)
REMARK    1  A    between atoms: S1_35  and  C10_2 
REMARK    2  A    between atoms: C16_8  and  O5_33 
REMARK    3  A    between atoms: C3_17  and  C2_12 
REMARK       I    between atoms: N1_24  and  C3_17 
REMARK    4  A    between atoms: C5_19  and  C4_18 
REMARK    5  A    between atoms: C7_21  and  C6_20 
REMARK       I    between atoms: N3_26  and  C7_21 
REMARK    6  A    between atoms: C9_23  and  C8_22 
REMARK    7  A    between atoms: C8_22  and  N3_26 
REMARK    8  A    between atoms: C9_23  and  S1_35 
ROOT
ATOM      1  C16 KU0 d   1     131.338 105.926 419.967  0.00  0.00     0.169 A 
ATOM      2  C17 KU0 d   1     130.044 105.738 420.464  0.00  0.00     0.282 A 
ATOM      3  C5  KU0 d   1     129.887 103.830 419.030  0.00  0.00     0.131 A 
ATOM      4  C6  KU0 d   1     131.837 105.070 419.025  0.00  0.00     0.165 A 
ATOM      5  N2  KU0 d   1     131.118 104.042 418.557  0.00  0.00    -0.225 NA
ATOM      6  N4  KU0 d   1     129.337 104.664 419.966  0.00  0.00    -0.307 N 
ATOM      7  O6  KU0 d   1     129.513 106.465 421.318  0.00  0.00    -0.265 OA
ATOM      8  H20 KU0 d   1     128.408 104.492 420.294  0.00  0.00     0.170 HD
ENDROOT
BRANCH   3   9
ATOM      9  C4  KU0 d   1     129.113 102.664 418.456  0.00  0.00     0.072 C 
ATOM     10  C18 KU0 d   1     129.479 101.280 419.019  0.00  0.00    -0.038 C 
ATOM     11  C19 KU0 d   1     130.587 100.823 418.080  0.00  0.00    -0.048 C 
ATOM     12  H6  KU0 d   1     129.842 101.356 420.055  0.00  0.00     0.036 H 
ATOM     13  H7  KU0 d   1     128.619 100.596 418.981  0.00  0.00     0.036 H 
ATOM     14  C20 KU0 d   1     130.019 101.188 416.729  0.00  0.00    -0.001 C 
ATOM     15  H8  KU0 d   1     130.760  99.740 418.162  0.00  0.00     0.035 H 
ATOM     16  H9  KU0 d   1     131.526 101.360 418.278  0.00  0.00     0.035 H 
ATOM     17  N1  KU0 d   1     129.358 102.474 417.004  0.00  0.00    -0.336 N 
ATOM     18  H10 KU0 d   1     129.296 100.434 416.384  0.00  0.00     0.064 H 
ATOM     19  H11 KU0 d   1     130.816 101.302 415.979  0.00  0.00     0.064 H 
ATOM     20  C3  KU0 d   1     129.038 103.350 416.042  0.00  0.00     0.258 C 
ATOM     21  O1  KU0 d   1     129.227 103.090 414.855  0.00  0.00    -0.267 OA
ATOM     22  H14 KU0 d   1     128.046 102.860 418.635  0.00  0.00     0.085 H 
BRANCH  20  23
ATOM     23  C2  KU0 d   1     128.521 104.694 416.460  0.00  0.00     0.078 A 
ATOM     24  C1  KU0 d   1     127.248 104.885 417.000  0.00  0.00     0.069 A 
ATOM     25  C23 KU0 d   1     126.847 106.157 417.383  0.00  0.00     0.024 A 
ATOM     26 CL1  KU0 d   1     126.161 103.561 417.196  0.00  0.00    -0.082 Cl
ATOM     27  N5  KU0 d   1     127.637 107.220 417.261  0.00  0.00    -0.270 NA
ATOM     28  H13 KU0 d   1     125.854 106.289 417.797  0.00  0.00     0.117 H 
ATOM     29  C22 KU0 d   1     128.856 107.057 416.755  0.00  0.00     0.024 A 
ATOM     30  C21 KU0 d   1     129.339 105.820 416.350  0.00  0.00     0.069 A 
ATOM     31  H12 KU0 d   1     129.498 107.925 416.655  0.00  0.00     0.117 H 
ATOM     32 CL2  KU0 d   1     130.930 105.693 415.695  0.00  0.00    -0.082 Cl
ENDBRANCH  20  23
ENDBRANCH   3   9
BRANCH   4  33
ATOM     33  C7  KU0 d   1     133.225 105.216 418.450  0.00  0.00     0.273 C 
ATOM     34  N3  KU0 d   1     133.640 104.187 417.720  0.00  0.00    -0.355 N 
ATOM     35  H19 KU0 d   1     132.991 103.455 417.511  0.00  0.00     0.162 HD
ATOM     36  O2  KU0 d   1     133.915 106.206 418.670  0.00  0.00    -0.266 OA
BRANCH  34  37
ATOM     37  C8  KU0 d   1     134.999 104.080 417.212  0.00  0.00     0.008 C 
ATOM     38  H15 KU0 d   1     135.052 103.211 416.539  0.00  0.00     0.065 H 
ATOM     39  H16 KU0 d   1     135.233 104.995 416.648  0.00  0.00     0.065 H 
BRANCH  37  40
ATOM     40  C9  KU0 d   1     136.039 103.908 418.302  0.00  0.00     0.048 C 
ATOM     41  H17 KU0 d   1     135.878 104.683 419.066  0.00  0.00     0.059 H 
ATOM     42  H18 KU0 d   1     137.037 104.033 417.857  0.00  0.00     0.059 H 
BRANCH  40  43
ATOM     43  S1  KU0 d   1     135.962 102.316 419.085  0.00  0.00     0.177 S 
ATOM     44  O3  KU0 d   1     135.689 101.338 418.072  0.00  0.00    -0.223 OA
ATOM     45  O4  KU0 d   1     137.144 102.148 419.885  0.00  0.00    -0.223 OA
BRANCH  43  46
ATOM     46  C10 KU0 d   1     134.579 102.393 420.183  0.00  0.00     0.059 A 
ATOM     47  C11 KU0 d   1     133.641 101.375 420.184  0.00  0.00    -0.062 A 
ATOM     48  C12 KU0 d   1     132.566 101.441 421.054  0.00  0.00    -0.082 A 
ATOM     49  H1  KU0 d   1     133.747 100.533 419.509  0.00  0.00     0.085 H 
ATOM     50  C13 KU0 d   1     132.437 102.503 421.922  0.00  0.00    -0.083 A 
ATOM     51  H2  KU0 d   1     131.822 100.653 421.052  0.00  0.00     0.083 H 
ATOM     52  C14 KU0 d   1     133.376 103.508 421.925  0.00  0.00    -0.082 A 
ATOM     53  H3  KU0 d   1     131.595 102.547 422.603  0.00  0.00     0.083 H 
ATOM     54  C15 KU0 d   1     134.455 103.458 421.058  0.00  0.00    -0.062 A 
ATOM     55  H4  KU0 d   1     133.271 104.343 422.609  0.00  0.00     0.083 H 
ATOM     56  H5  KU0 d   1     135.197 104.248 421.065  0.00  0.00     0.085 H 
ENDBRANCH  43  46
ENDBRANCH  40  43
ENDBRANCH  37  40
ENDBRANCH  34  37
ENDBRANCH   4  33
BRANCH   1  57
ATOM     57  O5  KU0 d   1     132.018 106.970 420.462  0.00  0.00    -0.354 OA
ATOM     58  H21 KU0 d   1     132.812 106.659 420.880  0.00  0.00     0.218 HD
ENDBRANCH   1  57
TORSDOF 8
