REMARK  19 active torsions:
REMARK  status: ('A' for Active; 'I' for Inactive)
REMARK    1  A    between atoms: N_1  and  CA_2 
REMARK    2  A    between atoms: CA_2  and  C_3 
REMARK    3  A    between atoms: CA_2  and  CB_5 
REMARK       I    between atoms: C_3  and  N_12 
REMARK    4  A    between atoms: CB_5  and  CG_6 
REMARK    5  A    between atoms: N_12  and  CA_13 
REMARK    6  A    between atoms: CA_13  and  CB_14 
REMARK    7  A    between atoms: CA_13  and  C_21 
REMARK    8  A    between atoms: CB_14  and  CG2_15 
REMARK    9  A    between atoms: CB_14  and  OG1_16 
REMARK   10  A    between atoms: OG1_16  and  P_17 
REMARK       I    between atoms: C_21  and  N_23 
REMARK   11  A    between atoms: N_23  and  CA_24 
REMARK   12  A    between atoms: CA_24  and  CB_25 
REMARK   13  A    between atoms: CA_24  and  C_27 
REMARK   14  A    between atoms: CB_25  and  OG_26 
REMARK   15  A    between atoms: OG_26  and  P_29 
REMARK       I    between atoms: C_27  and  N_33 
REMARK   16  A    between atoms: N_33  and  CA_34 
REMARK   17  A    between atoms: CA_34  and  C_35 
REMARK   18  A    between atoms: CA_34  and  CB_37 
REMARK   19  A    between atoms: CB_37  and  CG_38 
ROOT
ATOM      1  CA  TPO d   1      -8.406 -81.559 -32.240  0.00  0.00     0.114 C 
ATOM      2  H13 TPO d   1      -8.140 -81.597 -31.173  0.00  0.00     0.091 H 
ENDROOT
BRANCH   1   3
ATOM      3  N   TPO d   1      -9.777 -81.006 -32.252  0.00  0.00    -0.344 N 
ATOM      4  C   PHE d   1     -10.406 -80.506 -33.323  0.00  0.00     0.249 C 
ATOM      5  O   PHE d   1      -9.893 -80.427 -34.443  0.00  0.00    -0.271 OA
ATOM      6  H12 TPO d   1     -10.277 -81.005 -31.386  0.00  0.00     0.163 HD
BRANCH   4   7
ATOM      7  CA  PHE d   1     -11.855 -80.046 -33.098  0.00  0.00     0.179 C 
ATOM      8  H4  PHE d   1     -11.849 -79.230 -32.360  0.00  0.00     0.099 H 
BRANCH   7   9
ATOM      9  N   PHE d   1     -12.438 -79.540 -34.338  0.00  0.00    -0.066 N 
ATOM     10  H1  PHE d   1     -13.386 -79.245 -34.167  0.00  0.00     0.275 HD
ATOM     11  H2  PHE d   1     -12.433 -80.269 -35.034  0.00  0.00     0.275 HD
ATOM     12  H3  PHE d   1     -11.896 -78.757 -34.669  0.00  0.00     0.275 HD
ENDBRANCH   7   9
BRANCH   7  13
ATOM     13  CB  PHE d   1     -12.700 -81.201 -32.539  0.00  0.00    -0.006 C 
ATOM     14  H5  PHE d   1     -12.184 -82.147 -32.761  0.00  0.00     0.043 H 
ATOM     15  H6  PHE d   1     -13.678 -81.190 -33.042  0.00  0.00     0.043 H 
BRANCH  13  16
ATOM     16  CG  PHE d   1     -12.931 -81.124 -31.051  0.00  0.00    -0.056 A 
ATOM     17  CD1 PHE d   1     -11.861 -81.009 -30.165  0.00  0.00    -0.077 A 
ATOM     18  CE1 PHE d   1     -12.069 -80.929 -28.808  0.00  0.00    -0.082 A 
ATOM     19  H7  PHE d   1     -10.849 -80.982 -30.552  0.00  0.00     0.084 H 
ATOM     20  CZ  PHE d   1     -13.361 -80.965 -28.313  0.00  0.00    -0.083 A 
ATOM     21  H9  PHE d   1     -11.227 -80.838 -28.131  0.00  0.00     0.083 H 
ATOM     22  CE2 PHE d   1     -14.443 -81.083 -29.181  0.00  0.00    -0.082 A 
ATOM     23  H11 PHE d   1     -13.531 -80.901 -27.244  0.00  0.00     0.083 H 
ATOM     24  CD2 PHE d   1     -14.223 -81.161 -30.541  0.00  0.00    -0.077 A 
ATOM     25  H10 PHE d   1     -15.454 -81.114 -28.790  0.00  0.00     0.083 H 
ATOM     26  H8  PHE d   1     -15.065 -81.252 -31.217  0.00  0.00     0.084 H 
ENDBRANCH  13  16
ENDBRANCH   7  13
ENDBRANCH   4   7
ENDBRANCH   1   3
BRANCH   1  27
ATOM     27  CB  TPO d   1      -8.383 -83.082 -32.734  0.00  0.00     0.076 C 
ATOM     28  H14 TPO d   1      -8.161 -83.675 -31.835  0.00  0.00     0.087 H 
BRANCH  27  29
ATOM     29  CG2 TPO d   1      -9.741 -83.604 -33.258  0.00  0.00    -0.049 C 
ATOM     30  H15 TPO d   1      -9.634 -84.652 -33.574  0.00  0.00     0.031 H 
ATOM     31  H16 TPO d   1     -10.062 -82.994 -34.115  0.00  0.00     0.031 H 
ATOM     32  H17 TPO d   1     -10.493 -83.538 -32.458  0.00  0.00     0.031 H 
ENDBRANCH  27  29
BRANCH  27  33
ATOM     33  OG1 TPO d   1      -7.324 -83.371 -33.672  0.00  0.00    -0.275 OA
BRANCH  33  34
ATOM     34  P   TPO d   1      -6.825 -84.885 -33.389  0.00  0.00     0.422 P 
ATOM     35  O1P TPO d   1      -7.306 -85.856 -34.595  0.00  0.00    -0.617 OA
ATOM     36  O2P TPO d   1      -7.498 -85.327 -32.138  0.00  0.00    -0.617 OA
ATOM     37  O3P TPO d   1      -5.212 -84.924 -33.248  0.00  0.00    -0.617 OA
ENDBRANCH  33  34
ENDBRANCH  27  33
ENDBRANCH   1  27
BRANCH   1  38
ATOM     38  C   TPO d   1      -7.272 -80.708 -32.879  0.00  0.00     0.243 C 
ATOM     39  O   TPO d   1      -6.976 -80.825 -34.072  0.00  0.00    -0.271 OA
ATOM     40  N   SEP d   1      -6.635 -79.856 -32.077  0.00  0.00    -0.344 N 
ATOM     41  H18 SEP d   1      -6.856 -79.836 -31.102  0.00  0.00     0.163 HD
BRANCH  40  42
ATOM     42  CA  SEP d   1      -5.614 -78.947 -32.608  0.00  0.00     0.110 C 
ATOM     43  H19 SEP d   1      -5.887 -78.737 -33.653  0.00  0.00     0.090 H 
BRANCH  42  44
ATOM     44  CB  SEP d   1      -5.623 -77.595 -31.859  0.00  0.00     0.059 C 
ATOM     45  H20 SEP d   1      -5.793 -77.785 -30.789  0.00  0.00     0.079 H 
ATOM     46  H21 SEP d   1      -6.442 -76.977 -32.256  0.00  0.00     0.079 H 
BRANCH  44  47
ATOM     47  OG  SEP d   1      -4.394 -76.880 -32.009  0.00  0.00    -0.280 OA
BRANCH  47  48
ATOM     48  P   SEP d   1      -4.506 -75.495 -32.857  0.00  0.00     0.422 P 
ATOM     49  O1P SEP d   1      -5.564 -75.705 -34.065  0.00  0.00    -0.617 OA
ATOM     50  O2P SEP d   1      -3.041 -75.132 -33.449  0.00  0.00    -0.617 OA
ATOM     51  O3P SEP d   1      -4.985 -74.256 -31.928  0.00  0.00    -0.617 OA
ENDBRANCH  47  48
ENDBRANCH  44  47
ENDBRANCH  42  44
BRANCH  42  52
ATOM     52  C   SEP d   1      -4.215 -79.581 -32.638  0.00  0.00     0.243 C 
ATOM     53  O   SEP d   1      -4.082 -80.809 -32.573  0.00  0.00    -0.271 OA
ATOM     54  N   ASP d   1      -3.190 -78.732 -32.755  0.00  0.00    -0.344 N 
ATOM     55  H22 ASP d   1      -3.389 -77.753 -32.801  0.00  0.00     0.163 HD
BRANCH  54  56
ATOM     56  CA  ASP d   1      -1.789 -79.159 -32.820  0.00  0.00     0.105 C 
ATOM     57  H23 ASP d   1      -1.579 -79.783 -31.939  0.00  0.00     0.090 H 
BRANCH  56  58
ATOM     58  C   ASP d   1      -0.837 -77.955 -32.796  0.00  0.00     0.197 C 
ATOM     59  O   ASP d   1      -0.654 -77.303 -31.763  0.00  0.00    -0.646 OA
ATOM     60  OXT ASP d   1      -0.225 -77.601 -33.809  0.00  0.00    -0.646 OA
ENDBRANCH  56  58
BRANCH  56  61
ATOM     61  CB  ASP d   1      -1.544 -79.997 -34.078  0.00  0.00     0.044 C 
ATOM     62  H24 ASP d   1      -1.261 -79.324 -34.901  0.00  0.00     0.053 H 
ATOM     63  H25 ASP d   1      -2.474 -80.523 -34.338  0.00  0.00     0.053 H 
BRANCH  61  64
ATOM     64  CG  ASP d   1      -0.451 -81.015 -33.890  0.00  0.00     0.175 C 
ATOM     65  OD1 ASP d   1       0.584 -80.666 -33.278  0.00  0.00    -0.648 OA
ATOM     66  OD2 ASP d   1      -0.640 -82.166 -34.341  0.00  0.00    -0.648 OA
ENDBRANCH  61  64
ENDBRANCH  56  61
ENDBRANCH  54  56
ENDBRANCH  42  52
ENDBRANCH  40  42
ENDBRANCH   1  38
TORSDOF 19
