REMARK  8 active torsions:
REMARK  status: ('A' for Active; 'I' for Inactive)
REMARK    1  A    between atoms: C13_2  and  C10_1 
REMARK    2  A    between atoms: C15_3  and  C27_27 
REMARK    3  A    between atoms: C21_5  and  C24_7 
REMARK    4  A    between atoms: C02_9  and  N01_8 
REMARK    5  A    between atoms: C03_10  and  C02_9 
REMARK    6  A    between atoms: C08_15  and  C05_12 
REMARK    7  A    between atoms: C19_22  and  C18_21 
REMARK    8  A    between atoms: C29_29  and  C32_32 
ROOT
ATOM      1  C13 A1V d   1      20.647  -1.486   2.001  0.00  0.00     0.100 A 
ATOM      2  C15 A1V d   1      19.935  -2.097  -0.156  0.00  0.00     0.093 A 
ATOM      3  C17 A1V d   1      18.607  -0.590   1.069  0.00  0.00    -0.066 A 
ATOM      4  N14 A1V d   1      20.824  -2.164   0.860  0.00  0.00    -0.243 NA
ATOM      5  C16 A1V d   1      18.776  -1.342  -0.080  0.00  0.00    -0.051 A 
ATOM      6  C18 A1V d   1      19.525  -0.664   2.209  0.00  0.00     0.031 A 
ATOM      7  H1  A1V d   1      17.759   0.083   1.129  0.00  0.00     0.085 H 
ATOM      8  H10 A1V d   1      18.041  -1.341  -0.877  0.00  0.00     0.087 H 
ENDROOT
BRANCH   1   9
ATOM      9  C10 A1V d   1      21.686  -1.772   2.978  0.00  0.00     0.094 A 
ATOM     10  N09 A1V d   1      21.685  -1.312   4.259  0.00  0.00    -0.236 NA
ATOM     11  C08 A1V d   1      22.815  -1.767   4.924  0.00  0.00     0.127 A 
ATOM     12  S12 A1V d   1      23.807  -2.787   4.033  0.00  0.00    -0.077 SA
ATOM     13  C11 A1V d   1      22.735  -2.584   2.664  0.00  0.00    -0.013 A 
ATOM     14  H9  A1V d   1      22.886  -3.046   1.689  0.00  0.00     0.098 H 
BRANCH  11  15
ATOM     15  C05 A1V d   1      23.169  -1.390   6.221  0.00  0.00     0.100 A 
ATOM     16  N04 A1V d   1      24.322  -1.802   6.944  0.00  0.00    -0.241 NA
ATOM     17  C03 A1V d   1      24.377  -1.249   8.158  0.00  0.00     0.101 A 
ATOM     18  S07 A1V d   1      23.131  -0.183   8.459  0.00  0.00    -0.083 SA
ATOM     19  C06 A1V d   1      22.443  -0.477   6.905  0.00  0.00    -0.013 A 
ATOM     20  H8  A1V d   1      21.545   0.008   6.526  0.00  0.00     0.098 H 
BRANCH  17  21
ATOM     21  C02 A1V d   1      25.410  -1.490   9.331  0.00  0.00     0.125 C 
ATOM     22  H6  A1V d   1      25.057  -0.922  10.205  0.00  0.00     0.085 H 
ATOM     23  H7  A1V d   1      25.401  -2.565   9.564  0.00  0.00     0.085 H 
BRANCH  21  24
ATOM     24  N01 A1V d   1      26.739  -1.121   9.099  0.00  0.00    -0.073 N 
ATOM     25  H3  A1V d   1      27.292  -1.324   9.917  0.00  0.00     0.274 HD
ATOM     26  H4  A1V d   1      26.784  -0.134   8.900  0.00  0.00     0.274 HD
ATOM     27  H5  A1V d   1      27.099  -1.639   8.313  0.00  0.00     0.274 HD
ENDBRANCH  21  24
ENDBRANCH  17  21
ENDBRANCH  11  15
ENDBRANCH   1   9
BRANCH   6  28
ATOM     28  C19 A1V d   1      19.246   0.199   3.390  0.00  0.00     0.111 A 
ATOM     29  N20 A1V d   1      18.219   0.204   4.129  0.00  0.00    -0.233 NA
ATOM     30  C21 A1V d   1      18.276   1.240   5.078  0.00  0.00     0.141 A 
ATOM     31  C22 A1V d   1      19.333   2.024   5.064  0.00  0.00    -0.008 A 
ATOM     32  S23 A1V d   1      20.364   1.485   3.772  0.00  0.00    -0.079 SA
ATOM     33  H2  A1V d   1      19.526   2.857   5.738  0.00  0.00     0.099 H 
BRANCH  30  34
ATOM     34  C24 A1V d   1      17.078   1.446   6.108  0.00  0.00     0.229 C 
ATOM     35  O25 A1V d   1      17.133   2.415   6.834  0.00  0.00    -0.643 OA
ATOM     36  O26 A1V d   1      16.188   0.640   6.021  0.00  0.00    -0.643 OA
ENDBRANCH  30  34
ENDBRANCH   6  28
BRANCH   2  37
ATOM     37  C27 A1V d   1      20.245  -2.819  -1.311  0.00  0.00     0.127 A 
ATOM     38  N28 A1V d   1      19.539  -3.062  -2.414  0.00  0.00    -0.232 NA
ATOM     39  C29 A1V d   1      20.212  -3.915  -3.291  0.00  0.00     0.141 A 
ATOM     40  C30 A1V d   1      21.435  -4.279  -2.880  0.00  0.00    -0.008 A 
ATOM     41  S31 A1V d   1      21.897  -3.572  -1.378  0.00  0.00    -0.077 SA
ATOM     42  H11 A1V d   1      22.076  -4.957  -3.442  0.00  0.00     0.099 H 
BRANCH  39  43
ATOM     43  C32 A1V d   1      19.581  -4.349  -4.576  0.00  0.00     0.229 C 
ATOM     44  O33 A1V d   1      20.283  -4.981  -5.431  0.00  0.00    -0.643 OA
ATOM     45  O34 A1V d   1      18.405  -4.024  -4.789  0.00  0.00    -0.643 OA
ENDBRANCH  39  43
ENDBRANCH   2  37
TORSDOF 8
