REMARK  10 active torsions:
REMARK  status: ('A' for Active; 'I' for Inactive)
REMARK    1  A    between atoms: C10_1  and  C11_13 
REMARK       I    between atoms: N4_29  and  C10_1 
REMARK    2  A    between atoms: C12_14  and  C13_2 
REMARK    3  A    between atoms: C13_2  and  O5_34 
REMARK    4  A    between atoms: S1_35  and  C17_4 
REMARK    5  A    between atoms: C8_24  and  C1_12 
REMARK    6  A    between atoms: C11_13  and  S1_35 
REMARK    7  A    between atoms: N3_28  and  C12_14 
REMARK    8  A    between atoms: C2_17  and  C5_21 
REMARK    9  A    between atoms: O5_34  and  C23_18 
REMARK   10  A    between atoms: C3_19  and  O1_30 
REMARK       I    between atoms: C5_21  and  N3_28 
ROOT
ATOM      1  C1  KU2 d   1     -58.236 174.295 288.078  0.00  0.00     0.131 A 
ATOM      2  C2  KU2 d   1     -59.513 176.212 287.667  0.00  0.00     0.165 A 
ATOM      3  C3  KU2 d   1     -60.504 175.784 288.498  0.00  0.00     0.169 A 
ATOM      4  C4  KU2 d   1     -60.341 174.527 289.166  0.00  0.00     0.282 A 
ATOM      5  N1  KU2 d   1     -58.412 175.473 287.471  0.00  0.00    -0.225 NA
ATOM      6  N2  KU2 d   1     -59.187 173.807 288.926  0.00  0.00    -0.307 N 
ATOM      7  O2  KU2 d   1     -61.206 174.094 289.931  0.00  0.00    -0.265 OA
ATOM      8  H23 KU2 d   1     -59.048 172.925 289.375  0.00  0.00     0.170 HD
ENDROOT
BRANCH   1   9
ATOM      9  C8  KU2 d   1     -56.952 173.542 287.807  0.00  0.00     0.072 C 
ATOM     10  C7  KU2 d   1     -55.862 173.813 288.853  0.00  0.00    -0.038 C 
ATOM     11  C6  KU2 d   1     -55.441 175.229 288.482  0.00  0.00    -0.048 C 
ATOM     12  H18 KU2 d   1     -56.264 173.767 289.876  0.00  0.00     0.036 H 
ATOM     13  H19 KU2 d   1     -55.026 173.105 288.756  0.00  0.00     0.036 H 
ATOM     14  C9  KU2 d   1     -55.320 175.146 286.970  0.00  0.00    -0.001 C 
ATOM     15  H16 KU2 d   1     -54.478 175.492 288.945  0.00  0.00     0.035 H 
ATOM     16  H17 KU2 d   1     -56.204 175.963 288.781  0.00  0.00     0.035 H 
ATOM     17  N4  KU2 d   1     -56.233 174.037 286.616  0.00  0.00    -0.340 N 
ATOM     18  H21 KU2 d   1     -54.287 174.917 286.669  0.00  0.00     0.064 H 
ATOM     19  H22 KU2 d   1     -55.640 176.086 286.497  0.00  0.00     0.064 H 
ATOM     20  C10 KU2 d   1     -56.346 173.512 285.382  0.00  0.00     0.230 C 
ATOM     21  O4  KU2 d   1     -55.768 174.016 284.412  0.00  0.00    -0.273 OA
ATOM     22  H20 KU2 d   1     -57.180 172.469 287.727  0.00  0.00     0.085 H 
BRANCH  20  23
ATOM     23  C11 KU2 d   1     -57.185 172.258 285.241  0.00  0.00     0.055 C 
ATOM     24  H11 KU2 d   1     -57.564 171.972 286.233  0.00  0.00     0.063 H 
ATOM     25  H12 KU2 d   1     -56.552 171.451 284.844  0.00  0.00     0.063 H 
BRANCH  23  26
ATOM     26  S1  KU2 d   1     -58.597 172.498 284.122  0.00  0.00    -0.119 SA
BRANCH  26  27
ATOM     27  C17 KU2 d   1     -59.816 171.825 285.194  0.00  0.00     0.022 A 
ATOM     28  C18 KU2 d   1     -59.797 170.485 285.524  0.00  0.00    -0.065 A 
ATOM     29  C19 KU2 d   1     -60.750 169.958 286.377  0.00  0.00    -0.082 A 
ATOM     30  H4  KU2 d   1     -59.029 169.840 285.111  0.00  0.00     0.085 H 
ATOM     31  C14 KU2 d   1     -61.728 170.765 286.910  0.00  0.00    -0.081 A 
ATOM     32  H5  KU2 d   1     -60.726 168.903 286.627  0.00  0.00     0.083 H 
ATOM     33  C15 KU2 d   1     -61.763 172.106 286.605  0.00  0.00    -0.061 A 
ATOM     34  H3  KU2 d   1     -62.474 170.343 287.573  0.00  0.00     0.083 H 
ATOM     35  C16 KU2 d   1     -60.815 172.636 285.754  0.00  0.00     0.050 A 
ATOM     36  H15 KU2 d   1     -62.531 172.742 287.031  0.00  0.00     0.086 H 
ATOM     37 CL1  KU2 d   1     -60.887 174.326 285.386  0.00  0.00    -0.083 Cl
ENDBRANCH  26  27
ENDBRANCH  23  26
ENDBRANCH  20  23
ENDBRANCH   1   9
BRANCH   2  38
ATOM     38  C5  KU2 d   1     -59.598 177.498 286.922  0.00  0.00     0.273 C 
ATOM     39  N3  KU2 d   1     -58.564 177.783 286.128  0.00  0.00    -0.353 N 
ATOM     40  H24 KU2 d   1     -57.727 177.246 286.231  0.00  0.00     0.162 HD
ATOM     41  O3  KU2 d   1     -60.575 178.242 287.020  0.00  0.00    -0.266 OA
BRANCH  39  42
ATOM     42  C12 KU2 d   1     -58.588 178.833 285.120  0.00  0.00     0.016 C 
ATOM     43  H13 KU2 d   1     -59.632 179.117 284.924  0.00  0.00     0.067 H 
ATOM     44  H14 KU2 d   1     -58.035 179.706 285.499  0.00  0.00     0.067 H 
BRANCH  42  45
ATOM     45  C13 KU2 d   1     -57.955 178.373 283.832  0.00  0.00     0.041 C 
ATOM     46  H1  KU2 d   1     -56.860 178.419 283.925  0.00  0.00     0.077 H 
ATOM     47  H2  KU2 d   1     -58.281 179.027 283.010  0.00  0.00     0.077 H 
BRANCH  45  48
ATOM     48  O5  KU2 d   1     -58.353 177.027 283.557  0.00  0.00    -0.350 OA
BRANCH  48  49
ATOM     49  C23 KU2 d   1     -58.047 176.405 282.373  0.00  0.00     0.068 A 
ATOM     50  C22 KU2 d   1     -58.981 176.364 281.359  0.00  0.00    -0.051 A 
ATOM     51  C21 KU2 d   1     -58.674 175.728 280.168  0.00  0.00    -0.080 A 
ATOM     52  H8  KU2 d   1     -59.951 176.828 281.494  0.00  0.00     0.087 H 
ATOM     53  C20 KU2 d   1     -57.446 175.139 279.990  0.00  0.00    -0.083 A 
ATOM     54  H7  KU2 d   1     -59.408 175.695 279.371  0.00  0.00     0.083 H 
ATOM     55  C25 KU2 d   1     -56.518 175.180 281.002  0.00  0.00    -0.080 A 
ATOM     56  H6  KU2 d   1     -57.210 174.644 279.055  0.00  0.00     0.083 H 
ATOM     57  C24 KU2 d   1     -56.815 175.811 282.199  0.00  0.00    -0.051 A 
ATOM     58  H10 KU2 d   1     -55.548 174.716 280.863  0.00  0.00     0.083 H 
ATOM     59  H9  KU2 d   1     -56.081 175.838 282.996  0.00  0.00     0.087 H 
ENDBRANCH  48  49
ENDBRANCH  45  48
ENDBRANCH  42  45
ENDBRANCH  39  42
ENDBRANCH   2  38
BRANCH   3  60
ATOM     60  O1  KU2 d   1     -61.607 176.520 288.692  0.00  0.00    -0.354 OA
ATOM     61  H25 KU2 d   1     -61.550 177.316 288.176  0.00  0.00     0.218 HD
ENDBRANCH   3  60
TORSDOF 10
