REMARK WARNING: 32 MAX_TORS EXCEEDED!!!
REMARK  61 active torsions:
REMARK  status: ('A' for Active; 'I' for Inactive)
REMARK    1  A    between atoms: N_1  and  CA_2 
REMARK    2  A    between atoms: CA_2  and  C_3 
REMARK    3  A    between atoms: CA_2  and  CB_5 
REMARK       I    between atoms: C_3  and  N_10 
REMARK    4  A    between atoms: CB_5  and  CG_6 
REMARK    5  A    between atoms: CG_6  and  CD_7 
REMARK    6  A    between atoms: N_10  and  CA_11 
REMARK    7  A    between atoms: CA_11  and  C_12 
REMARK    8  A    between atoms: CA_11  and  CB_14 
REMARK       I    between atoms: C_12  and  N_18 
REMARK    9  A    between atoms: CB_14  and  CG_15 
REMARK   10  A    between atoms: N_18  and  CA_19 
REMARK   11  A    between atoms: CA_19  and  C_20 
REMARK   12  A    between atoms: CA_19  and  CB_22 
REMARK       I    between atoms: C_20  and  N_26 
REMARK   13  A    between atoms: CB_22  and  CG_23 
REMARK   14  A    between atoms: N_26  and  CA_27 
REMARK   15  A    between atoms: CA_27  and  C_28 
REMARK   16  A    between atoms: CA_27  and  CB_30 
REMARK       I    between atoms: C_28  and  N_34 
REMARK   17  A    between atoms: CB_30  and  CG_31 
REMARK   18  A    between atoms: N_34  and  CA_35 
REMARK   19  A    between atoms: CA_35  and  C_36 
REMARK   20  A    between atoms: CA_35  and  CB_38 
REMARK       I    between atoms: C_36  and  N_42 
REMARK   21  A    between atoms: CB_38  and  CG1_39 
REMARK   22  A    between atoms: CB_38  and  CG2_40 
REMARK   23  A    between atoms: CG1_39  and  CD1_41 
REMARK   24  A    between atoms: N_42  and  CA_43 
REMARK   25  A    between atoms: CA_43  and  C_44 
REMARK   26  A    between atoms: CA_43  and  CB_46 
REMARK       I    between atoms: C_44  and  N_51 
REMARK   27  A    between atoms: CB_46  and  CG_47 
REMARK   28  A    between atoms: CG_47  and  CD_48 
REMARK   29  A    between atoms: CD_48  and  CE_49 
REMARK   30  A    between atoms: CE_49  and  NZ_50 
REMARK   31  A    between atoms: N_51  and  CA_52 
REMARK   32  A    between atoms: CA_52  and  C_53 
REMARK   33  A    between atoms: CA_52  and  CB_55 
REMARK       I    between atoms: C_53  and  N_60 
REMARK   34  A    between atoms: CB_55  and  CG_56 
REMARK   35  A    between atoms: CG_56  and  CD_57 
REMARK       I    between atoms: CD_57  and  NE2_59 
REMARK   36  A    between atoms: N_60  and  CA_61 
REMARK   37  A    between atoms: CA_61  and  C_62 
REMARK   38  A    between atoms: CA_61  and  CB_64 
REMARK       I    between atoms: C_62  and  N_68 
REMARK   39  A    between atoms: CB_64  and  CG_65 
REMARK   40  A    between atoms: CG_65  and  CD1_66 
REMARK   41  A    between atoms: CG_65  and  CD2_67 
REMARK   42  A    between atoms: N_68  and  CA_69 
REMARK   43  A    between atoms: CA_69  and  C_70 
REMARK   44  A    between atoms: CA_69  and  CB_72 
REMARK       I    between atoms: C_70  and  N_73 
REMARK   45  A    between atoms: N_73  and  CA_74 
REMARK   46  A    between atoms: CA_74  and  C_75 
REMARK   47  A    between atoms: CA_74  and  CB_77 
REMARK       I    between atoms: C_75  and  N_78 
REMARK   48  A    between atoms: N_78  and  CA_79 
REMARK   49  A    between atoms: CA_79  and  C_80 
REMARK   50  A    between atoms: CA_79  and  CB_82 
REMARK       I    between atoms: C_80  and  N_92 
REMARK   51  A    between atoms: CB_82  and  CG_83 
REMARK   52  A    between atoms: N_92  and  CA_93 
REMARK   53  A    between atoms: CA_93  and  C_94 
REMARK   54  A    between atoms: CA_93  and  CB_96 
REMARK       I    between atoms: C_94  and  N_99 
REMARK   55  A    between atoms: CB_96  and  OG1_97 
REMARK   56  A    between atoms: CB_96  and  CG2_98 
REMARK   57  A    between atoms: N_99  and  CA_100 
REMARK   58  A    between atoms: CA_100  and  C_101 
REMARK   59  A    between atoms: CA_100  and  CB_103 
REMARK   60  A    between atoms: CB_103  and  OG1_104 
REMARK   61  A    between atoms: CB_103  and  CG2_105 
ROOT
ATOM      1  CA  GLN d   1     -31.308  11.308  -0.335  0.00  0.00     0.090 C 
ATOM      2  H46 GLN d   1     -32.278  11.600  -0.764  0.00  0.00     0.087 H 
ENDROOT
BRANCH   1   3
ATOM      3  N   GLN d   1     -30.743  12.467   0.347  0.00  0.00    -0.346 N 
ATOM      4  C   LYS d   1     -31.495  13.189   1.184  0.00  0.00     0.241 C 
ATOM      5  O   LYS d   1     -32.679  12.910   1.409  0.00  0.00    -0.271 OA
ATOM      6  H45 GLN d   1     -29.789  12.723   0.188  0.00  0.00     0.163 HD
BRANCH   4   7
ATOM      7  CA  LYS d   1     -30.836  14.373   1.881  0.00  0.00     0.089 C 
ATOM      8  H33 LYS d   1     -31.399  14.579   2.803  0.00  0.00     0.087 H 
BRANCH   7   9
ATOM      9  N   LYS d   1     -29.455  14.076   2.250  0.00  0.00    -0.346 N 
ATOM     10  C   ILE d   1     -29.190  13.161   3.186  0.00  0.00     0.241 C 
ATOM     11  O   ILE d   1     -30.090  12.518   3.742  0.00  0.00    -0.271 OA
ATOM     12  H32 LYS d   1     -28.704  14.560   1.800  0.00  0.00     0.163 HD
BRANCH  10  13
ATOM     13  CA  ILE d   1     -27.728  12.917   3.533  0.00  0.00     0.092 C 
ATOM     14  H22 ILE d   1     -27.638  11.894   3.928  0.00  0.00     0.088 H 
BRANCH  13  15
ATOM     15  N   ILE d   1     -26.897  13.022   2.337  0.00  0.00    -0.346 N 
ATOM     16  C   ASP d   1     -26.961  12.100   1.375  0.00  0.00     0.241 C 
ATOM     17  O   ASP d   1     -27.657  11.084   1.476  0.00  0.00    -0.271 OA
ATOM     18  H21 ILE d   1     -26.271  13.796   2.238  0.00  0.00     0.163 HD
BRANCH  16  19
ATOM     19  CA  ASP d   1     -26.141  12.344   0.116  0.00  0.00     0.098 C 
ATOM     20  H18 ASP d   1     -26.624  11.814  -0.718  0.00  0.00     0.088 H 
BRANCH  19  21
ATOM     21  N   ASP d   1     -26.089  13.764  -0.211  0.00  0.00    -0.345 N 
ATOM     22  C   ASP d   1     -27.213  14.434  -0.475  0.00  0.00     0.241 C 
ATOM     23  O   ASP d   1     -28.313  13.873  -0.567  0.00  0.00    -0.271 OA
ATOM     24  H17 ASP d   1     -25.209  14.237  -0.238  0.00  0.00     0.163 HD
BRANCH  22  25
ATOM     25  CA  ASP d   1     -27.113  15.938  -0.684  0.00  0.00     0.098 C 
ATOM     26  H14 ASP d   1     -28.036  16.396  -0.299  0.00  0.00     0.088 H 
BRANCH  25  27
ATOM     27  N   ASP d   1     -25.989  16.524   0.037  0.00  0.00    -0.345 N 
ATOM     28  C   ASP d   1     -26.187  16.620   1.342  0.00  0.00     0.241 C 
ATOM     29  O   ASP d   1     -27.210  16.220   1.856  0.00  0.00    -0.271 OA
ATOM     30  H13 ASP d   1     -25.148  16.825  -0.412  0.00  0.00     0.163 HD
BRANCH  28  31
ATOM     31  CA  ASP d   1     -25.083  17.176   2.202  0.00  0.00     0.098 C 
ATOM     32  H10 ASP d   1     -25.261  16.877   3.245  0.00  0.00     0.088 H 
BRANCH  31  33
ATOM     33  N   ASP d   1     -23.814  16.621   1.776  0.00  0.00    -0.345 N 
ATOM     34  C   GLU d   1     -23.627  15.311   1.698  0.00  0.00     0.249 C 
ATOM     35  O   GLU d   1     -24.465  14.495   2.023  0.00  0.00    -0.271 OA
ATOM     36  H9  ASP d   1     -23.065  17.238   1.536  0.00  0.00     0.163 HD
BRANCH  34  37
ATOM     37  CA  GLU d   1     -22.281  14.849   1.224  0.00  0.00     0.176 C 
ATOM     38  H4  GLU d   1     -22.172  13.779   1.453  0.00  0.00     0.099 H 
BRANCH  37  39
ATOM     39  N   GLU d   1     -22.164  15.025  -0.214  0.00  0.00    -0.066 N 
ATOM     40  H1  GLU d   1     -21.256  14.711  -0.518  0.00  0.00     0.275 HD
ATOM     41  H2  GLU d   1     -22.276  16.000  -0.443  0.00  0.00     0.275 HD
ATOM     42  H3  GLU d   1     -22.879  14.486  -0.678  0.00  0.00     0.275 HD
ENDBRANCH  37  39
BRANCH  37  43
ATOM     43  CB  GLU d   1     -21.199  15.618   1.967  0.00  0.00    -0.021 C 
ATOM     44  H5  GLU d   1     -21.412  15.564   3.045  0.00  0.00     0.037 H 
ATOM     45  H6  GLU d   1     -21.230  16.668   1.639  0.00  0.00     0.037 H 
BRANCH  43  46
ATOM     46  CG  GLU d   1     -19.798  15.081   1.726  0.00  0.00     0.018 C 
ATOM     47  H7  GLU d   1     -19.604  15.085   0.643  0.00  0.00     0.049 H 
ATOM     48  H8  GLU d   1     -19.750  14.049   2.103  0.00  0.00     0.049 H 
BRANCH  46  49
ATOM     49  CD  GLU d   1     -18.715  15.896   2.413  0.00  0.00     0.172 C 
ATOM     50  OE1 GLU d   1     -19.032  16.984   2.919  0.00  0.00    -0.648 OA
ATOM     51  OE2 GLU d   1     -17.553  15.455   2.439  0.00  0.00    -0.648 OA
ENDBRANCH  46  49
ENDBRANCH  43  46
ENDBRANCH  37  43
ENDBRANCH  34  37
ENDBRANCH  31  33
BRANCH  31  52
ATOM     52  CB  ASP d   1     -25.088  18.688   2.132  0.00  0.00     0.043 C 
ATOM     53  H11 ASP d   1     -24.972  18.994   1.082  0.00  0.00     0.052 H 
ATOM     54  H12 ASP d   1     -24.243  19.072   2.722  0.00  0.00     0.052 H 
BRANCH  52  55
ATOM     55  CG  ASP d   1     -26.364  19.281   2.671  0.00  0.00     0.175 C 
ATOM     56  OD1 ASP d   1     -27.266  18.503   3.003  0.00  0.00    -0.648 OA
ATOM     57  OD2 ASP d   1     -26.465  20.515   2.772  0.00  0.00    -0.648 OA
ENDBRANCH  52  55
ENDBRANCH  31  52
ENDBRANCH  28  31
ENDBRANCH  25  27
BRANCH  25  58
ATOM     58  CB  ASP d   1     -27.009  16.250  -2.177  0.00  0.00     0.043 C 
ATOM     59  H15 ASP d   1     -26.143  15.714  -2.592  0.00  0.00     0.052 H 
ATOM     60  H16 ASP d   1     -26.865  17.333  -2.304  0.00  0.00     0.052 H 
BRANCH  58  61
ATOM     61  CG  ASP d   1     -28.252  15.831  -2.936  0.00  0.00     0.175 C 
ATOM     62  OD1 ASP d   1     -28.320  14.662  -3.371  0.00  0.00    -0.648 OA
ATOM     63  OD2 ASP d   1     -29.169  16.669  -3.083  0.00  0.00    -0.648 OA
ENDBRANCH  58  61
ENDBRANCH  25  58
ENDBRANCH  22  25
ENDBRANCH  19  21
BRANCH  19  64
ATOM     64  CB  ASP d   1     -24.726  11.796   0.283  0.00  0.00     0.043 C 
ATOM     65  H19 ASP d   1     -24.779  10.700   0.364  0.00  0.00     0.052 H 
ATOM     66  H20 ASP d   1     -24.292  12.212   1.204  0.00  0.00     0.052 H 
BRANCH  64  67
ATOM     67  CG  ASP d   1     -23.828  12.155  -0.883  0.00  0.00     0.175 C 
ATOM     68  OD1 ASP d   1     -24.339  12.228  -2.022  0.00  0.00    -0.648 OA
ATOM     69  OD2 ASP d   1     -22.621  12.375  -0.662  0.00  0.00    -0.648 OA
ENDBRANCH  64  67
ENDBRANCH  19  64
ENDBRANCH  16  19
ENDBRANCH  13  15
BRANCH  13  70
ATOM     70  CB  ILE d   1     -27.226  13.894   4.616  0.00  0.00    -0.030 C 
ATOM     71  H23 ILE d   1     -27.193  14.904   4.181  0.00  0.00     0.043 H 
BRANCH  70  72
ATOM     72  CG1 ILE d   1     -25.810  13.513   5.066  0.00  0.00    -0.063 C 
ATOM     73  H24 ILE d   1     -25.144  13.567   4.192  0.00  0.00     0.033 H 
ATOM     74  H25 ILE d   1     -25.834  12.481   5.445  0.00  0.00     0.033 H 
BRANCH  72  75
ATOM     75  CD1 ILE d   1     -25.242  14.409   6.156  0.00  0.00    -0.076 C 
ATOM     76  H29 ILE d   1     -24.230  14.069   6.419  0.00  0.00     0.027 H 
ATOM     77  H30 ILE d   1     -25.888  14.360   7.045  0.00  0.00     0.027 H 
ATOM     78  H31 ILE d   1     -25.198  15.446   5.792  0.00  0.00     0.027 H 
ENDBRANCH  72  75
ENDBRANCH  70  72
BRANCH  70  79
ATOM     79  CG2 ILE d   1     -28.166  13.917   5.804  0.00  0.00    -0.071 C 
ATOM     80  H26 ILE d   1     -29.176  14.191   5.467  0.00  0.00     0.028 H 
ATOM     81  H27 ILE d   1     -27.811  14.655   6.538  0.00  0.00     0.028 H 
ATOM     82  H28 ILE d   1     -28.193  12.921   6.270  0.00  0.00     0.028 H 
ENDBRANCH  70  79
ENDBRANCH  13  70
ENDBRANCH  10  13
ENDBRANCH   7   9
BRANCH   7  83
ATOM     83  CB  LYS d   1     -30.885  15.625   1.002  0.00  0.00    -0.038 C 
ATOM     84  H34 LYS d   1     -31.912  15.749   0.628  0.00  0.00     0.036 H 
ATOM     85  H35 LYS d   1     -30.201  15.482   0.153  0.00  0.00     0.036 H 
BRANCH  83  86
ATOM     86  CG  LYS d   1     -30.482  16.898   1.739  0.00  0.00    -0.061 C 
ATOM     87  H36 LYS d   1     -29.460  16.775   2.128  0.00  0.00     0.033 H 
ATOM     88  H37 LYS d   1     -31.177  17.058   2.577  0.00  0.00     0.033 H 
BRANCH  86  89
ATOM     89  CD  LYS d   1     -30.518  18.115   0.833  0.00  0.00    -0.043 C 
ATOM     90  H38 LYS d   1     -31.535  18.232   0.429  0.00  0.00     0.035 H 
ATOM     91  H39 LYS d   1     -29.809  17.967   0.005  0.00  0.00     0.035 H 
BRANCH  89  92
ATOM     92  CE  LYS d   1     -30.139  19.372   1.589  0.00  0.00     0.080 C 
ATOM     93  H40 LYS d   1     -29.129  19.250   2.008  0.00  0.00     0.075 H 
ATOM     94  H41 LYS d   1     -30.858  19.532   2.406  0.00  0.00     0.075 H 
BRANCH  92  95
ATOM     95  NZ  LYS d   1     -30.154  20.557   0.687  0.00  0.00    -0.079 N 
ATOM     96  H42 LYS d   1     -29.899  21.380   1.210  0.00  0.00     0.274 HD
ATOM     97  H43 LYS d   1     -31.078  20.675   0.303  0.00  0.00     0.274 HD
ATOM     98  H44 LYS d   1     -29.494  20.417  -0.062  0.00  0.00     0.274 HD
ENDBRANCH  92  95
ENDBRANCH  89  92
ENDBRANCH  86  89
ENDBRANCH  83  86
ENDBRANCH   7  83
ENDBRANCH   4   7
ENDBRANCH   1   3
BRANCH   1  99
ATOM     99  C   GLN d   1     -31.546  10.160   0.636  0.00  0.00     0.241 C 
ATOM    100  O   GLN d   1     -32.528   9.418   0.506  0.00  0.00    -0.271 OA
ATOM    101  N   LEU d   1     -30.657   9.997   1.615  0.00  0.00    -0.346 N 
ATOM    102  H53 LEU d   1     -29.837  10.568   1.639  0.00  0.00     0.163 HD
BRANCH 101 103
ATOM    103  CA  LEU d   1     -30.869   8.995   2.649  0.00  0.00     0.089 C 
ATOM    104  H54 LEU d   1     -31.077   8.031   2.162  0.00  0.00     0.087 H 
BRANCH 103 105
ATOM    105  C   LEU d   1     -32.065   9.345   3.528  0.00  0.00     0.241 C 
ATOM    106  O   LEU d   1     -32.785   8.449   3.986  0.00  0.00    -0.271 OA
ATOM    107  N   ALA d   1     -32.310  10.638   3.755  0.00  0.00    -0.346 N 
ATOM    108  H64 ALA d   1     -31.708  11.333   3.362  0.00  0.00     0.163 HD
BRANCH 107 109
ATOM    109  CA  ALA d   1     -33.448  11.044   4.571  0.00  0.00     0.086 C 
ATOM    110  H65 ALA d   1     -33.427  10.459   5.502  0.00  0.00     0.086 H 
BRANCH 109 111
ATOM    111  C   ALA d   1     -34.772  10.767   3.870  0.00  0.00     0.240 C 
ATOM    112  O   ALA d   1     -35.757  10.399   4.519  0.00  0.00    -0.271 OA
ATOM    113  N   ALA d   1     -34.817  10.934   2.547  0.00  0.00    -0.346 N 
ATOM    114  H69 ALA d   1     -33.979  11.206   2.075  0.00  0.00     0.163 HD
BRANCH 113 115
ATOM    115  CA  ALA d   1     -36.027  10.740   1.753  0.00  0.00     0.086 C 
ATOM    116  H70 ALA d   1     -36.873  11.149   2.325  0.00  0.00     0.086 H 
BRANCH 115 117
ATOM    117  C   ALA d   1     -36.325   9.270   1.466  0.00  0.00     0.240 C 
ATOM    118  O   ALA d   1     -37.144   8.976   0.587  0.00  0.00    -0.271 OA
ATOM    119  N   TRP d   1     -35.692   8.349   2.192  0.00  0.00    -0.346 N 
ATOM    120  H74 TRP d   1     -35.122   8.654   2.955  0.00  0.00     0.163 HD
BRANCH 119 121
ATOM    121  CA  TRP d   1     -35.791   6.919   1.928  0.00  0.00     0.093 C 
ATOM    122  H75 TRP d   1     -35.883   6.779   0.841  0.00  0.00     0.088 H 
BRANCH 121 123
ATOM    123  C   TRP d   1     -37.012   6.276   2.583  0.00  0.00     0.241 C 
ATOM    124  O   TRP d   1     -37.692   5.460   1.950  0.00  0.00    -0.271 OA
ATOM    125  N   THR d   1     -37.319   6.630   3.834  0.00  0.00    -0.344 N 
ATOM    126  H84 THR d   1     -36.764   7.323   4.294  0.00  0.00     0.163 HD
BRANCH 125 127
ATOM    127  CA  THR d   1     -38.448   6.029   4.549  0.00  0.00     0.113 C 
ATOM    128  H85 THR d   1     -38.417   4.939   4.402  0.00  0.00     0.091 H 
BRANCH 127 129
ATOM    129  C   THR d   1     -39.750   6.562   3.956  0.00  0.00     0.243 C 
ATOM    130  O   THR d   1     -40.420   7.440   4.507  0.00  0.00    -0.271 OA
ATOM    131  N   THR d   1     -40.116   6.006   2.804  0.00  0.00    -0.342 N 
ATOM    132  H91 THR d   1     -39.532   5.302   2.400  0.00  0.00     0.163 HD
BRANCH 131 133
ATOM    133  CA  THR d   1     -41.341   6.389   2.111  0.00  0.00     0.120 C 
ATOM    134  H92 THR d   1     -41.938   7.013   2.792  0.00  0.00     0.093 H 
BRANCH 133 135
ATOM    135  C   THR d   1     -42.161   5.156   1.737  0.00  0.00     0.199 C 
ATOM    136  O   THR d   1     -42.112   4.133   2.424  0.00  0.00    -0.646 OA
ATOM    137  OXT THR d   1     -42.884   5.159   0.741  0.00  0.00    -0.646 OA
ENDBRANCH 133 135
BRANCH 133 138
ATOM    138  CB  THR d   1     -41.041   7.209   0.837  0.00  0.00     0.061 C 
ATOM    139  H93 THR d   1     -41.969   7.316   0.256  0.00  0.00     0.086 H 
BRANCH 138 140
ATOM    140  OG1 THR d   1     -40.064   6.529   0.040  0.00  0.00    -0.393 OA
ATOM    141  H94 THR d   1     -39.264   6.425   0.542  0.00  0.00     0.210 HD
ENDBRANCH 138 140
BRANCH 138 142
ATOM    142  CG2 THR d   1     -40.523   8.594   1.199  0.00  0.00    -0.050 C 
ATOM    143  H95 THR d   1     -40.316   9.160   0.279  0.00  0.00     0.031 H 
ATOM    144  H96 THR d   1     -39.598   8.498   1.786  0.00  0.00     0.031 H 
ATOM    145  H97 THR d   1     -41.281   9.125   1.794  0.00  0.00     0.031 H 
ENDBRANCH 138 142
ENDBRANCH 133 138
ENDBRANCH 131 133
ENDBRANCH 127 129
BRANCH 127 146
ATOM    146  CB  THR d   1     -38.359   6.308   6.047  0.00  0.00     0.060 C 
ATOM    147  H86 THR d   1     -39.327   6.069   6.511  0.00  0.00     0.086 H 
BRANCH 146 148
ATOM    148  OG1 THR d   1     -38.063   7.692   6.268  0.00  0.00    -0.393 OA
ATOM    149  H87 THR d   1     -38.009   7.858   7.202  0.00  0.00     0.210 HD
ENDBRANCH 146 148
BRANCH 146 150
ATOM    150  CG2 THR d   1     -37.279   5.446   6.686  0.00  0.00    -0.050 C 
ATOM    151  H88 THR d   1     -37.229   5.660   7.764  0.00  0.00     0.031 H 
ATOM    152  H89 THR d   1     -36.307   5.672   6.222  0.00  0.00     0.031 H 
ATOM    153  H90 THR d   1     -37.520   4.384   6.534  0.00  0.00     0.031 H 
ENDBRANCH 146 150
ENDBRANCH 127 146
ENDBRANCH 125 127
ENDBRANCH 121 123
BRANCH 121 154
ATOM    154  CB  TRP d   1     -34.502   6.240   2.397  0.00  0.00    -0.012 C 
ATOM    155  H76 TRP d   1     -34.285   6.608   3.410  0.00  0.00     0.044 H 
ATOM    156  H77 TRP d   1     -33.698   6.551   1.714  0.00  0.00     0.044 H 
BRANCH 154 157
ATOM    157  CG  TRP d   1     -34.493   4.741   2.451  0.00  0.00    -0.028 A 
ATOM    158  CD1 TRP d   1     -34.709   3.874   1.419  0.00  0.00    -0.015 A 
ATOM    159  NE1 TRP d   1     -34.578   2.575   1.856  0.00  0.00    -0.365 N 
ATOM    160  H78 TRP d   1     -34.950   4.167   0.398  0.00  0.00     0.112 H 
ATOM    161  CE2 TRP d   1     -34.253   2.586   3.190  0.00  0.00     0.042 A 
ATOM    162  H79 TRP d   1     -34.703   1.732   1.277  0.00  0.00     0.165 HD
ATOM    163  CD2 TRP d   1     -34.179   3.933   3.595  0.00  0.00    -0.002 A 
ATOM    164  CZ2 TRP d   1     -34.010   1.530   4.067  0.00  0.00    -0.056 A 
ATOM    165  CE3 TRP d   1     -33.858   4.222   4.927  0.00  0.00    -0.070 A 
ATOM    166  CZ3 TRP d   1     -33.623   3.172   5.796  0.00  0.00    -0.082 A 
ATOM    167  H80 TRP d   1     -33.795   5.248   5.270  0.00  0.00     0.084 H 
ATOM    168  CH2 TRP d   1     -33.700   1.843   5.362  0.00  0.00    -0.081 A 
ATOM    169  H82 TRP d   1     -33.375   3.381   6.830  0.00  0.00     0.083 H 
ATOM    170  H83 TRP d   1     -33.510   1.044   6.069  0.00  0.00     0.083 H 
ATOM    171  H81 TRP d   1     -34.065   0.499   3.735  0.00  0.00     0.086 H 
ENDBRANCH 154 157
ENDBRANCH 121 154
ENDBRANCH 119 121
ENDBRANCH 115 117
BRANCH 115 172
ATOM    172  CB  ALA d   1     -35.915  11.515   0.435  0.00  0.00    -0.049 C 
ATOM    173  H71 ALA d   1     -36.829  11.364  -0.158  0.00  0.00     0.030 H 
ATOM    174  H72 ALA d   1     -35.046  11.150  -0.132  0.00  0.00     0.030 H 
ATOM    175  H73 ALA d   1     -35.789  12.587   0.649  0.00  0.00     0.030 H 
ENDBRANCH 115 172
ENDBRANCH 113 115
ENDBRANCH 109 111
BRANCH 109 176
ATOM    176  CB  ALA d   1     -33.335  12.526   4.930  0.00  0.00    -0.049 C 
ATOM    177  H66 ALA d   1     -34.198  12.821   5.545  0.00  0.00     0.030 H 
ATOM    178  H67 ALA d   1     -33.319  13.126   4.008  0.00  0.00     0.030 H 
ATOM    179  H68 ALA d   1     -32.407  12.697   5.495  0.00  0.00     0.030 H 
ENDBRANCH 109 176
ENDBRANCH 107 109
ENDBRANCH 103 105
BRANCH 103 180
ATOM    180  CB  LEU d   1     -29.585   8.854   3.477  0.00  0.00    -0.035 C 
ATOM    181  H55 LEU d   1     -29.423   9.823   3.971  0.00  0.00     0.037 H 
ATOM    182  H56 LEU d   1     -28.770   8.666   2.762  0.00  0.00     0.037 H 
BRANCH 180 183
ATOM    183  CG  LEU d   1     -29.467   7.789   4.560  0.00  0.00    -0.059 C 
ATOM    184  H57 LEU d   1     -30.118   8.069   5.401  0.00  0.00     0.038 H 
BRANCH 183 185
ATOM    185  CD1 LEU d   1     -29.906   6.435   4.048  0.00  0.00    -0.073 C 
ATOM    186  H58 LEU d   1     -29.809   5.690   4.852  0.00  0.00     0.028 H 
ATOM    187  H59 LEU d   1     -29.273   6.141   3.198  0.00  0.00     0.028 H 
ATOM    188  H60 LEU d   1     -30.955   6.489   3.722  0.00  0.00     0.028 H 
ENDBRANCH 183 185
BRANCH 183 189
ATOM    189  CD2 LEU d   1     -28.019   7.738   5.054  0.00  0.00    -0.073 C 
ATOM    190  H61 LEU d   1     -27.722   8.731   5.421  0.00  0.00     0.028 H 
ATOM    191  H62 LEU d   1     -27.359   7.441   4.226  0.00  0.00     0.028 H 
ATOM    192  H63 LEU d   1     -27.936   7.005   5.870  0.00  0.00     0.028 H 
ENDBRANCH 183 189
ENDBRANCH 180 183
ENDBRANCH 103 180
ENDBRANCH 101 103
ENDBRANCH   1  99
BRANCH   1 193
ATOM    193  CB  GLN d   1     -30.390  10.866  -1.476  0.00  0.00    -0.030 C 
ATOM    194  H47 GLN d   1     -30.868  10.023  -1.997  0.00  0.00     0.037 H 
ATOM    195  H48 GLN d   1     -29.435  10.535  -1.042  0.00  0.00     0.037 H 
BRANCH 193 196
ATOM    196  CG  GLN d   1     -30.099  11.958  -2.499  0.00  0.00     0.011 C 
ATOM    197  H49 GLN d   1     -29.418  11.552  -3.261  0.00  0.00     0.047 H 
ATOM    198  H50 GLN d   1     -29.613  12.800  -1.984  0.00  0.00     0.047 H 
BRANCH 196 199
ATOM    199  CD  GLN d   1     -31.349  12.471  -3.191  0.00  0.00     0.215 C 
ATOM    200  OE1 GLN d   1     -32.372  11.784  -3.244  0.00  0.00    -0.274 OA
ATOM    201  NE2 GLN d   1     -31.271  13.683  -3.726  0.00  0.00    -0.370 N 
ATOM    202  H51 GLN d   1     -32.063  14.074  -4.195  0.00  0.00     0.159 HD
ATOM    203  H52 GLN d   1     -30.421  14.205  -3.660  0.00  0.00     0.159 HD
ENDBRANCH 196 199
ENDBRANCH 193 196
ENDBRANCH   1 193
TORSDOF 61
