REMARK WARNING: 32 MAX_TORS EXCEEDED!!!
REMARK  51 active torsions:
REMARK  status: ('A' for Active; 'I' for Inactive)
REMARK    1  A    between atoms: N_1  and  CA_2 
REMARK    2  A    between atoms: CA_2  and  C_3 
REMARK    3  A    between atoms: CA_2  and  CB_5 
REMARK       I    between atoms: C_3  and  N_9 
REMARK    4  A    between atoms: CB_5  and  CG_6 
REMARK    5  A    between atoms: CG_6  and  CD1_7 
REMARK    6  A    between atoms: CG_6  and  CD2_8 
REMARK    7  A    between atoms: N_9  and  CA_10 
REMARK    8  A    between atoms: CA_10  and  C_11 
REMARK    9  A    between atoms: CA_10  and  CB_13 
REMARK       I    between atoms: C_11  and  N_17 
REMARK   10  A    between atoms: CB_13  and  CG_14 
REMARK       I    between atoms: CG_14  and  ND2_16 
REMARK   11  A    between atoms: N_17  and  CA_18 
REMARK   12  A    between atoms: CA_18  and  C_19 
REMARK   13  A    between atoms: CA_18  and  CB_21 
REMARK       I    between atoms: C_19  and  N_25 
REMARK   14  A    between atoms: CB_21  and  CG_22 
REMARK   15  A    between atoms: N_25  and  CA_26 
REMARK   16  A    between atoms: CA_26  and  C_27 
REMARK   17  A    between atoms: CA_26  and  CB_29 
REMARK       I    between atoms: C_27  and  N_33 
REMARK   18  A    between atoms: CB_29  and  CG_30 
REMARK   19  A    between atoms: CG_30  and  CD1_31 
REMARK   20  A    between atoms: CG_30  and  CD2_32 
REMARK   21  A    between atoms: CA_34  and  C_35 
REMARK       I    between atoms: C_35  and  N_40 
REMARK   22  A    between atoms: N_40  and  CA_41 
REMARK   23  A    between atoms: CA_41  and  C_42 
REMARK   24  A    between atoms: CA_41  and  CB_44 
REMARK       I    between atoms: C_42  and  N_48 
REMARK   25  A    between atoms: CB_44  and  CG_45 
REMARK   26  A    between atoms: CG_45  and  SD_46 
REMARK   27  A    between atoms: SD_46  and  CE_47 
REMARK   28  A    between atoms: N_48  and  CA_49 
REMARK   29  A    between atoms: CA_49  and  C_50 
REMARK   30  A    between atoms: CA_49  and  CB_52 
REMARK       I    between atoms: C_50  and  N_56 
REMARK   31  A    between atoms: CB_52  and  CG_53 
REMARK   32  A    between atoms: N_56  and  CA_57 
REMARK   33  A    between atoms: CA_57  and  C_58 
REMARK   34  A    between atoms: CA_57  and  CB_60 
REMARK       I    between atoms: C_58  and  N_63 
REMARK   35  A    between atoms: CB_60  and  CG1_61 
REMARK   36  A    between atoms: CB_60  and  CG2_62 
REMARK   37  A    between atoms: N_63  and  CA_64 
REMARK   38  A    between atoms: CA_64  and  C_65 
REMARK   39  A    between atoms: CA_64  and  CB_67 
REMARK       I    between atoms: C_65  and  N_74 
REMARK   40  A    between atoms: CB_67  and  CG_68 
REMARK   41  A    between atoms: N_74  and  CA_75 
REMARK   42  A    between atoms: CA_75  and  C_76 
REMARK   43  A    between atoms: CA_75  and  CB_78 
REMARK       I    between atoms: C_76  and  N_83 
REMARK   44  A    between atoms: CB_78  and  CG_79 
REMARK   45  A    between atoms: CG_79  and  CD_80 
REMARK   46  A    between atoms: N_83  and  CA_84 
REMARK   47  A    between atoms: CA_84  and  C_85 
REMARK   48  A    between atoms: CA_84  and  CB_87 
REMARK   49  A    between atoms: CB_87  and  CG_88 
REMARK   50  A    between atoms: CG_88  and  CD1_89 
REMARK   51  A    between atoms: CG_88  and  CD2_90 
ROOT
ATOM      1  CA  MET d   1      11.498  22.190  -7.909  0.00  0.00     0.090 C 
ATOM      2  H43 MET d   1      11.168  21.185  -7.607  0.00  0.00     0.087 H 
ENDROOT
BRANCH   1   3
ATOM      3  N   MET d   1      12.426  22.638  -6.858  0.00  0.00    -0.346 N 
ATOM      4  C   PRO d   1      12.174  22.281  -5.593  0.00  0.00     0.241 C 
ATOM      5  O   PRO d   1      11.148  21.722  -5.227  0.00  0.00    -0.271 OA
ATOM      6  H42 MET d   1      13.225  23.195  -7.084  0.00  0.00     0.163 HD
BRANCH   4   7
ATOM      7  CA  PRO d   1      13.168  22.523  -4.491  0.00  0.00     0.091 C 
ATOM      8  N   PRO d   1      12.437  22.691  -3.226  0.00  0.00    -0.337 N 
ATOM      9  C   LEU d   1      11.621  23.748  -3.050  0.00  0.00     0.243 C 
ATOM     10  CD  PRO d   1      12.559  21.506  -2.363  0.00  0.00    -0.001 C 
ATOM     11  O   LEU d   1      11.462  24.617  -3.914  0.00  0.00    -0.271 OA
ATOM     12  CG  PRO d   1      13.869  20.905  -2.821  0.00  0.00    -0.048 C 
ATOM     13  H40 PRO d   1      11.723  20.809  -2.524  0.00  0.00     0.064 H 
ATOM     14  H41 PRO d   1      12.601  21.790  -1.301  0.00  0.00     0.064 H 
ATOM     15  CB  PRO d   1      14.022  21.259  -4.265  0.00  0.00    -0.036 C 
ATOM     16  H38 PRO d   1      14.703  21.323  -2.238  0.00  0.00     0.035 H 
ATOM     17  H39 PRO d   1      13.848  19.812  -2.699  0.00  0.00     0.035 H 
ATOM     18  H36 PRO d   1      15.077  21.465  -4.497  0.00  0.00     0.036 H 
ATOM     19  H37 PRO d   1      13.661  20.436  -4.900  0.00  0.00     0.036 H 
ATOM     20  H35 PRO d   1      13.794  23.398  -4.720  0.00  0.00     0.087 H 
BRANCH   9  21
ATOM     21  CA  LEU d   1      10.832  23.818  -1.741  0.00  0.00     0.090 C 
ATOM     22  H25 LEU d   1      11.376  23.255  -0.968  0.00  0.00     0.087 H 
BRANCH  21  23
ATOM     23  N   LEU d   1      10.686  25.214  -1.279  0.00  0.00    -0.346 N 
ATOM     24  C   ASP d   1      11.708  25.940  -0.799  0.00  0.00     0.241 C 
ATOM     25  O   ASP d   1      12.845  25.466  -0.597  0.00  0.00    -0.271 OA
ATOM     26  H24 LEU d   1       9.782  25.639  -1.326  0.00  0.00     0.163 HD
BRANCH  24  27
ATOM     27  CA  ASP d   1      11.424  27.442  -0.518  0.00  0.00     0.098 C 
ATOM     28  H21 ASP d   1      10.367  27.635  -0.753  0.00  0.00     0.088 H 
BRANCH  27  29
ATOM     29  N   ASP d   1      11.646  27.841   0.882  0.00  0.00    -0.345 N 
ATOM     30  C   ASN d   1      11.143  27.172   1.926  0.00  0.00     0.241 C 
ATOM     31  O   ASN d   1      10.417  26.181   1.800  0.00  0.00    -0.271 OA
ATOM     32  H20 ASP d   1      12.201  28.653   1.062  0.00  0.00     0.163 HD
BRANCH  30  33
ATOM     33  CA  ASN d   1      11.486  27.723   3.333  0.00  0.00     0.097 C 
ATOM     34  H15 ASN d   1      10.864  28.616   3.491  0.00  0.00     0.088 H 
BRANCH  33  35
ATOM     35  N   ASN d   1      11.225  26.808   4.449  0.00  0.00    -0.346 N 
ATOM     36  C   LEU d   1      10.813  27.232   5.646  0.00  0.00     0.249 C 
ATOM     37  O   LEU d   1      10.485  28.398   5.867  0.00  0.00    -0.271 OA
ATOM     38  H14 ASN d   1      11.361  25.827   4.308  0.00  0.00     0.163 HD
BRANCH  36  39
ATOM     39  CA  LEU d   1      10.769  26.167   6.751  0.00  0.00     0.176 C 
ATOM     40  H4  LEU d   1      10.312  25.254   6.341  0.00  0.00     0.099 H 
BRANCH  39  41
ATOM     41  N   LEU d   1      12.143  25.877   7.144  0.00  0.00    -0.066 N 
ATOM     42  H1  LEU d   1      12.144  25.178   7.871  0.00  0.00     0.275 HD
ATOM     43  H2  LEU d   1      12.579  26.719   7.486  0.00  0.00     0.275 HD
ATOM     44  H3  LEU d   1      12.655  25.533   6.347  0.00  0.00     0.275 HD
ENDBRANCH  39  41
BRANCH  39  45
ATOM     45  CB  LEU d   1       9.940  26.610   7.976  0.00  0.00    -0.028 C 
ATOM     46  H5  LEU d   1      10.347  27.587   8.275  0.00  0.00     0.037 H 
ATOM     47  H6  LEU d   1      10.148  25.870   8.762  0.00  0.00     0.037 H 
BRANCH  45  48
ATOM     48  CG  LEU d   1       8.407  26.781   7.955  0.00  0.00    -0.059 C 
ATOM     49  H7  LEU d   1       7.994  25.953   7.361  0.00  0.00     0.038 H 
BRANCH  48  50
ATOM     50  CD1 LEU d   1       7.859  26.674   9.379  0.00  0.00    -0.073 C 
ATOM     51  H8  LEU d   1       6.766  26.796   9.361  0.00  0.00     0.028 H 
ATOM     52  H9  LEU d   1       8.306  27.461  10.004  0.00  0.00     0.028 H 
ATOM     53  H10 LEU d   1       8.111  25.688   9.796  0.00  0.00     0.028 H 
ENDBRANCH  48  50
BRANCH  48  54
ATOM     54  CD2 LEU d   1       7.920  28.072   7.331  0.00  0.00    -0.073 C 
ATOM     55  H11 LEU d   1       8.311  28.154   6.306  0.00  0.00     0.028 H 
ATOM     56  H12 LEU d   1       8.275  28.925   7.928  0.00  0.00     0.028 H 
ATOM     57  H13 LEU d   1       6.820  28.075   7.305  0.00  0.00     0.028 H 
ENDBRANCH  48  54
ENDBRANCH  45  48
ENDBRANCH  39  45
ENDBRANCH  36  39
ENDBRANCH  33  35
BRANCH  33  58
ATOM     58  CB  ASN d   1      12.956  28.144   3.375  0.00  0.00     0.036 C 
ATOM     59  H16 ASN d   1      13.087  28.891   4.172  0.00  0.00     0.051 H 
ATOM     60  H17 ASN d   1      13.223  28.591   2.406  0.00  0.00     0.051 H 
BRANCH  58  61
ATOM     61  CG  ASN d   1      13.881  26.982   3.644  0.00  0.00     0.217 C 
ATOM     62  OD1 ASN d   1      14.398  26.360   2.716  0.00  0.00    -0.274 OA
ATOM     63  ND2 ASN d   1      14.091  26.677   4.920  0.00  0.00    -0.370 N 
ATOM     64  H18 ASN d   1      14.695  25.917   5.160  0.00  0.00     0.159 HD
ATOM     65  H19 ASN d   1      13.645  27.208   5.641  0.00  0.00     0.159 HD
ENDBRANCH  58  61
ENDBRANCH  33  58
ENDBRANCH  30  33
ENDBRANCH  27  29
BRANCH  27  66
ATOM     66  CB  ASP d   1      12.301  28.291  -1.465  0.00  0.00     0.043 C 
ATOM     67  H22 ASP d   1      12.452  27.725  -2.396  0.00  0.00     0.052 H 
ATOM     68  H23 ASP d   1      13.272  28.461  -0.977  0.00  0.00     0.052 H 
BRANCH  66  69
ATOM     69  CG  ASP d   1      11.691  29.669  -1.827  0.00  0.00     0.175 C 
ATOM     70  OD1 ASP d   1      10.488  29.959  -1.518  0.00  0.00    -0.648 OA
ATOM     71  OD2 ASP d   1      12.447  30.457  -2.482  0.00  0.00    -0.648 OA
ENDBRANCH  66  69
ENDBRANCH  27  66
ENDBRANCH  24  27
ENDBRANCH  21  23
BRANCH  21  72
ATOM     72  CB  LEU d   1       9.464  23.152  -1.969  0.00  0.00    -0.035 C 
ATOM     73  H26 LEU d   1       9.686  22.114  -2.257  0.00  0.00     0.037 H 
ATOM     74  H27 LEU d   1       9.017  23.682  -2.823  0.00  0.00     0.037 H 
BRANCH  72  75
ATOM     75  CG  LEU d   1       8.358  23.058  -0.920  0.00  0.00    -0.059 C 
ATOM     76  H28 LEU d   1       8.328  24.001  -0.355  0.00  0.00     0.038 H 
BRANCH  75  77
ATOM     77  CD1 LEU d   1       7.028  22.862  -1.621  0.00  0.00    -0.073 C 
ATOM     78  H29 LEU d   1       6.225  22.793  -0.872  0.00  0.00     0.028 H 
ATOM     79  H30 LEU d   1       7.058  21.935  -2.212  0.00  0.00     0.028 H 
ATOM     80  H31 LEU d   1       6.835  23.716  -2.287  0.00  0.00     0.028 H 
ENDBRANCH  75  77
BRANCH  75  81
ATOM     81  CD2 LEU d   1       8.611  21.919   0.058  0.00  0.00    -0.073 C 
ATOM     82  H32 LEU d   1       9.578  22.074   0.559  0.00  0.00     0.028 H 
ATOM     83  H33 LEU d   1       8.630  20.964  -0.488  0.00  0.00     0.028 H 
ATOM     84  H34 LEU d   1       7.808  21.896   0.810  0.00  0.00     0.028 H 
ENDBRANCH  75  81
ENDBRANCH  72  75
ENDBRANCH  21  72
ENDBRANCH   9  21
ENDBRANCH   4   7
ENDBRANCH   1   3
BRANCH   1  85
ATOM     85  C   MET d   1      12.059  22.039  -9.313  0.00  0.00     0.241 C 
ATOM     86  O   MET d   1      11.302  22.004 -10.294  0.00  0.00    -0.271 OA
ATOM     87  N   ASP d   1      13.377  21.883  -9.389  0.00  0.00    -0.346 N 
ATOM     88  H51 ASP d   1      13.935  22.097  -8.588  0.00  0.00     0.163 HD
BRANCH  87  89
ATOM     89  CA  ASP d   1      14.035  21.412 -10.598  0.00  0.00     0.098 C 
ATOM     90  H52 ASP d   1      13.534  21.837 -11.480  0.00  0.00     0.088 H 
BRANCH  89  91
ATOM     91  C   ASP d   1      13.915  19.892 -10.626  0.00  0.00     0.241 C 
ATOM     92  O   ASP d   1      14.555  19.209  -9.822  0.00  0.00    -0.271 OA
ATOM     93  N   VAL d   1      13.086  19.359 -11.523  0.00  0.00    -0.346 N 
ATOM     94  H55 VAL d   1      12.586  19.960 -12.146  0.00  0.00     0.163 HD
BRANCH  93  95
ATOM     95  CA  VAL d   1      12.894  17.909 -11.613  0.00  0.00     0.092 C 
ATOM     96  H56 VAL d   1      12.779  17.522 -10.590  0.00  0.00     0.088 H 
BRANCH  95  97
ATOM     97  C   VAL d   1      14.102  17.220 -12.252  0.00  0.00     0.241 C 
ATOM     98  O   VAL d   1      14.371  16.051 -11.978  0.00  0.00    -0.271 OA
ATOM     99  N   PHE d   1      14.819  17.956 -13.101  0.00  0.00    -0.346 N 
ATOM    100  H64 PHE d   1      14.474  18.859 -13.356  0.00  0.00     0.163 HD
BRANCH  99 101
ATOM    101  CA  PHE d   1      16.088  17.507 -13.679  0.00  0.00     0.093 C 
ATOM    102  H65 PHE d   1      16.061  16.411 -13.771  0.00  0.00     0.088 H 
BRANCH 101 103
ATOM    103  C   PHE d   1      17.249  17.897 -12.758  0.00  0.00     0.241 C 
ATOM    104  O   PHE d   1      18.248  18.474 -13.202  0.00  0.00    -0.271 OA
ATOM    105  N   GLU d   1      17.094  17.591 -11.472  0.00  0.00    -0.346 N 
ATOM    106  H73 GLU d   1      16.246  17.145 -11.186  0.00  0.00     0.163 HD
BRANCH 105 107
ATOM    107  CA  GLU d   1      18.107  17.877 -10.459  0.00  0.00     0.090 C 
ATOM    108  H74 GLU d   1      18.415  18.928 -10.556  0.00  0.00     0.087 H 
BRANCH 107 109
ATOM    109  C   GLU d   1      19.339  16.990 -10.683  0.00  0.00     0.241 C 
ATOM    110  O   GLU d   1      20.479  17.439 -10.512  0.00  0.00    -0.271 OA
ATOM    111  N   LEU d   1      19.098  15.741 -11.087  0.00  0.00    -0.345 N 
ATOM    112  H79 LEU d   1      18.150  15.431 -11.153  0.00  0.00     0.163 HD
BRANCH 111 113
ATOM    113  CA  LEU d   1      20.168  14.811 -11.436  0.00  0.00     0.096 C 
ATOM    114  H80 LEU d   1      21.069  15.096 -10.873  0.00  0.00     0.089 H 
BRANCH 113 115
ATOM    115  C   LEU d   1      20.489  14.877 -12.927  0.00  0.00     0.196 C 
ATOM    116  O   LEU d   1      21.181  15.786 -13.388  0.00  0.00    -0.646 OA
ATOM    117  OXT LEU d   1      20.064  14.023 -13.707  0.00  0.00    -0.646 OA
ENDBRANCH 113 115
BRANCH 113 118
ATOM    118  CB  LEU d   1      19.788  13.381 -11.052  0.00  0.00    -0.034 C 
ATOM    119  H81 LEU d   1      20.665  12.748 -11.255  0.00  0.00     0.037 H 
ATOM    120  H82 LEU d   1      18.958  13.080 -11.708  0.00  0.00     0.037 H 
BRANCH 118 121
ATOM    121  CG  LEU d   1      19.350  13.093  -9.613  0.00  0.00    -0.059 C 
ATOM    122  H83 LEU d   1      18.464  13.708  -9.395  0.00  0.00     0.038 H 
BRANCH 121 123
ATOM    123  CD1 LEU d   1      18.965  11.636  -9.487  0.00  0.00    -0.073 C 
ATOM    124  H84 LEU d   1      18.650  11.428  -8.454  0.00  0.00     0.028 H 
ATOM    125  H85 LEU d   1      19.829  11.005  -9.741  0.00  0.00     0.028 H 
ATOM    126  H86 LEU d   1      18.135  11.415 -10.175  0.00  0.00     0.028 H 
ENDBRANCH 121 123
BRANCH 121 127
ATOM    127  CD2 LEU d   1      20.429  13.450  -8.599  0.00  0.00    -0.073 C 
ATOM    128  H87 LEU d   1      20.695  14.512  -8.706  0.00  0.00     0.028 H 
ATOM    129  H88 LEU d   1      21.319  12.829  -8.777  0.00  0.00     0.028 H 
ATOM    130  H89 LEU d   1      20.052  13.267  -7.582  0.00  0.00     0.028 H 
ENDBRANCH 121 127
ENDBRANCH 118 121
ENDBRANCH 113 118
ENDBRANCH 111 113
ENDBRANCH 107 109
BRANCH 107 131
ATOM    131  CB  GLU d   1      17.514  17.674  -9.056  0.00  0.00    -0.029 C 
ATOM    132  H75 GLU d   1      16.970  16.718  -9.057  0.00  0.00     0.037 H 
ATOM    133  H76 GLU d   1      16.809  18.497  -8.867  0.00  0.00     0.037 H 
BRANCH 131 134
ATOM    134  CG  GLU d   1      18.505  17.641  -7.908  0.00  0.00     0.018 C 
ATOM    135  H77 GLU d   1      19.128  18.546  -7.953  0.00  0.00     0.049 H 
ATOM    136  H78 GLU d   1      19.142  16.751  -8.017  0.00  0.00     0.049 H 
BRANCH 134 137
ATOM    137  CD  GLU d   1      17.817  17.587  -6.548  0.00  0.00     0.172 C 
ATOM    138  OE1 GLU d   1      16.571  17.451  -6.508  0.00  0.00    -0.648 OA
ATOM    139  OE2 GLU d   1      18.525  17.678  -5.517  0.00  0.00    -0.648 OA
ENDBRANCH 134 137
ENDBRANCH 131 134
ENDBRANCH 107 131
ENDBRANCH 105 107
ENDBRANCH 101 103
BRANCH 101 140
ATOM    140  CB  PHE d   1      16.309  18.109 -15.074  0.00  0.00    -0.014 C 
ATOM    141  H66 PHE d   1      17.153  17.585 -15.546  0.00  0.00     0.043 H 
ATOM    142  H67 PHE d   1      16.559  19.174 -14.955  0.00  0.00     0.043 H 
BRANCH 140 143
ATOM    143  CG  PHE d   1      15.119  18.003 -15.985  0.00  0.00    -0.056 A 
ATOM    144  CD1 PHE d   1      14.816  16.809 -16.620  0.00  0.00    -0.077 A 
ATOM    145  CE1 PHE d   1      13.721  16.715 -17.468  0.00  0.00    -0.082 A 
ATOM    146  H68 PHE d   1      15.441  15.939 -16.453  0.00  0.00     0.084 H 
ATOM    147  CZ  PHE d   1      12.918  17.821 -17.685  0.00  0.00    -0.083 A 
ATOM    148  H70 PHE d   1      13.495  15.776 -17.960  0.00  0.00     0.083 H 
ATOM    149  CE2 PHE d   1      13.210  19.021 -17.056  0.00  0.00    -0.082 A 
ATOM    150  H72 PHE d   1      12.062  17.749 -18.346  0.00  0.00     0.083 H 
ATOM    151  CD2 PHE d   1      14.304  19.108 -16.214  0.00  0.00    -0.077 A 
ATOM    152  H71 PHE d   1      12.583  19.889 -17.223  0.00  0.00     0.083 H 
ATOM    153  H69 PHE d   1      14.530  20.049 -15.726  0.00  0.00     0.084 H 
ENDBRANCH 140 143
ENDBRANCH 101 140
ENDBRANCH  99 101
ENDBRANCH  95  97
BRANCH  95 154
ATOM    154  CB  VAL d   1      11.624  17.551 -12.407  0.00  0.00    -0.033 C 
ATOM    155  H57 VAL d   1      11.513  16.457 -12.408  0.00  0.00     0.042 H 
BRANCH 154 156
ATOM    156  CG1 VAL d   1      10.405  18.157 -11.741  0.00  0.00    -0.071 C 
ATOM    157  H58 VAL d   1       9.505  17.895 -12.316  0.00  0.00     0.028 H 
ATOM    158  H59 VAL d   1      10.512  19.251 -11.706  0.00  0.00     0.028 H 
ATOM    159  H60 VAL d   1      10.313  17.765 -10.717  0.00  0.00     0.028 H 
ENDBRANCH 154 156
BRANCH 154 160
ATOM    160  CG2 VAL d   1      11.733  18.021 -13.849  0.00  0.00    -0.071 C 
ATOM    161  H61 VAL d   1      12.622  17.571 -14.315  0.00  0.00     0.028 H 
ATOM    162  H62 VAL d   1      11.822  19.117 -13.872  0.00  0.00     0.028 H 
ATOM    163  H63 VAL d   1      10.834  17.714 -14.404  0.00  0.00     0.028 H 
ENDBRANCH 154 160
ENDBRANCH  95 154
ENDBRANCH  93  95
ENDBRANCH  89  91
BRANCH  89 164
ATOM    164  CB  ASP d   1      15.506  21.837 -10.606  0.00  0.00     0.043 C 
ATOM    165  H53 ASP d   1      16.071  21.155  -9.954  0.00  0.00     0.052 H 
ATOM    166  H54 ASP d   1      15.576  22.862 -10.214  0.00  0.00     0.052 H 
BRANCH 164 167
ATOM    167  CG  ASP d   1      16.125  21.806 -11.987  0.00  0.00     0.175 C 
ATOM    168  OD1 ASP d   1      15.423  21.435 -12.952  0.00  0.00    -0.648 OA
ATOM    169  OD2 ASP d   1      17.323  22.152 -12.098  0.00  0.00    -0.648 OA
ENDBRANCH 164 167
ENDBRANCH  89 164
ENDBRANCH  87  89
ENDBRANCH   1  85
BRANCH   1 170
ATOM    170  CB  MET d   1      10.256  23.083  -7.941  0.00  0.00    -0.030 C 
ATOM    171  H44 MET d   1      10.278  23.729  -8.831  0.00  0.00     0.037 H 
ATOM    172  H45 MET d   1      10.215  23.707  -7.036  0.00  0.00     0.037 H 
BRANCH 170 173
ATOM    173  CG  MET d   1       9.065  22.174  -7.994  0.00  0.00    -0.021 C 
ATOM    174  H46 MET d   1       9.408  21.166  -7.719  0.00  0.00     0.049 H 
ATOM    175  H47 MET d   1       8.702  22.167  -9.032  0.00  0.00     0.049 H 
BRANCH 173 176
ATOM    176  SD  MET d   1       7.684  22.567  -6.952  0.00  0.00    -0.173 SA
BRANCH 176 177
ATOM    177  CE  MET d   1       8.470  22.813  -5.379  0.00  0.00    -0.035 C 
ATOM    178  H48 MET d   1       7.710  23.068  -4.625  0.00  0.00     0.041 H 
ATOM    179  H49 MET d   1       9.199  23.633  -5.457  0.00  0.00     0.041 H 
ATOM    180  H50 MET d   1       8.988  21.890  -5.080  0.00  0.00     0.041 H 
ENDBRANCH 176 177
ENDBRANCH 173 176
ENDBRANCH 170 173
ENDBRANCH   1 170
TORSDOF 51
