REMARK  10 active torsions:
REMARK  status: ('A' for Active; 'I' for Inactive)
REMARK    1  A    between atoms: C1_1  and  C10_2 
REMARK    2  A    between atoms: C12_4  and  C13_5 
REMARK       I    between atoms: N4_30  and  C12_4 
REMARK    3  A    between atoms: C13_5  and  O5_35 
REMARK    4  A    between atoms: O5_35  and  C17_9 
REMARK    5  A    between atoms: C5_21  and  C2_12 
REMARK    6  A    between atoms: O4_34  and  C23_16 
REMARK    7  A    between atoms: C3_19  and  O1_31 
REMARK       I    between atoms: N3_29  and  C5_21 
REMARK    8  A    between atoms: C7_23  and  C6_22 
REMARK    9  A    between atoms: C6_22  and  N3_29 
REMARK   10  A    between atoms: C7_23  and  O4_34 
ROOT
ATOM      1  C1  KU7 d   1     491.977 194.444 558.183  0.00  0.00     0.131 A 
ATOM      2  C2  KU7 d   1     493.887 195.670 557.753  0.00  0.00     0.165 A 
ATOM      3  C3  KU7 d   1     493.450 196.706 558.523  0.00  0.00     0.169 A 
ATOM      4  C4  KU7 d   1     492.218 196.619 559.166  0.00  0.00     0.282 A 
ATOM      5  N1  KU7 d   1     493.164 194.554 557.583  0.00  0.00    -0.225 NA
ATOM      6  N2  KU7 d   1     491.501 195.458 558.969  0.00  0.00    -0.307 N 
ATOM      7  O2  KU7 d   1     491.751 197.515 559.886  0.00  0.00    -0.265 OA
ATOM      8  H23 KU7 d   1     490.610 195.354 559.412  0.00  0.00     0.170 HD
ENDROOT
BRANCH   1   9
ATOM      9  C10 KU7 d   1     491.199 193.161 557.973  0.00  0.00     0.072 C 
ATOM     10  C9  KU7 d   1     491.294 192.182 559.154  0.00  0.00    -0.038 C 
ATOM     11  C8  KU7 d   1     492.654 191.545 558.916  0.00  0.00    -0.048 C 
ATOM     12  H21 KU7 d   1     490.489 191.433 559.120  0.00  0.00     0.036 H 
ATOM     13  H22 KU7 d   1     491.262 192.712 560.118  0.00  0.00     0.036 H 
ATOM     14  C11 KU7 d   1     492.600 191.241 557.435  0.00  0.00    -0.001 C 
ATOM     15  H19 KU7 d   1     493.470 192.244 559.152  0.00  0.00     0.035 H 
ATOM     16  H20 KU7 d   1     492.775 190.626 559.509  0.00  0.00     0.035 H 
ATOM     17  N4  KU7 d   1     491.767 192.327 556.898  0.00  0.00    -0.339 N 
ATOM     18  H2  KU7 d   1     492.137 190.261 557.250  0.00  0.00     0.064 H 
ATOM     19  H3  KU7 d   1     493.606 191.260 556.992  0.00  0.00     0.064 H 
ATOM     20  C12 KU7 d   1     491.515 192.522 555.593  0.00  0.00     0.244 C 
ATOM     21  O6  KU7 d   1     492.068 191.836 554.740  0.00  0.00    -0.271 OA
ATOM     22  H1  KU7 d   1     490.151 193.419 557.762  0.00  0.00     0.085 H 
BRANCH  20  23
ATOM     23  C13 KU7 d   1     490.512 193.578 555.217  0.00  0.00     0.100 C 
ATOM     24  H4  KU7 d   1     489.660 193.528 555.911  0.00  0.00     0.089 H 
ATOM     25  H5  KU7 d   1     490.161 193.392 554.191  0.00  0.00     0.089 H 
BRANCH  23  26
ATOM     26  O5  KU7 d   1     491.089 194.875 555.282  0.00  0.00    -0.339 OA
BRANCH  26  27
ATOM     27  C17 KU7 d   1     490.326 195.858 555.850  0.00  0.00     0.107 A 
ATOM     28  C16 KU7 d   1     490.873 197.128 555.988  0.00  0.00     0.149 A 
ATOM     29  C15 KU7 d   1     490.174 198.165 556.558  0.00  0.00    -0.043 A 
ATOM     30  F1  KU7 d   1     492.128 197.328 555.541  0.00  0.00    -0.203 F 
ATOM     31  C14 KU7 d   1     488.886 197.946 557.013  0.00  0.00    -0.080 A 
ATOM     32  H7  KU7 d   1     490.628 199.145 556.650  0.00  0.00     0.088 H 
ATOM     33  C19 KU7 d   1     488.320 196.701 556.893  0.00  0.00    -0.080 A 
ATOM     34  H6  KU7 d   1     488.325 198.756 557.464  0.00  0.00     0.083 H 
ATOM     35  C18 KU7 d   1     489.033 195.657 556.318  0.00  0.00    -0.048 A 
ATOM     36  H9  KU7 d   1     487.310 196.532 557.249  0.00  0.00     0.083 H 
ATOM     37  H8  KU7 d   1     488.577 194.677 556.234  0.00  0.00     0.087 H 
ENDBRANCH  26  27
ENDBRANCH  23  26
ENDBRANCH  20  23
ENDBRANCH   1   9
BRANCH   2  38
ATOM     38  C5  KU7 d   1     495.210 195.731 557.036  0.00  0.00     0.273 C 
ATOM     39  N3  KU7 d   1     495.466 194.689 556.249  0.00  0.00    -0.353 N 
ATOM     40  H24 KU7 d   1     494.849 193.903 556.286  0.00  0.00     0.162 HD
ATOM     41  O3  KU7 d   1     495.957 196.701 557.158  0.00  0.00    -0.266 OA
BRANCH  39  42
ATOM     42  C6  KU7 d   1     496.598 194.637 555.338  0.00  0.00     0.016 C 
ATOM     43  H15 KU7 d   1     497.260 195.491 555.543  0.00  0.00     0.067 H 
ATOM     44  H16 KU7 d   1     497.147 193.699 555.506  0.00  0.00     0.067 H 
BRANCH  42  45
ATOM     45  C7  KU7 d   1     496.159 194.695 553.897  0.00  0.00     0.041 C 
ATOM     46  H17 KU7 d   1     497.036 194.623 553.237  0.00  0.00     0.077 H 
ATOM     47  H18 KU7 d   1     495.634 195.642 553.706  0.00  0.00     0.077 H 
BRANCH  45  48
ATOM     48  O4  KU7 d   1     495.278 193.595 553.653  0.00  0.00    -0.350 OA
BRANCH  48  49
ATOM     49  C23 KU7 d   1     494.451 193.657 552.564  0.00  0.00     0.068 A 
ATOM     50  C22 KU7 d   1     493.701 192.547 552.207  0.00  0.00    -0.051 A 
ATOM     51  C21 KU7 d   1     492.861 192.618 551.108  0.00  0.00    -0.080 A 
ATOM     52  H12 KU7 d   1     493.771 191.631 552.783  0.00  0.00     0.087 H 
ATOM     53  C20 KU7 d   1     492.761 193.778 550.377  0.00  0.00    -0.083 A 
ATOM     54  H11 KU7 d   1     492.277 191.751 550.822  0.00  0.00     0.083 H 
ATOM     55  C25 KU7 d   1     493.502 194.878 550.737  0.00  0.00    -0.080 A 
ATOM     56  H10 KU7 d   1     492.100 193.825 549.519  0.00  0.00     0.083 H 
ATOM     57  C24 KU7 d   1     494.348 194.831 551.832  0.00  0.00    -0.051 A 
ATOM     58  H14 KU7 d   1     493.423 195.791 550.158  0.00  0.00     0.083 H 
ATOM     59  H13 KU7 d   1     494.925 195.704 552.115  0.00  0.00     0.087 H 
ENDBRANCH  48  49
ENDBRANCH  45  48
ENDBRANCH  42  45
ENDBRANCH  39  42
ENDBRANCH   2  38
BRANCH   3  60
ATOM     60  O1  KU7 d   1     494.142 197.838 558.720  0.00  0.00    -0.354 OA
ATOM     61  H25 KU7 d   1     494.961 197.795 558.240  0.00  0.00     0.218 HD
ENDBRANCH   3  60
TORSDOF 10
