REMARK  10 active torsions:
REMARK  status: ('A' for Active; 'I' for Inactive)
REMARK    1  A    between atoms: C13_5  and  C14_6 
REMARK    2  A    between atoms: C15_7  and  C16_8 
REMARK       I    between atoms: N3_29  and  C15_7 
REMARK    3  A    between atoms: C16_8  and  C17_9 
REMARK    4  A    between atoms: C17_9  and  C18_10 
REMARK    5  A    between atoms: C2_12  and  O2_32 
REMARK    6  A    between atoms: C4_21  and  C3_20 
REMARK       I    between atoms: N1_27  and  C4_21 
REMARK    7  A    between atoms: C6_23  and  C5_22 
REMARK    8  A    between atoms: C5_22  and  N1_27 
REMARK    9  A    between atoms: O3_33  and  C6_23 
REMARK   10  A    between atoms: C7_24  and  O3_33 
ROOT
ATOM      1  C1  KU4 d   1     490.177 195.960 561.424  0.00  0.00     0.282 A 
ATOM      2  C13 KU4 d   1     489.692 193.881 560.330  0.00  0.00     0.131 A 
ATOM      3  C2  KU4 d   1     491.414 195.933 560.786  0.00  0.00     0.169 A 
ATOM      4  C3  KU4 d   1     491.729 194.897 559.959  0.00  0.00     0.165 A 
ATOM      5  N2  KU4 d   1     490.887 193.878 559.736  0.00  0.00    -0.225 NA
ATOM      6  N4  KU4 d   1     489.330 194.902 561.169  0.00  0.00    -0.307 N 
ATOM      7  O1  KU4 d   1     489.818 196.867 562.188  0.00  0.00    -0.265 OA
ATOM      8  H26 KU4 d   1     488.431 194.879 561.606  0.00  0.00     0.170 HD
ENDROOT
BRANCH   2   9
ATOM      9  C14 KU4 d   1     488.752 192.724 560.057  0.00  0.00     0.072 C 
ATOM     10  C26 KU4 d   1     488.525 191.803 561.267  0.00  0.00    -0.038 C 
ATOM     11  C25 KU4 d   1     489.736 190.887 561.186  0.00  0.00    -0.048 C 
ATOM     12  H17 KU4 d   1     487.587 191.237 561.170  0.00  0.00     0.036 H 
ATOM     13  H18 KU4 d   1     488.515 192.372 562.208  0.00  0.00     0.036 H 
ATOM     14  C24 KU4 d   1     489.750 190.528 559.718  0.00  0.00    -0.001 C 
ATOM     15  H15 KU4 d   1     490.657 191.413 561.479  0.00  0.00     0.035 H 
ATOM     16  H16 KU4 d   1     489.607 189.995 561.816  0.00  0.00     0.035 H 
ATOM     17  N3  KU4 d   1     489.257 191.751 559.067  0.00  0.00    -0.340 N 
ATOM     18  H13 KU4 d   1     489.084 189.677 559.514  0.00  0.00     0.064 H 
ATOM     19  H14 KU4 d   1     490.769 190.285 559.381  0.00  0.00     0.064 H 
ATOM     20  C15 KU4 d   1     489.264 191.914 557.732  0.00  0.00     0.220 C 
ATOM     21  O5  KU4 d   1     489.215 190.926 557.005  0.00  0.00    -0.273 OA
ATOM     22  H4  KU4 d   1     487.795 193.147 559.717  0.00  0.00     0.085 H 
BRANCH  20  23
ATOM     23  C16 KU4 d   1     489.310 193.301 557.142  0.00  0.00     0.013 C 
ATOM     24  H5  KU4 d   1     489.985 193.284 556.274  0.00  0.00     0.047 H 
ATOM     25  H6  KU4 d   1     489.711 193.986 557.904  0.00  0.00     0.047 H 
BRANCH  23  26
ATOM     26  C17 KU4 d   1     487.959 193.834 556.685  0.00  0.00    -0.032 C 
ATOM     27  H7  KU4 d   1     487.255 192.991 556.628  0.00  0.00     0.040 H 
ATOM     28  H8  KU4 d   1     488.081 194.278 555.686  0.00  0.00     0.040 H 
BRANCH  26  29
ATOM     29  C18 KU4 d   1     487.374 194.882 557.603  0.00  0.00    -0.036 A 
ATOM     30  C19 KU4 d   1     486.175 194.673 558.281  0.00  0.00    -0.075 A 
ATOM     31  C20 KU4 d   1     485.635 195.633 559.116  0.00  0.00    -0.082 A 
ATOM     32  H9  KU4 d   1     485.652 193.733 558.150  0.00  0.00     0.084 H 
ATOM     33  C21 KU4 d   1     486.283 196.832 559.293  0.00  0.00    -0.081 A 
ATOM     34  H10 KU4 d   1     484.701 195.440 559.631  0.00  0.00     0.083 H 
ATOM     35  C22 KU4 d   1     487.466 197.075 558.642  0.00  0.00    -0.061 A 
ATOM     36  H11 KU4 d   1     485.859 197.586 559.947  0.00  0.00     0.083 H 
ATOM     37  C23 KU4 d   1     488.001 196.110 557.806  0.00  0.00     0.040 A 
ATOM     38  H12 KU4 d   1     487.980 198.019 558.782  0.00  0.00     0.086 H 
ATOM     39 CL1  KU4 d   1     489.508 196.482 557.004  0.00  0.00    -0.084 Cl
ENDBRANCH  26  29
ENDBRANCH  23  26
ENDBRANCH  20  23
ENDBRANCH   2   9
BRANCH   4  40
ATOM     40  C4  KU4 d   1     493.064 194.864 559.264  0.00  0.00     0.273 C 
ATOM     41  N1  KU4 d   1     493.228 193.881 558.381  0.00  0.00    -0.353 N 
ATOM     42  H25 KU4 d   1     492.499 193.204 558.277  0.00  0.00     0.162 HD
ATOM     43  O4  KU4 d   1     493.918 195.716 559.505  0.00  0.00    -0.266 OA
BRANCH  41  44
ATOM     44  C5  KU4 d   1     494.422 193.749 557.561  0.00  0.00     0.016 C 
ATOM     45  H19 KU4 d   1     495.156 194.502 557.882  0.00  0.00     0.067 H 
ATOM     46  H20 KU4 d   1     494.841 192.743 557.706  0.00  0.00     0.067 H 
BRANCH  44  47
ATOM     47  C6  KU4 d   1     494.134 193.947 556.094  0.00  0.00     0.041 C 
ATOM     48  H21 KU4 d   1     495.060 193.825 555.513  0.00  0.00     0.077 H 
ATOM     49  H22 KU4 d   1     493.726 194.955 555.927  0.00  0.00     0.077 H 
BRANCH  47  50
ATOM     50  O3  KU4 d   1     493.177 192.964 555.692  0.00  0.00    -0.350 OA
BRANCH  50  51
ATOM     51  C7  KU4 d   1     492.575 193.104 554.471  0.00  0.00     0.068 A 
ATOM     52  C12 KU4 d   1     491.656 192.155 554.051  0.00  0.00    -0.051 A 
ATOM     53  C11 KU4 d   1     491.044 192.300 552.818  0.00  0.00    -0.080 A 
ATOM     54  H3  KU4 d   1     491.419 191.307 554.683  0.00  0.00     0.087 H 
ATOM     55  C10 KU4 d   1     491.338 193.373 552.011  0.00  0.00    -0.083 A 
ATOM     56  H2  KU4 d   1     490.325 191.560 552.485  0.00  0.00     0.083 H 
ATOM     57  C9  KU4 d   1     492.248 194.313 552.431  0.00  0.00    -0.080 A 
ATOM     58  H1  KU4 d   1     490.854 193.477 551.047  0.00  0.00     0.083 H 
ATOM     59  C8  KU4 d   1     492.872 194.190 553.661  0.00  0.00    -0.051 A 
ATOM     60  H24 KU4 d   1     492.479 195.159 551.794  0.00  0.00     0.083 H 
ATOM     61  H23 KU4 d   1     493.587 194.936 553.988  0.00  0.00     0.087 H 
ENDBRANCH  50  51
ENDBRANCH  47  50
ENDBRANCH  44  47
ENDBRANCH  41  44
ENDBRANCH   4  40
BRANCH   3  62
ATOM     62  O2  KU4 d   1     492.232 196.965 561.037  0.00  0.00    -0.354 OA
ATOM     63  H27 KU4 d   1     493.037 196.643 561.425  0.00  0.00     0.218 HD
ENDBRANCH   3  62
TORSDOF 10
