REMARK  8 active torsions:
REMARK  status: ('A' for Active; 'I' for Inactive)
REMARK    1  A    between atoms: S1_3  and  N11_5 
REMARK    2  A    between atoms: C2_10  and  S1_3 
REMARK    3  A    between atoms: N11_5  and  C12_6 
REMARK    4  A    between atoms: C12_6  and  B13_7 
REMARK    5  A    between atoms: B13_7  and  O15_8 
REMARK    6  A    between atoms: B13_7  and  O14_9 
REMARK    7  A    between atoms: O14_9  and  P1_20 
REMARK    8  A    between atoms: C5_13  and  C32_16 
ROOT
ATOM      1  C2  A1M d   1      -2.208  -7.106 -10.133  0.00  0.00     0.079 A 
ATOM      2  C7  A1M d   1      -1.719  -5.919  -9.548  0.00  0.00    -0.059 A 
ATOM      3  C6  A1M d   1      -1.471  -4.798 -10.344  0.00  0.00    -0.068 A 
ATOM      4  C5  A1M d   1      -1.709  -4.821 -11.728  0.00  0.00     0.015 A 
ATOM      5  C4  A1M d   1      -2.209  -5.978 -12.312  0.00  0.00    -0.068 A 
ATOM      6  C3  A1M d   1      -2.440  -7.126 -11.528  0.00  0.00    -0.059 A 
ATOM      7  H   A1M d   1      -1.535  -5.877  -8.475  0.00  0.00     0.085 H 
ATOM      8  H   A1M d   1      -1.086  -3.889  -9.883  0.00  0.00     0.085 H 
ATOM      9  H   A1M d   1      -2.423  -5.998 -13.380  0.00  0.00     0.085 H 
ATOM     10  H   A1M d   1      -2.801  -8.039 -12.002  0.00  0.00     0.085 H 
ENDROOT
BRANCH   1  11
ATOM     11  S1  A1M d   1      -2.480  -8.414  -9.212  0.00  0.00     0.258 S 
ATOM     12  O10 A1M d   1      -1.676  -8.380  -8.018  0.00  0.00    -0.201 OA
ATOM     13  O8  A1M d   1      -2.184  -9.594 -10.002  0.00  0.00    -0.201 OA
BRANCH  11  14
ATOM     14  N11 A1M d   1      -3.995  -8.426  -8.601  0.00  0.00    -0.319 N 
ATOM     15  H   A1M d   1      -4.256  -7.951  -7.737  0.00  0.00     0.171 HD
BRANCH  14  16
ATOM     16  C12 A1M d   1      -4.951  -9.197  -9.429  0.00  0.00     0.038 C 
ATOM     17  H   A1M d   1      -4.657 -10.246  -9.447  0.00  0.00     0.058 H 
ATOM     18  H   A1M d   1      -4.950  -8.808 -10.447  0.00  0.00     0.058 H 
BRANCH  16  19
ATOM     19  B13 A1M d   1      -6.418  -9.060  -8.802  0.00  0.00     0.522 B 
BRANCH  19  20
ATOM     20  O15 A1M d   1      -6.706  -7.565  -8.591  0.00  0.00    -0.436 OA
ATOM     21  H   A1M d   1      -6.070  -7.202  -7.971  0.00  0.00     0.184 HD
ENDBRANCH  19  20
BRANCH  19  22
ATOM     22  O14 A1M d   1      -6.490  -9.883  -7.618  0.00  0.00    -0.319 OA
BRANCH  22  23
ATOM     23  P1  A1M d   1      -6.557  -9.325  -6.127  0.00  0.00     0.407 P 
ATOM     24  O2  A1M d   1      -7.888  -8.789  -5.656  0.00  0.00    -0.618 OA
ATOM     25  O4  A1M d   1      -5.527  -8.238  -5.958  0.00  0.00    -0.618 OA
ATOM     26  O5  A1M d   1      -6.293 -10.461  -5.157  0.00  0.00    -0.618 OA
ENDBRANCH  22  23
ENDBRANCH  19  22
ENDBRANCH  16  19
ENDBRANCH  14  16
ENDBRANCH  11  14
ENDBRANCH   1  11
BRANCH   4  27
ATOM     27  C32 A1M d   1      -1.448  -3.566 -12.521  0.00  0.00     0.197 A 
ATOM     28  N   A1M d   1      -1.075  -3.675 -13.812  0.00  0.00    -0.139 NA
ATOM     29  N35 A1M d   1      -0.892  -2.405 -14.413  0.00  0.00    -0.200 N 
ATOM     30  N34 A1M d   1      -1.207  -1.516 -13.375  0.00  0.00     0.022 NA
ATOM     31  H   A1M d   1      -0.602  -2.190 -15.367  0.00  0.00     0.208 HD
ATOM     32  N33 A1M d   1      -1.555  -2.256 -12.203  0.00  0.00    -0.136 NA
ENDBRANCH   4  27
TORSDOF 8
