REMARK  9 active torsions:
REMARK  status: ('A' for Active; 'I' for Inactive)
REMARK    1  A    between atoms: C4_4  and  C13_10 
REMARK    2  A    between atoms: C6_6  and  C7_7 
REMARK    3  A    between atoms: C13_10  and  S14_11 
REMARK    4  A    between atoms: S14_11  and  N19_14 
REMARK    5  A    between atoms: N19_14  and  C21_15 
REMARK    6  A    between atoms: C21_15  and  B22_16 
REMARK    7  A    between atoms: B22_16  and  O23_17 
REMARK    8  A    between atoms: B22_16  and  O24_18 
REMARK    9  A    between atoms: O23_17  and  P1_19 
ROOT
ATOM      1  C13 A1J d   1      40.924  -9.409 -10.948  0.00  0.00     0.070 C 
ATOM      2  H   A1J d   1      40.343 -10.056 -11.605  0.00  0.00     0.066 H 
ATOM      3  H   A1J d   1      40.366  -8.580 -10.514  0.00  0.00     0.066 H 
ENDROOT
BRANCH   1   4
ATOM      4  C4  A1J d   1      42.032  -8.801 -11.794  0.00  0.00    -0.042 A 
ATOM      5  C3  A1J d   1      42.904  -9.641 -12.485  0.00  0.00    -0.076 A 
ATOM      6  C2  A1J d   1      43.928  -9.101 -13.286  0.00  0.00    -0.081 A 
ATOM      7  H   A1J d   1      42.792 -10.722 -12.405  0.00  0.00     0.084 H 
ATOM      8  C1  A1J d   1      44.077  -7.716 -13.429  0.00  0.00    -0.066 A 
ATOM      9  H   A1J d   1      44.615  -9.771 -13.803  0.00  0.00     0.083 H 
ATOM     10  C6  A1J d   1      43.205  -6.863 -12.720  0.00  0.00     0.041 A 
ATOM     11  H   A1J d   1      44.852  -7.305 -14.076  0.00  0.00     0.085 H 
ATOM     12  C5  A1J d   1      42.165  -7.416 -11.947  0.00  0.00    -0.059 A 
ATOM     13  H   A1J d   1      41.451  -6.753 -11.459  0.00  0.00     0.086 H 
BRANCH  10  14
ATOM     14  C7  A1J d   1      43.323  -5.366 -12.876  0.00  0.00     0.209 C 
ATOM     15  O8  A1J d   1      44.099  -4.807 -13.889  0.00  0.00    -0.644 OA
ATOM     16  O9  A1J d   1      42.619  -4.649 -12.117  0.00  0.00    -0.644 OA
ENDBRANCH  10  14
ENDBRANCH   1   4
BRANCH   1  17
ATOM     17  S14 A1J d   1      41.442 -10.335  -9.706  0.00  0.00     0.230 S 
ATOM     18  O15 A1J d   1      42.239  -9.347  -9.001  0.00  0.00    -0.206 OA
ATOM     19  O16 A1J d   1      42.141 -11.527 -10.176  0.00  0.00    -0.206 OA
BRANCH  17  20
ATOM     20  N19 A1J d   1      40.304 -10.911  -8.698  0.00  0.00    -0.322 N 
ATOM     21  H   A1J d   1      40.218 -10.582  -7.736  0.00  0.00     0.171 HD
BRANCH  20  22
ATOM     22  C21 A1J d   1      39.423 -11.915  -9.244  0.00  0.00     0.037 C 
ATOM     23  H   A1J d   1      39.797 -12.921  -9.054  0.00  0.00     0.058 H 
ATOM     24  H   A1J d   1      39.347 -11.833 -10.328  0.00  0.00     0.058 H 
BRANCH  22  25
ATOM     25  B22 A1J d   1      38.020 -11.674  -8.543  0.00  0.00     0.522 B 
BRANCH  25  26
ATOM     26  O23 A1J d   1      37.924 -12.528  -7.457  0.00  0.00    -0.319 OA
BRANCH  26  27
ATOM     27  P1  A1J d   1      37.629 -12.348  -5.898  0.00  0.00     0.407 P 
ATOM     28  O2  A1J d   1      36.819 -11.212  -5.330  0.00  0.00    -0.618 OA
ATOM     29  O3  A1J d   1      38.780 -12.900  -5.105  0.00  0.00    -0.618 OA
ATOM     30  O4  A1J d   1      36.718 -13.579  -5.956  0.00  0.00    -0.618 OA
ENDBRANCH  26  27
ENDBRANCH  25  26
BRANCH  25  31
ATOM     31  O24 A1J d   1      37.604 -10.249  -8.564  0.00  0.00    -0.436 OA
ATOM     32  H   A1J d   1      37.774  -9.880  -9.434  0.00  0.00     0.184 HD
ENDBRANCH  25  31
ENDBRANCH  22  25
ENDBRANCH  20  22
ENDBRANCH  17  20
ENDBRANCH   1  17
TORSDOF 9
