REMARK  9 active torsions:
REMARK  status: ('A' for Active; 'I' for Inactive)
REMARK    1  A    between atoms: C4_1  and  B1_3 
REMARK    2  A    between atoms: C4_1  and  N5_6 
REMARK    3  A    between atoms: N5_6  and  S6_2 
REMARK    4  A    between atoms: S6_2  and  C9_9 
REMARK    5  A    between atoms: B1_3  and  O2_4 
REMARK    6  A    between atoms: B1_3  and  O3_5 
REMARK    7  A    between atoms: O3_5  and  P1_24 
REMARK    8  A    between atoms: C10_10  and  C20_20 
REMARK    9  A    between atoms: C12_12  and  C15_15 
ROOT
ATOM      1  C9  A0Y d   1     -21.918  -6.446 -38.517  0.00  0.00     0.094 A 
ATOM      2  C10 A0Y d   1     -22.139  -5.068 -39.070  0.00  0.00     0.072 A 
ATOM      3  C11 A0Y d   1     -22.339  -3.985 -38.208  0.00  0.00    -0.053 A 
ATOM      4  C12 A0Y d   1     -22.359  -4.110 -36.838  0.00  0.00     0.016 A 
ATOM      5  C13 A0Y d   1     -22.121  -5.351 -36.274  0.00  0.00    -0.068 A 
ATOM      6  C14 A0Y d   1     -21.910  -6.468 -37.111  0.00  0.00    -0.059 A 
ATOM      7  H   A0Y d   1     -22.486  -2.996 -38.642  0.00  0.00     0.086 H 
ATOM      8  H   A0Y d   1     -22.097  -5.465 -35.190  0.00  0.00     0.085 H 
ATOM      9  H   A0Y d   1     -21.726  -7.427 -36.627  0.00  0.00     0.086 H 
ENDROOT
BRANCH   1  10
ATOM     10  S6  A0Y d   1     -21.680  -7.838 -39.382  0.00  0.00     0.259 S 
ATOM     11  O7  A0Y d   1     -22.053  -8.893 -38.467  0.00  0.00    -0.201 OA
ATOM     12  O8  A0Y d   1     -22.286  -7.990 -40.671  0.00  0.00    -0.201 OA
BRANCH  10  13
ATOM     13  N5  A0Y d   1     -20.137  -7.991 -39.831  0.00  0.00    -0.319 N 
ATOM     14  H   A0Y d   1     -19.854  -7.597 -40.728  0.00  0.00     0.171 HD
BRANCH  13  15
ATOM     15  C4  A0Y d   1     -19.126  -8.663 -39.021  0.00  0.00     0.038 C 
ATOM     16  H   A0Y d   1     -19.112  -8.245 -38.014  0.00  0.00     0.058 H 
ATOM     17  H   A0Y d   1     -19.353  -9.726 -38.942  0.00  0.00     0.058 H 
BRANCH  15  18
ATOM     18  B1  A0Y d   1     -17.710  -8.453 -39.724  0.00  0.00     0.522 B 
BRANCH  18  19
ATOM     19  O2  A0Y d   1     -17.322  -6.995 -39.670  0.00  0.00    -0.436 OA
ATOM     20  H   A0Y d   1     -17.600  -6.622 -38.830  0.00  0.00     0.184 HD
ENDBRANCH  18  19
BRANCH  18  21
ATOM     21  O3  A0Y d   1     -17.359  -9.179 -40.942  0.00  0.00    -0.319 OA
BRANCH  21  22
ATOM     22  P1  A0Y d   1     -17.704  -8.847 -42.473  0.00  0.00     0.407 P 
ATOM     23  O5  A0Y d   1     -16.586  -8.021 -43.057  0.00  0.00    -0.618 OA
ATOM     24  O6  A0Y d   1     -17.816 -10.042 -43.385  0.00  0.00    -0.618 OA
ATOM     25  O9  A0Y d   1     -19.035  -8.076 -42.305  0.00  0.00    -0.618 OA
ENDBRANCH  21  22
ENDBRANCH  18  21
ENDBRANCH  15  18
ENDBRANCH  13  15
ENDBRANCH  10  13
ENDBRANCH   1  10
BRANCH   2  26
ATOM     26  C20 A0Y d   1     -22.149  -4.797 -40.509  0.00  0.00     0.419 C 
ATOM     27  F21 A0Y d   1     -21.283  -5.564 -41.140  0.00  0.00    -0.166 F 
ATOM     28  F22 A0Y d   1     -21.759  -3.554 -40.691  0.00  0.00    -0.166 F 
ATOM     29  F23 A0Y d   1     -23.353  -4.993 -40.982  0.00  0.00    -0.166 F 
ENDBRANCH   2  26
BRANCH   4  30
ATOM     30  C15 A0Y d   1     -22.590  -2.861 -36.062  0.00  0.00     0.197 A 
ATOM     31  N16 A0Y d   1     -22.569  -1.553 -36.394  0.00  0.00    -0.136 NA
ATOM     32  N17 A0Y d   1     -22.839  -0.828 -35.217  0.00  0.00     0.022 NA
ATOM     33  N18 A0Y d   1     -23.056  -1.723 -34.166  0.00  0.00    -0.200 N 
ATOM     34  N19 A0Y d   1     -22.871  -2.975 -34.782  0.00  0.00    -0.139 NA
ATOM     35  H   A0Y d   1     -23.290  -1.520 -33.194  0.00  0.00     0.208 HD
ENDBRANCH   4  30
TORSDOF 9
