REMARK  6 active torsions:
REMARK  status: ('A' for Active; 'I' for Inactive)
REMARK    1  A    between atoms: B1_7  and  C1_1 
REMARK    2  A    between atoms: C1_1  and  N5_9 
REMARK    3  A    between atoms: O4_6  and  P8_3 
REMARK    4  A    between atoms: O4_6  and  B1_7 
REMARK    5  A    between atoms: B1_7  and  O2_8 
REMARK    6  A    between atoms: C7_12  and  C10_14 
ROOT
ATOM      1  C1  A0V d   1      25.736 -11.373 -38.141  0.00  0.00     0.048 C 
ATOM      2  H   A0V d   1      25.868 -11.240 -37.067  0.00  0.00     0.059 H 
ATOM      3  H   A0V d   1      25.513 -12.382 -38.488  0.00  0.00     0.059 H 
ENDROOT
BRANCH   1   4
ATOM      4  B1  A0V d   1      27.138 -10.979 -38.808  0.00  0.00     0.523 B 
BRANCH   4   5
ATOM      5  O4  A0V d   1      27.131 -10.686 -40.219  0.00  0.00    -0.319 OA
BRANCH   5   6
ATOM      6  P8  A0V d   1      27.163 -11.520 -41.565  0.00  0.00     0.407 P 
ATOM      7  O13 A0V d   1      27.836 -12.806 -41.174  0.00  0.00    -0.618 OA
ATOM      8  O9  A0V d   1      25.745 -11.782 -42.048  0.00  0.00    -0.618 OA
ATOM      9  O10 A0V d   1      27.923 -10.633 -42.527  0.00  0.00    -0.618 OA
ENDBRANCH   5   6
ENDBRANCH   4   5
BRANCH   4  10
ATOM     10  O2  A0V d   1      27.448  -9.535 -38.501  0.00  0.00    -0.436 OA
ATOM     11  H   A0V d   1      26.744  -8.978 -38.843  0.00  0.00     0.184 HD
ENDBRANCH   4  10
ENDBRANCH   1   4
BRANCH   1  12
ATOM     12  N5  A0V d   1      24.588 -10.564 -38.504  0.00  0.00    -0.286 N 
ATOM     13  N9  A0V d   1      23.600 -10.464 -37.529  0.00  0.00     0.004 NA
ATOM     14  N8  A0V d   1      22.535  -9.694 -37.993  0.00  0.00    -0.152 NA
ATOM     15  C7  A0V d   1      22.883  -9.377 -39.270  0.00  0.00     0.167 A 
ATOM     16  C6  A0V d   1      24.139  -9.916 -39.578  0.00  0.00     0.030 A 
ATOM     17  H   A0V d   1      24.659  -9.822 -40.531  0.00  0.00     0.117 H 
BRANCH  15  18
ATOM     18  C10 A0V d   1      22.019  -8.570 -40.190  0.00  0.00     0.231 C 
ATOM     19  O11 A0V d   1      22.054  -8.738 -41.447  0.00  0.00    -0.643 OA
ATOM     20  O12 A0V d   1      21.255  -7.757 -39.629  0.00  0.00    -0.643 OA
ENDBRANCH  15  18
ENDBRANCH   1  12
TORSDOF 6
