REMARK  7 active torsions:
REMARK  status: ('A' for Active; 'I' for Inactive)
REMARK    1  A    between atoms: C14_6  and  C15_7 
REMARK    2  A    between atoms: C16_8  and  C17_9 
REMARK       I    between atoms: N3_29  and  C16_8 
REMARK    3  A    between atoms: C17_9  and  S1_35 
REMARK    4  A    between atoms: S1_35  and  C18_10 
REMARK    5  A    between atoms: C2_12  and  O2_32 
REMARK    6  A    between atoms: C4_21  and  C3_20 
REMARK       I    between atoms: N1_27  and  C4_21 
REMARK    7  A    between atoms: C5_22  and  N1_27 
ROOT
ATOM      1  C1  KU9 d   1     -60.919 356.279 694.333  0.00  0.00     0.282 A 
ATOM      2  C14 KU9 d   1     -58.931 355.789 693.084  0.00  0.00     0.131 A 
ATOM      3  C2  KU9 d   1     -60.976 357.492 693.650  0.00  0.00     0.169 A 
ATOM      4  C3  KU9 d   1     -60.021 357.795 692.725  0.00  0.00     0.165 A 
ATOM      5  N2  KU9 d   1     -59.009 356.959 692.445  0.00  0.00    -0.225 NA
ATOM      6  N4  KU9 d   1     -59.868 355.442 694.020  0.00  0.00    -0.307 N 
ATOM      7  O1  KU9 d   1     -61.750 355.928 695.184  0.00  0.00    -0.265 OA
ATOM      8  H24 KU9 d   1     -59.789 354.562 694.487  0.00  0.00     0.170 HD
ENDROOT
BRANCH   2   9
ATOM      9  C15 KU9 d   1     -57.772 354.876 692.746  0.00  0.00     0.072 C 
ATOM     10  C26 KU9 d   1     -56.866 354.644 693.963  0.00  0.00    -0.038 C 
ATOM     11  C25 KU9 d   1     -56.166 355.992 694.064  0.00  0.00    -0.048 C 
ATOM     12  H16 KU9 d   1     -56.149 353.829 693.784  0.00  0.00     0.036 H 
ATOM     13  H17 KU9 d   1     -57.452 354.424 694.867  0.00  0.00     0.036 H 
ATOM     14  C24 KU9 d   1     -55.784 356.265 692.622  0.00  0.00    -0.001 C 
ATOM     15  H14 KU9 d   1     -56.846 356.766 694.450  0.00  0.00     0.035 H 
ATOM     16  H15 KU9 d   1     -55.276 355.932 694.708  0.00  0.00     0.035 H 
ATOM     17  N3  KU9 d   1     -56.794 355.521 691.854  0.00  0.00    -0.340 N 
ATOM     18  H12 KU9 d   1     -54.772 355.892 692.406  0.00  0.00     0.064 H 
ATOM     19  H13 KU9 d   1     -55.834 357.341 692.399  0.00  0.00     0.064 H 
ATOM     20  C16 KU9 d   1     -56.784 355.374 690.519  0.00  0.00     0.230 C 
ATOM     21  O4  KU9 d   1     -56.314 356.245 689.793  0.00  0.00    -0.273 OA
ATOM     22  H5  KU9 d   1     -58.155 353.934 692.327  0.00  0.00     0.085 H 
BRANCH  20  23
ATOM     23  C17 KU9 d   1     -57.379 354.116 689.919  0.00  0.00     0.055 C 
ATOM     24  H6  KU9 d   1     -57.562 353.399 690.733  0.00  0.00     0.063 H 
ATOM     25  H7  KU9 d   1     -56.649 353.692 689.213  0.00  0.00     0.063 H 
BRANCH  23  26
ATOM     26  S1  KU9 d   1     -58.939 354.381 689.033  0.00  0.00    -0.119 SA
BRANCH  26  27
ATOM     27  C18 KU9 d   1     -60.165 353.878 690.201  0.00  0.00     0.022 A 
ATOM     28  C19 KU9 d   1     -60.088 352.616 690.790  0.00  0.00    -0.065 A 
ATOM     29  C20 KU9 d   1     -61.046 352.222 691.706  0.00  0.00    -0.082 A 
ATOM     30  H8  KU9 d   1     -59.278 351.945 690.530  0.00  0.00     0.085 H 
ATOM     31  C21 KU9 d   1     -62.076 353.072 692.040  0.00  0.00    -0.081 A 
ATOM     32  H9  KU9 d   1     -60.986 351.241 692.163  0.00  0.00     0.083 H 
ATOM     33  C22 KU9 d   1     -62.165 354.323 691.468  0.00  0.00    -0.061 A 
ATOM     34  H10 KU9 d   1     -62.823 352.755 692.759  0.00  0.00     0.083 H 
ATOM     35  C23 KU9 d   1     -61.211 354.720 690.552  0.00  0.00     0.050 A 
ATOM     36  H11 KU9 d   1     -62.977 354.990 691.735  0.00  0.00     0.086 H 
ATOM     37 CL1  KU9 d   1     -61.344 356.295 689.845  0.00  0.00    -0.083 Cl
ENDBRANCH  26  27
ENDBRANCH  23  26
ENDBRANCH  20  23
ENDBRANCH   2   9
BRANCH   4  38
ATOM     38  C4  KU9 d   1     -60.058 359.098 691.977  0.00  0.00     0.273 C 
ATOM     39  N1  KU9 d   1     -59.122 359.253 691.024  0.00  0.00    -0.350 N 
ATOM     40  H23 KU9 d   1     -58.449 358.525 690.893  0.00  0.00     0.163 HD
ATOM     41  O3  KU9 d   1     -60.889 359.967 692.235  0.00  0.00    -0.266 OA
BRANCH  39  42
ATOM     42  C5  KU9 d   1     -59.044 360.429 690.177  0.00  0.00     0.020 C 
ATOM     43  C13 KU9 d   1     -57.817 360.338 689.248  0.00  0.00    -0.021 C 
ATOM     44  C12 KU9 d   1     -58.331 359.486 688.117  0.00  0.00    -0.050 A 
ATOM     45  H3  KU9 d   1     -57.514 361.333 688.891  0.00  0.00     0.043 H 
ATOM     46  H4  KU9 d   1     -56.968 359.856 689.755  0.00  0.00     0.043 H 
ATOM     47  C11 KU9 d   1     -57.636 358.709 687.202  0.00  0.00    -0.076 A 
ATOM     48  C7  KU9 d   1     -59.717 359.556 688.075  0.00  0.00    -0.050 A 
ATOM     49  C10 KU9 d   1     -58.350 358.010 686.244  0.00  0.00    -0.082 A 
ATOM     50  H2  KU9 d   1     -56.554 358.650 687.236  0.00  0.00     0.084 H 
ATOM     51  C9  KU9 d   1     -59.729 358.084 686.198  0.00  0.00    -0.082 A 
ATOM     52  H1  KU9 d   1     -57.822 357.398 685.522  0.00  0.00     0.083 H 
ATOM     53  C8  KU9 d   1     -60.427 358.860 687.107  0.00  0.00    -0.076 A 
ATOM     54  H22 KU9 d   1     -60.270 357.528 685.441  0.00  0.00     0.083 H 
ATOM     55  H21 KU9 d   1     -61.508 358.923 687.063  0.00  0.00     0.084 H 
ATOM     56  C6  KU9 d   1     -60.210 360.466 689.168  0.00  0.00    -0.021 C 
ATOM     57  H19 KU9 d   1     -60.379 361.486 688.792  0.00  0.00     0.043 H 
ATOM     58  H20 KU9 d   1     -61.138 360.083 689.617  0.00  0.00     0.043 H 
ATOM     59  H18 KU9 d   1     -59.018 361.337 690.798  0.00  0.00     0.073 H 
ENDBRANCH  39  42
ENDBRANCH   4  38
BRANCH   3  60
ATOM     60  O2  KU9 d   1     -62.003 358.298 693.957  0.00  0.00    -0.354 OA
ATOM     61  H25 KU9 d   1     -61.669 359.125 694.285  0.00  0.00     0.218 HD
ENDBRANCH   3  60
TORSDOF 7
