REMARK  11 active torsions:
REMARK  status: ('A' for Active; 'I' for Inactive)
REMARK    1  A    between atoms: O3_35  and  C10_2 
REMARK    2  A    between atoms: C11_3  and  O4_36 
REMARK    3  A    between atoms: O4_36  and  C12_4 
REMARK    4  A    between atoms: C16_8  and  C17_9 
REMARK    5  A    between atoms: C18_10  and  C19_11 
REMARK       I    between atoms: N3_31  and  C18_10 
REMARK    6  A    between atoms: C19_11  and  S1_39 
REMARK    7  A    between atoms: C2_12  and  O2_34 
REMARK    8  A    between atoms: S1_39  and  C20_13 
REMARK    9  A    between atoms: C4_23  and  C3_22 
REMARK       I    between atoms: N1_29  and  C4_23 
REMARK   10  A    between atoms: C5_24  and  N1_29 
REMARK   11  A    between atoms: C9_28  and  O3_35 
ROOT
ATOM      1  C1  GYA d   1     130.403 106.263 286.962  0.00  0.00     0.282 A 
ATOM      2  C16 GYA d   1     130.238 104.115 285.910  0.00  0.00     0.131 A 
ATOM      3  C2  GYA d   1     131.646 106.396 286.349  0.00  0.00     0.169 A 
ATOM      4  C3  GYA d   1     132.126 105.395 285.561  0.00  0.00     0.165 A 
ATOM      5  N2  GYA d   1     131.438 104.264 285.342  0.00  0.00    -0.225 NA
ATOM      6  N4  GYA d   1     129.717 105.093 286.717  0.00  0.00    -0.307 N 
ATOM      7  O1  GYA d   1     129.900 107.128 287.694  0.00  0.00    -0.265 OA
ATOM      8  H28 GYA d   1     128.820 104.955 287.137  0.00  0.00     0.170 HD
ENDROOT
BRANCH   4   9
ATOM      9  C4  GYA d   1     133.469 105.529 284.903  0.00  0.00     0.273 C 
ATOM     10  N1  GYA d   1     133.943 104.434 284.314  0.00  0.00    -0.350 N 
ATOM     11  H27 GYA d   1     133.359 103.625 284.245  0.00  0.00     0.163 HD
ATOM     12  O5  GYA d   1     134.101 106.583 284.926  0.00  0.00    -0.266 OA
BRANCH  10  13
ATOM     13  C5  GYA d   1     135.286 104.386 283.770  0.00  0.00     0.020 C 
ATOM     14  C15 GYA d   1     136.046 103.177 284.351  0.00  0.00    -0.021 C 
ATOM     15  C14 GYA d   1     135.479 102.041 283.543  0.00  0.00    -0.047 A 
ATOM     16  H8  GYA d   1     137.131 103.275 284.198  0.00  0.00     0.043 H 
ATOM     17  H9  GYA d   1     135.837 103.050 285.423  0.00  0.00     0.043 H 
ATOM     18  C13 GYA d   1     135.392 100.689 283.850  0.00  0.00    -0.041 A 
ATOM     19  C7  GYA d   1     134.991 102.532 282.337  0.00  0.00    -0.047 A 
ATOM     20  C11 GYA d   1     134.817  99.834 282.923  0.00  0.00     0.102 A 
ATOM     21  H7  GYA d   1     135.766 100.311 284.795  0.00  0.00     0.088 H 
ATOM     22  C9  GYA d   1     134.321 100.333 281.696  0.00  0.00     0.102 A 
ATOM     23  C8  GYA d   1     134.415 101.687 281.402  0.00  0.00    -0.041 A 
ATOM     24  H26 GYA d   1     134.045 102.075 280.460  0.00  0.00     0.088 H 
ATOM     25  C6  GYA d   1     135.221 104.019 282.277  0.00  0.00    -0.021 C 
ATOM     26  H24 GYA d   1     136.164 104.258 281.764  0.00  0.00     0.043 H 
ATOM     27  H25 GYA d   1     134.389 104.533 281.774  0.00  0.00     0.043 H 
ATOM     28  H23 GYA d   1     135.813 105.335 283.947  0.00  0.00     0.073 H 
BRANCH  20  29
ATOM     29  O4  GYA d   1     134.665  98.483 283.089  0.00  0.00    -0.353 OA
BRANCH  29  30
ATOM     30  C12 GYA d   1     135.822  97.680 282.873  0.00  0.00     0.010 C 
ATOM     31  H4  GYA d   1     135.570  96.622 283.037  0.00  0.00     0.066 H 
ATOM     32  H5  GYA d   1     136.613  97.981 283.575  0.00  0.00     0.066 H 
ATOM     33  H6  GYA d   1     136.176  97.817 281.841  0.00  0.00     0.066 H 
ENDBRANCH  29  30
ENDBRANCH  20  29
BRANCH  22  34
ATOM     34  O3  GYA d   1     133.776  99.388 280.872  0.00  0.00    -0.353 OA
BRANCH  34  35
ATOM     35  C10 GYA d   1     133.213  99.845 279.646  0.00  0.00     0.010 C 
ATOM     36  H1  GYA d   1     132.813  98.988 279.084  0.00  0.00     0.066 H 
ATOM     37  H2  GYA d   1     133.990 100.344 279.049  0.00  0.00     0.066 H 
ATOM     38  H3  GYA d   1     132.401 100.556 279.858  0.00  0.00     0.066 H 
ENDBRANCH  34  35
ENDBRANCH  22  34
ENDBRANCH  10  13
ENDBRANCH   4   9
BRANCH   3  39
ATOM     39  O2  GYA d   1     132.314 107.531 286.593  0.00  0.00    -0.354 OA
ATOM     40  H29 GYA d   1     133.141 107.326 287.013  0.00  0.00     0.218 HD
ENDBRANCH   3  39
BRANCH   2  41
ATOM     41  C17 GYA d   1     129.492 102.824 285.651  0.00  0.00     0.072 C 
ATOM     42  C28 GYA d   1     129.571 101.821 286.813  0.00  0.00    -0.038 C 
ATOM     43  C27 GYA d   1     130.958 101.231 286.610  0.00  0.00    -0.048 C 
ATOM     44  H21 GYA d   1     128.791 101.050 286.732  0.00  0.00     0.036 H 
ATOM     45  H22 GYA d   1     129.488 102.326 287.786  0.00  0.00     0.036 H 
ATOM     46  C26 GYA d   1     130.969 100.961 285.121  0.00  0.00    -0.001 C 
ATOM     47  H19 GYA d   1     131.743 101.948 286.892  0.00  0.00     0.035 H 
ATOM     48  H20 GYA d   1     131.086 100.302 287.186  0.00  0.00     0.035 H 
ATOM     49  N3  GYA d   1     130.114 102.027 284.579  0.00  0.00    -0.340 N 
ATOM     50  H17 GYA d   1     130.551  99.968 284.897  0.00  0.00     0.064 H 
ATOM     51  H18 GYA d   1     131.989 101.029 284.715  0.00  0.00     0.064 H 
ATOM     52  C18 GYA d   1     129.893 102.257 283.274  0.00  0.00     0.230 C 
ATOM     53  O6  GYA d   1     129.082 103.103 282.910  0.00  0.00    -0.273 OA
ATOM     54  H10 GYA d   1     128.446 103.066 285.412  0.00  0.00     0.085 H 
BRANCH  52  55
ATOM     55  C19 GYA d   1     130.668 101.438 282.262  0.00  0.00     0.055 C 
ATOM     56  H11 GYA d   1     130.421 100.377 282.417  0.00  0.00     0.063 H 
ATOM     57  H12 GYA d   1     131.742 101.595 282.443  0.00  0.00     0.063 H 
BRANCH  55  58
ATOM     58  S1  GYA d   1     130.317 101.855 280.529  0.00  0.00    -0.119 SA
BRANCH  58  59
ATOM     59  C20 GYA d   1     131.024 103.452 280.248  0.00  0.00     0.022 A 
ATOM     60  C21 GYA d   1     131.533 104.212 281.302  0.00  0.00    -0.065 A 
ATOM     61  C22 GYA d   1     132.081 105.457 281.055  0.00  0.00    -0.082 A 
ATOM     62  H13 GYA d   1     131.499 103.826 282.314  0.00  0.00     0.085 H 
ATOM     63  C23 GYA d   1     132.131 105.953 279.770  0.00  0.00    -0.081 A 
ATOM     64  H14 GYA d   1     132.473 106.046 281.876  0.00  0.00     0.083 H 
ATOM     65  C24 GYA d   1     131.637 105.214 278.718  0.00  0.00    -0.061 A 
ATOM     66  H15 GYA d   1     132.562 106.931 279.586  0.00  0.00     0.083 H 
ATOM     67  C25 GYA d   1     131.085 103.971 278.958  0.00  0.00     0.050 A 
ATOM     68  H16 GYA d   1     131.681 105.606 277.708  0.00  0.00     0.086 H 
ATOM     69 CL1  GYA d   1     130.468 103.068 277.616  0.00  0.00    -0.083 Cl
ENDBRANCH  58  59
ENDBRANCH  55  58
ENDBRANCH  52  55
ENDBRANCH   2  41
TORSDOF 11
