REMARK  7 active torsions:
REMARK  status: ('A' for Active; 'I' for Inactive)
REMARK    1  A    between atoms: C18_3  and  N2_11 
REMARK       I    between atoms: N2_11  and  C3_12 
REMARK    2  A    between atoms: C3_12  and  C4_13 
REMARK    3  A    between atoms: C5_14  and  C6_15 
REMARK    4  A    between atoms: C7_16  and  N12_20 
REMARK    5  A    between atoms: C28_28  and  N31_31 
REMARK       I    between atoms: N31_31  and  C32_32 
REMARK    6  A    between atoms: C32_32  and  O34_34 
REMARK    7  A    between atoms: O34_34  and  C35_35 
ROOT
ATOM      1  C18 9ZM d   1      39.349 -21.027  28.221  0.00  0.00     0.075 C 
ATOM      2  C19 9ZM d   1      38.874 -21.874  27.026  0.00  0.00     0.001 C 
ATOM      3  C20 9ZM d   1      40.852 -20.984  28.305  0.00  0.00     0.128 A 
ATOM      4  C22 9ZM d   1      42.943 -20.907  27.667  0.00  0.00     0.007 A 
ATOM      5  C23 9ZM d   1      42.898 -21.211  28.997  0.00  0.00     0.086 A 
ATOM      6  C27 9ZM d   1      46.186 -20.943  30.793  0.00  0.00    -0.056 A 
ATOM      7  N21 9ZM d   1      41.654 -20.770  27.242  0.00  0.00    -0.350 N 
ATOM      8  N24 9ZM d   1      41.551 -21.249  29.397  0.00  0.00    -0.231 NA
ATOM      9  C25 9ZM d   1      43.975 -21.489  29.963  0.00  0.00     0.021 A 
ATOM     10  C26 9ZM d   1      45.136 -20.711  29.920  0.00  0.00    -0.066 A 
ATOM     11  C28 9ZM d   1      46.107 -21.974  31.730  0.00  0.00     0.039 A 
ATOM     12  C29 9ZM d   1      44.967 -22.772  31.774  0.00  0.00    -0.030 A 
ATOM     13  C30 9ZM d   1      43.895 -22.530  30.920  0.00  0.00     0.049 A 
ATOM     14  C36 9ZM d   1      39.362 -23.296  26.955  0.00  0.00     0.037 A 
ATOM     15  N37 9ZM d   1      39.684 -23.916  28.112  0.00  0.00    -0.255 NA
ATOM     16  C38 9ZM d   1      40.157 -25.174  28.063  0.00  0.00     0.073 A 
ATOM     17  C39 9ZM d   1      40.306 -25.847  26.849  0.00  0.00     0.141 A 
ATOM     18  C40 9ZM d   1      39.949 -25.223  25.676  0.00  0.00    -0.042 A 
ATOM     19  C41 9ZM d   1      39.479 -23.921  25.721  0.00  0.00    -0.056 A 
ATOM     20  C42 9ZM d   1      40.532 -25.830  29.365  0.00  0.00    -0.014 C 
ATOM     21  C43 9ZM d   1      40.945 -24.829  30.444  0.00  0.00     0.015 C 
ATOM     22  C44 9ZM d   1      42.276 -24.191  30.114  0.00  0.00     0.222 C 
ATOM     23  N45 9ZM d   1      42.721 -23.312  31.031  0.00  0.00    -0.326 N 
ATOM     24  O46 9ZM d   1      42.879 -24.444  29.075  0.00  0.00    -0.273 OA
ATOM     25  F47 9ZM d   1      40.852 -27.085  26.801  0.00  0.00    -0.204 F 
ATOM     26  H2  9ZM d   1      38.974 -21.509  29.136  0.00  0.00     0.085 H 
ATOM     27  H3  9ZM d   1      39.203 -21.365  26.108  0.00  0.00     0.046 H 
ATOM     28  H4  9ZM d   1      37.775 -21.902  27.056  0.00  0.00     0.046 H 
ATOM     29  H5  9ZM d   1      43.840 -20.795  27.059  0.00  0.00     0.115 H 
ATOM     30  H7  9ZM d   1      47.073 -20.321  30.748  0.00  0.00     0.086 H 
ATOM     31  H13 9ZM d   1      41.349 -20.544  26.284  0.00  0.00     0.166 HD
ATOM     32  H14 9ZM d   1      45.216 -19.913  29.191  0.00  0.00     0.085 H 
ATOM     33  H15 9ZM d   1      44.914 -23.591  32.482  0.00  0.00     0.090 H 
ATOM     34  H20 9ZM d   1      40.035 -25.744  24.729  0.00  0.00     0.088 H 
ATOM     35  H21 9ZM d   1      39.208 -23.400  24.810  0.00  0.00     0.086 H 
ATOM     36  H22 9ZM d   1      41.373 -26.515  29.182  0.00  0.00     0.043 H 
ATOM     37  H23 9ZM d   1      39.666 -26.402  29.731  0.00  0.00     0.043 H 
ATOM     38  H24 9ZM d   1      41.027 -25.353  31.408  0.00  0.00     0.047 H 
ATOM     39  H25 9ZM d   1      40.178 -24.044  30.518  0.00  0.00     0.047 H 
ATOM     40  H26 9ZM d   1      42.175 -23.202  31.862  0.00  0.00     0.169 HD
ENDROOT
BRANCH   1  41
ATOM     41  N2  9ZM d   1      38.815 -19.667  28.184  0.00  0.00    -0.346 N 
ATOM     42  C3  9ZM d   1      38.885 -18.875  29.274  0.00  0.00     0.241 C 
ATOM     43  O17 9ZM d   1      39.548 -19.194  30.274  0.00  0.00    -0.269 OA
ATOM     44  H8  9ZM d   1      38.395 -19.321  27.345  0.00  0.00     0.163 HD
BRANCH  42  45
ATOM     45  C4  9ZM d   1      38.182 -17.575  29.179  0.00  0.00    -0.017 C 
ATOM     46  C5  9ZM d   1      37.633 -17.065  28.079  0.00  0.00    -0.066 C 
ATOM     47  H10 9ZM d   1      37.697 -17.665  27.172  0.00  0.00     0.085 H 
ATOM     48  H9  9ZM d   1      38.108 -16.984  30.090  0.00  0.00     0.092 H 
BRANCH  46  49
ATOM     49  C6  9ZM d   1      36.949 -15.770  27.972  0.00  0.00    -0.005 A 
ATOM     50  C11 9ZM d   1      35.815 -15.535  28.766  0.00  0.00    -0.050 A 
ATOM     51  C10 9ZM d   1      35.172 -14.314  28.703  0.00  0.00     0.035 A 
ATOM     52  H6  9ZM d   1      35.445 -16.310  29.427  0.00  0.00     0.087 H 
ATOM     53 CL1  9ZM d   1      33.799 -14.015  29.750  0.00  0.00    -0.084 Cl
ATOM     54  C9  9ZM d   1      35.609 -13.313  27.857  0.00  0.00    -0.060 A 
ATOM     55  C8  9ZM d   1      36.731 -13.532  27.066  0.00  0.00    -0.053 A 
ATOM     56  H12 9ZM d   1      35.082 -12.367  27.811  0.00  0.00     0.086 H 
ATOM     57  C7  9ZM d   1      37.395 -14.759  27.106  0.00  0.00     0.071 A 
ATOM     58  H11 9ZM d   1      37.092 -12.745  26.414  0.00  0.00     0.087 H 
BRANCH  57  59
ATOM     59  N12 9ZM d   1      38.444 -15.006  26.166  0.00  0.00    -0.205 N 
ATOM     60  C13 9ZM d   1      38.471 -14.973  24.827  0.00  0.00     0.113 A 
ATOM     61  N14 9ZM d   1      39.666 -15.284  24.403  0.00  0.00    -0.122 NA
ATOM     62  H1  9ZM d   1      37.624 -14.724  24.189  0.00  0.00     0.149 H 
ATOM     63  N15 9ZM d   1      40.402 -15.507  25.522  0.00  0.00    -0.023 NA
ATOM     64  N16 9ZM d   1      39.683 -15.345  26.590  0.00  0.00    -0.040 NA
ENDBRANCH  57  59
ENDBRANCH  46  49
ENDBRANCH  42  45
ENDBRANCH   1  41
BRANCH  11  65
ATOM     65  N31 9ZM d   1      47.110 -22.277  32.693  0.00  0.00    -0.303 N 
ATOM     66  C32 9ZM d   1      48.430 -21.975  32.628  0.00  0.00     0.364 C 
ATOM     67  O33 9ZM d   1      48.964 -21.304  31.770  0.00  0.00    -0.238 OA
ATOM     68  H16 9ZM d   1      46.807 -22.768  33.510  0.00  0.00     0.171 HD
BRANCH  66  69
ATOM     69  O34 9ZM d   1      49.054 -22.463  33.713  0.00  0.00    -0.309 OA
BRANCH  69  70
ATOM     70  C35 9ZM d   1      50.487 -22.243  33.782  0.00  0.00     0.015 C 
ATOM     71  H17 9ZM d   1      50.882 -22.685  34.709  0.00  0.00     0.067 H 
ATOM     72  H18 9ZM d   1      50.693 -21.163  33.774  0.00  0.00     0.067 H 
ATOM     73  H19 9ZM d   1      50.973 -22.715  32.915  0.00  0.00     0.067 H 
ENDBRANCH  69  70
ENDBRANCH  66  69
ENDBRANCH  11  65
TORSDOF 7
