REMARK  3 active torsions:
REMARK  status: ('A' for Active; 'I' for Inactive)
REMARK    1  A    between atoms: C1_1  and  C2_2 
REMARK    2  A    between atoms: C2_2  and  C3_3 
REMARK    3  A    between atoms: C2_2  and  O2_5 
ROOT
ATOM      1  C2  LAC d   1      36.309  57.019  13.978  0.00  0.00     0.115 C 
ATOM      2  H1  LAC d   1      35.393  57.352  14.487  0.00  0.00     0.099 H 
ENDROOT
BRANCH   1   3
ATOM      3  C1  LAC d   1      36.284  55.515  13.960  0.00  0.00     0.202 C 
ATOM      4  O1  LAC d   1      35.303  55.116  13.364  0.00  0.00    -0.646 OA
ATOM      5  OXT LAC d   1      37.142  54.797  14.515  0.00  0.00    -0.646 OA
ENDBRANCH   1   3
BRANCH   1   6
ATOM      6  C3  LAC d   1      37.460  57.599  14.704  0.00  0.00    -0.043 C 
ATOM      7  H2  LAC d   1      37.401  58.697  14.668  0.00  0.00     0.031 H 
ATOM      8  H3  LAC d   1      38.396  57.267  14.232  0.00  0.00     0.031 H 
ATOM      9  H4  LAC d   1      37.439  57.265  15.752  0.00  0.00     0.031 H 
ENDBRANCH   1   6
BRANCH   1  10
ATOM     10  O2  LAC d   1      36.300  57.535  12.678  0.00  0.00    -0.385 OA
ATOM     11  H5  LAC d   1      35.565  57.171  12.199  0.00  0.00     0.210 HD
ENDBRANCH   1  10
TORSDOF 3
