REMARK WARNING: 32 MAX_TORS EXCEEDED!!!
REMARK  34 active torsions:
REMARK  status: ('A' for Active; 'I' for Inactive)
REMARK    1  A    between atoms: N_1  and  CA_2 
REMARK    2  A    between atoms: CA_2  and  C_3 
REMARK    3  A    between atoms: CA_2  and  CB_5 
REMARK       I    between atoms: C_3  and  N_6 
REMARK    4  A    between atoms: N_6  and  CA_7 
REMARK    5  A    between atoms: CA_7  and  C_8 
REMARK       I    between atoms: C_8  and  N_10 
REMARK    6  A    between atoms: N_10  and  CA_11 
REMARK    7  A    between atoms: CA_11  and  C_12 
REMARK    8  A    between atoms: CA_11  and  CB_14 
REMARK       I    between atoms: C_12  and  N_17 
REMARK    9  A    between atoms: CB_14  and  CG1_15 
REMARK   10  A    between atoms: CB_14  and  CG2_16 
REMARK   11  A    between atoms: N_17  and  CA_18 
REMARK   12  A    between atoms: CA_18  and  C_19 
REMARK   13  A    between atoms: CA_18  and  CB_21 
REMARK       I    between atoms: C_19  and  N_28 
REMARK   14  A    between atoms: CB_21  and  CG_22 
REMARK   15  A    between atoms: N_28  and  CA_29 
REMARK   16  A    between atoms: CA_29  and  C_30 
REMARK   17  A    between atoms: CA_29  and  CB_32 
REMARK       I    between atoms: C_30  and  N_36 
REMARK   18  A    between atoms: CB_32  and  CG_33 
REMARK   19  A    between atoms: N_36  and  CA_37 
REMARK   20  A    between atoms: CA_37  and  C_38 
REMARK   21  A    between atoms: CA_37  and  CB_40 
REMARK       I    between atoms: C_38  and  N_44 
REMARK   22  A    between atoms: CB_40  and  CG1_41 
REMARK   23  A    between atoms: CB_40  and  CG2_42 
REMARK   24  A    between atoms: CG1_41  and  CD1_43 
REMARK   25  A    between atoms: N_44  and  CA_45 
REMARK   26  A    between atoms: CA_45  and  C_46 
REMARK   27  A    between atoms: CA_45  and  CB_48 
REMARK       I    between atoms: C_46  and  N_52 
REMARK   28  A    between atoms: CB_48  and  CG_49 
REMARK   29  A    between atoms: N_52  and  CA_53 
REMARK   30  A    between atoms: CA_53  and  C_54 
REMARK   31  A    between atoms: CA_53  and  CB_56 
REMARK   32  A    between atoms: CB_56  and  CG_57 
REMARK   33  A    between atoms: CG_57  and  CD1_58 
REMARK   34  A    between atoms: CG_57  and  CD2_59 
ROOT
ATOM      1  CA  ASP d   1     -19.864 -51.266  28.393  0.00  0.00     0.098 C 
ATOM      2  H30 ASP d   1     -19.719 -50.713  29.333  0.00  0.00     0.088 H 
ENDROOT
BRANCH   1   3
ATOM      3  N   ASP d   1     -21.307 -51.383  28.135  0.00  0.00    -0.345 N 
ATOM      4  C   PHE d   1     -22.146 -50.357  28.283  0.00  0.00     0.241 C 
ATOM      5  O   PHE d   1     -21.781 -49.233  28.629  0.00  0.00    -0.271 OA
ATOM      6  H29 ASP d   1     -21.673 -52.265  27.837  0.00  0.00     0.163 HD
BRANCH   4   7
ATOM      7  CA  PHE d   1     -23.625 -50.642  28.004  0.00  0.00     0.093 C 
ATOM      8  H21 PHE d   1     -23.833 -51.689  28.270  0.00  0.00     0.088 H 
BRANCH   7   9
ATOM      9  N   PHE d   1     -24.475 -49.773  28.834  0.00  0.00    -0.346 N 
ATOM     10  C   VAL d   1     -25.069 -50.191  29.955  0.00  0.00     0.241 C 
ATOM     11  O   VAL d   1     -24.905 -51.320  30.429  0.00  0.00    -0.271 OA
ATOM     12  H20 PHE d   1     -24.614 -48.826  28.545  0.00  0.00     0.163 HD
BRANCH  10  13
ATOM     13  CA  VAL d   1     -26.009 -49.195  30.648  0.00  0.00     0.092 C 
ATOM     14  H12 VAL d   1     -26.048 -49.450  31.717  0.00  0.00     0.088 H 
BRANCH  13  15
ATOM     15  N   VAL d   1     -25.525 -47.802  30.536  0.00  0.00    -0.346 N 
ATOM     16  C   GLY d   1     -24.560 -47.289  31.305  0.00  0.00     0.236 C 
ATOM     17  O   GLY d   1     -24.034 -47.910  32.236  0.00  0.00    -0.272 OA
ATOM     18  H11 VAL d   1     -25.943 -47.211  29.846  0.00  0.00     0.163 HD
BRANCH  16  19
ATOM     19  CA  GLY d   1     -24.144 -45.854  30.990  0.00  0.00     0.069 C 
ATOM     20  H9  GLY d   1     -23.525 -45.870  30.081  0.00  0.00     0.078 H 
ATOM     21  H10 GLY d   1     -25.056 -45.268  30.802  0.00  0.00     0.078 H 
BRANCH  19  22
ATOM     22  N   GLY d   1     -23.377 -45.179  32.054  0.00  0.00    -0.351 N 
ATOM     23  C   ALA d   1     -23.955 -44.656  33.139  0.00  0.00     0.248 C 
ATOM     24  O   ALA d   1     -25.173 -44.667  33.317  0.00  0.00    -0.271 OA
ATOM     25  H8  GLY d   1     -22.384 -45.110  31.959  0.00  0.00     0.163 HD
BRANCH  23  26
ATOM     26  CA  ALA d   1     -23.037 -44.010  34.193  0.00  0.00     0.172 C 
ATOM     27  H4  ALA d   1     -23.613 -43.958  35.128  0.00  0.00     0.098 H 
BRANCH  26  28
ATOM     28  N   ALA d   1     -21.792 -44.796  34.493  0.00  0.00    -0.067 N 
ATOM     29  H1  ALA d   1     -21.247 -44.310  35.188  0.00  0.00     0.275 HD
ATOM     30  H2  ALA d   1     -21.248 -44.898  33.651  0.00  0.00     0.275 HD
ATOM     31  H3  ALA d   1     -22.046 -45.707  34.842  0.00  0.00     0.275 HD
ENDBRANCH  26  28
BRANCH  26  32
ATOM     32  CB  ALA d   1     -22.685 -42.583  33.789  0.00  0.00    -0.042 C 
ATOM     33  H5  ALA d   1     -23.608 -42.025  33.574  0.00  0.00     0.030 H 
ATOM     34  H6  ALA d   1     -22.050 -42.602  32.891  0.00  0.00     0.030 H 
ATOM     35  H7  ALA d   1     -22.143 -42.092  34.611  0.00  0.00     0.030 H 
ENDBRANCH  26  32
ENDBRANCH  23  26
ENDBRANCH  19  22
ENDBRANCH  16  19
ENDBRANCH  13  15
BRANCH  13  36
ATOM     36  CB  VAL d   1     -27.440 -49.348  30.060  0.00  0.00    -0.033 C 
ATOM     37  H13 VAL d   1     -27.427 -48.965  29.029  0.00  0.00     0.042 H 
BRANCH  36  38
ATOM     38  CG1 VAL d   1     -27.894 -50.808  30.020  0.00  0.00    -0.071 C 
ATOM     39  H14 VAL d   1     -28.908 -50.865  29.598  0.00  0.00     0.028 H 
ATOM     40  H15 VAL d   1     -27.898 -51.219  31.040  0.00  0.00     0.028 H 
ATOM     41  H16 VAL d   1     -27.203 -51.390  29.393  0.00  0.00     0.028 H 
ENDBRANCH  36  38
BRANCH  36  42
ATOM     42  CG2 VAL d   1     -28.431 -48.527  30.868  0.00  0.00    -0.071 C 
ATOM     43  H17 VAL d   1     -28.102 -47.478  30.895  0.00  0.00     0.028 H 
ATOM     44  H18 VAL d   1     -28.484 -48.921  31.894  0.00  0.00     0.028 H 
ATOM     45  H19 VAL d   1     -29.425 -48.588  30.400  0.00  0.00     0.028 H 
ENDBRANCH  36  42
ENDBRANCH  13  36
ENDBRANCH  10  13
ENDBRANCH   7   9
BRANCH   7  46
ATOM     46  CB  PHE d   1     -23.947 -50.448  26.512  0.00  0.00    -0.014 C 
ATOM     47  H22 PHE d   1     -23.601 -51.337  25.963  0.00  0.00     0.043 H 
ATOM     48  H23 PHE d   1     -23.405 -49.561  26.152  0.00  0.00     0.043 H 
BRANCH  46  49
ATOM     49  CG  PHE d   1     -25.414 -50.256  26.231  0.00  0.00    -0.056 A 
ATOM     50  CD1 PHE d   1     -25.911 -49.002  25.886  0.00  0.00    -0.077 A 
ATOM     51  CE1 PHE d   1     -27.264 -48.817  25.647  0.00  0.00    -0.082 A 
ATOM     52  H24 PHE d   1     -25.232 -48.161  25.803  0.00  0.00     0.084 H 
ATOM     53  CZ  PHE d   1     -28.141 -49.885  25.760  0.00  0.00    -0.083 A 
ATOM     54  H26 PHE d   1     -27.637 -47.837  25.372  0.00  0.00     0.083 H 
ATOM     55  CE2 PHE d   1     -27.664 -51.137  26.114  0.00  0.00    -0.082 A 
ATOM     56  H28 PHE d   1     -29.199 -49.741  25.572  0.00  0.00     0.083 H 
ATOM     57  CD2 PHE d   1     -26.308 -51.319  26.351  0.00  0.00    -0.077 A 
ATOM     58  H27 PHE d   1     -28.348 -51.973  26.206  0.00  0.00     0.083 H 
ATOM     59  H25 PHE d   1     -25.940 -52.299  26.633  0.00  0.00     0.084 H 
ENDBRANCH  46  49
ENDBRANCH   7  46
ENDBRANCH   4   7
ENDBRANCH   1   3
BRANCH   1  60
ATOM     60  C   ASP d   1     -19.181 -50.507  27.259  0.00  0.00     0.241 C 
ATOM     61  O   ASP d   1     -19.715 -50.437  26.152  0.00  0.00    -0.271 OA
ATOM     62  N   ILE d   1     -18.001 -49.954  27.542  0.00  0.00    -0.346 N 
ATOM     63  H33 ILE d   1     -17.661 -50.005  28.481  0.00  0.00     0.163 HD
BRANCH  62  64
ATOM     64  CA  ILE d   1     -17.177 -49.270  26.529  0.00  0.00     0.092 C 
ATOM     65  H34 ILE d   1     -17.623 -49.476  25.545  0.00  0.00     0.088 H 
BRANCH  64  66
ATOM     66  C   ILE d   1     -15.753 -49.852  26.525  0.00  0.00     0.241 C 
ATOM     67  O   ILE d   1     -15.217 -50.199  27.582  0.00  0.00    -0.271 OA
ATOM     68  N   ASP d   1     -15.173 -49.965  25.326  0.00  0.00    -0.345 N 
ATOM     69  H44 ASP d   1     -15.698 -49.682  24.523  0.00  0.00     0.163 HD
BRANCH  68  70
ATOM     70  CA  ASP d   1     -13.810 -50.480  25.112  0.00  0.00     0.098 C 
ATOM     71  H45 ASP d   1     -13.451 -50.939  26.045  0.00  0.00     0.088 H 
BRANCH  70  72
ATOM     72  C   ASP d   1     -12.870 -49.332  24.724  0.00  0.00     0.241 C 
ATOM     73  O   ASP d   1     -13.221 -48.506  23.879  0.00  0.00    -0.271 OA
ATOM     74  N   LEU d   1     -11.681 -49.290  25.333  0.00  0.00    -0.345 N 
ATOM     75  H48 LEU d   1     -11.416 -50.055  25.920  0.00  0.00     0.163 HD
BRANCH  74  76
ATOM     76  CA  LEU d   1     -10.746 -48.164  25.175  0.00  0.00     0.096 C 
ATOM     77  H49 LEU d   1     -11.031 -47.608  24.269  0.00  0.00     0.089 H 
BRANCH  76  78
ATOM     78  C   LEU d   1      -9.298 -48.639  25.005  0.00  0.00     0.196 C 
ATOM     79  O   LEU d   1      -8.706 -49.235  25.908  0.00  0.00    -0.646 OA
ATOM     80  OXT LEU d   1      -8.675 -48.442  23.959  0.00  0.00    -0.646 OA
ENDBRANCH  76  78
BRANCH  76  81
ATOM     81  CB  LEU d   1     -10.856 -47.219  26.378  0.00  0.00    -0.034 C 
ATOM     82  H50 LEU d   1     -10.147 -46.393  26.218  0.00  0.00     0.037 H 
ATOM     83  H51 LEU d   1     -10.562 -47.786  27.274  0.00  0.00     0.037 H 
BRANCH  81  84
ATOM     84  CG  LEU d   1     -12.237 -46.599  26.653  0.00  0.00    -0.059 C 
ATOM     85  H52 LEU d   1     -12.980 -47.410  26.619  0.00  0.00     0.038 H 
BRANCH  84  86
ATOM     86  CD1 LEU d   1     -12.300 -45.966  28.034  0.00  0.00    -0.073 C 
ATOM     87  H53 LEU d   1     -13.299 -45.535  28.194  0.00  0.00     0.028 H 
ATOM     88  H54 LEU d   1     -11.542 -45.173  28.109  0.00  0.00     0.028 H 
ATOM     89  H55 LEU d   1     -12.105 -46.733  28.798  0.00  0.00     0.028 H 
ENDBRANCH  84  86
BRANCH  84  90
ATOM     90  CD2 LEU d   1     -12.608 -45.580  25.584  0.00  0.00    -0.073 C 
ATOM     91  H56 LEU d   1     -12.557 -46.054  24.593  0.00  0.00     0.028 H 
ATOM     92  H57 LEU d   1     -11.905 -44.735  25.623  0.00  0.00     0.028 H 
ATOM     93  H58 LEU d   1     -13.630 -45.215  25.764  0.00  0.00     0.028 H 
ENDBRANCH  84  90
ENDBRANCH  81  84
ENDBRANCH  76  81
ENDBRANCH  74  76
ENDBRANCH  70  72
BRANCH  70  94
ATOM     94  CB  ASP d   1     -13.813 -51.539  24.003  0.00  0.00     0.043 C 
ATOM     95  H46 ASP d   1     -12.789 -51.919  23.877  0.00  0.00     0.052 H 
ATOM     96  H47 ASP d   1     -14.146 -51.067  23.067  0.00  0.00     0.052 H 
BRANCH  94  97
ATOM     97  CG  ASP d   1     -14.734 -52.713  24.311  0.00  0.00     0.175 C 
ATOM     98  OD1 ASP d   1     -14.431 -53.488  25.247  0.00  0.00    -0.648 OA
ATOM     99  OD2 ASP d   1     -15.757 -52.866  23.606  0.00  0.00    -0.648 OA
ENDBRANCH  94  97
ENDBRANCH  70  94
ENDBRANCH  68  70
ENDBRANCH  64  66
BRANCH  64 100
ATOM    100  CB  ILE d   1     -17.176 -47.722  26.720  0.00  0.00    -0.030 C 
ATOM    101  H35 ILE d   1     -18.222 -47.383  26.699  0.00  0.00     0.043 H 
BRANCH 100 102
ATOM    102  CG1 ILE d   1     -16.428 -47.020  25.573  0.00  0.00    -0.063 C 
ATOM    103  H36 ILE d   1     -16.629 -47.572  24.643  0.00  0.00     0.033 H 
ATOM    104  H37 ILE d   1     -15.351 -47.053  25.794  0.00  0.00     0.033 H 
BRANCH 102 105
ATOM    105  CD1 ILE d   1     -16.824 -45.575  25.361  0.00  0.00    -0.076 C 
ATOM    106  H41 ILE d   1     -16.243 -45.154  24.527  0.00  0.00     0.027 H 
ATOM    107  H42 ILE d   1     -16.619 -45.001  26.276  0.00  0.00     0.027 H 
ATOM    108  H43 ILE d   1     -17.897 -45.520  25.126  0.00  0.00     0.027 H 
ENDBRANCH 102 105
ENDBRANCH 100 102
BRANCH 100 109
ATOM    109  CG2 ILE d   1     -16.583 -47.320  28.068  0.00  0.00    -0.071 C 
ATOM    110  H38 ILE d   1     -17.129 -47.830  28.875  0.00  0.00     0.028 H 
ATOM    111  H39 ILE d   1     -16.671 -46.231  28.197  0.00  0.00     0.028 H 
ATOM    112  H40 ILE d   1     -15.522 -47.609  28.103  0.00  0.00     0.028 H 
ENDBRANCH 100 109
ENDBRANCH  64 100
ENDBRANCH  62  64
ENDBRANCH   1  60
BRANCH   1 113
ATOM    113  CB  ASP d   1     -19.214 -52.652  28.525  0.00  0.00     0.043 C 
ATOM    114  H31 ASP d   1     -18.137 -52.518  28.705  0.00  0.00     0.052 H 
ATOM    115  H32 ASP d   1     -19.363 -53.199  27.582  0.00  0.00     0.052 H 
BRANCH 113 116
ATOM    116  CG  ASP d   1     -19.796 -53.480  29.663  0.00  0.00     0.175 C 
ATOM    117  OD1 ASP d   1     -20.017 -52.932  30.765  0.00  0.00    -0.648 OA
ATOM    118  OD2 ASP d   1     -20.020 -54.693  29.451  0.00  0.00    -0.648 OA
ENDBRANCH 113 116
ENDBRANCH   1 113
TORSDOF 34
