REMARK WARNING: 32 MAX_TORS EXCEEDED!!!
REMARK  34 active torsions:
REMARK  status: ('A' for Active; 'I' for Inactive)
REMARK    1  A    between atoms: N_1  and  CA_2 
REMARK    2  A    between atoms: CA_2  and  C_3 
REMARK       I    between atoms: C_3  and  N_5 
REMARK    3  A    between atoms: N_5  and  CA_6 
REMARK    4  A    between atoms: CA_6  and  C_7 
REMARK       I    between atoms: C_7  and  N_9 
REMARK    5  A    between atoms: N_9  and  CA_10 
REMARK    6  A    between atoms: CA_10  and  C_11 
REMARK    7  A    between atoms: CA_10  and  CB_13 
REMARK       I    between atoms: C_11  and  N_17 
REMARK    8  A    between atoms: CB_13  and  CG_14 
REMARK    9  A    between atoms: CG_14  and  CD1_15 
REMARK   10  A    between atoms: CG_14  and  CD2_16 
REMARK   11  A    between atoms: N_17  and  CA_18 
REMARK   12  A    between atoms: CA_18  and  C_19 
REMARK   13  A    between atoms: CA_18  and  CB_21 
REMARK       I    between atoms: C_19  and  N_28 
REMARK   14  A    between atoms: CB_21  and  CG_22 
REMARK   15  A    between atoms: N_28  and  CA_29 
REMARK   16  A    between atoms: CA_29  and  C_30 
REMARK   17  A    between atoms: CA_29  and  CB_32 
REMARK       I    between atoms: C_30  and  N_35 
REMARK   18  A    between atoms: CB_32  and  CG1_33 
REMARK   19  A    between atoms: CB_32  and  CG2_34 
REMARK   20  A    between atoms: N_35  and  CA_36 
REMARK   21  A    between atoms: CA_36  and  C_37 
REMARK   22  A    between atoms: CA_36  and  CB_39 
REMARK       I    between atoms: C_37  and  N_43 
REMARK   23  A    between atoms: CB_39  and  CG_40 
REMARK   24  A    between atoms: CG_40  and  SD_41 
REMARK   25  A    between atoms: SD_41  and  CE_42 
REMARK   26  A    between atoms: N_43  and  CA_44 
REMARK   27  A    between atoms: CA_44  and  C_45 
REMARK   28  A    between atoms: CA_44  and  CB_47 
REMARK       I    between atoms: C_45  and  N_51 
REMARK   29  A    between atoms: CB_47  and  CG_48 
REMARK   30  A    between atoms: N_51  and  CA_52 
REMARK   31  A    between atoms: CA_52  and  C_53 
REMARK   32  A    between atoms: CA_52  and  CB_55 
REMARK   33  A    between atoms: CB_55  and  CG_56 
REMARK   34  A    between atoms: CG_56  and  CD_57 
ROOT
ATOM      1  CA  VAL d   1     -19.522 -51.386  28.883  0.00  0.00     0.092 C 
ATOM      2  H30 VAL d   1     -19.327 -50.699  29.720  0.00  0.00     0.088 H 
ENDROOT
BRANCH   1   3
ATOM      3  N   VAL d   1     -20.971 -51.399  28.626  0.00  0.00    -0.346 N 
ATOM      4  C   PHE d   1     -21.720 -50.294  28.643  0.00  0.00     0.241 C 
ATOM      5  O   PHE d   1     -21.253 -49.162  28.801  0.00  0.00    -0.271 OA
ATOM      6  H29 VAL d   1     -21.414 -52.274  28.430  0.00  0.00     0.163 HD
BRANCH   4   7
ATOM      7  CA  PHE d   1     -23.228 -50.493  28.435  0.00  0.00     0.093 C 
ATOM      8  H21 PHE d   1     -23.465 -51.556  28.591  0.00  0.00     0.088 H 
BRANCH   7   9
ATOM      9  N   PHE d   1     -23.990 -49.702  29.433  0.00  0.00    -0.346 N 
ATOM     10  C   LEU d   1     -24.572 -50.253  30.506  0.00  0.00     0.241 C 
ATOM     11  O   LEU d   1     -24.689 -51.474  30.657  0.00  0.00    -0.271 OA
ATOM     12  H20 PHE d   1     -24.073 -48.715  29.299  0.00  0.00     0.163 HD
BRANCH  10  13
ATOM     13  CA  LEU d   1     -25.170 -49.296  31.564  0.00  0.00     0.089 C 
ATOM     14  H10 LEU d   1     -25.513 -49.933  32.392  0.00  0.00     0.087 H 
BRANCH  13  15
ATOM     15  N   LEU d   1     -24.199 -48.348  32.171  0.00  0.00    -0.346 N 
ATOM     16  C   GLY d   1     -23.837 -47.161  31.668  0.00  0.00     0.236 C 
ATOM     17  O   GLY d   1     -24.335 -46.654  30.660  0.00  0.00    -0.272 OA
ATOM     18  H9  LEU d   1     -23.777 -48.622  33.035  0.00  0.00     0.163 HD
BRANCH  16  19
ATOM     19  CA  GLY d   1     -22.727 -46.440  32.421  0.00  0.00     0.069 C 
ATOM     20  H7  GLY d   1     -22.599 -46.932  33.396  0.00  0.00     0.078 H 
ATOM     21  H8  GLY d   1     -21.799 -46.535  31.837  0.00  0.00     0.078 H 
BRANCH  19  22
ATOM     22  N   GLY d   1     -22.973 -45.015  32.658  0.00  0.00    -0.351 N 
ATOM     23  C   GLY d   1     -22.011 -44.184  33.063  0.00  0.00     0.243 C 
ATOM     24  O   GLY d   1     -20.842 -44.539  33.243  0.00  0.00    -0.272 OA
ATOM     25  H6  GLY d   1     -23.893 -44.653  32.511  0.00  0.00     0.163 HD
BRANCH  23  26
ATOM     26  CA  GLY d   1     -22.421 -42.737  33.293  0.00  0.00     0.152 C 
ATOM     27  H4  GLY d   1     -21.555 -42.097  33.068  0.00  0.00     0.090 H 
ATOM     28  H5  GLY d   1     -23.242 -42.500  32.601  0.00  0.00     0.090 H 
BRANCH  26  29
ATOM     29  N   GLY d   1     -22.880 -42.426  34.682  0.00  0.00    -0.071 N 
ATOM     30  H1  GLY d   1     -23.130 -41.451  34.743  0.00  0.00     0.274 HD
ATOM     31  H2  GLY d   1     -22.137 -42.623  35.334  0.00  0.00     0.274 HD
ATOM     32  H3  GLY d   1     -23.683 -42.993  34.906  0.00  0.00     0.274 HD
ENDBRANCH  26  29
ENDBRANCH  23  26
ENDBRANCH  19  22
ENDBRANCH  16  19
ENDBRANCH  13  15
BRANCH  13  33
ATOM     33  CB  LEU d   1     -26.420 -48.609  31.000  0.00  0.00    -0.035 C 
ATOM     34  H11 LEU d   1     -26.201 -48.259  29.980  0.00  0.00     0.037 H 
ATOM     35  H12 LEU d   1     -26.667 -47.748  31.638  0.00  0.00     0.037 H 
BRANCH  33  36
ATOM     36  CG  LEU d   1     -27.635 -49.549  30.948  0.00  0.00    -0.059 C 
ATOM     37  H13 LEU d   1     -27.266 -50.569  30.766  0.00  0.00     0.038 H 
BRANCH  36  38
ATOM     38  CD1 LEU d   1     -28.376 -49.547  32.279  0.00  0.00    -0.073 C 
ATOM     39  H14 LEU d   1     -29.240 -50.225  32.219  0.00  0.00     0.028 H 
ATOM     40  H15 LEU d   1     -28.725 -48.528  32.503  0.00  0.00     0.028 H 
ATOM     41  H16 LEU d   1     -27.698 -49.886  33.076  0.00  0.00     0.028 H 
ENDBRANCH  36  38
BRANCH  36  42
ATOM     42  CD2 LEU d   1     -28.571 -49.181  29.806  0.00  0.00    -0.073 C 
ATOM     43  H17 LEU d   1     -28.014 -49.189  28.858  0.00  0.00     0.028 H 
ATOM     44  H18 LEU d   1     -28.984 -48.176  29.980  0.00  0.00     0.028 H 
ATOM     45  H19 LEU d   1     -29.392 -49.911  29.755  0.00  0.00     0.028 H 
ENDBRANCH  36  42
ENDBRANCH  33  36
ENDBRANCH  13  33
ENDBRANCH  10  13
ENDBRANCH   7   9
BRANCH   7  46
ATOM     46  CB  PHE d   1     -23.602 -50.128  26.985  0.00  0.00    -0.014 C 
ATOM     47  H22 PHE d   1     -23.099 -50.836  26.310  0.00  0.00     0.043 H 
ATOM     48  H23 PHE d   1     -23.242 -49.108  26.782  0.00  0.00     0.043 H 
BRANCH  46  49
ATOM     49  CG  PHE d   1     -25.079 -50.173  26.700  0.00  0.00    -0.056 A 
ATOM     50  CD1 PHE d   1     -25.756 -49.040  26.264  0.00  0.00    -0.077 A 
ATOM     51  CE1 PHE d   1     -27.119 -49.085  26.006  0.00  0.00    -0.082 A 
ATOM     52  H24 PHE d   1     -25.214 -48.112  26.124  0.00  0.00     0.084 H 
ATOM     53  CZ  PHE d   1     -27.826 -50.265  26.184  0.00  0.00    -0.083 A 
ATOM     54  H26 PHE d   1     -27.633 -48.194  25.664  0.00  0.00     0.083 H 
ATOM     55  CE2 PHE d   1     -27.166 -51.401  26.617  0.00  0.00    -0.082 A 
ATOM     56  H28 PHE d   1     -28.891 -50.297  25.985  0.00  0.00     0.083 H 
ATOM     57  CD2 PHE d   1     -25.799 -51.353  26.872  0.00  0.00    -0.077 A 
ATOM     58  H27 PHE d   1     -27.713 -52.327  26.757  0.00  0.00     0.083 H 
ATOM     59  H25 PHE d   1     -25.287 -52.247  27.209  0.00  0.00     0.084 H 
ENDBRANCH  46  49
ENDBRANCH   7  46
ENDBRANCH   4   7
ENDBRANCH   1   3
BRANCH   1  60
ATOM     60  C   VAL d   1     -18.787 -50.855  27.640  0.00  0.00     0.241 C 
ATOM     61  O   VAL d   1     -19.274 -50.986  26.513  0.00  0.00    -0.271 OA
ATOM     62  N   MET d   1     -17.633 -50.231  27.866  0.00  0.00    -0.346 N 
ATOM     63  H38 MET d   1     -17.368 -50.050  28.813  0.00  0.00     0.163 HD
BRANCH  62  64
ATOM     64  CA  MET d   1     -16.734 -49.797  26.799  0.00  0.00     0.090 C 
ATOM     65  H39 MET d   1     -17.119 -50.144  25.829  0.00  0.00     0.087 H 
BRANCH  64  66
ATOM     66  C   MET d   1     -15.366 -50.427  27.054  0.00  0.00     0.241 C 
ATOM     67  O   MET d   1     -14.943 -50.552  28.207  0.00  0.00    -0.271 OA
ATOM     68  N   ASP d   1     -14.688 -50.834  25.983  0.00  0.00    -0.346 N 
ATOM     69  H47 ASP d   1     -15.048 -50.627  25.073  0.00  0.00     0.163 HD
BRANCH  68  70
ATOM     70  CA  ASP d   1     -13.428 -51.577  26.099  0.00  0.00     0.098 C 
ATOM     71  H48 ASP d   1     -13.539 -52.301  26.920  0.00  0.00     0.088 H 
BRANCH  70  72
ATOM     72  C   ASP d   1     -12.249 -50.661  26.433  0.00  0.00     0.241 C 
ATOM     73  O   ASP d   1     -11.871 -49.801  25.630  0.00  0.00    -0.271 OA
ATOM     74  N   GLU d   1     -11.697 -50.839  27.635  0.00  0.00    -0.345 N 
ATOM     75  H51 GLU d   1     -12.140 -51.467  28.275  0.00  0.00     0.163 HD
BRANCH  74  76
ATOM     76  CA  GLU d   1     -10.468 -50.155  28.061  0.00  0.00     0.097 C 
ATOM     77  H52 GLU d   1      -9.809 -50.098  27.182  0.00  0.00     0.089 H 
BRANCH  76  78
ATOM     78  C   GLU d   1      -9.728 -50.961  29.135  0.00  0.00     0.196 C 
ATOM     79  O   GLU d   1      -9.118 -51.993  28.845  0.00  0.00    -0.646 OA
ATOM     80  OXT GLU d   1      -9.726 -50.595  30.313  0.00  0.00    -0.646 OA
ENDBRANCH  76  78
BRANCH  76  81
ATOM     81  CB  GLU d   1     -10.729 -48.698  28.531  0.00  0.00    -0.028 C 
ATOM     82  H53 GLU d   1     -10.396 -48.030  27.723  0.00  0.00     0.037 H 
ATOM     83  H54 GLU d   1     -10.112 -48.528  29.425  0.00  0.00     0.037 H 
BRANCH  81  84
ATOM     84  CG  GLU d   1     -12.167 -48.300  28.888  0.00  0.00     0.018 C 
ATOM     85  H55 GLU d   1     -12.816 -48.563  28.039  0.00  0.00     0.049 H 
ATOM     86  H56 GLU d   1     -12.192 -47.212  29.045  0.00  0.00     0.049 H 
BRANCH  84  87
ATOM     87  CD  GLU d   1     -12.724 -48.972  30.136  0.00  0.00     0.172 C 
ATOM     88  OE1 GLU d   1     -11.989 -49.703  30.833  0.00  0.00    -0.648 OA
ATOM     89  OE2 GLU d   1     -13.918 -48.755  30.430  0.00  0.00    -0.648 OA
ENDBRANCH  84  87
ENDBRANCH  81  84
ENDBRANCH  76  81
ENDBRANCH  74  76
ENDBRANCH  70  72
BRANCH  70  90
ATOM     90  CB  ASP d   1     -13.136 -52.351  24.814  0.00  0.00     0.043 C 
ATOM     91  H49 ASP d   1     -12.176 -52.876  24.928  0.00  0.00     0.052 H 
ATOM     92  H50 ASP d   1     -13.067 -51.637  23.980  0.00  0.00     0.052 H 
BRANCH  90  93
ATOM     93  CG  ASP d   1     -14.210 -53.368  24.495  0.00  0.00     0.175 C 
ATOM     94  OD1 ASP d   1     -15.345 -52.944  24.195  0.00  0.00    -0.648 OA
ATOM     95  OD2 ASP d   1     -13.921 -54.584  24.544  0.00  0.00    -0.648 OA
ENDBRANCH  90  93
ENDBRANCH  70  90
ENDBRANCH  68  70
ENDBRANCH  64  66
BRANCH  64  96
ATOM     96  CB  MET d   1     -16.649 -48.270  26.780  0.00  0.00    -0.030 C 
ATOM     97  H40 MET d   1     -16.182 -47.943  27.721  0.00  0.00     0.037 H 
ATOM     98  H41 MET d   1     -17.673 -47.872  26.721  0.00  0.00     0.037 H 
BRANCH  96  99
ATOM     99  CG  MET d   1     -15.848 -47.683  25.626  0.00  0.00    -0.021 C 
ATOM    100  H42 MET d   1     -15.922 -48.365  24.766  0.00  0.00     0.049 H 
ATOM    101  H43 MET d   1     -14.796 -47.598  25.937  0.00  0.00     0.049 H 
BRANCH  99 102
ATOM    102  SD  MET d   1     -16.431 -46.049  25.117  0.00  0.00    -0.173 SA
BRANCH 102 103
ATOM    103  CE  MET d   1     -16.309 -45.164  26.665  0.00  0.00    -0.035 C 
ATOM    104  H44 MET d   1     -16.637 -44.124  26.520  0.00  0.00     0.041 H 
ATOM    105  H45 MET d   1     -15.265 -45.174  27.012  0.00  0.00     0.041 H 
ATOM    106  H46 MET d   1     -16.950 -45.649  27.416  0.00  0.00     0.041 H 
ENDBRANCH 102 103
ENDBRANCH  99 102
ENDBRANCH  96  99
ENDBRANCH  64  96
ENDBRANCH  62  64
ENDBRANCH   1  60
BRANCH   1 107
ATOM    107  CB  VAL d   1     -18.996 -52.800  29.291  0.00  0.00    -0.033 C 
ATOM    108  H31 VAL d   1     -19.183 -53.486  28.451  0.00  0.00     0.042 H 
BRANCH 107 109
ATOM    109  CG1 VAL d   1     -17.495 -52.793  29.579  0.00  0.00    -0.071 C 
ATOM    110  H32 VAL d   1     -17.171 -53.806  29.861  0.00  0.00     0.028 H 
ATOM    111  H33 VAL d   1     -17.283 -52.097  30.404  0.00  0.00     0.028 H 
ATOM    112  H34 VAL d   1     -16.950 -52.471  28.679  0.00  0.00     0.028 H 
ENDBRANCH 107 109
BRANCH 107 113
ATOM    113  CG2 VAL d   1     -19.736 -53.324  30.518  0.00  0.00    -0.071 C 
ATOM    114  H35 VAL d   1     -20.818 -53.332  30.318  0.00  0.00     0.028 H 
ATOM    115  H36 VAL d   1     -19.527 -52.672  31.379  0.00  0.00     0.028 H 
ATOM    116  H37 VAL d   1     -19.397 -54.346  30.742  0.00  0.00     0.028 H 
ENDBRANCH 107 113
ENDBRANCH   1 107
TORSDOF 34
