REMARK  1 active torsions:
REMARK  status: ('A' for Active; 'I' for Inactive)
REMARK    1  A    between atoms: C8_6  and  C9_5 
ROOT
ATOM      1  C4  A2J d   1      -3.171  -0.891  18.261  0.00  0.00     0.084 A 
ATOM      2  N2  A2J d   1      -2.955  -2.142  18.832  0.00  0.00    -0.237 NA
ATOM      3  C7  A2J d   1      -4.721  -1.623  20.492  0.00  0.00     0.279 A 
ATOM      4  C6  A2J d   1      -4.310   1.258  18.219  0.00  0.00    -0.055 A 
ATOM      5  C8  A2J d   1      -3.693  -2.500  19.874  0.00  0.00     0.209 A 
ATOM      6  C1  A2J d   1      -3.608   1.591  17.067  0.00  0.00    -0.081 A 
ATOM      7  C2  A2J d   1      -2.720   0.692  16.500  0.00  0.00    -0.081 A 
ATOM      8  C3  A2J d   1      -2.498  -0.548  17.085  0.00  0.00    -0.053 A 
ATOM      9  C5  A2J d   1      -4.099   0.013  18.808  0.00  0.00     0.064 A 
ATOM     10  N1  A2J d   1      -4.840  -0.403  19.913  0.00  0.00    -0.320 N 
ATOM     11  O1  A2J d   1      -5.461  -1.972  21.418  0.00  0.00    -0.266 OA
ATOM     12  H1  A2J d   1      -5.013   1.958  18.654  0.00  0.00     0.087 H 
ATOM     13  H2  A2J d   1      -3.756   2.562  16.608  0.00  0.00     0.083 H 
ATOM     14  H3  A2J d   1      -2.193   0.959  15.591  0.00  0.00     0.083 H 
ATOM     15  H4  A2J d   1      -1.805  -1.247  16.631  0.00  0.00     0.087 H 
ATOM     16  H5  A2J d   1      -5.501   0.238  20.303  0.00  0.00     0.169 HD
ENDROOT
BRANCH   5  17
ATOM     17  C9  A2J d   1      -3.539  -3.908  20.370  0.00  0.00     0.440 C 
ATOM     18  F1  A2J d   1      -2.443  -4.496  19.898  0.00  0.00    -0.164 F 
ATOM     19  F2  A2J d   1      -3.434  -3.975  21.687  0.00  0.00    -0.164 F 
ATOM     20  F3  A2J d   1      -4.567  -4.662  20.032  0.00  0.00    -0.164 F 
ENDBRANCH   5  17
TORSDOF 1
