REMARK  6 active torsions:
REMARK  status: ('A' for Active; 'I' for Inactive)
REMARK    1  A    between atoms: N4_20  and  C7_4 
REMARK    2  A    between atoms: C9_6  and  C10_15 
REMARK    3  A    between atoms: C14_22  and  C16_9 
REMARK    4  A    between atoms: C2_11  and  C1_10 
REMARK    5  A    between atoms: C3_12  and  C2_11 
REMARK    6  A    between atoms: C14_22  and  O1_24 
ROOT
ATOM      1  N3  A3J d   1      -1.867  -2.313  19.068  0.00  0.00    -0.191 NA
ATOM      2  C4  A3J d   1      -7.727  -2.046  22.387  0.00  0.00    -0.031 A 
ATOM      3  N2  A3J d   1      -5.720  -3.423  21.722  0.00  0.00    -0.240 NA
ATOM      4  C7  A3J d   1      -5.105  -1.187  19.971  0.00  0.00     0.083 A 
ATOM      5  C6  A3J d   1      -6.268  -1.215  20.804  0.00  0.00     0.090 A 
ATOM      6  C9  A3J d   1      -4.629  -3.408  20.955  0.00  0.00     0.164 A 
ATOM      7  C8  A3J d   1      -4.232  -2.308  20.091  0.00  0.00     0.107 A 
ATOM      8  C3  A3J d   1      -8.149  -0.793  21.977  0.00  0.00     0.011 A 
ATOM      9  C5  A3J d   1      -6.528  -2.343  21.664  0.00  0.00     0.088 A 
ATOM     10  N1  A3J d   1      -7.278  -0.288  21.012  0.00  0.00    -0.356 N 
ATOM     11  C11 A3J d   1      -2.922  -2.305  19.500  0.00  0.00     0.104 C 
ATOM     12  H1  A3J d   1      -8.215  -2.685  23.121  0.00  0.00     0.090 H 
ATOM     13  H12 A3J d   1      -7.370   0.620  20.535  0.00  0.00     0.166 HD
ENDROOT
BRANCH   4  14
ATOM     14  N4  A3J d   1      -5.056  -0.070  19.118  0.00  0.00    -0.375 N 
ATOM     15  C12 A3J d   1      -4.751   1.235  19.693  0.00  0.00    -0.002 C 
ATOM     16  C13 A3J d   1      -5.029   2.165  18.523  0.00  0.00    -0.020 C 
ATOM     17  H13 A3J d   1      -5.407   1.459  20.547  0.00  0.00     0.064 H 
ATOM     18  H14 A3J d   1      -3.700   1.296  20.012  0.00  0.00     0.064 H 
ATOM     19  C14 A3J d   1      -4.493   1.362  17.305  0.00  0.00     0.072 C 
ATOM     20  H2  A3J d   1      -4.490   3.117  18.637  0.00  0.00     0.040 H 
ATOM     21  H3  A3J d   1      -6.106   2.364  18.423  0.00  0.00     0.040 H 
ATOM     22  C15 A3J d   1      -4.383  -0.106  17.777  0.00  0.00     0.023 C 
ATOM     23  H15 A3J d   1      -4.907  -0.785  17.088  0.00  0.00     0.068 H 
ATOM     24  H16 A3J d   1      -3.332  -0.416  17.869  0.00  0.00     0.068 H 
BRANCH  19  25
ATOM     25  C16 A3J d   1      -3.144   1.866  16.816  0.00  0.00    -0.046 C 
ATOM     26  H4  A3J d   1      -2.817   1.262  15.957  0.00  0.00     0.031 H 
ATOM     27  H5  A3J d   1      -2.405   1.781  17.626  0.00  0.00     0.031 H 
ATOM     28  H6  A3J d   1      -3.235   2.919  16.511  0.00  0.00     0.031 H 
ENDBRANCH  19  25
BRANCH  19  29
ATOM     29  O1  A3J d   1      -5.447   1.350  16.234  0.00  0.00    -0.389 OA
ATOM     30  H17 A3J d   1      -6.282   1.033  16.558  0.00  0.00     0.210 HD
ENDBRANCH  19  29
ENDBRANCH   4  14
BRANCH   6  31
ATOM     31  C10 A3J d   1      -3.832  -4.749  20.949  0.00  0.00     0.436 C 
ATOM     32  F1  A3J d   1      -2.532  -4.570  21.137  0.00  0.00    -0.165 F 
ATOM     33  F2  A3J d   1      -4.231  -5.568  21.911  0.00  0.00    -0.165 F 
ATOM     34  F3  A3J d   1      -3.955  -5.389  19.798  0.00  0.00    -0.165 F 
ENDBRANCH   6  31
BRANCH   8  35
ATOM     35  C2  A3J d   1      -9.311   0.000  22.454  0.00  0.00    -0.030 C 
ATOM     36  H10 A3J d   1      -9.305   0.031  23.553  0.00  0.00     0.041 H 
ATOM     37  H11 A3J d   1      -9.241   1.024  22.058  0.00  0.00     0.041 H 
BRANCH  35  38
ATOM     38  C1  A3J d   1     -10.594  -0.634  21.979  0.00  0.00    -0.071 C 
ATOM     39  H7  A3J d   1     -11.450  -0.042  22.336  0.00  0.00     0.028 H 
ATOM     40  H8  A3J d   1     -10.666  -1.658  22.375  0.00  0.00     0.028 H 
ATOM     41  H9  A3J d   1     -10.603  -0.665  20.880  0.00  0.00     0.028 H 
ENDBRANCH  35  38
ENDBRANCH   8  35
TORSDOF 6
