REMARK  6 active torsions:
REMARK  status: ('A' for Active; 'I' for Inactive)
REMARK    1  A    between atoms: N3_1  and  C10_18 
REMARK    2  A    between atoms: C2_14  and  C19_12 
REMARK    3  A    between atoms: C10_18  and  C11_19 
REMARK    4  A    between atoms: C11_19  and  O1_20 
REMARK    5  A    between atoms: C15_24  and  C17_25 
REMARK    6  A    between atoms: C17_25  and  O2_26 
ROOT
ATOM      1  N3  A3Y d   1     -10.306  -1.216  22.776  0.00  0.00    -0.066 N 
ATOM      2  C4  A3Y d   1      -4.866  -0.408  19.570  0.00  0.00     0.149 A 
ATOM      3  N2  A3Y d   1      -7.564  -0.823  21.945  0.00  0.00    -0.363 N 
ATOM      4  C7  A3Y d   1      -9.975  -0.533  21.512  0.00  0.00     0.098 C 
ATOM      5  C6  A3Y d   1      -8.613   0.156  21.600  0.00  0.00     0.019 C 
ATOM      6  C9  A3Y d   1      -7.901  -1.454  23.229  0.00  0.00     0.019 C 
ATOM      7  C13 A3Y d   1      -3.914   2.732  17.906  0.00  0.00    -0.050 C 
ATOM      8  C8  A3Y d   1      -9.234  -2.170  23.114  0.00  0.00     0.098 C 
ATOM      9  N5  A3Y d   1      -1.723  -1.891  18.792  0.00  0.00    -0.191 NA
ATOM     10  C18 A3Y d   1      -2.778  -1.739  19.218  0.00  0.00     0.104 C 
ATOM     11  C16 A3Y d   1      -4.299  -0.016  17.264  0.00  0.00     0.002 C 
ATOM     12  C1  A3Y d   1      -5.760  -2.365  21.352  0.00  0.00    -0.022 A 
ATOM     13  C2  A3Y d   1      -4.585  -2.586  20.663  0.00  0.00     0.076 A 
ATOM     14  C3  A3Y d   1      -4.071  -1.604  19.783  0.00  0.00     0.105 A 
ATOM     15  N1  A3Y d   1      -6.040  -0.172  20.284  0.00  0.00    -0.212 NA
ATOM     16  C5  A3Y d   1      -6.509  -1.103  21.200  0.00  0.00     0.129 A 
ATOM     17  N4  A3Y d   1      -4.552   0.459  18.625  0.00  0.00    -0.364 N 
ATOM     18  C12 A3Y d   1      -4.961   1.870  18.588  0.00  0.00    -0.004 C 
ATOM     19  C14 A3Y d   1      -3.432   2.111  16.591  0.00  0.00    -0.057 C 
ATOM     20  C15 A3Y d   1      -3.037   0.637  16.724  0.00  0.00    -0.018 C 
ATOM     21  H1  A3Y d   1     -10.337  -0.520  23.505  0.00  0.00     0.280 HD
ATOM     22  H2  A3Y d   1     -10.746   0.222  21.299  0.00  0.00     0.078 H 
ATOM     23  H3  A3Y d   1      -9.951  -1.273  20.699  0.00  0.00     0.078 H 
ATOM     24  H4  A3Y d   1      -8.376   0.615  20.629  0.00  0.00     0.066 H 
ATOM     25  H5  A3Y d   1      -8.650   0.936  22.375  0.00  0.00     0.066 H 
ATOM     26  H6  A3Y d   1      -7.967  -0.682  24.009  0.00  0.00     0.066 H 
ATOM     27  H7  A3Y d   1      -7.119  -2.179  23.496  0.00  0.00     0.066 H 
ATOM     28  H8  A3Y d   1      -3.053   2.848  18.581  0.00  0.00     0.035 H 
ATOM     29  H9  A3Y d   1      -4.349   3.720  17.694  0.00  0.00     0.035 H 
ATOM     30  H10 A3Y d   1      -9.168  -2.934  22.325  0.00  0.00     0.078 H 
ATOM     31  H11 A3Y d   1      -9.469  -2.653  24.074  0.00  0.00     0.078 H 
ATOM     32  H12 A3Y d   1      -5.151   0.246  16.620  0.00  0.00     0.065 H 
ATOM     33  H13 A3Y d   1      -4.170  -1.108  17.275  0.00  0.00     0.065 H 
ATOM     34  H14 A3Y d   1      -6.139  -3.132  22.017  0.00  0.00     0.090 H 
ATOM     35  H20 A3Y d   1      -5.909   1.954  18.036  0.00  0.00     0.064 H 
ATOM     36  H21 A3Y d   1      -5.104   2.228  19.618  0.00  0.00     0.064 H 
ATOM     37  H22 A3Y d   1      -2.557   2.676  16.238  0.00  0.00     0.033 H 
ATOM     38  H23 A3Y d   1      -4.242   2.190  15.851  0.00  0.00     0.033 H 
ATOM     39  H24 A3Y d   1      -2.178   0.518  17.400  0.00  0.00     0.045 H 
ENDROOT
BRANCH  13  40
ATOM     40  C19 A3Y d   1      -3.926  -3.980  20.826  0.00  0.00     0.419 C 
ATOM     41  F1  A3Y d   1      -4.012  -4.506  22.060  0.00  0.00    -0.166 F 
ATOM     42  F2  A3Y d   1      -4.548  -4.874  20.079  0.00  0.00    -0.166 F 
ATOM     43  F3  A3Y d   1      -2.619  -4.079  20.513  0.00  0.00    -0.166 F 
ENDBRANCH  13  40
BRANCH  20  44
ATOM     44  C17 A3Y d   1      -2.760  -0.033  15.388  0.00  0.00     0.021 C 
ATOM     45  H25 A3Y d   1      -1.950   0.512  14.881  0.00  0.00     0.074 H 
ATOM     46  H26 A3Y d   1      -3.672   0.012  14.775  0.00  0.00     0.074 H 
BRANCH  44  47
ATOM     47  O2  A3Y d   1      -2.373  -1.398  15.533  0.00  0.00    -0.400 OA
ATOM     48  H27 A3Y d   1      -2.211  -1.773  14.675  0.00  0.00     0.209 HD
ENDBRANCH  44  47
ENDBRANCH  20  44
BRANCH   1  49
ATOM     49  C10 A3Y d   1     -11.641  -1.851  22.721  0.00  0.00     0.103 C 
ATOM     50  H15 A3Y d   1     -11.665  -2.512  21.842  0.00  0.00     0.079 H 
ATOM     51  H16 A3Y d   1     -12.390  -1.054  22.601  0.00  0.00     0.079 H 
BRANCH  49  52
ATOM     52  C11 A3Y d   1     -12.029  -2.679  23.942  0.00  0.00     0.039 C 
ATOM     53  H17 A3Y d   1     -11.804  -2.098  24.849  0.00  0.00     0.076 H 
ATOM     54  H18 A3Y d   1     -11.436  -3.606  23.944  0.00  0.00     0.076 H 
BRANCH  52  55
ATOM     55  O1  A3Y d   1     -13.408  -3.020  23.949  0.00  0.00    -0.399 OA
ATOM     56  H19 A3Y d   1     -13.602  -3.533  24.724  0.00  0.00     0.209 HD
ENDBRANCH  52  55
ENDBRANCH  49  52
ENDBRANCH   1  49
TORSDOF 6
