REMARK  7 active torsions:
REMARK  status: ('A' for Active; 'I' for Inactive)
REMARK    1  A    between atoms: C10_15  and  N3_1 
REMARK    2  A    between atoms: N1_13  and  C6_5 
REMARK    3  A    between atoms: C13_7  and  O1_19 
REMARK    4  A    between atoms: C8_8  and  C15_21 
REMARK    5  A    between atoms: C2_11  and  C1_10 
REMARK    6  A    between atoms: C2_11  and  O3_26 
REMARK    7  A    between atoms: C12_17  and  O2_20 
ROOT
ATOM      1  N2  A4J d   1      -5.950  -0.478  20.262  0.00  0.00    -0.212 NA
ATOM      2  C7  A4J d   1      -4.002  -1.852  19.712  0.00  0.00     0.105 A 
ATOM      3  C6  A4J d   1      -4.782  -0.650  19.635  0.00  0.00     0.149 A 
ATOM      4  C9  A4J d   1      -5.776  -2.670  21.194  0.00  0.00    -0.022 A 
ATOM      5  C8  A4J d   1      -4.577  -2.858  20.511  0.00  0.00     0.076 A 
ATOM      6  C16 A4J d   1      -2.709  -2.056  19.123  0.00  0.00     0.104 C 
ATOM      7  C10 A4J d   1      -6.436  -1.448  21.037  0.00  0.00     0.129 A 
ATOM      8  N4  A4J d   1      -1.673  -2.182  18.671  0.00  0.00    -0.191 NA
ATOM      9  H3  A4J d   1      -6.185  -3.448  21.828  0.00  0.00     0.090 H 
ENDROOT
BRANCH   3  10
ATOM     10  N1  A4J d   1      -4.326   0.443  18.950  0.00  0.00    -0.362 N 
ATOM     11  C4  A4J d   1      -5.092   1.692  19.018  0.00  0.00    -0.001 C 
ATOM     12  C3  A4J d   1      -4.410   2.612  18.020  0.00  0.00    -0.020 C 
ATOM     13  H1  A4J d   1      -6.141   1.520  18.735  0.00  0.00     0.064 H 
ATOM     14  H2  A4J d   1      -5.051   2.119  20.031  0.00  0.00     0.064 H 
ATOM     15  C2  A4J d   1      -3.889   1.630  16.980  0.00  0.00     0.072 C 
ATOM     16  H8  A4J d   1      -3.586   3.169  18.490  0.00  0.00     0.040 H 
ATOM     17  H9  A4J d   1      -5.126   3.320  17.577  0.00  0.00     0.040 H 
ATOM     18  C5  A4J d   1      -3.485   0.393  17.760  0.00  0.00     0.025 C 
ATOM     19  H10 A4J d   1      -2.420   0.431  18.031  0.00  0.00     0.068 H 
ATOM     20  H11 A4J d   1      -3.683  -0.519  17.178  0.00  0.00     0.068 H 
BRANCH  15  21
ATOM     21  C1  A4J d   1      -2.723   2.182  16.173  0.00  0.00    -0.046 C 
ATOM     22  H5  A4J d   1      -3.050   3.076  15.621  0.00  0.00     0.031 H 
ATOM     23  H6  A4J d   1      -2.376   1.419  15.461  0.00  0.00     0.031 H 
ATOM     24  H7  A4J d   1      -1.901   2.451  16.853  0.00  0.00     0.031 H 
ENDBRANCH  15  21
BRANCH  15  25
ATOM     25  O3  A4J d   1      -4.941   1.239  16.087  0.00  0.00    -0.389 OA
ATOM     26  H19 A4J d   1      -4.599   0.627  15.445  0.00  0.00     0.210 HD
ENDBRANCH  15  25
ENDBRANCH   3  10
BRANCH   5  27
ATOM     27  C15 A4J d   1      -3.909  -4.202  20.638  0.00  0.00     0.419 C 
ATOM     28  F1  A4J d   1      -4.667  -5.098  21.244  0.00  0.00    -0.166 F 
ATOM     29  F2  A4J d   1      -3.620  -4.744  19.446  0.00  0.00    -0.166 F 
ATOM     30  F3  A4J d   1      -2.770  -4.143  21.358  0.00  0.00    -0.166 F 
ENDBRANCH   5  27
BRANCH   7  31
ATOM     31  N3  A4J d   1      -7.626  -1.179  21.646  0.00  0.00    -0.361 N 
ATOM     32  C11 A4J d   1      -8.412  -2.094  22.487  0.00  0.00     0.023 C 
ATOM     33  C12 A4J d   1      -9.781  -1.440  22.414  0.00  0.00     0.077 C 
ATOM     34  H12 A4J d   1      -8.032  -2.123  23.519  0.00  0.00     0.068 H 
ATOM     35  H13 A4J d   1      -8.427  -3.113  22.073  0.00  0.00     0.068 H 
ATOM     36  C13 A4J d   1      -9.426   0.056  22.468  0.00  0.00     0.077 C 
ATOM     37  H14 A4J d   1     -10.436  -1.748  23.242  0.00  0.00     0.089 H 
ATOM     38  C14 A4J d   1      -8.262   0.140  21.497  0.00  0.00     0.023 C 
ATOM     39  H4  A4J d   1     -10.271   0.685  22.150  0.00  0.00     0.089 H 
ATOM     40  H15 A4J d   1      -8.614   0.297  20.467  0.00  0.00     0.068 H 
ATOM     41  H16 A4J d   1      -7.570   0.949  21.775  0.00  0.00     0.068 H 
BRANCH  33  42
ATOM     42  O2  A4J d   1     -10.386  -1.722  21.149  0.00  0.00    -0.391 OA
ATOM     43  H18 A4J d   1     -10.480  -2.662  21.047  0.00  0.00     0.210 HD
ENDBRANCH  33  42
BRANCH  36  44
ATOM     44  O1  A4J d   1      -8.997   0.437  23.778  0.00  0.00    -0.391 OA
ATOM     45  H17 A4J d   1      -9.731   0.382  24.379  0.00  0.00     0.210 HD
ENDBRANCH  36  44
ENDBRANCH   7  31
TORSDOF 7
