REMARK  3 active torsions:
REMARK  status: ('A' for Active; 'I' for Inactive)
REMARK    1  A    between atoms: CAL_11  and  CAA_1 
REMARK    2  A    between atoms: NAK_14  and  CAM_12 
REMARK    3  A    between atoms: CAN_13  and  NAK_14 
ROOT
ATOM      1  CAE 9XG d   1       5.636   1.916  -0.654  0.00  0.00    -0.080 A 
ATOM      2  CAF 9XG d   1       6.563   2.491   0.208  0.00  0.00    -0.077 A 
ATOM      3  CAI 9XG d   1       4.281   1.958  -0.348  0.00  0.00    -0.057 A 
ATOM      4  CAJ 9XG d   1       4.775   3.149   1.684  0.00  0.00    -0.051 A 
ATOM      5  CAL 9XG d   1       6.131   3.109   1.377  0.00  0.00    -0.060 A 
ATOM      6  CAN 9XG d   1       3.847   2.575   0.821  0.00  0.00     0.033 A 
ATOM      7  H7  9XG d   1       5.971   1.434  -1.566  0.00  0.00     0.083 H 
ATOM      8  H8  9XG d   1       7.620   2.458  -0.030  0.00  0.00     0.084 H 
ATOM      9  H11 9XG d   1       3.560   1.509  -1.022  0.00  0.00     0.086 H 
ATOM     10  H12 9XG d   1       4.441   3.628   2.597  0.00  0.00     0.087 H 
ENDROOT
BRANCH   6  11
ATOM     11  NAK 9XG d   1       2.556   2.619   1.136  0.00  0.00    -0.356 N 
ATOM     12  H13 9XG d   1       2.349   2.672   2.143  0.00  0.00     0.166 HD
BRANCH  11  13
ATOM     13  CAM 9XG d   1       1.494   2.604   0.335  0.00  0.00     0.032 A 
ATOM     14  CAG 9XG d   1       0.309   2.029   0.782  0.00  0.00    -0.057 A 
ATOM     15  CAC 9XG d   1      -0.810   2.009  -0.039  0.00  0.00    -0.081 A 
ATOM     16  H9  9XG d   1       0.259   1.595   1.774  0.00  0.00     0.086 H 
ATOM     17  CAB 9XG d   1      -0.746   2.567  -1.311  0.00  0.00    -0.083 A 
ATOM     18  H5  9XG d   1      -1.732   1.559   0.311  0.00  0.00     0.083 H 
ATOM     19  CAD 9XG d   1       0.435   3.145  -1.759  0.00  0.00    -0.081 A 
ATOM     20  H4  9XG d   1      -1.619   2.551  -1.954  0.00  0.00     0.083 H 
ATOM     21  CAH 9XG d   1       1.554   3.164  -0.937  0.00  0.00    -0.057 A 
ATOM     22  H6  9XG d   1       0.483   3.581  -2.750  0.00  0.00     0.083 H 
ATOM     23  H10 9XG d   1       2.475   3.616  -1.287  0.00  0.00     0.086 H 
ENDBRANCH  11  13
ENDBRANCH   6  11
BRANCH   5  24
ATOM     24  CAA 9XG d   1       7.048   3.691   2.246  0.00  0.00    -0.051 C 
ATOM     25  H1  9XG d   1       8.065   3.564   1.845  0.00  0.00     0.033 H 
ATOM     26  H2  9XG d   1       6.979   3.206   3.231  0.00  0.00     0.033 H 
ATOM     27  H3  9XG d   1       6.826   4.763   2.349  0.00  0.00     0.033 H 
ENDBRANCH   5  24
TORSDOF 3
