REMARK  9 active torsions:
REMARK  status: ('A' for Active; 'I' for Inactive)
REMARK    1  A    between atoms: C13_5  and  C14_6 
REMARK    2  A    between atoms: C18_10  and  C19_11 
REMARK       I    between atoms: N3_28  and  C18_10 
REMARK    3  A    between atoms: C19_11  and  O4_33 
REMARK    4  A    between atoms: C2_12  and  O2_31 
REMARK    5  A    between atoms: O4_33  and  C20_13 
REMARK    6  A    between atoms: C4_20  and  C3_19 
REMARK       I    between atoms: N1_26  and  C4_20 
REMARK    7  A    between atoms: C6_22  and  C5_21 
REMARK    8  A    between atoms: C5_21  and  N1_26 
REMARK    9  A    between atoms: C6_22  and  C7_23 
ROOT
ATOM      1  C1  G2K d   1     493.420 197.215 556.520  0.00  0.00     0.282 A 
ATOM      2  C13 G2K d   1     493.118 195.151 555.345  0.00  0.00     0.131 A 
ATOM      3  C2  G2K d   1     494.675 197.297 555.921  0.00  0.00     0.169 A 
ATOM      4  C3  G2K d   1     495.095 196.313 555.077  0.00  0.00     0.165 A 
ATOM      5  N2  G2K d   1     494.329 195.250 554.792  0.00  0.00    -0.225 NA
ATOM      6  N4  G2K d   1     492.657 196.112 556.204  0.00  0.00    -0.307 N 
ATOM      7  O1  G2K d   1     492.975 198.069 557.300  0.00  0.00    -0.265 OA
ATOM      8  H24 G2K d   1     491.749 196.012 556.610  0.00  0.00     0.170 HD
ENDROOT
BRANCH   2   9
ATOM      9  C14 G2K d   1     492.296 193.926 555.007  0.00  0.00     0.072 C 
ATOM     10  C15 G2K d   1     492.270 192.869 556.122  0.00  0.00    -0.038 C 
ATOM     11  C16 G2K d   1     493.597 192.157 555.911  0.00  0.00    -0.048 C 
ATOM     12  H5  G2K d   1     491.422 192.179 556.000  0.00  0.00     0.036 H 
ATOM     13  H6  G2K d   1     492.221 193.337 557.116  0.00  0.00     0.036 H 
ATOM     14  C17 G2K d   1     493.600 191.951 554.412  0.00  0.00    -0.001 C 
ATOM     15  H7  G2K d   1     493.627 191.197 556.448  0.00  0.00     0.035 H 
ATOM     16  H8  G2K d   1     494.443 192.783 556.231  0.00  0.00     0.035 H 
ATOM     17  N3  G2K d   1     492.906 193.147 553.914  0.00  0.00    -0.339 N 
ATOM     18  H9  G2K d   1     493.056 191.035 554.137  0.00  0.00     0.064 H 
ATOM     19  H10 G2K d   1     494.627 191.899 554.022  0.00  0.00     0.064 H 
ATOM     20  C18 G2K d   1     492.827 193.520 552.626  0.00  0.00     0.244 C 
ATOM     21  O5  G2K d   1     492.153 194.493 552.297  0.00  0.00    -0.271 OA
ATOM     22  H4  G2K d   1     491.276 194.247 554.748  0.00  0.00     0.085 H 
BRANCH  20  23
ATOM     23  C19 G2K d   1     493.596 192.704 551.611  0.00  0.00     0.099 C 
ATOM     24  H11 G2K d   1     493.218 191.671 551.630  0.00  0.00     0.089 H 
ATOM     25  H12 G2K d   1     494.660 192.710 551.889  0.00  0.00     0.089 H 
BRANCH  23  26
ATOM     26  O4  G2K d   1     493.468 193.211 550.286  0.00  0.00    -0.340 OA
BRANCH  26  27
ATOM     27  C20 G2K d   1     494.139 194.350 549.954  0.00  0.00     0.091 A 
ATOM     28  C21 G2K d   1     494.871 195.143 550.837  0.00  0.00    -0.049 A 
ATOM     29  C22 G2K d   1     495.515 196.281 550.384  0.00  0.00    -0.080 A 
ATOM     30  H13 G2K d   1     494.936 194.867 551.883  0.00  0.00     0.087 H 
ATOM     31  C23 G2K d   1     495.454 196.642 549.056  0.00  0.00    -0.081 A 
ATOM     32  H14 G2K d   1     496.073 196.895 551.082  0.00  0.00     0.083 H 
ATOM     33  C24 G2K d   1     494.746 195.874 548.167  0.00  0.00    -0.059 A 
ATOM     34  H15 G2K d   1     495.966 197.534 548.713  0.00  0.00     0.083 H 
ATOM     35  C25 G2K d   1     494.096 194.736 548.616  0.00  0.00     0.067 A 
ATOM     36  H16 G2K d   1     494.695 196.155 547.121  0.00  0.00     0.086 H 
ATOM     37 CL1  G2K d   1     493.201 193.768 547.482  0.00  0.00    -0.081 Cl
ENDBRANCH  26  27
ENDBRANCH  23  26
ENDBRANCH  20  23
ENDBRANCH   2   9
BRANCH   4  38
ATOM     38  C4  G2K d   1     496.448 196.383 554.415  0.00  0.00     0.273 C 
ATOM     39  N1  G2K d   1     496.738 195.374 553.597  0.00  0.00    -0.355 N 
ATOM     40  H23 G2K d   1     496.041 194.684 553.404  0.00  0.00     0.162 HD
ATOM     41  O3  G2K d   1     497.212 197.321 554.636  0.00  0.00    -0.266 OA
BRANCH  39  42
ATOM     42  C5  G2K d   1     498.054 195.255 552.975  0.00  0.00    -0.001 C 
ATOM     43  H17 G2K d   1     498.301 196.208 552.485  0.00  0.00     0.064 H 
ATOM     44  H18 G2K d   1     498.797 195.042 553.758  0.00  0.00     0.064 H 
BRANCH  42  45
ATOM     45  C6  G2K d   1     498.104 194.153 551.945  0.00  0.00    -0.026 C 
ATOM     46  H19 G2K d   1     499.099 194.157 551.476  0.00  0.00     0.042 H 
ATOM     47  H20 G2K d   1     497.338 194.352 551.181  0.00  0.00     0.042 H 
BRANCH  45  48
ATOM     48  C7  G2K d   1     497.854 192.783 552.531  0.00  0.00    -0.057 A 
ATOM     49  C12 G2K d   1     497.335 191.763 551.749  0.00  0.00    -0.077 A 
ATOM     50  C11 G2K d   1     497.108 190.504 552.284  0.00  0.00    -0.082 A 
ATOM     51  H3  G2K d   1     497.104 191.952 550.707  0.00  0.00     0.084 H 
ATOM     52  C10 G2K d   1     497.400 190.252 553.603  0.00  0.00    -0.083 A 
ATOM     53  H2  G2K d   1     496.699 189.717 551.660  0.00  0.00     0.083 H 
ATOM     54  C9  G2K d   1     497.917 191.251 554.390  0.00  0.00    -0.082 A 
ATOM     55  H1  G2K d   1     497.223 189.268 554.021  0.00  0.00     0.083 H 
ATOM     56  C8  G2K d   1     498.147 192.510 553.858  0.00  0.00    -0.077 A 
ATOM     57  H22 G2K d   1     498.146 191.054 555.431  0.00  0.00     0.083 H 
ATOM     58  H21 G2K d   1     498.561 193.290 554.487  0.00  0.00     0.084 H 
ENDBRANCH  45  48
ENDBRANCH  42  45
ENDBRANCH  39  42
ENDBRANCH   4  38
BRANCH   3  59
ATOM     59  O2  G2K d   1     495.403 198.376 556.237  0.00  0.00    -0.354 OA
ATOM     60  H25 G2K d   1     496.214 198.100 556.648  0.00  0.00     0.218 HD
ENDBRANCH   3  59
TORSDOF 9
