REMARK  3 active torsions:
REMARK  status: ('A' for Active; 'I' for Inactive)
REMARK    1  A    between atoms: C11_5  and  C06_2 
REMARK    2  A    between atoms: O18_18  and  C11_5 
REMARK    3  A    between atoms: C09_11  and  O18_18 
ROOT
ATOM      1  C11 AEY d   1     -21.726 -49.408  14.723  0.00  0.00     0.051 C 
ATOM      2  H3  AEY d   1     -21.749 -48.309  14.745  0.00  0.00     0.082 H 
ATOM      3  H4  AEY d   1     -22.105 -49.764  13.754  0.00  0.00     0.082 H 
ENDROOT
BRANCH   1   4
ATOM      4  C06 AEY d   1     -22.602 -49.951  15.835  0.00  0.00    -0.034 A 
ATOM      5  C05 AEY d   1     -22.793 -51.329  15.963  0.00  0.00    -0.075 A 
ATOM      6  C03 AEY d   1     -23.598 -51.829  16.985  0.00  0.00    -0.082 A 
ATOM      7  H1  AEY d   1     -22.315 -52.009  15.267  0.00  0.00     0.084 H 
ATOM      8  C01 AEY d   1     -24.210 -50.949  17.879  0.00  0.00    -0.083 A 
ATOM      9  H6  AEY d   1     -23.748 -52.898  17.085  0.00  0.00     0.083 H 
ATOM     10  C02 AEY d   1     -24.024 -49.571  17.759  0.00  0.00    -0.082 A 
ATOM     11  H2  AEY d   1     -24.835 -51.339  18.674  0.00  0.00     0.083 H 
ATOM     12  C04 AEY d   1     -23.219 -49.073  16.732  0.00  0.00    -0.075 A 
ATOM     13  H5  AEY d   1     -24.501 -48.893  18.457  0.00  0.00     0.083 H 
ATOM     14  H7  AEY d   1     -23.072 -48.004  16.630  0.00  0.00     0.084 H 
ENDBRANCH   1   4
BRANCH   1  15
ATOM     15  O18 AEY d   1     -20.379 -49.857  14.898  0.00  0.00    -0.327 OA
BRANCH  15  16
ATOM     16  C09 AEY d   1     -19.528 -49.155  15.708  0.00  0.00     0.218 A 
ATOM     17  N14 AEY d   1     -19.868 -47.919  16.132  0.00  0.00    -0.036 NA
ATOM     18  C10 AEY d   1     -19.041 -47.202  16.942  0.00  0.00     0.724 A 
ATOM     19  N17 AEY d   1     -19.432 -45.963  17.334  0.00  0.00    -0.231 N 
ATOM     20  N13 AEY d   1     -17.842 -47.683  17.367  0.00  0.00    -0.042 NA
ATOM     21  H8  AEY d   1     -20.337 -45.585  17.020  0.00  0.00     0.174 HD
ATOM     22  H9  AEY d   1     -18.823 -45.400  17.945  0.00  0.00     0.174 HD
ATOM     23  C08 AEY d   1     -17.441 -48.914  16.974  0.00  0.00     0.194 A 
ATOM     24  C07 AEY d   1     -18.218 -49.712  16.151  0.00  0.00     0.175 A 
ATOM     25  N16 AEY d   1     -16.286 -49.536  17.304  0.00  0.00    -0.263 N 
ATOM     26  N12 AEY d   1     -17.548 -50.868  15.951  0.00  0.00    -0.152 NA
ATOM     27  N15 AEY d   1     -16.337 -50.786  16.662  0.00  0.00     0.004 NA
ATOM     28  H10 AEY d   1     -15.529 -49.171  17.900  0.00  0.00     0.186 HD
ENDBRANCH  15  16
ENDBRANCH   1  15
TORSDOF 3
