REMARK  9 active torsions:
REMARK  status: ('A' for Active; 'I' for Inactive)
REMARK    1  A    between atoms: C02_1  and  C03_2 
REMARK    2  A    between atoms: C04_3  and  C02_1 
REMARK    3  A    between atoms: C04_3  and  C05_4 
REMARK    4  A    between atoms: N12_13  and  C04_3 
REMARK    5  A    between atoms: C05_4  and  C06_5 
REMARK    6  A    between atoms: C06_5  and  C07_6 
REMARK    7  A    between atoms: C07_6  and  N08_10 
REMARK       I    between atoms: N08_10  and  C09_7 
REMARK       I    between atoms: C09_7  and  N10_11 
REMARK    8  A    between atoms: C13_8  and  C14_9 
REMARK       I    between atoms: C13_8  and  N12_13 
REMARK    9  A    between atoms: C14_9  and  N15_14 
ROOT
ATOM      1  C04 R33 d   1       6.874   8.854 -16.137  0.00  0.00     0.069 C 
ATOM      2  H4  R33 d   1       6.868   8.028 -15.410  0.00  0.00     0.084 H 
ENDROOT
BRANCH   1   3
ATOM      3  C02 R33 d   1       6.670  10.189 -15.424  0.00  0.00     0.145 C 
ATOM      4  O01 R33 d   1       7.398  10.539 -14.559  0.00  0.00    -0.296 OA
BRANCH   3   5
ATOM      5  C03 R33 d   1       5.514  11.089 -15.833  0.00  0.00    -0.019 C 
ATOM      6  H1  R33 d   1       5.523  12.000 -15.217  0.00  0.00     0.037 H 
ATOM      7  H2  R33 d   1       4.564  10.555 -15.685  0.00  0.00     0.037 H 
ATOM      8  H3  R33 d   1       5.619  11.362 -16.893  0.00  0.00     0.037 H 
ENDBRANCH   3   5
ENDBRANCH   1   3
BRANCH   1   9
ATOM      9  C05 R33 d   1       8.208   8.897 -16.876  0.00  0.00    -0.038 C 
ATOM     10  H5  R33 d   1       8.975   9.295 -16.195  0.00  0.00     0.036 H 
ATOM     11  H6  R33 d   1       8.108   9.564 -17.745  0.00  0.00     0.036 H 
BRANCH   9  12
ATOM     12  C06 R33 d   1       8.655   7.524 -17.365  0.00  0.00    -0.048 C 
ATOM     13  H7  R33 d   1       7.801   7.020 -17.842  0.00  0.00     0.035 H 
ATOM     14  H8  R33 d   1       8.995   6.932 -16.503  0.00  0.00     0.035 H 
BRANCH  12  15
ATOM     15  C07 R33 d   1       9.795   7.626 -18.374  0.00  0.00     0.009 C 
ATOM     16  H9  R33 d   1      10.663   8.108 -17.900  0.00  0.00     0.064 H 
ATOM     17  H10 R33 d   1       9.469   8.225 -19.237  0.00  0.00     0.064 H 
BRANCH  15  18
ATOM     18  N08 R33 d   1      10.164   6.297 -18.820  0.00  0.00    -0.227 N 
ATOM     19  C09 R33 d   1      10.671   6.090 -20.163  0.00  0.00     0.665 C 
ATOM     20  N10 R33 d   1      11.035   4.751 -20.594  0.00  0.00    -0.235 N 
ATOM     21  N11 R33 d   1      10.792   7.059 -20.946  0.00  0.00    -0.235 N 
ATOM     22  H14 R33 d   1      11.396   4.597 -21.546  0.00  0.00     0.174 HD
ATOM     23  H15 R33 d   1      10.932   3.956 -19.947  0.00  0.00     0.174 HD
ATOM     24  H16 R33 d   1      10.533   8.007 -20.637  0.00  0.00     0.174 HD
ATOM     25  H17 R33 d   1      11.151   6.909 -21.900  0.00  0.00     0.174 HD
ATOM     26  H13 R33 d   1      10.066   5.496 -18.180  0.00  0.00     0.177 HD
ENDBRANCH  15  18
ENDBRANCH  12  15
ENDBRANCH   9  12
ENDBRANCH   1   9
BRANCH   1  27
ATOM     27  N12 R33 d   1       5.805   8.680 -17.103  0.00  0.00    -0.348 N 
ATOM     28  C13 R33 d   1       4.802   7.640 -16.958  0.00  0.00     0.243 C 
ATOM     29  O16 R33 d   1       4.836   6.897 -16.034  0.00  0.00    -0.272 OA
ATOM     30  H18 R33 d   1       5.758   9.294 -17.891  0.00  0.00     0.163 HD
BRANCH  28  31
ATOM     31  C14 R33 d   1       3.700   7.512 -18.010  0.00  0.00     0.152 C 
ATOM     32  H11 R33 d   1       4.156   7.291 -18.986  0.00  0.00     0.090 H 
ATOM     33  H12 R33 d   1       3.145   8.460 -18.070  0.00  0.00     0.090 H 
BRANCH  31  34
ATOM     34  N15 R33 d   1       2.783   6.444 -17.659  0.00  0.00    -0.071 N 
ATOM     35  H19 R33 d   1       2.064   6.374 -18.362  0.00  0.00     0.274 HD
ATOM     36  H20 R33 d   1       2.361   6.644 -16.766  0.00  0.00     0.274 HD
ATOM     37  H21 R33 d   1       3.287   5.573 -17.605  0.00  0.00     0.274 HD
ENDBRANCH  31  34
ENDBRANCH  28  31
ENDBRANCH   1  27
TORSDOF 9
