REMARK  8 active torsions:
REMARK  status: ('A' for Active; 'I' for Inactive)
REMARK    1  A    between atoms: C14_6  and  C15_7 
REMARK    2  A    between atoms: C16_8  and  C17_9 
REMARK       I    between atoms: N3_29  and  C16_8 
REMARK    3  A    between atoms: C17_9  and  S1_36 
REMARK    4  A    between atoms: S1_36  and  C18_10 
REMARK    5  A    between atoms: C2_12  and  O2_32 
REMARK    6  A    between atoms: C4_21  and  C3_20 
REMARK       I    between atoms: N1_27  and  C4_21 
REMARK    7  A    between atoms: C5_22  and  C6_23 
REMARK    8  A    between atoms: C5_22  and  N1_27 
ROOT
ATOM      1  C1  8KU d   1      29.835 447.410 697.657  0.00  0.00     0.282 A 
ATOM      2  C14 8KU d   1      31.933 447.101 696.535  0.00  0.00     0.131 A 
ATOM      3  C2  8KU d   1      29.805 448.692 697.116  0.00  0.00     0.169 A 
ATOM      4  C3  8KU d   1      30.833 449.119 696.325  0.00  0.00     0.165 A 
ATOM      5  N2  8KU d   1      31.890 448.342 696.043  0.00  0.00    -0.225 NA
ATOM      6  N4  8KU d   1      30.931 446.633 697.347  0.00  0.00    -0.307 N 
ATOM      7  O1  8KU d   1      28.940 446.951 698.382  0.00  0.00    -0.265 OA
ATOM      8  H24 8KU d   1      30.997 445.708 697.722  0.00  0.00     0.170 HD
ENDROOT
BRANCH   2   9
ATOM      9  C15 8KU d   1      33.144 446.246 696.224  0.00  0.00     0.072 C 
ATOM     10  C26 8KU d   1      34.168 446.274 697.380  0.00  0.00    -0.038 C 
ATOM     11  C25 8KU d   1      35.507 446.600 696.726  0.00  0.00    -0.048 C 
ATOM     12  H16 8KU d   1      34.212 445.295 697.879  0.00  0.00     0.036 H 
ATOM     13  H17 8KU d   1      33.899 447.048 698.114  0.00  0.00     0.036 H 
ATOM     14  C24 8KU d   1      35.094 447.472 695.575  0.00  0.00    -0.001 C 
ATOM     15  H14 8KU d   1      36.168 447.141 697.419  0.00  0.00     0.035 H 
ATOM     16  H15 8KU d   1      36.012 445.688 696.374  0.00  0.00     0.035 H 
ATOM     17  N3  8KU d   1      33.957 446.697 695.079  0.00  0.00    -0.340 N 
ATOM     18  H12 8KU d   1      35.890 447.560 694.821  0.00  0.00     0.064 H 
ATOM     19  H13 8KU d   1      34.792 448.476 695.909  0.00  0.00     0.064 H 
ATOM     20  C16 8KU d   1      33.761 446.391 693.783  0.00  0.00     0.230 C 
ATOM     21  O5  8KU d   1      34.664 445.891 693.117  0.00  0.00    -0.273 OA
ATOM     22  H5  8KU d   1      32.794 445.219 696.046  0.00  0.00     0.085 H 
BRANCH  20  23
ATOM     23  C17 8KU d   1      32.412 446.667 693.151  0.00  0.00     0.055 C 
ATOM     24  H6  8KU d   1      32.561 447.401 692.346  0.00  0.00     0.063 H 
ATOM     25  H7  8KU d   1      31.759 447.098 693.924  0.00  0.00     0.063 H 
BRANCH  23  26
ATOM     26  S1  8KU d   1      31.560 445.227 692.442  0.00  0.00    -0.119 SA
BRANCH  26  27
ATOM     27  C18 8KU d   1      30.453 444.634 693.687  0.00  0.00     0.022 A 
ATOM     28  C19 8KU d   1      30.548 443.308 694.115  0.00  0.00    -0.065 A 
ATOM     29  C20 8KU d   1      29.687 442.829 695.085  0.00  0.00    -0.082 A 
ATOM     30  H8  8KU d   1      31.298 442.653 693.686  0.00  0.00     0.085 H 
ATOM     31  C21 8KU d   1      28.728 443.653 695.631  0.00  0.00    -0.081 A 
ATOM     32  H9  8KU d   1      29.767 441.800 695.417  0.00  0.00     0.083 H 
ATOM     33  C22 8KU d   1      28.617 444.962 695.218  0.00  0.00    -0.061 A 
ATOM     34  H10 8KU d   1      28.057 443.269 696.390  0.00  0.00     0.083 H 
ATOM     35  C23 8KU d   1      29.472 445.448 694.248  0.00  0.00     0.050 A 
ATOM     36  H11 8KU d   1      27.862 445.608 695.652  0.00  0.00     0.086 H 
ATOM     37 CL1  8KU d   1      29.296 447.098 693.753  0.00  0.00    -0.083 Cl
ENDBRANCH  26  27
ENDBRANCH  23  26
ENDBRANCH  20  23
ENDBRANCH   2   9
BRANCH   4  38
ATOM     38  C4  8KU d   1      30.810 450.502 695.733  0.00  0.00     0.273 C 
ATOM     39  N1  8KU d   1      31.849 450.816 694.963  0.00  0.00    -0.353 N 
ATOM     40  H23 8KU d   1      32.609 450.169 694.893  0.00  0.00     0.162 HD
ATOM     41  O4  8KU d   1      29.870 451.269 695.935  0.00  0.00    -0.266 OA
BRANCH  39  42
ATOM     42  C5  8KU d   1      31.922 452.064 694.219  0.00  0.00     0.020 C 
ATOM     43  H18 8KU d   1      31.066 452.695 694.500  0.00  0.00     0.068 H 
ATOM     44  H19 8KU d   1      32.858 452.579 694.481  0.00  0.00     0.068 H 
BRANCH  42  45
ATOM     45  C6  8KU d   1      31.892 451.838 692.720  0.00  0.00     0.064 C 
ATOM     46  C13 8KU d   1      30.662 451.096 692.184  0.00  0.00    -0.012 C 
ATOM     47  C12 8KU d   1      31.279 450.222 691.125  0.00  0.00    -0.022 A 
ATOM     48  H3  8KU d   1      30.180 450.496 692.970  0.00  0.00     0.044 H 
ATOM     49  H4  8KU d   1      29.928 451.793 691.753  0.00  0.00     0.044 H 
ATOM     50  C11 8KU d   1      30.712 449.478 690.100  0.00  0.00    -0.074 A 
ATOM     51  C7  8KU d   1      32.653 450.242 691.289  0.00  0.00     0.075 A 
ATOM     52  C10 8KU d   1      31.564 448.761 689.271  0.00  0.00    -0.082 A 
ATOM     53  H2  8KU d   1      29.638 449.457 689.951  0.00  0.00     0.084 H 
ATOM     54  C9  8KU d   1      32.939 448.788 689.464  0.00  0.00    -0.080 A 
ATOM     55  H1  8KU d   1      31.150 448.171 688.461  0.00  0.00     0.083 H 
ATOM     56  C8  8KU d   1      33.515 449.525 690.483  0.00  0.00    -0.050 A 
ATOM     57  H22 8KU d   1      33.577 448.217 688.799  0.00  0.00     0.083 H 
ATOM     58  H21 8KU d   1      34.587 449.539 690.641  0.00  0.00     0.087 H 
ATOM     59  O3  8KU d   1      33.049 451.009 692.344  0.00  0.00    -0.343 OA
ATOM     60  H20 8KU d   1      31.954 452.819 692.226  0.00  0.00     0.087 H 
ENDBRANCH  42  45
ENDBRANCH  39  42
ENDBRANCH   4  38
BRANCH   3  61
ATOM     61  O2  8KU d   1      28.737 449.440 697.420  0.00  0.00    -0.354 OA
ATOM     62  H25 8KU d   1      29.020 450.225 697.874  0.00  0.00     0.218 HD
ENDBRANCH   3  61
TORSDOF 8
