REMARK  10 active torsions:
REMARK  status: ('A' for Active; 'I' for Inactive)
REMARK    1  A    between atoms: C1_1  and  C14_6 
REMARK    2  A    between atoms: C18_10  and  C19_11 
REMARK       I    between atoms: N4_29  and  C18_10 
REMARK    3  A    between atoms: C19_11  and  S2_37 
REMARK    4  A    between atoms: C5_21  and  C2_12 
REMARK    5  A    between atoms: S2_37  and  C20_13 
REMARK    6  A    between atoms: C3_19  and  O2_31 
REMARK       I    between atoms: N3_28  and  C5_21 
REMARK    7  A    between atoms: C7_23  and  C6_22 
REMARK    8  A    between atoms: C6_22  and  N3_28 
REMARK    9  A    between atoms: S1_36  and  C7_23 
REMARK   10  A    between atoms: C8_24  and  S1_36 
ROOT
ATOM      1  C1  KU5 d   1     194.850-311.558 692.421  0.00  0.00     0.131 A 
ATOM      2  C2  KU5 d   1     196.111-313.476 692.145  0.00  0.00     0.165 A 
ATOM      3  C3  KU5 d   1     197.037-313.049 693.048  0.00  0.00     0.169 A 
ATOM      4  C4  KU5 d   1     196.878-311.818 693.678  0.00  0.00     0.282 A 
ATOM      5  N1  KU5 d   1     195.756-311.091 693.338  0.00  0.00    -0.307 N 
ATOM      6  N2  KU5 d   1     195.028-312.746 691.835  0.00  0.00    -0.225 NA
ATOM      7  O1  KU5 d   1     197.678-311.361 694.508  0.00  0.00    -0.265 OA
ATOM      8  H23 KU5 d   1     195.600-310.203 693.770  0.00  0.00     0.170 HD
ENDROOT
BRANCH   1   9
ATOM      9  C14 KU5 d   1     193.621-310.757 692.042  0.00  0.00     0.072 C 
ATOM     10  C15 KU5 d   1     192.691-310.447 693.224  0.00  0.00    -0.038 C 
ATOM     11  C16 KU5 d   1     191.958-311.770 693.386  0.00  0.00    -0.048 C 
ATOM     12  H6  KU5 d   1     191.996-309.629 692.985  0.00  0.00     0.036 H 
ATOM     13  H7  KU5 d   1     193.262-310.190 694.128  0.00  0.00     0.036 H 
ATOM     14  C17 KU5 d   1     191.606-312.122 691.955  0.00  0.00    -0.001 C 
ATOM     15  H8  KU5 d   1     191.054-311.652 694.001  0.00  0.00     0.035 H 
ATOM     16  H9  KU5 d   1     192.610-312.534 693.835  0.00  0.00     0.035 H 
ATOM     17  N4  KU5 d   1     192.690-311.506 691.177  0.00  0.00    -0.340 N 
ATOM     18  H10 KU5 d   1     190.630-311.699 691.674  0.00  0.00     0.064 H 
ATOM     19  H11 KU5 d   1     191.588-313.212 691.811  0.00  0.00     0.064 H 
ATOM     20  C18 KU5 d   1     192.839-311.571 689.842  0.00  0.00     0.230 C 
ATOM     21  O4  KU5 d   1     193.641-310.845 689.265  0.00  0.00    -0.273 OA
ATOM     22  H5  KU5 d   1     193.952-309.829 691.553  0.00  0.00     0.085 H 
BRANCH  20  23
ATOM     23  C19 KU5 d   1     191.999-312.559 689.058  0.00  0.00     0.055 C 
ATOM     24  H12 KU5 d   1     190.938-312.361 689.272  0.00  0.00     0.063 H 
ATOM     25  H13 KU5 d   1     192.257-313.576 689.389  0.00  0.00     0.063 H 
BRANCH  23  26
ATOM     26  S2  KU5 d   1     192.252-312.458 687.260  0.00  0.00    -0.119 SA
BRANCH  26  27
ATOM     27  C20 KU5 d   1     193.909-312.988 686.948  0.00  0.00     0.022 A 
ATOM     28  C21 KU5 d   1     194.582-313.811 687.852  0.00  0.00    -0.065 A 
ATOM     29  C22 KU5 d   1     195.878-314.218 687.582  0.00  0.00    -0.082 A 
ATOM     30  H14 KU5 d   1     194.091-314.131 688.764  0.00  0.00     0.085 H 
ATOM     31  C23 KU5 d   1     196.511-313.814 686.428  0.00  0.00    -0.081 A 
ATOM     32  H15 KU5 d   1     196.398-314.859 688.284  0.00  0.00     0.083 H 
ATOM     33  C24 KU5 d   1     195.861-313.004 685.525  0.00  0.00    -0.061 A 
ATOM     34  H16 KU5 d   1     197.527-314.136 686.230  0.00  0.00     0.083 H 
ATOM     35  C25 KU5 d   1     194.567-312.596 685.785  0.00  0.00     0.050 A 
ATOM     36  H17 KU5 d   1     196.361-312.688 684.616  0.00  0.00     0.086 H 
ATOM     37 CL1  KU5 d   1     193.777-311.575 684.631  0.00  0.00    -0.083 Cl
ENDBRANCH  26  27
ENDBRANCH  23  26
ENDBRANCH  20  23
ENDBRANCH   1   9
BRANCH   2  38
ATOM     38  C5  KU5 d   1     196.279-314.807 691.458  0.00  0.00     0.273 C 
ATOM     39  N3  KU5 d   1     195.245-315.203 690.719  0.00  0.00    -0.355 N 
ATOM     40  H24 KU5 d   1     194.446-314.606 690.648  0.00  0.00     0.162 HD
ATOM     41  O3  KU5 d   1     197.320-315.455 691.571  0.00  0.00    -0.266 OA
BRANCH  39  42
ATOM     42  C6  KU5 d   1     195.237-316.473 690.012  0.00  0.00     0.008 C 
ATOM     43  H18 KU5 d   1     194.335-316.516 689.384  0.00  0.00     0.065 H 
ATOM     44  H19 KU5 d   1     196.132-316.522 689.374  0.00  0.00     0.065 H 
BRANCH  42  45
ATOM     45  C7  KU5 d   1     195.238-317.677 690.932  0.00  0.00     0.048 C 
ATOM     46  H20 KU5 d   1     196.029-317.542 691.685  0.00  0.00     0.059 H 
ATOM     47  H21 KU5 d   1     195.451-318.575 690.334  0.00  0.00     0.059 H 
BRANCH  45  48
ATOM     48  S1  KU5 d   1     193.691-317.909 691.771  0.00  0.00     0.177 S 
ATOM     49  O5  KU5 d   1     193.689-319.222 692.349  0.00  0.00    -0.223 OA
ATOM     50  O6  KU5 d   1     192.632-317.557 690.869  0.00  0.00    -0.223 OA
BRANCH  48  51
ATOM     51  C8  KU5 d   1     193.698-316.744 693.099  0.00  0.00     0.059 A 
ATOM     52  C13 KU5 d   1     192.685-315.806 693.199  0.00  0.00    -0.062 A 
ATOM     53  C12 KU5 d   1     192.695-314.905 694.249  0.00  0.00    -0.082 A 
ATOM     54  H4  KU5 d   1     191.891-315.778 692.461  0.00  0.00     0.085 H 
ATOM     55  C11 KU5 d   1     193.702-314.937 695.186  0.00  0.00    -0.083 A 
ATOM     56  H3  KU5 d   1     191.904-314.169 694.334  0.00  0.00     0.083 H 
ATOM     57  C10 KU5 d   1     194.706-315.874 695.087  0.00  0.00    -0.082 A 
ATOM     58  H2  KU5 d   1     193.705-314.224 696.003  0.00  0.00     0.083 H 
ATOM     59  C9  KU5 d   1     194.710-316.783 694.043  0.00  0.00    -0.062 A 
ATOM     60  H1  KU5 d   1     195.496-315.900 695.829  0.00  0.00     0.083 H 
ATOM     61  H22 KU5 d   1     195.500-317.521 693.965  0.00  0.00     0.085 H 
ENDBRANCH  48  51
ENDBRANCH  45  48
ENDBRANCH  42  45
ENDBRANCH  39  42
ENDBRANCH   2  38
BRANCH   3  62
ATOM     62  O2  KU5 d   1     198.124-313.753 693.389  0.00  0.00    -0.354 OA
ATOM     63  H25 KU5 d   1     198.136-314.570 692.905  0.00  0.00     0.218 HD
ENDBRANCH   3  62
TORSDOF 10
