REMARK  7 active torsions:
REMARK  status: ('A' for Active; 'I' for Inactive)
REMARK    1  A    between atoms: C01_1  and  C27_10 
REMARK    2  A    between atoms: C11_5  and  C03_2 
REMARK    3  A    between atoms: C04_3  and  O05_29 
REMARK       I    between atoms: N13_27  and  C11_5 
REMARK    4  A    between atoms: C17_7  and  C14_6 
REMARK    5  A    between atoms: C14_6  and  N13_27 
REMARK    6  A    between atoms: C52_22  and  C17_7 
REMARK    7  A    between atoms: C33_12  and  C41_16 
REMARK       I    between atoms: N29_28  and  C33_12 
ROOT
ATOM      1  C01 GY6 d   1      -8.480  79.710  14.923  0.00  0.00     0.131 A 
ATOM      2  C03 GY6 d   1      -9.842  79.984  16.809  0.00  0.00     0.165 A 
ATOM      3  C04 GY6 d   1     -10.250  78.678  16.752  0.00  0.00     0.169 A 
ATOM      4  C07 GY6 d   1      -9.698  77.835  15.763  0.00  0.00     0.282 A 
ATOM      5  N02 GY6 d   1      -8.961  80.488  15.915  0.00  0.00    -0.225 NA
ATOM      6  N09 GY6 d   1      -8.817  78.398  14.866  0.00  0.00    -0.307 N 
ATOM      7  O08 GY6 d   1     -10.010  76.651  15.615  0.00  0.00    -0.265 OA
ATOM      8  H20 GY6 d   1      -8.415  77.823  14.153  0.00  0.00     0.170 HD
ENDROOT
BRANCH   1   9
ATOM      9  C27 GY6 d   1      -7.485  80.285  13.927  0.00  0.00     0.072 C 
ATOM     10  C24 GY6 d   1      -6.030  80.046  14.363  0.00  0.00    -0.038 C 
ATOM     11  C21 GY6 d   1      -5.747  81.250  15.248  0.00  0.00    -0.048 C 
ATOM     12  H7  GY6 d   1      -5.934  79.107  14.928  0.00  0.00     0.036 H 
ATOM     13  H8  GY6 d   1      -5.354  80.023  13.495  0.00  0.00     0.036 H 
ATOM     14  C30 GY6 d   1      -6.357  82.395  14.448  0.00  0.00    -0.001 C 
ATOM     15  H5  GY6 d   1      -4.666  81.395  15.389  0.00  0.00     0.035 H 
ATOM     16  H6  GY6 d   1      -6.234  81.146  16.229  0.00  0.00     0.035 H 
ATOM     17  N29 GY6 d   1      -7.529  81.772  13.805  0.00  0.00    -0.336 N 
ATOM     18  H10 GY6 d   1      -5.648  82.772  13.696  0.00  0.00     0.064 H 
ATOM     19  H11 GY6 d   1      -6.662  83.219  15.109  0.00  0.00     0.064 H 
ATOM     20  C33 GY6 d   1      -8.557  82.410  13.213  0.00  0.00     0.258 C 
ATOM     21  O34 GY6 d   1      -9.567  81.799  12.847  0.00  0.00    -0.267 OA
ATOM     22  H9  GY6 d   1      -7.675  79.821  12.948  0.00  0.00     0.085 H 
BRANCH  20  23
ATOM     23  C41 GY6 d   1      -8.488  83.906  13.042  0.00  0.00     0.075 A 
ATOM     24  C39 GY6 d   1      -9.250  84.821  13.782  0.00  0.00     0.051 A 
ATOM     25  C37 GY6 d   1      -9.152  86.185  13.566  0.00  0.00    -0.061 A 
ATOM     26 CL2  GY6 d   1     -10.349  84.296  15.025  0.00  0.00    -0.083 Cl
ATOM     27  C35 GY6 d   1      -8.302  86.667  12.599  0.00  0.00    -0.080 A 
ATOM     28  H13 GY6 d   1      -9.745  86.872  14.159  0.00  0.00     0.086 H 
ATOM     29  C44 GY6 d   1      -7.546  85.803  11.846  0.00  0.00    -0.061 A 
ATOM     30  H12 GY6 d   1      -8.228  87.735  12.430  0.00  0.00     0.083 H 
ATOM     31  C42 GY6 d   1      -7.639  84.440  12.071  0.00  0.00     0.051 A 
ATOM     32  H14 GY6 d   1      -6.881  86.185  11.080  0.00  0.00     0.086 H 
ATOM     33 CL   GY6 d   1      -6.659  83.391  11.091  0.00  0.00    -0.083 Cl
ENDBRANCH  20  23
ENDBRANCH   1   9
BRANCH   2  34
ATOM     34  C11 GY6 d   1     -10.298  80.925  17.900  0.00  0.00     0.273 C 
ATOM     35  N13 GY6 d   1      -9.755  82.151  17.866  0.00  0.00    -0.355 N 
ATOM     36  H21 GY6 d   1      -9.236  82.442  17.062  0.00  0.00     0.162 HD
ATOM     37  O12 GY6 d   1     -11.007  80.528  18.829  0.00  0.00    -0.266 OA
BRANCH  35  38
ATOM     38  C14 GY6 d   1      -9.917  83.067  18.997  0.00  0.00    -0.001 C 
ATOM     39  H1  GY6 d   1     -10.991  83.263  19.134  0.00  0.00     0.064 H 
ATOM     40  H2  GY6 d   1      -9.515  82.581  19.898  0.00  0.00     0.064 H 
BRANCH  38  41
ATOM     41  C17 GY6 d   1      -9.211  84.390  18.814  0.00  0.00    -0.026 C 
ATOM     42  H3  GY6 d   1      -9.247  84.946  19.762  0.00  0.00     0.042 H 
ATOM     43  H4  GY6 d   1      -9.730  84.964  18.032  0.00  0.00     0.042 H 
BRANCH  41  44
ATOM     44  C52 GY6 d   1      -7.770  84.210  18.410  0.00  0.00    -0.057 A 
ATOM     45  C50 GY6 d   1      -7.194  85.028  17.448  0.00  0.00    -0.077 A 
ATOM     46  C48 GY6 d   1      -5.876  84.828  17.062  0.00  0.00    -0.082 A 
ATOM     47  H17 GY6 d   1      -7.775  85.825  16.997  0.00  0.00     0.084 H 
ATOM     48  C46 GY6 d   1      -5.126  83.822  17.631  0.00  0.00    -0.083 A 
ATOM     49  H16 GY6 d   1      -5.433  85.468  16.307  0.00  0.00     0.083 H 
ATOM     50  C55 GY6 d   1      -5.683  83.008  18.587  0.00  0.00    -0.082 A 
ATOM     51  H15 GY6 d   1      -4.097  83.673  17.324  0.00  0.00     0.083 H 
ATOM     52  C53 GY6 d   1      -7.002  83.196  18.967  0.00  0.00    -0.077 A 
ATOM     53  H19 GY6 d   1      -5.093  82.221  19.043  0.00  0.00     0.083 H 
ATOM     54  H18 GY6 d   1      -7.441  82.541  19.711  0.00  0.00     0.084 H 
ENDBRANCH  41  44
ENDBRANCH  38  41
ENDBRANCH  35  38
ENDBRANCH   2  34
BRANCH   3  55
ATOM     55  O05 GY6 d   1     -11.097  78.091  17.622  0.00  0.00    -0.354 OA
ATOM     56  H22 GY6 d   1     -11.411  78.738  18.242  0.00  0.00     0.218 HD
ENDBRANCH   3  55
TORSDOF 7
