REMARK  6 active torsions:
REMARK  status: ('A' for Active; 'I' for Inactive)
REMARK    1  A    between atoms: C27_10  and  C01_1 
REMARK    2  A    between atoms: C03_2  and  C11_5 
REMARK    3  A    between atoms: C04_3  and  O05_18 
REMARK       I    between atoms: C11_5  and  N13_16 
REMARK    4  A    between atoms: C14_6  and  C17_7 
REMARK    5  A    between atoms: N13_16  and  C14_6 
REMARK    6  A    between atoms: C33_12  and  C41_13 
REMARK       I    between atoms: C33_12  and  N29_17 
ROOT
ATOM      1  C01 GY6 d   1     127.939 192.467 283.862  0.00  0.00     0.131 A 
ATOM      2  C03 GY6 d   1     130.008 193.492 283.903  0.00  0.00     0.165 A 
ATOM      3  C04 GY6 d   1     129.636 194.302 284.934  0.00  0.00     0.169 A 
ATOM      4  C07 GY6 d   1     128.349 194.198 285.470  0.00  0.00     0.282 A 
ATOM      5  N02 GY6 d   1     129.172 192.591 283.378  0.00  0.00    -0.225 NA
ATOM      6  N09 GY6 d   1     127.516 193.258 284.898  0.00  0.00    -0.307 N 
ATOM      7  O08 GY6 d   1     127.932 194.891 286.413  0.00  0.00    -0.265 OA
ATOM      8  H16 GY6 d   1     126.585 193.152 285.247  0.00  0.00     0.170 HD
ENDROOT
BRANCH   1   9
ATOM      9  C27 GY6 d   1     127.046 191.431 283.214  0.00  0.00     0.072 C 
ATOM     10  C24 GY6 d   1     127.664 190.034 283.026  0.00  0.00    -0.038 C 
ATOM     11  C21 GY6 d   1     128.457 190.184 281.736  0.00  0.00    -0.048 C 
ATOM     12  H8  GY6 d   1     128.323 189.776 283.868  0.00  0.00     0.036 H 
ATOM     13  H9  GY6 d   1     126.883 189.266 282.923  0.00  0.00     0.036 H 
ATOM     14  C30 GY6 d   1     127.493 190.951 280.860  0.00  0.00    -0.001 C 
ATOM     15  H6  GY6 d   1     128.700 189.204 281.300  0.00  0.00     0.035 H 
ATOM     16  H7  GY6 d   1     129.385 190.751 281.901  0.00  0.00     0.035 H 
ATOM     17  N29 GY6 d   1     126.733 191.777 281.816  0.00  0.00    -0.341 N 
ATOM     18  H11 GY6 d   1     126.826 190.265 280.317  0.00  0.00     0.064 H 
ATOM     19  H12 GY6 d   1     128.034 191.582 280.140  0.00  0.00     0.064 H 
ATOM     20  C33 GY6 d   1     125.810 192.677 281.450  0.00  0.00     0.216 C 
ATOM     21  O34 GY6 d   1     125.046 192.461 280.511  0.00  0.00    -0.274 OA
ATOM     22  H10 GY6 d   1     126.127 191.357 283.814  0.00  0.00     0.085 H 
BRANCH  20  23
ATOM     23  C41 GY6 d   1     125.770 193.986 282.181  0.00  0.00    -0.003 C 
ATOM     24  H13 GY6 d   1     124.965 194.612 281.768  0.00  0.00     0.040 H 
ATOM     25  H14 GY6 d   1     126.734 194.502 282.061  0.00  0.00     0.040 H 
ATOM     26  H15 GY6 d   1     125.582 193.804 283.249  0.00  0.00     0.040 H 
ENDBRANCH  20  23
ENDBRANCH   1   9
BRANCH   2  27
ATOM     27  C11 GY6 d   1     131.381 193.550 283.285  0.00  0.00     0.273 C 
ATOM     28  N13 GY6 d   1     131.606 192.631 282.348  0.00  0.00    -0.356 N 
ATOM     29  H17 GY6 d   1     130.845 192.062 282.035  0.00  0.00     0.162 HD
ATOM     30  O12 GY6 d   1     132.215 194.375 283.653  0.00  0.00    -0.266 OA
BRANCH  28  31
ATOM     31  C14 GY6 d   1     132.927 192.427 281.763  0.00  0.00    -0.008 C 
ATOM     32  H1  GY6 d   1     133.217 193.334 281.213  0.00  0.00     0.063 H 
ATOM     33  H2  GY6 d   1     133.650 192.241 282.571  0.00  0.00     0.063 H 
BRANCH  31  34
ATOM     34  C17 GY6 d   1     132.943 191.254 280.814  0.00  0.00    -0.061 C 
ATOM     35  H3  GY6 d   1     133.953 191.134 280.396  0.00  0.00     0.029 H 
ATOM     36  H4  GY6 d   1     132.227 191.433 279.998  0.00  0.00     0.029 H 
ATOM     37  H5  GY6 d   1     132.660 190.340 281.356  0.00  0.00     0.029 H 
ENDBRANCH  31  34
ENDBRANCH  28  31
ENDBRANCH   2  27
BRANCH   3  38
ATOM     38  O05 GY6 d   1     130.442 195.217 285.492  0.00  0.00    -0.354 OA
ATOM     39  H18 GY6 d   1     131.285 195.203 285.055  0.00  0.00     0.218 HD
ENDBRANCH   3  38
TORSDOF 6
