REMARK  11 active torsions:
REMARK  status: ('A' for Active; 'I' for Inactive)
REMARK    1  A    between atoms: C10_3  and  C11_4 
REMARK    2  A    between atoms: C15_8  and  C10_3 
REMARK    3  A    between atoms: C10_3  and  N09_17 
REMARK    4  A    between atoms: C11_4  and  C12_5 
REMARK    5  A    between atoms: C12_5  and  C13_6 
REMARK    6  A    between atoms: C12_5  and  C14_7 
REMARK       I    between atoms: N16_18  and  C15_8 
REMARK    7  A    between atoms: C17_9  and  C18_10 
REMARK    8  A    between atoms: C17_9  and  C25_15 
REMARK    9  A    between atoms: C17_9  and  N16_18 
REMARK   10  A    between atoms: C18_10  and  C19_11 
REMARK   11  A    between atoms: C25_15  and  O26_22 
ROOT
ATOM      1  C15 V45 d   1       9.812  12.754  -9.658  0.00  0.00     0.241 C 
ATOM      2  N16 V45 d   1       9.036  13.561 -10.566  0.00  0.00    -0.353 N 
ATOM      3  O27 V45 d   1      11.007  12.817  -9.640  0.00  0.00    -0.271 OA
ATOM      4  H23 V45 d   1       8.037  13.536 -10.538  0.00  0.00     0.163 HD
ENDROOT
BRANCH   1   5
ATOM      5  C10 V45 d   1       9.043  11.858  -8.691  0.00  0.00     0.098 C 
ATOM      6  H2  V45 d   1       7.995  11.767  -9.012  0.00  0.00     0.088 H 
BRANCH   5   7
ATOM      7  C11 V45 d   1       9.093  12.556  -7.344  0.00  0.00    -0.035 C 
ATOM      8  H3  V45 d   1       8.787  13.602  -7.494  0.00  0.00     0.037 H 
ATOM      9  H4  V45 d   1      10.133  12.526  -6.987  0.00  0.00     0.037 H 
BRANCH   7  10
ATOM     10  C12 V45 d   1       8.206  11.961  -6.254  0.00  0.00    -0.059 C 
ATOM     11  H5  V45 d   1       8.541  10.931  -6.065  0.00  0.00     0.038 H 
BRANCH  10  12
ATOM     12  C13 V45 d   1       6.736  11.904  -6.649  0.00  0.00    -0.073 C 
ATOM     13  H6  V45 d   1       6.152  11.467  -5.825  0.00  0.00     0.028 H 
ATOM     14  H7  V45 d   1       6.622  11.282  -7.549  0.00  0.00     0.028 H 
ATOM     15  H8  V45 d   1       6.373  12.921  -6.857  0.00  0.00     0.028 H 
ENDBRANCH  10  12
BRANCH  10  16
ATOM     16  C14 V45 d   1       8.395  12.780  -4.968  0.00  0.00    -0.073 C 
ATOM     17  H9  V45 d   1       9.463  12.806  -4.704  0.00  0.00     0.028 H 
ATOM     18  H10 V45 d   1       7.826  12.314  -4.150  0.00  0.00     0.028 H 
ATOM     19  H11 V45 d   1       8.032  13.806  -5.130  0.00  0.00     0.028 H 
ENDBRANCH  10  16
ENDBRANCH   7  10
ENDBRANCH   5   7
BRANCH   5  20
ATOM     20  N09 V45 d   1       9.642  10.532  -8.686  0.00  0.00    -0.288 N 
ATOM     21  C08 V45 d   1       9.726   9.677  -9.888  0.00  0.00     0.372 C 
ATOM     22  O07 V45 d   1      10.577   8.562  -9.526  0.00  0.00    -0.272 OA
ATOM     23  O29 V45 d   1       9.223   9.883 -10.976  0.00  0.00    -0.238 OA
ATOM     24  C06 V45 d   1      10.923   8.660  -8.151  0.00  0.00     0.039 C 
ATOM     25  C28 V45 d   1      10.267   9.873  -7.603  0.00  0.00     0.007 C 
ATOM     26  H1  V45 d   1      11.557   7.968  -7.598  0.00  0.00     0.125 H 
ATOM     27  H22 V45 d   1      10.267  10.195  -6.563  0.00  0.00     0.114 H 
ENDBRANCH   5  20
ENDBRANCH   1   5
BRANCH   2  28
ATOM     28  C17 V45 d   1       9.724  14.412 -11.522  0.00  0.00     0.033 C 
ATOM     29  H12 V45 d   1      10.810  14.327 -11.373  0.00  0.00     0.075 H 
BRANCH  28  30
ATOM     30  C18 V45 d   1       9.350  13.930 -12.928  0.00  0.00    -0.033 C 
ATOM     31  H13 V45 d   1       9.858  14.583 -13.653  0.00  0.00     0.037 H 
ATOM     32  H14 V45 d   1       8.261  14.034 -13.041  0.00  0.00     0.037 H 
BRANCH  30  33
ATOM     33  C19 V45 d   1       9.720  12.477 -13.264  0.00  0.00     0.027 C 
ATOM     34  C20 V45 d   1      11.344  12.182 -13.068  0.00  0.00    -0.039 C 
ATOM     35  C21 V45 d   1      11.587  11.136 -13.815  0.00  0.00    -0.004 C 
ATOM     36  H16 V45 d   1      11.574  11.967 -12.014  0.00  0.00     0.036 H 
ATOM     37  H17 V45 d   1      11.938  13.045 -13.405  0.00  0.00     0.036 H 
ATOM     38  N22 V45 d   1      10.639  11.270 -15.036  0.00  0.00    -0.361 N 
ATOM     39  H18 V45 d   1      11.373  10.210 -13.261  0.00  0.00     0.064 H 
ATOM     40  H19 V45 d   1      12.637  11.133 -14.142  0.00  0.00     0.064 H 
ATOM     41  C23 V45 d   1       9.473  12.194 -14.541  0.00  0.00     0.221 C 
ATOM     42  H24 V45 d   1      10.748  10.857 -15.940  0.00  0.00     0.162 HD
ATOM     43  O24 V45 d   1       8.561  12.511 -15.208  0.00  0.00    -0.273 OA
ATOM     44  H15 V45 d   1       9.138  11.809 -12.612  0.00  0.00     0.054 H 
ENDBRANCH  30  33
ENDBRANCH  28  30
BRANCH  28  45
ATOM     45  C25 V45 d   1       9.306  15.882 -11.369  0.00  0.00     0.035 C 
ATOM     46  H20 V45 d   1       8.210  15.955 -11.302  0.00  0.00     0.077 H 
ATOM     47  H21 V45 d   1       9.660  16.464 -12.233  0.00  0.00     0.077 H 
BRANCH  45  48
ATOM     48  O26 V45 d   1       9.889  16.370 -10.195  0.00  0.00    -0.399 OA
ATOM     49  H25 V45 d   1       9.582  15.860  -9.455  0.00  0.00     0.209 HD
ENDBRANCH  45  48
ENDBRANCH  28  45
ENDBRANCH   2  28
TORSDOF 11
