REMARK  3 active torsions:
REMARK  status: ('A' for Active; 'I' for Inactive)
REMARK    1  A    between atoms: C05_8  and  C20_2 
REMARK    2  A    between atoms: C04_7  and  N02_5 
REMARK    3  A    between atoms: C08_11  and  C09_12 
ROOT
ATOM      1  C04 A81 d   1      24.291 -37.152  19.679  0.00  0.00     0.163 A 
ATOM      2  C05 A81 d   1      24.250 -36.859  18.327  0.00  0.00     0.125 A 
ATOM      3  N06 A81 d   1      24.185 -38.001  17.667  0.00  0.00    -0.171 NA
ATOM      4  N07 A81 d   1      24.184 -39.030  18.567  0.00  0.00    -0.274 N 
ATOM      5  C08 A81 d   1      24.251 -38.526  19.787  0.00  0.00     0.098 A 
ATOM      6  H3  A81 d   1      24.139 -40.032  18.333  0.00  0.00     0.189 HD
ENDROOT
BRANCH   2   7
ATOM      7  C20 A81 d   1      24.271 -35.584  17.794  0.00  0.00     0.032 A 
ATOM      8  C21 A81 d   1      25.474 -34.885  17.707  0.00  0.00     0.018 A 
ATOM      9  N22 A81 d   1      25.462 -33.665  17.201  0.00  0.00    -0.239 NA
ATOM     10  H2  A81 d   1      26.404 -35.336  18.049  0.00  0.00     0.116 H 
ATOM     11  C23 A81 d   1      24.310 -33.099  16.779  0.00  0.00     0.171 A 
ATOM     12  N24 A81 d   1      23.164 -33.705  16.844  0.00  0.00    -0.244 N 
ATOM     13  C29 A81 d   1      24.106 -31.814  16.216  0.00  0.00     0.127 A 
ATOM     14  C25 A81 d   1      23.107 -34.962  17.353  0.00  0.00     0.018 A 
ATOM     15  N26 A81 d   1      22.173 -32.851  16.331  0.00  0.00    -0.257 N 
ATOM     16  H6  A81 d   1      22.152 -35.483  17.416  0.00  0.00     0.116 H 
ATOM     17  C27 A81 d   1      22.744 -31.713  15.954  0.00  0.00     0.281 A 
ATOM     18  H7  A81 d   1      21.199 -33.065  16.261  0.00  0.00     0.191 HD
ATOM     19  O28 A81 d   1      22.189 -30.781  15.481  0.00  0.00    -0.265 OA
ATOM     20 BR   A81 d   1      25.502 -30.503  15.906  0.00  0.00    -0.041 Br
ENDBRANCH   2   7
BRANCH   1  21
ATOM     21  N02 A81 d   1      24.368 -36.214  20.778  0.00  0.00    -0.111 N 
ATOM     22  O01 A81 d   1      25.274 -36.456  21.820  0.00  0.00    -0.532 OA
ATOM     23  O03 A81 d   1      23.678 -35.262  20.797  0.00  0.00    -0.532 OA
ENDBRANCH   1  21
BRANCH   5  24
ATOM     24  C09 A81 d   1      24.268 -39.236  20.971  0.00  0.00     0.030 A 
ATOM     25  C10 A81 d   1      25.430 -39.865  21.426  0.00  0.00     0.018 A 
ATOM     26  N11 A81 d   1      25.404 -40.540  22.569  0.00  0.00    -0.239 NA
ATOM     27  H1  A81 d   1      26.350 -39.802  20.847  0.00  0.00     0.116 H 
ATOM     28  C12 A81 d   1      24.257 -40.612  23.290  0.00  0.00     0.171 A 
ATOM     29  N13 A81 d   1      23.150 -40.035  22.902  0.00  0.00    -0.244 N 
ATOM     30  C18 A81 d   1      23.985 -41.265  24.527  0.00  0.00     0.127 A 
ATOM     31  C14 A81 d   1      23.115 -39.334  21.744  0.00  0.00     0.018 A 
ATOM     32  N15 A81 d   1      22.143 -40.288  23.852  0.00  0.00    -0.257 N 
ATOM     33  H4  A81 d   1      22.194 -38.852  21.421  0.00  0.00     0.116 H 
ATOM     34  C16 A81 d   1      22.648 -41.026  24.825  0.00  0.00     0.281 A 
ATOM     35  H5  A81 d   1      21.199 -39.962  23.799  0.00  0.00     0.191 HD
ATOM     36  O17 A81 d   1      22.056 -41.411  25.779  0.00  0.00    -0.265 OA
ATOM     37 BR2  A81 d   1      25.263 -42.287  25.571  0.00  0.00    -0.041 Br
ENDBRANCH   5  24
TORSDOF 3
