REMARK  3 active torsions:
REMARK  status: ('A' for Active; 'I' for Inactive)
REMARK    1  A    between atoms: C8_5  and  C4_1 
REMARK    2  A    between atoms: C15_14  and  N18_17 
REMARK       I    between atoms: N18_17  and  C19_18 
REMARK    3  A    between atoms: C19_18  and  C21_20 
ROOT
ATOM      1  C11 9ZS d   1      13.775 -26.591 -19.960  0.00  0.00     0.068 A 
ATOM      2  C8  9ZS d   1      13.937 -24.381 -20.134  0.00  0.00     0.142 A 
ATOM      3  C12 9ZS d   1      13.946 -27.976 -19.873  0.00  0.00    -0.038 A 
ATOM      4  C13 9ZS d   1      12.836 -28.751 -19.659  0.00  0.00     0.007 A 
ATOM      5  N9  9ZS d   1      14.658 -25.546 -20.142  0.00  0.00    -0.338 N 
ATOM      6  N14 9ZS d   1      11.628 -28.202 -19.554  0.00  0.00    -0.241 NA
ATOM      7  C15 9ZS d   1      11.371 -26.904 -19.635  0.00  0.00     0.161 A 
ATOM      8  C16 9ZS d   1      12.472 -26.018 -19.840  0.00  0.00     0.131 A 
ATOM      9  N17 9ZS d   1      12.653 -24.672 -19.959  0.00  0.00    -0.224 NA
ATOM     10  H2  9ZS d   1      14.928 -28.424 -19.972  0.00  0.00     0.089 H 
ATOM     11  H3  9ZS d   1      12.943 -29.826 -19.574  0.00  0.00     0.114 H 
ATOM     12  H6  9ZS d   1      15.678 -25.628 -20.262  0.00  0.00     0.167 HD
ENDROOT
BRANCH   7  13
ATOM     13  N18 9ZS d   1      10.004 -26.590 -19.487  0.00  0.00    -0.309 N 
ATOM     14  C19 9ZS d   1       9.257 -25.626 -20.097  0.00  0.00     0.227 C 
ATOM     15  O20 9ZS d   1       9.762 -24.821 -20.851  0.00  0.00    -0.273 OA
ATOM     16  H7  9ZS d   1       9.506 -27.162 -18.835  0.00  0.00     0.170 HD
BRANCH  14  17
ATOM     17  C21 9ZS d   1       7.767 -25.566 -19.793  0.00  0.00     0.024 A 
ATOM     18  C22 9ZS d   1       6.786 -25.138 -20.894  0.00  0.00    -0.053 A 
ATOM     19  C23 9ZS d   1       7.060 -24.208 -19.710  0.00  0.00    -0.053 A 
ATOM     20  H9  9ZS d   1       5.811 -25.638 -20.986  0.00  0.00     0.034 H 
ATOM     21  H10 9ZS d   1       7.162 -24.879 -21.895  0.00  0.00     0.034 H 
ATOM     22  H11 9ZS d   1       7.632 -23.280 -19.861  0.00  0.00     0.034 H 
ATOM     23  H12 9ZS d   1       6.281 -24.039 -18.952  0.00  0.00     0.034 H 
ATOM     24  H8  9ZS d   1       7.499 -26.372 -19.095  0.00  0.00     0.054 H 
ENDBRANCH  14  17
ENDBRANCH   7  13
BRANCH   2  25
ATOM     25  C4  9ZS d   1      14.516 -23.008 -20.276  0.00  0.00     0.053 A 
ATOM     26  C5  9ZS d   1      14.142 -22.183 -21.357  0.00  0.00     0.049 A 
ATOM     27  C6  9ZS d   1      14.662 -20.896 -21.493  0.00  0.00    -0.061 A 
ATOM     28 CL7  9ZS d   1      13.032 -22.755 -22.556  0.00  0.00    -0.083 Cl
ATOM     29  C1  9ZS d   1      15.562 -20.408 -20.556  0.00  0.00    -0.080 A 
ATOM     30  H1  9ZS d   1      14.363 -20.277 -22.331  0.00  0.00     0.086 H 
ATOM     31  C2  9ZS d   1      15.945 -21.200 -19.480  0.00  0.00    -0.061 A 
ATOM     32  H4  9ZS d   1      15.967 -19.408 -20.663  0.00  0.00     0.083 H 
ATOM     33  C3  9ZS d   1      15.439 -22.488 -19.318  0.00  0.00     0.049 A 
ATOM     34  H5  9ZS d   1      16.649 -20.809 -18.755  0.00  0.00     0.086 H 
ATOM     35 CL24 9ZS d   1      16.005 -23.379 -17.923  0.00  0.00    -0.083 Cl
ENDBRANCH   2  25
TORSDOF 3
