REMARK  3 active torsions:
REMARK  status: ('A' for Active; 'I' for Inactive)
REMARK    1  A    between atoms: C05_8  and  C20_2 
REMARK    2  A    between atoms: C04_7  and  N02_5 
REMARK    3  A    between atoms: C08_11  and  C09_12 
ROOT
ATOM      1  C04 A81 d   1     -39.180 -14.302 -14.990  0.00  0.00     0.163 A 
ATOM      2  C05 A81 d   1     -40.248 -15.188 -14.905  0.00  0.00     0.098 A 
ATOM      3  N06 A81 d   1     -40.902 -15.153 -16.050  0.00  0.00    -0.274 N 
ATOM      4  N07 A81 d   1     -40.285 -14.274 -16.885  0.00  0.00    -0.171 NA
ATOM      5  C08 A81 d   1     -39.240 -13.753 -16.267  0.00  0.00     0.125 A 
ATOM      6  H3  A81 d   1     -41.744 -15.702 -16.275  0.00  0.00     0.189 HD
ENDROOT
BRANCH   2   7
ATOM      7  C20 A81 d   1     -40.611 -15.969 -13.821  0.00  0.00     0.030 A 
ATOM      8  C21 A81 d   1     -39.874 -17.089 -13.425  0.00  0.00     0.018 A 
ATOM      9  N22 A81 d   1     -40.289 -17.789 -12.377  0.00  0.00    -0.239 NA
ATOM     10  H2  A81 d   1     -38.976 -17.382 -13.967  0.00  0.00     0.116 H 
ATOM     11  C23 A81 d   1     -41.412 -17.438 -11.700  0.00  0.00     0.171 A 
ATOM     12  N24 A81 d   1     -42.130 -16.407 -12.040  0.00  0.00    -0.244 N 
ATOM     13  C29 A81 d   1     -42.031 -18.041 -10.565  0.00  0.00     0.127 A 
ATOM     14  C25 A81 d   1     -41.754 -15.651 -13.101  0.00  0.00     0.018 A 
ATOM     15  N26 A81 d   1     -43.221 -16.294 -11.164  0.00  0.00    -0.257 N 
ATOM     16  H6  A81 d   1     -42.353 -14.789 -13.390  0.00  0.00     0.116 H 
ATOM     17  C27 A81 d   1     -43.155 -17.278 -10.280  0.00  0.00     0.281 A 
ATOM     18  H7  A81 d   1     -43.929 -15.589 -11.201  0.00  0.00     0.191 HD
ATOM     19  O28 A81 d   1     -43.923 -17.475  -9.404  0.00  0.00    -0.265 OA
ATOM     20 BR   A81 d   1     -41.432 -19.614  -9.599  0.00  0.00    -0.041 Br
ENDBRANCH   2   7
BRANCH   1  21
ATOM     21  N02 A81 d   1     -38.194 -14.019 -13.958  0.00  0.00    -0.111 N 
ATOM     22  O01 A81 d   1     -37.617 -15.063 -13.221  0.00  0.00    -0.532 OA
ATOM     23  O03 A81 d   1     -37.869 -12.912 -13.735  0.00  0.00    -0.532 OA
ENDBRANCH   1  21
BRANCH   5  24
ATOM     24  C09 A81 d   1     -38.391 -12.809 -16.827  0.00  0.00     0.032 A 
ATOM     25  C10 A81 d   1     -37.035 -13.064 -17.055  0.00  0.00     0.018 A 
ATOM     26  N11 A81 d   1     -36.274 -12.117 -17.600  0.00  0.00    -0.239 NA
ATOM     27  H1  A81 d   1     -36.605 -14.029 -16.789  0.00  0.00     0.116 H 
ATOM     28  C12 A81 d   1     -36.796 -10.912 -17.942  0.00  0.00     0.171 A 
ATOM     29  N13 A81 d   1     -38.059 -10.636 -17.749  0.00  0.00    -0.244 N 
ATOM     30  C18 A81 d   1     -36.193  -9.757 -18.531  0.00  0.00     0.127 A 
ATOM     31  C14 A81 d   1     -38.887 -11.559 -17.196  0.00  0.00     0.018 A 
ATOM     32  N15 A81 d   1     -38.309  -9.326 -18.196  0.00  0.00    -0.257 N 
ATOM     33  H4  A81 d   1     -39.939 -11.323 -17.041  0.00  0.00     0.116 H 
ATOM     34  C16 A81 d   1     -37.189  -8.806 -18.662  0.00  0.00     0.281 A 
ATOM     35  H5  A81 d   1     -39.194  -8.862 -18.166  0.00  0.00     0.191 HD
ATOM     36  O17 A81 d   1     -37.050  -7.719 -19.114  0.00  0.00    -0.265 OA
ATOM     37 BR2  A81 d   1     -34.344  -9.522 -19.060  0.00  0.00    -0.041 Br
ENDBRANCH   5  24
TORSDOF 3
