REMARK  10 active torsions:
REMARK  status: ('A' for Active; 'I' for Inactive)
REMARK    1  A    between atoms: C10_1  and  C11_13 
REMARK       I    between atoms: N4_29  and  C10_1 
REMARK    2  A    between atoms: C12_14  and  C13_2 
REMARK    3  A    between atoms: C13_2  and  O5_34 
REMARK    4  A    between atoms: S1_35  and  C17_4 
REMARK    5  A    between atoms: C8_24  and  C1_12 
REMARK    6  A    between atoms: C11_13  and  S1_35 
REMARK    7  A    between atoms: N3_28  and  C12_14 
REMARK    8  A    between atoms: C2_17  and  C5_21 
REMARK    9  A    between atoms: O5_34  and  C23_18 
REMARK   10  A    between atoms: C3_19  and  O1_30 
REMARK       I    between atoms: C5_21  and  N3_28 
ROOT
ATOM      1  C1  KU2 d   1     129.804 194.728 285.050  0.00  0.00     0.131 A 
ATOM      2  C2  KU2 d   1     131.710 196.014 284.604  0.00  0.00     0.165 A 
ATOM      3  C3  KU2 d   1     131.302 196.992 285.462  0.00  0.00     0.169 A 
ATOM      4  C4  KU2 d   1     130.060 196.820 286.159  0.00  0.00     0.282 A 
ATOM      5  N1  KU2 d   1     130.966 194.916 284.411  0.00  0.00    -0.225 NA
ATOM      6  N2  KU2 d   1     129.336 195.666 285.925  0.00  0.00    -0.307 N 
ATOM      7  O2  KU2 d   1     129.645 197.671 286.955  0.00  0.00    -0.265 OA
ATOM      8  H23 KU2 d   1     128.467 195.518 286.398  0.00  0.00     0.170 HD
ENDROOT
BRANCH   1   9
ATOM      9  C8  KU2 d   1     129.042 193.449 284.779  0.00  0.00     0.072 C 
ATOM     10  C7  KU2 d   1     129.457 192.277 285.679  0.00  0.00    -0.038 C 
ATOM     11  C6  KU2 d   1     130.797 191.888 285.068  0.00  0.00    -0.048 C 
ATOM     12  H18 KU2 d   1     129.569 192.594 286.726  0.00  0.00     0.036 H 
ATOM     13  H19 KU2 d   1     128.734 191.450 285.622  0.00  0.00     0.036 H 
ATOM     14  C9  KU2 d   1     130.496 191.905 283.578  0.00  0.00    -0.001 C 
ATOM     15  H16 KU2 d   1     131.109 190.887 285.399  0.00  0.00     0.035 H 
ATOM     16  H17 KU2 d   1     131.578 192.619 285.324  0.00  0.00     0.035 H 
ATOM     17  N4  KU2 d   1     129.364 192.851 283.469  0.00  0.00    -0.340 N 
ATOM     18  H21 KU2 d   1     130.209 190.904 283.223  0.00  0.00     0.064 H 
ATOM     19  H22 KU2 d   1     131.364 192.262 283.005  0.00  0.00     0.064 H 
ATOM     20  C10 KU2 d   1     128.662 193.089 282.344  0.00  0.00     0.230 C 
ATOM     21  O4  KU2 d   1     129.015 192.610 281.259  0.00  0.00    -0.273 OA
ATOM     22  H20 KU2 d   1     127.966 193.659 284.870  0.00  0.00     0.085 H 
BRANCH  20  23
ATOM     23  C11 KU2 d   1     127.391 193.908 282.482  0.00  0.00     0.055 C 
ATOM     24  H11 KU2 d   1     127.406 194.419 283.456  0.00  0.00     0.063 H 
ATOM     25  H12 KU2 d   1     126.528 193.228 282.438  0.00  0.00     0.063 H 
BRANCH  23  26
ATOM     26  S1  KU2 d   1     127.216 195.157 281.171  0.00  0.00    -0.119 SA
BRANCH  26  27
ATOM     27  C17 KU2 d   1     128.442 196.377 281.495  0.00  0.00     0.022 A 
ATOM     28  C18 KU2 d   1     129.680 196.324 280.885  0.00  0.00    -0.065 A 
ATOM     29  C19 KU2 d   1     130.634 197.294 281.139  0.00  0.00    -0.082 A 
ATOM     30  H4  KU2 d   1     129.907 195.515 280.200  0.00  0.00     0.085 H 
ATOM     31  C14 KU2 d   1     130.361 198.328 282.004  0.00  0.00    -0.081 A 
ATOM     32  H5  KU2 d   1     131.602 197.238 280.654  0.00  0.00     0.083 H 
ATOM     33  C15 KU2 d   1     129.134 198.405 282.624  0.00  0.00    -0.061 A 
ATOM     34  H3  KU2 d   1     131.113 199.084 282.198  0.00  0.00     0.083 H 
ATOM     35  C16 KU2 d   1     128.177 197.440 282.371  0.00  0.00     0.050 A 
ATOM     36  H15 KU2 d   1     128.919 199.219 283.307  0.00  0.00     0.086 H 
ATOM     37 CL1  KU2 d   1     126.642 197.562 283.166  0.00  0.00    -0.083 Cl
ENDBRANCH  26  27
ENDBRANCH  23  26
ENDBRANCH  20  23
ENDBRANCH   1   9
BRANCH   2  38
ATOM     38  C5  KU2 d   1     132.982 196.109 283.835  0.00  0.00     0.273 C 
ATOM     39  N3  KU2 d   1     133.231 195.117 282.980  0.00  0.00    -0.353 N 
ATOM     40  H24 KU2 d   1     132.622 194.324 282.981  0.00  0.00     0.162 HD
ATOM     41  O3  KU2 d   1     133.768 197.049 283.953  0.00  0.00    -0.266 OA
BRANCH  39  42
ATOM     42  C12 KU2 d   1     134.346 195.132 282.045  0.00  0.00     0.016 C 
ATOM     43  H13 KU2 d   1     135.005 195.979 282.284  0.00  0.00     0.067 H 
ATOM     44  H14 KU2 d   1     134.909 194.191 282.140  0.00  0.00     0.067 H 
BRANCH  42  45
ATOM     45  C13 KU2 d   1     133.855 195.273 280.628  0.00  0.00     0.041 C 
ATOM     46  H1  KU2 d   1     134.660 195.016 279.924  0.00  0.00     0.077 H 
ATOM     47  H2  KU2 d   1     133.525 196.306 280.446  0.00  0.00     0.077 H 
BRANCH  45  48
ATOM     48  O5  KU2 d   1     132.756 194.373 280.463  0.00  0.00    -0.350 OA
BRANCH  48  49
ATOM     49  C23 KU2 d   1     132.041 194.295 279.295  0.00  0.00     0.068 A 
ATOM     50  C22 KU2 d   1     131.415 193.111 278.964  0.00  0.00    -0.051 A 
ATOM     51  C21 KU2 d   1     130.688 193.026 277.788  0.00  0.00    -0.080 A 
ATOM     52  H8  KU2 d   1     131.492 192.252 279.621  0.00  0.00     0.087 H 
ATOM     53  C20 KU2 d   1     130.589 194.113 276.951  0.00  0.00    -0.083 A 
ATOM     54  H7  KU2 d   1     130.194 192.097 277.526  0.00  0.00     0.083 H 
ATOM     55  C25 KU2 d   1     131.213 195.291 277.287  0.00  0.00    -0.080 A 
ATOM     56  H6  KU2 d   1     130.021 194.041 276.030  0.00  0.00     0.083 H 
ATOM     57  C24 KU2 d   1     131.942 195.389 278.461  0.00  0.00    -0.051 A 
ATOM     58  H10 KU2 d   1     131.134 196.149 276.629  0.00  0.00     0.083 H 
ATOM     59  H9  KU2 d   1     132.432 196.320 278.723  0.00  0.00     0.087 H 
ENDBRANCH  48  49
ENDBRANCH  45  48
ENDBRANCH  42  45
ENDBRANCH  39  42
ENDBRANCH   2  38
BRANCH   3  60
ATOM     60  O1  KU2 d   1     132.048 198.092 285.646  0.00  0.00    -0.354 OA
ATOM     61  H25 KU2 d   1     132.829 198.037 285.109  0.00  0.00     0.218 HD
ENDBRANCH   3  60
TORSDOF 10
