REMARK  17 active torsions:
REMARK  status: ('A' for Active; 'I' for Inactive)
REMARK    1  A    between atoms: C1_1  and  O3_9 
REMARK    2  A    between atoms: N1_2  and  C4_10 
REMARK    3  A    between atoms: C2_4  and  O2_6 
REMARK       I    between atoms: C5_13  and  N2_5 
REMARK    4  A    between atoms: N2_5  and  C6_16 
REMARK    5  A    between atoms: C3_7  and  C5_13 
REMARK    6  A    between atoms: C6_16  and  C7_19 
REMARK    7  A    between atoms: C11_27  and  N6_17 
REMARK    8  A    between atoms: N6_17  and  C13_30 
REMARK       I    between atoms: N7_20  and  C27_44 
REMARK    9  A    between atoms: C28_45  and  N7_20 
REMARK   10  A    between atoms: N8_22  and  C29_46 
REMARK       I    between atoms: C30_47  and  N8_22 
REMARK       I    between atoms: N9_24  and  C30_47 
REMARK   11  A    between atoms: C31_48  and  N9_24 
REMARK   12  A    between atoms: C40_57  and  N10_26 
REMARK   13  A    between atoms: C27_44  and  C12_29 
REMARK   14  A    between atoms: C13_30  and  C14_31 
REMARK   15  A    between atoms: C14_31  and  C15_32 
REMARK   16  A    between atoms: C14_31  and  C16_33 
REMARK   17  A    between atoms: C29_46  and  C28_45 
ROOT
ATOM      1  N1  UKA d   1     -20.358  -7.587   8.863  0.00  0.00    -0.294 N 
ATOM      2  N3  UKA d   1     -20.311  -5.566   9.851  0.00  0.00    -0.236 NA
ATOM      3  N4  UKA d   1     -21.992  -7.529  12.517  0.00  0.00    -0.204 NA
ATOM      4  N5  UKA d   1     -21.488  -8.849  10.603  0.00  0.00    -0.204 NA
ATOM      5  C8  UKA d   1     -20.002  -6.267   8.787  0.00  0.00     0.071 A 
ATOM      6  C9  UKA d   1     -20.916  -6.495  10.687  0.00  0.00     0.149 A 
ATOM      7  C10 UKA d   1     -20.965  -7.736  10.087  0.00  0.00     0.168 A 
ATOM      8  C11 UKA d   1     -21.449  -6.414  11.993  0.00  0.00     0.159 A 
ATOM      9  C12 UKA d   1     -22.003  -8.677  11.824  0.00  0.00     0.222 A 
ATOM     10  H15 UKA d   1     -19.506  -5.837   7.918  0.00  0.00     0.144 H 
ENDROOT
BRANCH   9  11
ATOM     11  C27 UKA d   1     -22.712  -9.894  12.377  0.00  0.00     0.289 C 
ATOM     12  O5  UKA d   1     -22.682 -10.965  11.776  0.00  0.00    -0.264 OA
ATOM     13  N7  UKA d   1     -23.343  -9.733  13.541  0.00  0.00    -0.353 N 
ATOM     14  H14 UKA d   1     -23.348  -8.828  13.966  0.00  0.00     0.162 HD
BRANCH  13  15
ATOM     15  C28 UKA d   1     -24.025 -10.828  14.214  0.00  0.00     0.010 C 
ATOM     16  H31 UKA d   1     -23.954 -11.732  13.591  0.00  0.00     0.066 H 
ATOM     17  H32 UKA d   1     -25.083 -10.560  14.352  0.00  0.00     0.066 H 
BRANCH  15  18
ATOM     18  C29 UKA d   1     -23.407 -11.111  15.566  0.00  0.00     0.011 C 
ATOM     19  H33 UKA d   1     -23.981 -11.908  16.061  0.00  0.00     0.066 H 
ATOM     20  H34 UKA d   1     -22.368 -11.443  15.421  0.00  0.00     0.066 H 
BRANCH  18  21
ATOM     21  N8  UKA d   1     -23.411  -9.928  16.415  0.00  0.00    -0.342 N 
ATOM     22  C30 UKA d   1     -24.479  -9.600  17.165  0.00  0.00     0.316 C 
ATOM     23  O6  UKA d   1     -25.544 -10.208  17.095  0.00  0.00    -0.247 OA
ATOM     24  N9  UKA d   1     -24.284  -8.553  18.001  0.00  0.00    -0.338 N 
ATOM     25  H17 UKA d   1     -23.393  -8.098  18.000  0.00  0.00     0.164 HD
ATOM     26  H16 UKA d   1     -22.599  -9.344  16.441  0.00  0.00     0.164 HD
BRANCH  24  27
ATOM     27  C31 UKA d   1     -25.321  -8.060  18.904  0.00  0.00     0.017 C 
ATOM     28  C32 UKA d   1     -24.714  -7.589  20.212  0.00  0.00    -0.031 C 
ATOM     29  C33 UKA d   1     -25.800  -7.038  21.128  0.00  0.00    -0.002 C 
ATOM     30  H36 UKA d   1     -23.977  -6.799  20.007  0.00  0.00     0.038 H 
ATOM     31  H37 UKA d   1     -24.216  -8.436  20.707  0.00  0.00     0.038 H 
ATOM     32  N10 UKA d   1     -26.547  -5.960  20.473  0.00  0.00    -0.366 N 
ATOM     33  H38 UKA d   1     -26.495  -7.849  21.389  0.00  0.00     0.064 H 
ATOM     34  H39 UKA d   1     -25.333  -6.646  22.044  0.00  0.00     0.064 H 
ATOM     35  C34 UKA d   1     -27.165  -6.414  19.224  0.00  0.00    -0.002 C 
ATOM     36  C35 UKA d   1     -26.116  -6.945  18.256  0.00  0.00    -0.031 C 
ATOM     37  H40 UKA d   1     -27.692  -5.569  18.756  0.00  0.00     0.064 H 
ATOM     38  H41 UKA d   1     -27.884  -7.215  19.449  0.00  0.00     0.064 H 
ATOM     39  H42 UKA d   1     -26.616  -7.331  17.355  0.00  0.00     0.038 H 
ATOM     40  H43 UKA d   1     -25.434  -6.128  17.976  0.00  0.00     0.038 H 
ATOM     41  H35 UKA d   1     -26.009  -8.890  19.123  0.00  0.00     0.072 H 
BRANCH  32  42
ATOM     42  C40 UKA d   1     -26.265  -4.634  20.712  0.00  0.00     0.125 A 
ATOM     43  N11 UKA d   1     -25.285  -4.387  21.593  0.00  0.00    -0.244 NA
ATOM     44  C39 UKA d   1     -24.998  -3.104  21.856  0.00  0.00     0.004 A 
ATOM     45  C38 UKA d   1     -25.648  -2.041  21.273  0.00  0.00    -0.066 A 
ATOM     46  H47 UKA d   1     -24.209  -2.892  22.569  0.00  0.00     0.114 H 
ATOM     47  C37 UKA d   1     -26.648  -2.309  20.371  0.00  0.00    -0.078 A 
ATOM     48  H46 UKA d   1     -25.378  -1.020  21.519  0.00  0.00     0.085 H 
ATOM     49  C36 UKA d   1     -26.978  -3.618  20.072  0.00  0.00    -0.039 A 
ATOM     50  H45 UKA d   1     -27.179  -1.494  19.893  0.00  0.00     0.083 H 
ATOM     51  H44 UKA d   1     -27.765  -3.848  19.363  0.00  0.00     0.089 H 
ENDBRANCH  32  42
ENDBRANCH  24  27
ENDBRANCH  18  21
ENDBRANCH  15  18
ENDBRANCH  13  15
ENDBRANCH   9  11
BRANCH   8  52
ATOM     52  N6  UKA d   1     -21.364  -5.304  12.743  0.00  0.00    -0.372 N 
ATOM     53  H10 UKA d   1     -21.087  -4.425  12.283  0.00  0.00     0.161 HD
BRANCH  52  54
ATOM     54  C13 UKA d   1     -21.642  -5.276  14.170  0.00  0.00     0.005 C 
ATOM     55  H18 UKA d   1     -20.817  -4.759  14.682  0.00  0.00     0.065 H 
ATOM     56  H19 UKA d   1     -21.711  -6.310  14.538  0.00  0.00     0.065 H 
BRANCH  54  57
ATOM     57  C14 UKA d   1     -22.950  -4.552  14.488  0.00  0.00     0.012 C 
ATOM     58  H20 UKA d   1     -22.958  -3.624  13.898  0.00  0.00     0.057 H 
BRANCH  57  59
ATOM     59  C15 UKA d   1     -23.078  -4.150  15.952  0.00  0.00    -0.048 A 
ATOM     60  C17 UKA d   1     -22.184  -4.610  16.909  0.00  0.00    -0.076 A 
ATOM     61  C18 UKA d   1     -22.335  -4.265  18.240  0.00  0.00    -0.082 A 
ATOM     62  H21 UKA d   1     -21.359  -5.246  16.610  0.00  0.00     0.084 H 
ATOM     63  C19 UKA d   1     -23.379  -3.457  18.632  0.00  0.00    -0.083 A 
ATOM     64  H22 UKA d   1     -21.629  -4.632  18.977  0.00  0.00     0.083 H 
ATOM     65  C20 UKA d   1     -24.269  -2.989  17.693  0.00  0.00    -0.082 A 
ATOM     66  H23 UKA d   1     -23.499  -3.191  19.676  0.00  0.00     0.083 H 
ATOM     67  C21 UKA d   1     -24.121  -3.331  16.361  0.00  0.00    -0.076 A 
ATOM     68  H24 UKA d   1     -25.090  -2.350  17.998  0.00  0.00     0.083 H 
ATOM     69  H25 UKA d   1     -24.827  -2.955  15.629  0.00  0.00     0.084 H 
ENDBRANCH  57  59
BRANCH  57  70
ATOM     70  C16 UKA d   1     -24.140  -5.389  14.043  0.00  0.00    -0.048 A 
ATOM     71  C22 UKA d   1     -24.855  -5.061  12.900  0.00  0.00    -0.076 A 
ATOM     72  C23 UKA d   1     -25.932  -5.831  12.497  0.00  0.00    -0.082 A 
ATOM     73  H26 UKA d   1     -24.567  -4.194  12.317  0.00  0.00     0.084 H 
ATOM     74  C24 UKA d   1     -26.308  -6.935  13.229  0.00  0.00    -0.083 A 
ATOM     75  H27 UKA d   1     -26.482  -5.564  11.602  0.00  0.00     0.083 H 
ATOM     76  C25 UKA d   1     -25.608  -7.270  14.366  0.00  0.00    -0.082 A 
ATOM     77  H28 UKA d   1     -27.151  -7.537  12.911  0.00  0.00     0.083 H 
ATOM     78  C26 UKA d   1     -24.531  -6.503  14.773  0.00  0.00    -0.076 A 
ATOM     79  H29 UKA d   1     -25.902  -8.138  14.945  0.00  0.00     0.083 H 
ATOM     80  H30 UKA d   1     -23.987  -6.775  15.671  0.00  0.00     0.084 H 
ENDBRANCH  57  70
ENDBRANCH  54  57
ENDBRANCH  52  54
ENDBRANCH   8  52
BRANCH   1  81
ATOM     81  C4  UKA d   1     -20.101  -8.637   7.883  0.00  0.00     0.140 C 
ATOM     82  C1  UKA d   1     -21.280  -8.932   6.960  0.00  0.00     0.105 C 
ATOM     83  C2  UKA d   1     -21.014  -7.953   5.816  0.00  0.00     0.098 C 
ATOM     84  H1  UKA d   1     -22.243  -8.723   7.449  0.00  0.00     0.093 H 
ATOM     85  C3  UKA d   1     -19.486  -7.998   5.720  0.00  0.00     0.144 C 
ATOM     86  H2  UKA d   1     -21.372  -6.943   6.062  0.00  0.00     0.091 H 
ATOM     87  O1  UKA d   1     -19.026  -8.227   7.059  0.00  0.00    -0.346 OA
ATOM     88  H5  UKA d   1     -19.147  -8.800   5.048  0.00  0.00     0.102 H 
ATOM     89  H7  UKA d   1     -19.832  -9.558   8.421  0.00  0.00     0.123 H 
BRANCH  82  90
ATOM     90  O3  UKA d   1     -21.248 -10.290   6.533  0.00  0.00    -0.388 OA
ATOM     91  H6  UKA d   1     -21.913 -10.428   5.869  0.00  0.00     0.210 HD
ENDBRANCH  82  90
BRANCH  83  92
ATOM     92  O2  UKA d   1     -21.615  -8.387   4.602  0.00  0.00    -0.390 OA
ATOM     93  H4  UKA d   1     -22.555  -8.458   4.723  0.00  0.00     0.210 HD
ENDBRANCH  83  92
BRANCH  85  94
ATOM     94  C5  UKA d   1     -19.019  -6.642   5.206  0.00  0.00     0.249 C 
ATOM     95  N2  UKA d   1     -18.137  -6.671   4.207  0.00  0.00    -0.359 N 
ATOM     96  H3  UKA d   1     -17.837  -7.563   3.870  0.00  0.00     0.162 HD
ATOM     97  O4  UKA d   1     -19.446  -5.602   5.701  0.00  0.00    -0.271 OA
BRANCH  95  98
ATOM     98  C6  UKA d   1     -17.583  -5.475   3.575  0.00  0.00    -0.008 C 
ATOM     99  H8  UKA d   1     -16.891  -4.988   4.278  0.00  0.00     0.063 H 
ATOM    100  H9  UKA d   1     -18.406  -4.786   3.334  0.00  0.00     0.063 H 
BRANCH  98 101
ATOM    101  C7  UKA d   1     -16.844  -5.806   2.319  0.00  0.00    -0.061 C 
ATOM    102  H11 UKA d   1     -16.444  -4.883   1.875  0.00  0.00     0.029 H 
ATOM    103  H12 UKA d   1     -17.529  -6.288   1.607  0.00  0.00     0.029 H 
ATOM    104  H13 UKA d   1     -16.015  -6.491   2.551  0.00  0.00     0.029 H 
ENDBRANCH  98 101
ENDBRANCH  95  98
ENDBRANCH  85  94
ENDBRANCH   1  81
TORSDOF 17
