REMARK  17 active torsions:
REMARK  status: ('A' for Active; 'I' for Inactive)
REMARK    1  A    between atoms: C1_1  and  O3_9 
REMARK    2  A    between atoms: N1_2  and  C4_10 
REMARK    3  A    between atoms: C2_4  and  O2_6 
REMARK       I    between atoms: C5_13  and  N2_5 
REMARK    4  A    between atoms: N2_5  and  C6_16 
REMARK    5  A    between atoms: C3_7  and  C5_13 
REMARK    6  A    between atoms: C6_16  and  C7_19 
REMARK    7  A    between atoms: C11_27  and  N6_17 
REMARK    8  A    between atoms: N6_17  and  C13_30 
REMARK       I    between atoms: N7_20  and  C27_44 
REMARK    9  A    between atoms: C28_45  and  N7_20 
REMARK   10  A    between atoms: N8_22  and  C29_46 
REMARK       I    between atoms: C30_47  and  N8_22 
REMARK       I    between atoms: N9_24  and  C30_47 
REMARK   11  A    between atoms: C31_48  and  N9_24 
REMARK   12  A    between atoms: C40_57  and  N10_26 
REMARK   13  A    between atoms: C27_44  and  C12_29 
REMARK   14  A    between atoms: C13_30  and  C14_31 
REMARK   15  A    between atoms: C14_31  and  C15_32 
REMARK   16  A    between atoms: C14_31  and  C16_33 
REMARK   17  A    between atoms: C29_46  and  C28_45 
ROOT
ATOM      1  N1  UKA d   1      -5.186 -10.353  51.205  0.00  0.00    -0.294 N 
ATOM      2  N3  UKA d   1      -5.097  -8.287  52.086  0.00  0.00    -0.236 NA
ATOM      3  N4  UKA d   1      -6.584 -10.122  54.949  0.00  0.00    -0.204 NA
ATOM      4  N5  UKA d   1      -6.183 -11.536  53.077  0.00  0.00    -0.204 NA
ATOM      5  C8  UKA d   1      -4.839  -9.037  51.043  0.00  0.00     0.071 A 
ATOM      6  C9  UKA d   1      -5.654  -9.171  52.999  0.00  0.00     0.149 A 
ATOM      7  C10 UKA d   1      -5.715 -10.445  52.467  0.00  0.00     0.168 A 
ATOM      8  C11 UKA d   1      -6.118  -9.024  54.322  0.00  0.00     0.159 A 
ATOM      9  C12 UKA d   1      -6.615 -11.307  54.321  0.00  0.00     0.222 A 
ATOM     10  H15 UKA d   1      -4.389  -8.650  50.130  0.00  0.00     0.144 H 
ENDROOT
BRANCH   9  11
ATOM     11  C27 UKA d   1      -7.246 -12.514  54.987  0.00  0.00     0.289 C 
ATOM     12  O5  UKA d   1      -7.275 -13.600  54.415  0.00  0.00    -0.264 OA
ATOM     13  N7  UKA d   1      -7.774 -12.317  56.197  0.00  0.00    -0.353 N 
ATOM     14  H14 UKA d   1      -7.579 -11.461  56.675  0.00  0.00     0.162 HD
BRANCH  13  15
ATOM     15  C28 UKA d   1      -8.624 -13.306  56.844  0.00  0.00     0.010 C 
ATOM     16  H31 UKA d   1      -8.698 -14.193  56.197  0.00  0.00     0.066 H 
ATOM     17  H32 UKA d   1      -9.626 -12.876  56.992  0.00  0.00     0.066 H 
BRANCH  15  18
ATOM     18  C29 UKA d   1      -8.063 -13.721  58.187  0.00  0.00     0.011 C 
ATOM     19  H33 UKA d   1      -8.686 -14.529  58.599  0.00  0.00     0.066 H 
ATOM     20  H34 UKA d   1      -7.035 -14.086  58.046  0.00  0.00     0.066 H 
BRANCH  18  21
ATOM     21  N8  UKA d   1      -8.045 -12.612  59.129  0.00  0.00    -0.342 N 
ATOM     22  C30 UKA d   1      -9.159 -12.213  59.772  0.00  0.00     0.316 C 
ATOM     23  O6  UKA d   1     -10.270 -12.663  59.509  0.00  0.00    -0.247 OA
ATOM     24  N9  UKA d   1      -8.953 -11.280  60.728  0.00  0.00    -0.338 N 
ATOM     25  H17 UKA d   1      -8.023 -10.946  60.881  0.00  0.00     0.164 HD
ATOM     26  H16 UKA d   1      -7.184 -12.134  59.303  0.00  0.00     0.164 HD
BRANCH  24  27
ATOM     27  C31 UKA d   1     -10.035 -10.741  61.545  0.00  0.00     0.017 C 
ATOM     28  C32 UKA d   1     -10.861  -9.740  60.762  0.00  0.00    -0.031 C 
ATOM     29  C33 UKA d   1     -11.960  -9.164  61.643  0.00  0.00    -0.002 C 
ATOM     30  H36 UKA d   1     -11.316 -10.242  59.895  0.00  0.00     0.038 H 
ATOM     31  H37 UKA d   1     -10.210  -8.925  60.413  0.00  0.00     0.038 H 
ATOM     32  N10 UKA d   1     -11.398  -8.552  62.851  0.00  0.00    -0.366 N 
ATOM     33  H38 UKA d   1     -12.512  -8.400  61.076  0.00  0.00     0.064 H 
ATOM     34  H39 UKA d   1     -12.647  -9.972  61.935  0.00  0.00     0.064 H 
ATOM     35  C34 UKA d   1     -10.621  -9.518  63.636  0.00  0.00    -0.002 C 
ATOM     36  C35 UKA d   1      -9.487 -10.108  62.809  0.00  0.00    -0.031 C 
ATOM     37  H40 UKA d   1     -11.285 -10.330  63.966  0.00  0.00     0.064 H 
ATOM     38  H41 UKA d   1     -10.198  -9.010  64.515  0.00  0.00     0.064 H 
ATOM     39  H42 UKA d   1      -8.781  -9.309  62.539  0.00  0.00     0.038 H 
ATOM     40  H43 UKA d   1      -8.965 -10.873  63.402  0.00  0.00     0.038 H 
ATOM     41  H35 UKA d   1     -10.692 -11.574  61.835  0.00  0.00     0.072 H 
BRANCH  32  42
ATOM     42  C40 UKA d   1     -11.235  -7.191  62.987  0.00  0.00     0.125 A 
ATOM     43  N11 UKA d   1     -10.557  -6.779  64.067  0.00  0.00    -0.244 NA
ATOM     44  C39 UKA d   1     -10.406  -5.459  64.238  0.00  0.00     0.004 A 
ATOM     45  C38 UKA d   1     -10.902  -4.514  63.370  0.00  0.00    -0.066 A 
ATOM     46  H47 UKA d   1      -9.862  -5.116  65.110  0.00  0.00     0.114 H 
ATOM     47  C37 UKA d   1     -11.591  -4.951  62.265  0.00  0.00    -0.078 A 
ATOM     48  H46 UKA d   1     -10.754  -3.456  63.553  0.00  0.00     0.085 H 
ATOM     49  C36 UKA d   1     -11.771  -6.305  62.051  0.00  0.00    -0.039 A 
ATOM     50  H45 UKA d   1     -11.994  -4.233  61.560  0.00  0.00     0.083 H 
ATOM     51  H44 UKA d   1     -12.311  -6.667  61.184  0.00  0.00     0.089 H 
ENDBRANCH  32  42
ENDBRANCH  24  27
ENDBRANCH  18  21
ENDBRANCH  15  18
ENDBRANCH  13  15
ENDBRANCH   9  11
BRANCH   8  52
ATOM     52  N6  UKA d   1      -6.094  -7.847  54.966  0.00  0.00    -0.372 N 
ATOM     53  H10 UKA d   1      -6.083  -6.987  54.400  0.00  0.00     0.161 HD
BRANCH  52  54
ATOM     54  C13 UKA d   1      -6.083  -7.711  56.415  0.00  0.00     0.005 C 
ATOM     55  H18 UKA d   1      -6.086  -6.632  56.631  0.00  0.00     0.065 H 
ATOM     56  H19 UKA d   1      -5.139  -8.152  56.766  0.00  0.00     0.065 H 
BRANCH  54  57
ATOM     57  C14 UKA d   1      -7.198  -8.331  57.260  0.00  0.00     0.012 C 
ATOM     58  H20 UKA d   1      -6.832  -9.325  57.558  0.00  0.00     0.057 H 
BRANCH  57  59
ATOM     59  C15 UKA d   1      -8.519  -8.569  56.541  0.00  0.00    -0.048 A 
ATOM     60  C17 UKA d   1      -9.302  -9.664  56.878  0.00  0.00    -0.076 A 
ATOM     61  C18 UKA d   1     -10.498  -9.903  56.227  0.00  0.00    -0.082 A 
ATOM     62  H21 UKA d   1      -8.973 -10.339  57.660  0.00  0.00     0.084 H 
ATOM     63  C19 UKA d   1     -10.930  -9.052  55.235  0.00  0.00    -0.083 A 
ATOM     64  H22 UKA d   1     -11.098 -10.764  56.499  0.00  0.00     0.083 H 
ATOM     65  C20 UKA d   1     -10.167  -7.955  54.898  0.00  0.00    -0.082 A 
ATOM     66  H23 UKA d   1     -11.865  -9.244  54.722  0.00  0.00     0.083 H 
ATOM     67  C21 UKA d   1      -8.970  -7.713  55.547  0.00  0.00    -0.076 A 
ATOM     68  H24 UKA d   1     -10.506  -7.279  54.121  0.00  0.00     0.083 H 
ATOM     69  H25 UKA d   1      -8.378  -6.846  55.276  0.00  0.00     0.084 H 
ENDBRANCH  57  59
BRANCH  57  70
ATOM     70  C16 UKA d   1      -7.423  -7.539  58.542  0.00  0.00    -0.048 A 
ATOM     71  C22 UKA d   1      -7.385  -8.167  59.779  0.00  0.00    -0.076 A 
ATOM     72  C23 UKA d   1      -7.638  -7.455  60.938  0.00  0.00    -0.082 A 
ATOM     73  H26 UKA d   1      -7.155  -9.225  59.838  0.00  0.00     0.084 H 
ATOM     74  C24 UKA d   1      -7.929  -6.111  60.878  0.00  0.00    -0.083 A 
ATOM     75  H27 UKA d   1      -7.607  -7.958  61.898  0.00  0.00     0.083 H 
ATOM     76  C25 UKA d   1      -7.964  -5.475  59.658  0.00  0.00    -0.082 A 
ATOM     77  H28 UKA d   1      -8.130  -5.556  61.787  0.00  0.00     0.083 H 
ATOM     78  C26 UKA d   1      -7.711  -6.182  58.496  0.00  0.00    -0.076 A 
ATOM     79  H29 UKA d   1      -8.191  -4.416  59.607  0.00  0.00     0.083 H 
ATOM     80  H30 UKA d   1      -7.738  -5.671  57.540  0.00  0.00     0.084 H 
ENDBRANCH  57  70
ENDBRANCH  54  57
ENDBRANCH  52  54
ENDBRANCH   8  52
BRANCH   1  81
ATOM     81  C4  UKA d   1      -5.015 -11.432  50.236  0.00  0.00     0.140 C 
ATOM     82  C1  UKA d   1      -6.184 -11.592  49.267  0.00  0.00     0.105 C 
ATOM     83  C2  UKA d   1      -5.809 -10.577  48.187  0.00  0.00     0.098 C 
ATOM     84  H1  UKA d   1      -7.145 -11.341  49.739  0.00  0.00     0.093 H 
ATOM     85  C3  UKA d   1      -4.284 -10.735  48.130  0.00  0.00     0.144 C 
ATOM     86  H2  UKA d   1      -6.098  -9.557  48.481  0.00  0.00     0.091 H 
ATOM     87  O1  UKA d   1      -3.877 -11.145  49.445  0.00  0.00    -0.346 OA
ATOM     88  H5  UKA d   1      -3.994 -11.491  47.385  0.00  0.00     0.102 H 
ATOM     89  H7  UKA d   1      -4.870 -12.376  50.782  0.00  0.00     0.123 H 
BRANCH  82  90
ATOM     90  O3  UKA d   1      -6.232 -12.923  48.764  0.00  0.00    -0.388 OA
ATOM     91  H6  UKA d   1      -6.881 -12.976  48.072  0.00  0.00     0.210 HD
ENDBRANCH  82  90
BRANCH  83  92
ATOM     92  O2  UKA d   1      -6.398 -10.893  46.930  0.00  0.00    -0.390 OA
ATOM     93  H4  UKA d   1      -7.344 -10.898  47.017  0.00  0.00     0.210 HD
ENDBRANCH  83  92
BRANCH  85  94
ATOM     94  C5  UKA d   1      -3.676  -9.387  47.768  0.00  0.00     0.249 C 
ATOM     95  N2  UKA d   1      -2.596  -9.434  46.989  0.00  0.00    -0.359 N 
ATOM     96  H3  UKA d   1      -2.293 -10.329  46.663  0.00  0.00     0.162 HD
ATOM     97  O4  UKA d   1      -4.160  -8.340  48.191  0.00  0.00    -0.271 OA
BRANCH  95  98
ATOM     98  C6  UKA d   1      -1.828  -8.262  46.582  0.00  0.00    -0.008 C 
ATOM     99  H8  UKA d   1      -0.969  -8.592  45.979  0.00  0.00     0.063 H 
ATOM    100  H9  UKA d   1      -1.466  -7.744  47.482  0.00  0.00     0.063 H 
BRANCH  98 101
ATOM    101  C7  UKA d   1      -2.645  -7.313  45.777  0.00  0.00    -0.061 C 
ATOM    102  H11 UKA d   1      -2.028  -6.448  45.493  0.00  0.00     0.029 H 
ATOM    103  H12 UKA d   1      -3.504  -6.971  46.373  0.00  0.00     0.029 H 
ATOM    104  H13 UKA d   1      -3.007  -7.819  44.870  0.00  0.00     0.029 H 
ENDBRANCH  98 101
ENDBRANCH  95  98
ENDBRANCH  85  94
ENDBRANCH   1  81
TORSDOF 17
