REMARK  12 active torsions:
REMARK  status: ('A' for Active; 'I' for Inactive)
REMARK    1  A    between atoms: C26_3  and  C25_2 
REMARK    2  A    between atoms: C19_7  and  C20_6 
REMARK    3  A    between atoms: C16_11  and  C17_10 
REMARK    4  A    between atoms: C10_13  and  C11_12 
REMARK       I    between atoms: C11_12  and  N13_33 
REMARK    5  A    between atoms: C14_15  and  C15_14 
REMARK    6  A    between atoms: N13_33  and  C14_15 
REMARK    7  A    between atoms: C02_17  and  C01_16 
REMARK    8  A    between atoms: C03_18  and  C02_17 
REMARK    9  A    between atoms: C03_18  and  C04_19 
REMARK   10  A    between atoms: N05_32  and  C03_18 
REMARK   11  A    between atoms: C07_21  and  C08_22 
REMARK   12  A    between atoms: N30_35  and  C29_24 
ROOT
ATOM      1  C24 A9G d   1     -22.250  -0.031 -23.622  0.00  0.00    -0.056 A 
ATOM      2  C25 A9G d   1     -22.934  -0.470 -22.430  0.00  0.00    -0.021 A 
ATOM      3  C10 A9G d   1     -22.657  -0.325 -24.921  0.00  0.00     0.045 A 
ATOM      4  C06 A9G d   1     -25.642  -2.397 -25.769  0.00  0.00    -0.013 A 
ATOM      5  C07 A9G d   1     -24.580  -1.680 -26.281  0.00  0.00    -0.033 A 
ATOM      6  C09 A9G d   1     -23.823  -1.137 -25.153  0.00  0.00     0.014 A 
ATOM      7  C38 A9G d   1     -24.044  -1.241 -22.647  0.00  0.00    -0.045 A 
ATOM      8  C39 A9G d   1     -24.527  -1.589 -23.940  0.00  0.00     0.047 A 
ATOM      9  N05 A9G d   1     -25.665  -2.365 -24.326  0.00  0.00    -0.351 N 
ATOM     10  H1  A9G d   1     -21.356   0.570 -23.498  0.00  0.00     0.086 H 
ATOM     11  H22 A9G d   1     -26.374  -2.923 -26.380  0.00  0.00     0.112 H 
ATOM     12  H35 A9G d   1     -24.587  -1.608 -21.784  0.00  0.00     0.088 H 
ENDROOT
BRANCH   2  13
ATOM     13  C26 A9G d   1     -22.354  -0.060 -21.094  0.00  0.00    -0.008 A 
ATOM     14  C27 A9G d   1     -22.237  -0.868 -19.946  0.00  0.00    -0.067 A 
ATOM     15  C28 A9G d   1     -21.672  -0.452 -18.729  0.00  0.00    -0.038 A 
ATOM     16  H3  A9G d   1     -22.610  -1.884 -20.006  0.00  0.00     0.085 H 
ATOM     17  C29 A9G d   1     -21.151   0.891 -18.598  0.00  0.00     0.125 A 
ATOM     18  H2  A9G d   1     -21.627  -1.136 -17.890  0.00  0.00     0.089 H 
ATOM     19  N36 A9G d   1     -21.256   1.687 -19.717  0.00  0.00    -0.243 NA
ATOM     20  C37 A9G d   1     -21.812   1.240 -20.868  0.00  0.00     0.015 A 
ATOM     21  H34 A9G d   1     -21.849   1.937 -21.697  0.00  0.00     0.116 H 
BRANCH  17  22
ATOM     22  N30 A9G d   1     -20.524   1.353 -17.299  0.00  0.00    -0.363 N 
ATOM     23  C31 A9G d   1     -20.056   0.400 -16.199  0.00  0.00     0.019 C 
ATOM     24  C32 A9G d   1     -20.658   0.604 -14.764  0.00  0.00     0.096 C 
ATOM     25  H26 A9G d   1     -20.306  -0.622 -16.520  0.00  0.00     0.066 H 
ATOM     26  H27 A9G d   1     -18.964   0.502 -16.116  0.00  0.00     0.066 H 
ATOM     27  N33 A9G d   1     -21.343   1.927 -14.632  0.00  0.00    -0.072 N 
ATOM     28  H28 A9G d   1     -19.845   0.549 -14.025  0.00  0.00     0.078 H 
ATOM     29  H29 A9G d   1     -21.387  -0.196 -14.567  0.00  0.00     0.078 H 
ATOM     30  C34 A9G d   1     -20.560   3.032 -15.285  0.00  0.00     0.096 C 
ATOM     31  H38 A9G d   1     -21.453   2.140 -13.653  0.00  0.00     0.277 HD
ATOM     32  H39 A9G d   1     -22.250   1.869 -15.068  0.00  0.00     0.277 HD
ATOM     33  C35 A9G d   1     -20.564   2.832 -16.851  0.00  0.00     0.019 C 
ATOM     34  H30 A9G d   1     -21.019   4.001 -15.039  0.00  0.00     0.078 H 
ATOM     35  H31 A9G d   1     -19.524   3.013 -14.916  0.00  0.00     0.078 H 
ATOM     36  H32 A9G d   1     -19.683   3.343 -17.267  0.00  0.00     0.066 H 
ATOM     37  H33 A9G d   1     -21.478   3.291 -17.255  0.00  0.00     0.066 H 
ENDBRANCH  17  22
ENDBRANCH   2  13
BRANCH   3  38
ATOM     38  C11 A9G d   1     -21.759   0.227 -26.139  0.00  0.00     0.252 C 
ATOM     39  N13 A9G d   1     -21.262   1.577 -26.110  0.00  0.00    -0.352 N 
ATOM     40  H36 A9G d   1     -21.520   2.140 -25.325  0.00  0.00     0.163 HD
ATOM     41  O12 A9G d   1     -21.436  -0.485 -27.017  0.00  0.00    -0.268 OA
BRANCH  39  42
ATOM     42  C14 A9G d   1     -20.422   2.192 -27.116  0.00  0.00     0.024 C 
ATOM     43  H11 A9G d   1     -19.437   2.394 -26.671  0.00  0.00     0.071 H 
ATOM     44  H12 A9G d   1     -20.309   1.487 -27.953  0.00  0.00     0.071 H 
BRANCH  42  45
ATOM     45  C15 A9G d   1     -20.977   3.490 -27.656  0.00  0.00     0.019 A 
ATOM     46  C22 A9G d   1     -20.683   4.771 -27.004  0.00  0.00     0.187 A 
ATOM     47  N21 A9G d   1     -21.175   5.991 -27.471  0.00  0.00    -0.338 N 
ATOM     48  O23 A9G d   1     -19.890   4.731 -25.908  0.00  0.00    -0.172 OA
ATOM     49  C19 A9G d   1     -21.993   6.060 -28.595  0.00  0.00     0.008 A 
ATOM     50  H37 A9G d   1     -20.935   6.833 -26.988  0.00  0.00     0.168 HD
ATOM     51  C18 A9G d   1     -22.295   4.826 -29.244  0.00  0.00    -0.055 A 
ATOM     52  C16 A9G d   1     -21.816   3.561 -28.806  0.00  0.00    -0.048 A 
ATOM     53  H7  A9G d   1     -22.930   4.855 -30.128  0.00  0.00     0.087 H 
BRANCH  49  54
ATOM     54  C20 A9G d   1     -22.524   7.467 -29.061  0.00  0.00    -0.037 C 
ATOM     55  H4  A9G d   1     -23.151   7.344 -29.956  0.00  0.00     0.035 H 
ATOM     56  H5  A9G d   1     -21.672   8.121 -29.297  0.00  0.00     0.035 H 
ATOM     57  H6  A9G d   1     -23.121   7.919 -28.255  0.00  0.00     0.035 H 
ENDBRANCH  49  54
BRANCH  52  58
ATOM     58  C17 A9G d   1     -22.158   2.230 -29.520  0.00  0.00    -0.050 C 
ATOM     59  H8  A9G d   1     -22.808   2.434 -30.384  0.00  0.00     0.033 H 
ATOM     60  H9  A9G d   1     -22.679   1.561 -28.819  0.00  0.00     0.033 H 
ATOM     61  H10 A9G d   1     -21.230   1.750 -29.864  0.00  0.00     0.033 H 
ENDBRANCH  52  58
ENDBRANCH  42  45
ENDBRANCH  39  42
ENDBRANCH   3  38
BRANCH   9  62
ATOM     62  C03 A9G d   1     -26.686  -3.079 -23.455  0.00  0.00     0.013 C 
ATOM     63  H18 A9G d   1     -27.485  -2.391 -23.140  0.00  0.00     0.072 H 
BRANCH  62  64
ATOM     64  C02 A9G d   1     -25.895  -3.718 -22.148  0.00  0.00    -0.049 C 
ATOM     65  H16 A9G d   1     -25.937  -4.812 -22.255  0.00  0.00     0.035 H 
ATOM     66  H17 A9G d   1     -24.849  -3.383 -22.215  0.00  0.00     0.035 H 
BRANCH  64  67
ATOM     67  C01 A9G d   1     -26.385  -3.386 -20.695  0.00  0.00    -0.075 C 
ATOM     68  H13 A9G d   1     -25.740  -3.897 -19.965  0.00  0.00     0.027 H 
ATOM     69  H14 A9G d   1     -27.423  -3.728 -20.571  0.00  0.00     0.027 H 
ATOM     70  H15 A9G d   1     -26.335  -2.300 -20.530  0.00  0.00     0.027 H 
ENDBRANCH  64  67
ENDBRANCH  62  64
BRANCH  62  71
ATOM     71  C04 A9G d   1     -27.257  -4.269 -24.260  0.00  0.00    -0.057 C 
ATOM     72  H19 A9G d   1     -27.794  -3.891 -25.142  0.00  0.00     0.030 H 
ATOM     73  H20 A9G d   1     -27.951  -4.841 -23.626  0.00  0.00     0.030 H 
ATOM     74  H21 A9G d   1     -26.433  -4.922 -24.584  0.00  0.00     0.030 H 
ENDBRANCH  62  71
ENDBRANCH   9  62
BRANCH   5  75
ATOM     75  C08 A9G d   1     -24.231  -1.478 -27.773  0.00  0.00    -0.049 C 
ATOM     76  H23 A9G d   1     -24.973  -1.998 -28.397  0.00  0.00     0.033 H 
ATOM     77  H24 A9G d   1     -23.230  -1.888 -27.974  0.00  0.00     0.033 H 
ATOM     78  H25 A9G d   1     -24.242  -0.404 -28.010  0.00  0.00     0.033 H 
ENDBRANCH   5  75
TORSDOF 12
