REMARK  13 active torsions:
REMARK  status: ('A' for Active; 'I' for Inactive)
REMARK    1  A    between atoms: C18_1  and  C19_3 
REMARK    2  A    between atoms: C16_5  and  C14_7 
REMARK    3  A    between atoms: N27_36  and  C28_6 
REMARK       I    between atoms: C14_7  and  N13_33 
REMARK    4  A    between atoms: C12_9  and  C11_22 
REMARK    5  A    between atoms: N13_33  and  C12_9 
REMARK    6  A    between atoms: C23_13  and  N24_35 
REMARK    7  A    between atoms: C02_15  and  C01_14 
REMARK    8  A    between atoms: C03_16  and  C02_15 
REMARK    9  A    between atoms: C04_17  and  C03_16 
REMARK   10  A    between atoms: C06_19  and  C07_20 
REMARK   11  A    between atoms: C38_29  and  C39_30 
REMARK   12  A    between atoms: C38_29  and  C40_31 
REMARK   13  A    between atoms: C38_29  and  N37_38 
ROOT
ATOM      1  C18 A97 d   1      23.491  -0.405 -22.441  0.00  0.00    -0.022 A 
ATOM      2  C16 A97 d   1      22.991  -0.073 -24.887  0.00  0.00     0.046 A 
ATOM      3  C17 A97 d   1      22.720  -0.617 -23.627  0.00  0.00    -0.056 A 
ATOM      4  C32 A97 d   1      24.606   0.444 -22.582  0.00  0.00    -0.044 A 
ATOM      5  C33 A97 d   1      24.953   1.036 -23.855  0.00  0.00     0.067 A 
ATOM      6  C34 A97 d   1      24.153   0.782 -25.001  0.00  0.00     0.027 A 
ATOM      7  C35 A97 d   1      24.815   1.539 -26.074  0.00  0.00     0.035 A 
ATOM      8  N36 A97 d   1      25.920   2.193 -25.583  0.00  0.00    -0.183 NA
ATOM      9  N37 A97 d   1      26.044   1.909 -24.247  0.00  0.00    -0.265 N 
ATOM     10  H8  A97 d   1      21.848  -1.256 -23.542  0.00  0.00     0.086 H 
ATOM     11  H29 A97 d   1      25.219   0.659 -21.715  0.00  0.00     0.088 H 
ATOM     12  H30 A97 d   1      24.478   1.576 -27.109  0.00  0.00     0.118 H 
ENDROOT
BRANCH   2  13
ATOM     13  C14 A97 d   1      22.056  -0.439 -26.005  0.00  0.00     0.252 C 
ATOM     14  N13 A97 d   1      21.339  -1.637 -26.027  0.00  0.00    -0.352 N 
ATOM     15  H39 A97 d   1      21.482  -2.208 -25.219  0.00  0.00     0.163 HD
ATOM     16  O15 A97 d   1      21.905   0.421 -26.948  0.00  0.00    -0.268 OA
BRANCH  14  17
ATOM     17  C12 A97 d   1      20.426  -2.213 -26.997  0.00  0.00     0.024 C 
ATOM     18  H9  A97 d   1      19.482  -2.479 -26.499  0.00  0.00     0.071 H 
ATOM     19  H10 A97 d   1      20.227  -1.481 -27.794  0.00  0.00     0.071 H 
BRANCH  17  20
ATOM     20  C11 A97 d   1      21.060  -3.480 -27.609  0.00  0.00     0.020 A 
ATOM     21  C04 A97 d   1      21.977  -3.399 -28.703  0.00  0.00    -0.044 A 
ATOM     22  C05 A97 d   1      22.546  -4.624 -29.210  0.00  0.00    -0.055 A 
ATOM     23  C06 A97 d   1      22.223  -5.907 -28.642  0.00  0.00     0.008 A 
ATOM     24  H22 A97 d   1      23.241  -4.577 -30.047  0.00  0.00     0.087 H 
ATOM     25  N08 A97 d   1      21.352  -5.970 -27.582  0.00  0.00    -0.338 N 
ATOM     26  C09 A97 d   1      20.824  -4.794 -27.108  0.00  0.00     0.187 A 
ATOM     27  H38 A97 d   1      21.109  -6.847 -27.167  0.00  0.00     0.168 HD
ATOM     28  O10 A97 d   1      19.960  -4.884 -26.055  0.00  0.00    -0.172 OA
BRANCH  21  29
ATOM     29  C03 A97 d   1      22.316  -1.998 -29.342  0.00  0.00    -0.041 C 
ATOM     30  H20 A97 d   1      21.424  -1.698 -29.911  0.00  0.00     0.040 H 
ATOM     31  H21 A97 d   1      22.463  -1.306 -28.500  0.00  0.00     0.040 H 
BRANCH  29  32
ATOM     32  C02 A97 d   1      23.515  -1.786 -30.284  0.00  0.00    -0.065 C 
ATOM     33  H18 A97 d   1      24.402  -2.204 -29.786  0.00  0.00     0.032 H 
ATOM     34  H19 A97 d   1      23.312  -2.350 -31.206  0.00  0.00     0.032 H 
BRANCH  32  35
ATOM     35  C01 A97 d   1      23.859  -0.336 -30.697  0.00  0.00    -0.076 C 
ATOM     36  H15 A97 d   1      24.732  -0.343 -31.366  0.00  0.00     0.027 H 
ATOM     37  H16 A97 d   1      24.090   0.256 -29.799  0.00  0.00     0.027 H 
ATOM     38  H17 A97 d   1      23.000   0.110 -31.219  0.00  0.00     0.027 H 
ENDBRANCH  32  35
ENDBRANCH  29  32
ENDBRANCH  21  29
BRANCH  23  39
ATOM     39  C07 A97 d   1      22.800  -7.246 -29.153  0.00  0.00    -0.037 C 
ATOM     40  H23 A97 d   1      22.396  -8.073 -28.551  0.00  0.00     0.035 H 
ATOM     41  H24 A97 d   1      23.896  -7.230 -29.066  0.00  0.00     0.035 H 
ATOM     42  H25 A97 d   1      22.518  -7.388 -30.207  0.00  0.00     0.035 H 
ENDBRANCH  23  39
ENDBRANCH  17  20
ENDBRANCH  14  17
ENDBRANCH   2  13
BRANCH   1  43
ATOM     43  C19 A97 d   1      23.099  -1.007 -21.090  0.00  0.00    -0.021 A 
ATOM     44  C20 A97 d   1      22.312  -2.166 -20.962  0.00  0.00    -0.055 A 
ATOM     45  C21 A97 d   1      21.956  -2.671 -19.668  0.00  0.00     0.005 A 
ATOM     46  H12 A97 d   1      21.971  -2.683 -21.852  0.00  0.00     0.087 H 
ATOM     47  N22 A97 d   1      22.335  -2.064 -18.488  0.00  0.00    -0.243 NA
ATOM     48  H11 A97 d   1      21.360  -3.575 -19.614  0.00  0.00     0.114 H 
ATOM     49  C23 A97 d   1      23.090  -0.923 -18.563  0.00  0.00     0.126 A 
ATOM     50  C31 A97 d   1      23.450  -0.409 -19.853  0.00  0.00    -0.028 A 
ATOM     51  H28 A97 d   1      24.034   0.504 -19.884  0.00  0.00     0.090 H 
BRANCH  49  52
ATOM     52  N24 A97 d   1      23.605  -0.102 -17.379  0.00  0.00    -0.363 N 
ATOM     53  C25 A97 d   1      23.325  -0.458 -15.908  0.00  0.00     0.019 C 
ATOM     54  C26 A97 d   1      23.005   0.794 -15.033  0.00  0.00     0.098 C 
ATOM     55  H3  A97 d   1      22.465  -1.143 -15.870  0.00  0.00     0.066 H 
ATOM     56  H4  A97 d   1      24.212  -0.960 -15.493  0.00  0.00     0.066 H 
ATOM     57  N27 A97 d   1      24.133   1.766 -15.110  0.00  0.00    -0.072 N 
ATOM     58  H13 A97 d   1      22.862   0.482 -13.988  0.00  0.00     0.078 H 
ATOM     59  H14 A97 d   1      22.085   1.272 -15.402  0.00  0.00     0.078 H 
ATOM     60  C29 A97 d   1      24.168   2.367 -16.453  0.00  0.00     0.098 C 
ATOM     61  H40 A97 d   1      25.006   1.308 -14.900  0.00  0.00     0.279 HD
ATOM     62  C30 A97 d   1      23.718   1.434 -17.622  0.00  0.00     0.019 C 
ATOM     63  H1  A97 d   1      23.507   3.246 -16.448  0.00  0.00     0.078 H 
ATOM     64  H2  A97 d   1      25.201   2.687 -16.654  0.00  0.00     0.078 H 
ATOM     65  H26 A97 d   1      24.439   1.576 -18.440  0.00  0.00     0.066 H 
ATOM     66  H27 A97 d   1      22.725   1.781 -17.944  0.00  0.00     0.066 H 
BRANCH  57  67
ATOM     67  C28 A97 d   1      23.873   2.874 -14.159  0.00  0.00     0.066 C 
ATOM     68  H5  A97 d   1      23.837   2.477 -13.134  0.00  0.00     0.068 H 
ATOM     69  H6  A97 d   1      22.911   3.348 -14.402  0.00  0.00     0.068 H 
ATOM     70  H7  A97 d   1      24.678   3.619 -14.235  0.00  0.00     0.068 H 
ENDBRANCH  57  67
ENDBRANCH  49  52
ENDBRANCH   1  43
BRANCH   9  71
ATOM     71  C38 A97 d   1      27.181   2.533 -23.520  0.00  0.00     0.028 C 
ATOM     72  H31 A97 d   1      27.135   2.221 -22.466  0.00  0.00     0.074 H 
BRANCH  71  73
ATOM     73  C39 A97 d   1      27.012   4.070 -23.598  0.00  0.00    -0.056 C 
ATOM     74  H32 A97 d   1      27.843   4.558 -23.066  0.00  0.00     0.030 H 
ATOM     75  H33 A97 d   1      26.058   4.358 -23.131  0.00  0.00     0.030 H 
ATOM     76  H34 A97 d   1      27.015   4.386 -24.651  0.00  0.00     0.030 H 
ENDBRANCH  71  73
BRANCH  71  77
ATOM     77  C40 A97 d   1      28.576   2.107 -24.091  0.00  0.00    -0.056 C 
ATOM     78  H35 A97 d   1      28.680   1.014 -24.028  0.00  0.00     0.030 H 
ATOM     79  H36 A97 d   1      29.374   2.585 -23.504  0.00  0.00     0.030 H 
ATOM     80  H37 A97 d   1      28.654   2.423 -25.142  0.00  0.00     0.030 H 
ENDBRANCH  71  77
ENDBRANCH   9  71
TORSDOF 13
