REMARK  12 active torsions:
REMARK  status: ('A' for Active; 'I' for Inactive)
REMARK    1  A    between atoms: C26_3  and  C25_2 
REMARK    2  A    between atoms: C19_7  and  C20_6 
REMARK    3  A    between atoms: C16_11  and  C17_10 
REMARK    4  A    between atoms: C10_13  and  C11_12 
REMARK       I    between atoms: C11_12  and  N13_33 
REMARK    5  A    between atoms: C14_15  and  C15_14 
REMARK    6  A    between atoms: N13_33  and  C14_15 
REMARK    7  A    between atoms: C02_17  and  C01_16 
REMARK    8  A    between atoms: C03_18  and  C02_17 
REMARK    9  A    between atoms: C03_18  and  C04_19 
REMARK   10  A    between atoms: N05_32  and  C03_18 
REMARK   11  A    between atoms: C07_21  and  C08_22 
REMARK   12  A    between atoms: N30_35  and  C29_24 
ROOT
ATOM      1  C24 A9G d   1      22.676  -0.338 -24.099  0.00  0.00    -0.056 A 
ATOM      2  C25 A9G d   1      23.500  -0.108 -22.910  0.00  0.00    -0.021 A 
ATOM      3  C10 A9G d   1      22.977   0.198 -25.372  0.00  0.00     0.045 A 
ATOM      4  C06 A9G d   1      25.989   2.261 -26.092  0.00  0.00    -0.013 A 
ATOM      5  C07 A9G d   1      24.859   1.691 -26.639  0.00  0.00    -0.033 A 
ATOM      6  C09 A9G d   1      24.165   0.974 -25.571  0.00  0.00     0.014 A 
ATOM      7  C38 A9G d   1      24.634   0.644 -23.119  0.00  0.00    -0.045 A 
ATOM      8  C39 A9G d   1      24.990   1.182 -24.366  0.00  0.00     0.047 A 
ATOM      9  N05 A9G d   1      26.101   1.954 -24.695  0.00  0.00    -0.351 N 
ATOM     10  H1  A9G d   1      21.788  -0.952 -23.997  0.00  0.00     0.086 H 
ATOM     11  H22 A9G d   1      26.704   2.866 -26.648  0.00  0.00     0.112 H 
ATOM     12  H35 A9G d   1      25.288   0.831 -22.275  0.00  0.00     0.088 H 
ENDROOT
BRANCH   2  13
ATOM     13  C26 A9G d   1      23.143  -0.713 -21.575  0.00  0.00    -0.008 A 
ATOM     14  C27 A9G d   1      23.552  -0.257 -20.308  0.00  0.00    -0.067 A 
ATOM     15  C28 A9G d   1      23.217  -0.861 -19.086  0.00  0.00    -0.038 A 
ATOM     16  H3  A9G d   1      24.174   0.630 -20.273  0.00  0.00     0.085 H 
ATOM     17  C29 A9G d   1      22.409  -2.057 -19.076  0.00  0.00     0.125 A 
ATOM     18  H2  A9G d   1      23.564  -0.431 -18.153  0.00  0.00     0.089 H 
ATOM     19  N36 A9G d   1      22.007  -2.518 -20.302  0.00  0.00    -0.243 NA
ATOM     20  C37 A9G d   1      22.364  -1.889 -21.459  0.00  0.00     0.015 A 
ATOM     21  H34 A9G d   1      22.016  -2.335 -22.383  0.00  0.00     0.116 H 
BRANCH  17  22
ATOM     22  N30 A9G d   1      22.043  -2.714 -17.778  0.00  0.00    -0.363 N 
ATOM     23  C31 A9G d   1      22.630  -2.190 -16.483  0.00  0.00     0.019 C 
ATOM     24  C32 A9G d   1      22.289  -2.992 -15.215  0.00  0.00     0.096 C 
ATOM     25  H26 A9G d   1      23.725  -2.179 -16.590  0.00  0.00     0.066 H 
ATOM     26  H27 A9G d   1      22.265  -1.162 -16.340  0.00  0.00     0.066 H 
ATOM     27  N33 A9G d   1      21.451  -4.177 -15.565  0.00  0.00    -0.072 N 
ATOM     28  H28 A9G d   1      21.735  -2.349 -14.516  0.00  0.00     0.078 H 
ATOM     29  H29 A9G d   1      23.220  -3.333 -14.739  0.00  0.00     0.078 H 
ATOM     30  C34 A9G d   1      20.216  -3.778 -16.238  0.00  0.00     0.096 C 
ATOM     31  H38 A9G d   1      21.218  -4.675 -14.720  0.00  0.00     0.277 HD
ATOM     32  H39 A9G d   1      21.977  -4.781 -16.177  0.00  0.00     0.277 HD
ATOM     33  C35 A9G d   1      20.583  -3.095 -17.590  0.00  0.00     0.019 C 
ATOM     34  H30 A9G d   1      19.595  -4.665 -16.428  0.00  0.00     0.078 H 
ATOM     35  H31 A9G d   1      19.661  -3.071 -15.604  0.00  0.00     0.078 H 
ATOM     36  H32 A9G d   1      19.983  -2.177 -17.675  0.00  0.00     0.066 H 
ATOM     37  H33 A9G d   1      20.310  -3.787 -18.400  0.00  0.00     0.066 H 
ENDBRANCH  17  22
ENDBRANCH   2  13
BRANCH   3  38
ATOM     38  C11 A9G d   1      21.991  -0.129 -26.579  0.00  0.00     0.252 C 
ATOM     39  N13 A9G d   1      21.504  -1.465 -26.656  0.00  0.00    -0.352 N 
ATOM     40  H36 A9G d   1      21.819  -2.074 -25.928  0.00  0.00     0.163 HD
ATOM     41  O12 A9G d   1      21.652   0.684 -27.359  0.00  0.00    -0.268 OA
BRANCH  39  42
ATOM     42  C14 A9G d   1      20.645  -2.058 -27.603  0.00  0.00     0.024 C 
ATOM     43  H11 A9G d   1      19.671  -2.270 -27.137  0.00  0.00     0.071 H 
ATOM     44  H12 A9G d   1      20.504  -1.375 -28.453  0.00  0.00     0.071 H 
BRANCH  42  45
ATOM     45  C15 A9G d   1      21.271  -3.348 -28.085  0.00  0.00     0.019 A 
ATOM     46  C22 A9G d   1      20.930  -4.608 -27.452  0.00  0.00     0.187 A 
ATOM     47  N21 A9G d   1      21.484  -5.837 -27.839  0.00  0.00    -0.338 N 
ATOM     48  O23 A9G d   1      20.025  -4.512 -26.456  0.00  0.00    -0.172 OA
ATOM     49  C19 A9G d   1      22.429  -5.891 -28.872  0.00  0.00     0.008 A 
ATOM     50  H37 A9G d   1      21.203  -6.678 -27.376  0.00  0.00     0.168 HD
ATOM     51  C18 A9G d   1      22.792  -4.660 -29.488  0.00  0.00    -0.055 A 
ATOM     52  C16 A9G d   1      22.236  -3.410 -29.116  0.00  0.00    -0.048 A 
ATOM     53  H7  A9G d   1      23.534  -4.679 -30.285  0.00  0.00     0.087 H 
BRANCH  49  54
ATOM     54  C20 A9G d   1      23.022  -7.255 -29.279  0.00  0.00    -0.037 C 
ATOM     55  H4  A9G d   1      23.741  -7.112 -30.099  0.00  0.00     0.035 H 
ATOM     56  H5  A9G d   1      22.213  -7.921 -29.613  0.00  0.00     0.035 H 
ATOM     57  H6  A9G d   1      23.535  -7.704 -28.416  0.00  0.00     0.035 H 
ENDBRANCH  49  54
BRANCH  52  58
ATOM     58  C17 A9G d   1      22.620  -2.089 -29.789  0.00  0.00    -0.050 C 
ATOM     59  H8  A9G d   1      23.374  -2.280 -30.567  0.00  0.00     0.033 H 
ATOM     60  H9  A9G d   1      23.035  -1.401 -29.037  0.00  0.00     0.033 H 
ATOM     61  H10 A9G d   1      21.727  -1.637 -30.246  0.00  0.00     0.033 H 
ENDBRANCH  52  58
ENDBRANCH  42  45
ENDBRANCH  39  42
ENDBRANCH   3  38
BRANCH   9  62
ATOM     62  C03 A9G d   1      27.168   2.411 -23.795  0.00  0.00     0.013 C 
ATOM     63  H18 A9G d   1      27.337   1.674 -22.996  0.00  0.00     0.072 H 
BRANCH  62  64
ATOM     64  C02 A9G d   1      26.680   3.781 -23.187  0.00  0.00    -0.049 C 
ATOM     65  H16 A9G d   1      25.718   3.602 -22.685  0.00  0.00     0.035 H 
ATOM     66  H17 A9G d   1      27.426   4.105 -22.446  0.00  0.00     0.035 H 
BRANCH  64  67
ATOM     67  C01 A9G d   1      26.480   4.939 -24.194  0.00  0.00    -0.075 C 
ATOM     68  H13 A9G d   1      26.141   5.837 -23.657  0.00  0.00     0.027 H 
ATOM     69  H14 A9G d   1      25.724   4.650 -24.940  0.00  0.00     0.027 H 
ATOM     70  H15 A9G d   1      27.433   5.153 -24.701  0.00  0.00     0.027 H 
ENDBRANCH  64  67
ENDBRANCH  62  64
BRANCH  62  71
ATOM     71  C04 A9G d   1      28.447   2.625 -24.571  0.00  0.00    -0.057 C 
ATOM     72  H19 A9G d   1      28.784   1.667 -24.994  0.00  0.00     0.030 H 
ATOM     73  H20 A9G d   1      29.222   3.022 -23.899  0.00  0.00     0.030 H 
ATOM     74  H21 A9G d   1      28.266   3.342 -25.386  0.00  0.00     0.030 H 
ENDBRANCH  62  71
ENDBRANCH   9  62
BRANCH   5  75
ATOM     75  C08 A9G d   1      24.387   1.776 -28.110  0.00  0.00    -0.049 C 
ATOM     76  H23 A9G d   1      25.101   2.379 -28.690  0.00  0.00     0.033 H 
ATOM     77  H24 A9G d   1      23.393   2.246 -28.150  0.00  0.00     0.033 H 
ATOM     78  H25 A9G d   1      24.331   0.763 -28.536  0.00  0.00     0.033 H 
ENDBRANCH   5  75
TORSDOF 12
