REMARK  7 active torsions:
REMARK  status: ('A' for Active; 'I' for Inactive)
REMARK    1  A    between atoms: C5_5  and  C10_10 
REMARK    2  A    between atoms: C6_6  and  N13_13 
REMARK       I    between atoms: C10_10  and  N11_11 
REMARK    3  A    between atoms: N13_13  and  C14_14 
REMARK    4  A    between atoms: C14_14  and  C15_15 
REMARK    5  A    between atoms: C19_19  and  N21_21 
REMARK       I    between atoms: N21_21  and  C22_22 
REMARK    6  A    between atoms: C22_22  and  C23_23 
REMARK    7  A    between atoms: C23_23  and  C25_25 
ROOT
ATOM      1  C14 9Z4 d   1       2.147 -15.825  -4.219  0.00  0.00     0.017 C 
ATOM      2  H8  9Z4 d   1       1.799 -16.620  -3.543  0.00  0.00     0.071 H 
ATOM      3  H9  9Z4 d   1       3.193 -15.578  -3.987  0.00  0.00     0.071 H 
ENDROOT
BRANCH   1   4
ATOM      4  N13 9Z4 d   1       1.328 -14.639  -4.010  0.00  0.00    -0.383 N 
ATOM      5  H7  9Z4 d   1       1.856 -13.759  -4.105  0.00  0.00     0.160 HD
BRANCH   4   6
ATOM      6  C6  9Z4 d   1       0.030 -14.449  -3.720  0.00  0.00     0.074 A 
ATOM      7  C1  9Z4 d   1      -0.875 -15.546  -3.524  0.00  0.00     0.085 A 
ATOM      8  N2  9Z4 d   1      -2.190 -15.238  -3.226  0.00  0.00    -0.243 N 
ATOM      9  C7  9Z4 d   1      -0.794 -16.928  -3.593  0.00  0.00    -0.051 A 
ATOM     10  N3  9Z4 d   1      -2.729 -13.979  -3.073  0.00  0.00    -0.179 NA
ATOM     11  C9  9Z4 d   1      -2.919 -16.384  -3.114  0.00  0.00     0.004 A 
ATOM     12  C4  9Z4 d   1      -1.872 -13.026  -3.250  0.00  0.00     0.040 A 
ATOM     13  C5  9Z4 d   1      -0.499 -13.147  -3.583  0.00  0.00     0.079 A 
ATOM     14  H1  9Z4 d   1      -2.249 -12.012  -3.129  0.00  0.00     0.119 H 
ATOM     15  C8  9Z4 d   1      -2.062 -17.440  -3.333  0.00  0.00    -0.064 A 
ATOM     16  H4  9Z4 d   1      -3.983 -16.452  -2.892  0.00  0.00     0.114 H 
ATOM     17  H3  9Z4 d   1      -2.331 -18.495  -3.307  0.00  0.00     0.085 H 
ATOM     18  H2  9Z4 d   1       0.101 -17.509  -3.811  0.00  0.00     0.087 H 
BRANCH  13  19
ATOM     19  C10 9Z4 d   1       0.325 -11.931  -3.834  0.00  0.00     0.253 C 
ATOM     20  N11 9Z4 d   1      -0.192 -10.751  -3.515  0.00  0.00    -0.366 N 
ATOM     21  H5  9Z4 d   1       0.335  -9.916  -3.671  0.00  0.00     0.159 HD
ATOM     22  H6  9Z4 d   1      -1.109 -10.697  -3.119  0.00  0.00     0.159 HD
ATOM     23  O12 9Z4 d   1       1.448 -12.008  -4.353  0.00  0.00    -0.268 OA
ENDBRANCH  13  19
ENDBRANCH   4   6
ENDBRANCH   1   4
BRANCH   1  24
ATOM     24  C15 9Z4 d   1       2.070 -16.326  -5.637  0.00  0.00    -0.038 A 
ATOM     25  C16 9Z4 d   1       2.124 -15.445  -6.709  0.00  0.00    -0.075 A 
ATOM     26  C17 9Z4 d   1       2.011 -15.904  -8.012  0.00  0.00    -0.080 A 
ATOM     27  H10 9Z4 d   1       2.256 -14.385  -6.524  0.00  0.00     0.084 H 
ATOM     28  C18 9Z4 d   1       1.843 -17.255  -8.263  0.00  0.00    -0.057 A 
ATOM     29  H11 9Z4 d   1       2.054 -15.203  -8.837  0.00  0.00     0.083 H 
ATOM     30  C19 9Z4 d   1       1.802 -18.155  -7.203  0.00  0.00     0.035 A 
ATOM     31  H12 9Z4 d   1       1.744 -17.610  -9.282  0.00  0.00     0.086 H 
ATOM     32  C20 9Z4 d   1       1.916 -17.682  -5.896  0.00  0.00    -0.050 A 
ATOM     33  H13 9Z4 d   1       1.884 -18.383  -5.070  0.00  0.00     0.087 H 
BRANCH  30  34
ATOM     34  N21 9Z4 d   1       1.672 -19.540  -7.480  0.00  0.00    -0.327 N 
ATOM     35  C22 9Z4 d   1       1.064 -20.490  -6.742  0.00  0.00     0.221 C 
ATOM     36  O24 9Z4 d   1       0.532 -20.256  -5.649  0.00  0.00    -0.273 OA
ATOM     37  H14 9Z4 d   1       2.086 -19.853  -8.335  0.00  0.00     0.169 HD
BRANCH  35  38
ATOM     38  C23 9Z4 d   1       1.054 -21.830  -7.365  0.00  0.00     0.006 C 
ATOM     39  H15 9Z4 d   1       0.672 -22.558  -6.634  0.00  0.00     0.046 H 
ATOM     40  H16 9Z4 d   1       2.083 -22.098  -7.646  0.00  0.00     0.046 H 
BRANCH  38  41
ATOM     41  C25 9Z4 d   1       0.185 -21.877  -8.598  0.00  0.00    -0.068 C 
ATOM     42  H17 9Z4 d   1       0.209 -22.890  -9.025  0.00  0.00     0.028 H 
ATOM     43  H18 9Z4 d   1       0.562 -21.157  -9.340  0.00  0.00     0.028 H 
ATOM     44  H19 9Z4 d   1      -0.849 -21.617  -8.328  0.00  0.00     0.028 H 
ENDBRANCH  38  41
ENDBRANCH  35  38
ENDBRANCH  30  34
ENDBRANCH   1  24
TORSDOF 7
