REMARK  10 active torsions:
REMARK  status: ('A' for Active; 'I' for Inactive)
REMARK    1  A    between atoms: C1_1  and  C14_6 
REMARK    2  A    between atoms: C18_10  and  C19_11 
REMARK       I    between atoms: N4_29  and  C18_10 
REMARK    3  A    between atoms: C19_11  and  S2_37 
REMARK    4  A    between atoms: C5_21  and  C2_12 
REMARK    5  A    between atoms: S2_37  and  C20_13 
REMARK    6  A    between atoms: C3_19  and  O2_31 
REMARK       I    between atoms: N3_28  and  C5_21 
REMARK    7  A    between atoms: C7_23  and  C6_22 
REMARK    8  A    between atoms: C6_22  and  N3_28 
REMARK    9  A    between atoms: S1_36  and  C7_23 
REMARK   10  A    between atoms: C8_24  and  S1_36 
ROOT
ATOM      1  C1  KU5 d   1     195.454-311.682 686.019  0.00  0.00     0.131 A 
ATOM      2  C2  KU5 d   1     196.615-313.660 685.746  0.00  0.00     0.165 A 
ATOM      3  C3  KU5 d   1     197.514-313.317 686.710  0.00  0.00     0.169 A 
ATOM      4  C4  KU5 d   1     197.392-312.098 687.370  0.00  0.00     0.282 A 
ATOM      5  N1  KU5 d   1     196.336-311.294 686.993  0.00  0.00    -0.307 N 
ATOM      6  N2  KU5 d   1     195.594-312.860 685.405  0.00  0.00    -0.225 NA
ATOM      7  O1  KU5 d   1     198.171-311.716 688.256  0.00  0.00    -0.265 OA
ATOM      8  H23 KU5 d   1     196.212-310.408 687.441  0.00  0.00     0.170 HD
ENDROOT
BRANCH   1   9
ATOM      9  C14 KU5 d   1     194.293-310.804 685.597  0.00  0.00     0.072 C 
ATOM     10  C15 KU5 d   1     193.247-310.534 686.690  0.00  0.00    -0.038 C 
ATOM     11  C16 KU5 d   1     192.406-311.799 686.636  0.00  0.00    -0.048 C 
ATOM     12  H6  KU5 d   1     192.645-309.643 686.457  0.00  0.00     0.036 H 
ATOM     13  H7  KU5 d   1     193.720-310.410 687.675  0.00  0.00     0.036 H 
ATOM     14  C17 KU5 d   1     192.212-311.987 685.148  0.00  0.00    -0.001 C 
ATOM     15  H8  KU5 d   1     191.443-311.661 687.150  0.00  0.00     0.035 H 
ATOM     16  H9  KU5 d   1     192.939-312.652 687.080  0.00  0.00     0.035 H 
ATOM     17  N4  KU5 d   1     193.456-311.455 684.573  0.00  0.00    -0.340 N 
ATOM     18  H10 KU5 d   1     191.339-311.421 684.790  0.00  0.00     0.064 H 
ATOM     19  H11 KU5 d   1     192.087-313.051 684.899  0.00  0.00     0.064 H 
ATOM     20  C18 KU5 d   1     193.794-311.590 683.278  0.00  0.00     0.230 C 
ATOM     21  O4  KU5 d   1     193.461-312.591 682.652  0.00  0.00    -0.273 OA
ATOM     22  H5  KU5 d   1     194.703-309.855 685.222  0.00  0.00     0.085 H 
BRANCH  20  23
ATOM     23  C19 KU5 d   1     194.468-310.438 682.559  0.00  0.00     0.055 C 
ATOM     24  H12 KU5 d   1     193.868-309.540 682.767  0.00  0.00     0.063 H 
ATOM     25  H13 KU5 d   1     194.425-310.667 681.484  0.00  0.00     0.063 H 
BRANCH  23  26
ATOM     26  S2  KU5 d   1     196.197-310.012 682.935  0.00  0.00    -0.119 SA
BRANCH  26  27
ATOM     27  C20 KU5 d   1     197.262-311.417 682.782  0.00  0.00     0.022 A 
ATOM     28  C21 KU5 d   1     198.344-311.400 683.664  0.00  0.00    -0.065 A 
ATOM     29  C22 KU5 d   1     199.268-312.429 683.656  0.00  0.00    -0.082 A 
ATOM     30  H14 KU5 d   1     198.460-310.576 684.359  0.00  0.00     0.085 H 
ATOM     31  C23 KU5 d   1     199.134-313.475 682.773  0.00  0.00    -0.081 A 
ATOM     32  H15 KU5 d   1     200.102-312.411 684.349  0.00  0.00     0.083 H 
ATOM     33  C24 KU5 d   1     198.080-313.510 681.889  0.00  0.00    -0.061 A 
ATOM     34  H16 KU5 d   1     199.863-314.277 682.774  0.00  0.00     0.083 H 
ATOM     35  C25 KU5 d   1     197.151-312.487 681.888  0.00  0.00     0.050 A 
ATOM     36  H17 KU5 d   1     197.979-314.337 681.196  0.00  0.00     0.086 H 
ATOM     37 CL1  KU5 d   1     195.850-312.584 680.750  0.00  0.00    -0.083 Cl
ENDBRANCH  26  27
ENDBRANCH  23  26
ENDBRANCH  20  23
ENDBRANCH   1   9
BRANCH   2  38
ATOM     38  C5  KU5 d   1     196.740-314.980 685.032  0.00  0.00     0.273 C 
ATOM     39  N3  KU5 d   1     195.696-315.328 684.281  0.00  0.00    -0.355 N 
ATOM     40  H24 KU5 d   1     194.888-314.738 684.281  0.00  0.00     0.162 HD
ATOM     41  O3  KU5 d   1     197.765-315.653 685.140  0.00  0.00    -0.266 OA
BRANCH  39  42
ATOM     42  C6  KU5 d   1     195.682-316.530 683.461  0.00  0.00     0.008 C 
ATOM     43  H18 KU5 d   1     194.757-316.536 682.866  0.00  0.00     0.065 H 
ATOM     44  H19 KU5 d   1     196.551-316.503 682.787  0.00  0.00     0.065 H 
BRANCH  42  45
ATOM     45  C7  KU5 d   1     195.741-317.810 684.269  0.00  0.00     0.048 C 
ATOM     46  H20 KU5 d   1     196.560-317.723 684.999  0.00  0.00     0.059 H 
ATOM     47  H21 KU5 d   1     195.948-318.645 683.583  0.00  0.00     0.059 H 
BRANCH  45  48
ATOM     48  S1  KU5 d   1     194.241-318.167 685.149  0.00  0.00     0.177 S 
ATOM     49  O5  KU5 d   1     194.376-319.458 685.759  0.00  0.00    -0.223 OA
ATOM     50  O6  KU5 d   1     193.137-317.944 684.261  0.00  0.00    -0.223 OA
BRANCH  48  51
ATOM     51  C8  KU5 d   1     194.159-316.963 686.438  0.00  0.00     0.059 A 
ATOM     52  C13 KU5 d   1     193.192-315.975 686.395  0.00  0.00    -0.062 A 
ATOM     53  C12 KU5 d   1     193.129-315.040 687.412  0.00  0.00    -0.082 A 
ATOM     54  H4  KU5 d   1     192.489-315.934 685.571  0.00  0.00     0.085 H 
ATOM     55  C11 KU5 d   1     194.017-315.093 688.460  0.00  0.00    -0.083 A 
ATOM     56  H3  KU5 d   1     192.375-314.261 687.383  0.00  0.00     0.083 H 
ATOM     57  C10 KU5 d   1     194.976-316.081 688.504  0.00  0.00    -0.082 A 
ATOM     58  H2  KU5 d   1     193.963-314.356 689.253  0.00  0.00     0.083 H 
ATOM     59  C9  KU5 d   1     195.050-317.025 687.496  0.00  0.00    -0.062 A 
ATOM     60  H1  KU5 d   1     195.675-316.119 689.332  0.00  0.00     0.083 H 
ATOM     61  H22 KU5 d   1     195.800-317.807 687.534  0.00  0.00     0.085 H 
ENDBRANCH  48  51
ENDBRANCH  45  48
ENDBRANCH  42  45
ENDBRANCH  39  42
ENDBRANCH   2  38
BRANCH   3  62
ATOM     62  O2  KU5 d   1     198.542-314.093 687.081  0.00  0.00    -0.354 OA
ATOM     63  H25 KU5 d   1     198.532-314.895 686.572  0.00  0.00     0.218 HD
ENDBRANCH   3  62
TORSDOF 10
