REMARK  11 active torsions:
REMARK  status: ('A' for Active; 'I' for Inactive)
REMARK    1  A    between atoms: O3_35  and  C10_2 
REMARK    2  A    between atoms: C11_3  and  O4_36 
REMARK    3  A    between atoms: O4_36  and  C12_4 
REMARK    4  A    between atoms: C16_8  and  C17_9 
REMARK    5  A    between atoms: C18_10  and  C19_11 
REMARK       I    between atoms: N3_31  and  C18_10 
REMARK    6  A    between atoms: C19_11  and  S1_39 
REMARK    7  A    between atoms: C2_12  and  O2_34 
REMARK    8  A    between atoms: S1_39  and  C20_13 
REMARK    9  A    between atoms: C4_23  and  C3_22 
REMARK       I    between atoms: N1_29  and  C4_23 
REMARK   10  A    between atoms: C5_24  and  N1_29 
REMARK   11  A    between atoms: C9_28  and  O3_35 
ROOT
ATOM      1  C1  GYA d   1     400.889 105.815 553.765  0.00  0.00     0.282 A 
ATOM      2  C16 GYA d   1     400.766 103.803 552.465  0.00  0.00     0.131 A 
ATOM      3  C2  GYA d   1     402.171 105.991 553.253  0.00  0.00     0.169 A 
ATOM      4  C3  GYA d   1     402.689 105.075 552.388  0.00  0.00     0.165 A 
ATOM      5  N2  GYA d   1     402.001 103.994 551.995  0.00  0.00    -0.225 NA
ATOM      6  N4  GYA d   1     400.206 104.694 553.343  0.00  0.00    -0.307 N 
ATOM      7  O1  GYA d   1     400.351 106.602 554.559  0.00  0.00    -0.265 OA
ATOM      8  H28 GYA d   1     399.281 104.527 553.685  0.00  0.00     0.170 HD
ENDROOT
BRANCH   4   9
ATOM      9  C4  GYA d   1     404.073 105.254 551.832  0.00  0.00     0.273 C 
ATOM     10  N1  GYA d   1     404.557 104.235 551.107  0.00  0.00    -0.350 N 
ATOM     11  H27 GYA d   1     403.984 103.429 550.957  0.00  0.00     0.163 HD
ATOM     12  O5  GYA d   1     404.722 106.277 552.042  0.00  0.00    -0.266 OA
BRANCH  10  13
ATOM     13  C5  GYA d   1     405.890 104.271 550.534  0.00  0.00     0.020 C 
ATOM     14  C15 GYA d   1     406.755 103.122 551.087  0.00  0.00    -0.021 C 
ATOM     15  C14 GYA d   1     406.325 101.956 550.236  0.00  0.00    -0.047 A 
ATOM     16  H8  GYA d   1     407.827 103.334 550.960  0.00  0.00     0.043 H 
ATOM     17  H9  GYA d   1     406.541 102.939 552.150  0.00  0.00     0.043 H 
ATOM     18  C13 GYA d   1     406.397 100.595 550.497  0.00  0.00    -0.041 A 
ATOM     19  C7  GYA d   1     405.787 102.429 549.045  0.00  0.00    -0.047 A 
ATOM     20  C11 GYA d   1     405.931  99.708 549.537  0.00  0.00     0.102 A 
ATOM     21  H7  GYA d   1     406.809 100.232 551.432  0.00  0.00     0.088 H 
ATOM     22  C9  GYA d   1     405.381 100.189 548.327  0.00  0.00     0.102 A 
ATOM     23  C8  GYA d   1     405.320 101.551 548.076  0.00  0.00    -0.041 A 
ATOM     24  H26 GYA d   1     404.916 101.923 547.142  0.00  0.00     0.088 H 
ATOM     25  C6  GYA d   1     405.841 103.933 549.031  0.00  0.00    -0.021 C 
ATOM     26  H24 GYA d   1     406.740 104.295 548.511  0.00  0.00     0.043 H 
ATOM     27  H25 GYA d   1     404.946 104.360 548.555  0.00  0.00     0.043 H 
ATOM     28  H23 GYA d   1     406.352 105.252 550.717  0.00  0.00     0.073 H 
BRANCH  20  29
ATOM     29  O4  GYA d   1     405.933  98.344 549.655  0.00  0.00    -0.353 OA
BRANCH  29  30
ATOM     30  C12 GYA d   1     407.199  97.695 549.587  0.00  0.00     0.010 C 
ATOM     31  H4  GYA d   1     407.061  96.609 549.695  0.00  0.00     0.066 H 
ATOM     32  H5  GYA d   1     407.844  98.064 550.398  0.00  0.00     0.066 H 
ATOM     33  H6  GYA d   1     407.670  97.910 548.616  0.00  0.00     0.066 H 
ENDBRANCH  29  30
ENDBRANCH  20  29
BRANCH  22  34
ATOM     34  O3  GYA d   1     404.957  99.210 547.467  0.00  0.00    -0.353 OA
BRANCH  34  35
ATOM     35  C10 GYA d   1     404.411  99.635 546.223  0.00  0.00     0.010 C 
ATOM     36  H1  GYA d   1     404.113  98.755 545.634  0.00  0.00     0.066 H 
ATOM     37  H2  GYA d   1     405.167 100.209 545.668  0.00  0.00     0.066 H 
ATOM     38  H3  GYA d   1     403.531 100.269 546.406  0.00  0.00     0.066 H 
ENDBRANCH  34  35
ENDBRANCH  22  34
ENDBRANCH  10  13
ENDBRANCH   4   9
BRANCH   3  39
ATOM     39  O2  GYA d   1     402.833 107.081 553.666  0.00  0.00    -0.354 OA
ATOM     40  H29 GYA d   1     403.629 106.817 554.111  0.00  0.00     0.218 HD
ENDBRANCH   3  39
BRANCH   2  41
ATOM     41  C17 GYA d   1     400.028 102.566 552.002  0.00  0.00     0.072 C 
ATOM     42  C28 GYA d   1     399.842 101.519 553.111  0.00  0.00    -0.038 C 
ATOM     43  C27 GYA d   1     401.226 100.890 553.164  0.00  0.00    -0.048 C 
ATOM     44  H21 GYA d   1     399.074 100.779 552.841  0.00  0.00     0.036 H 
ATOM     45  H22 GYA d   1     399.577 101.990 554.069  0.00  0.00     0.036 H 
ATOM     46  C26 GYA d   1     401.527 100.673 551.696  0.00  0.00    -0.001 C 
ATOM     47  H19 GYA d   1     401.957 101.570 553.626  0.00  0.00     0.035 H 
ATOM     48  H20 GYA d   1     401.212  99.938 553.715  0.00  0.00     0.035 H 
ATOM     49  N3  GYA d   1     400.815 101.778 551.037  0.00  0.00    -0.340 N 
ATOM     50  H17 GYA d   1     401.145  99.699 551.355  0.00  0.00     0.064 H 
ATOM     51  H18 GYA d   1     402.608 100.731 551.503  0.00  0.00     0.064 H 
ATOM     52  C18 GYA d   1     400.842 102.034 549.718  0.00  0.00     0.230 C 
ATOM     53  O6  GYA d   1     400.168 102.939 549.235  0.00  0.00    -0.273 OA
ATOM     54  H10 GYA d   1     399.060 102.870 551.577  0.00  0.00     0.085 H 
BRANCH  52  55
ATOM     55  C19 GYA d   1     401.694 101.146 548.834  0.00  0.00     0.055 C 
ATOM     56  H11 GYA d   1     401.539 100.102 549.144  0.00  0.00     0.063 H 
ATOM     57  H12 GYA d   1     402.748 101.420 548.985  0.00  0.00     0.063 H 
BRANCH  55  58
ATOM     58  S1  GYA d   1     401.322 101.274 547.061  0.00  0.00    -0.119 SA
BRANCH  58  59
ATOM     59  C20 GYA d   1     401.929 102.849 546.538  0.00  0.00     0.022 A 
ATOM     60  C21 GYA d   1     402.617 103.687 547.416  0.00  0.00    -0.065 A 
ATOM     61  C22 GYA d   1     403.082 104.914 546.976  0.00  0.00    -0.082 A 
ATOM     62  H13 GYA d   1     402.787 103.378 548.441  0.00  0.00     0.085 H 
ATOM     63  C23 GYA d   1     402.871 105.312 545.674  0.00  0.00    -0.081 A 
ATOM     64  H14 GYA d   1     403.615 105.565 547.659  0.00  0.00     0.083 H 
ATOM     65  C24 GYA d   1     402.197 104.495 544.794  0.00  0.00    -0.061 A 
ATOM     66  H15 GYA d   1     403.238 106.276 545.340  0.00  0.00     0.083 H 
ATOM     67  C25 GYA d   1     401.730 103.270 545.228  0.00  0.00     0.050 A 
ATOM     68  H16 GYA d   1     402.034 104.811 543.770  0.00  0.00     0.086 H 
ATOM     69 CL1  GYA d   1     400.884 102.262 544.103  0.00  0.00    -0.083 Cl
ENDBRANCH  58  59
ENDBRANCH  55  58
ENDBRANCH  52  55
ENDBRANCH   2  41
TORSDOF 11
