REMARK  8 active torsions:
REMARK  status: ('A' for Active; 'I' for Inactive)
REMARK    1  A    between atoms: S1_35  and  C10_2 
REMARK    2  A    between atoms: C16_8  and  O5_33 
REMARK    3  A    between atoms: C3_17  and  C2_12 
REMARK       I    between atoms: N1_24  and  C3_17 
REMARK    4  A    between atoms: C5_19  and  C4_18 
REMARK    5  A    between atoms: C7_21  and  C6_20 
REMARK       I    between atoms: N3_26  and  C7_21 
REMARK    6  A    between atoms: C9_23  and  C8_22 
REMARK    7  A    between atoms: C8_22  and  N3_26 
REMARK    8  A    between atoms: C9_23  and  S1_35 
ROOT
ATOM      1  C16 KU0 d   1     131.060 105.772 417.842  0.00  0.00     0.169 A 
ATOM      2  C17 KU0 d   1     129.805 105.579 418.416  0.00  0.00     0.282 A 
ATOM      3  C5  KU0 d   1     129.480 103.806 416.840  0.00  0.00     0.131 A 
ATOM      4  C6  KU0 d   1     131.460 104.987 416.802  0.00  0.00     0.165 A 
ATOM      5  N2  KU0 d   1     130.685 104.013 416.306  0.00  0.00    -0.225 NA
ATOM      6  N4  KU0 d   1     129.028 104.576 417.879  0.00  0.00    -0.307 N 
ATOM      7  O6  KU0 d   1     129.371 106.254 419.361  0.00  0.00    -0.265 OA
ATOM      8  H20 KU0 d   1     128.117 104.407 418.255  0.00  0.00     0.170 HD
ENDROOT
BRANCH   3   9
ATOM      9  C4  KU0 d   1     128.627 102.713 416.235  0.00  0.00     0.072 C 
ATOM     10  C18 KU0 d   1     128.844 101.298 416.804  0.00  0.00    -0.038 C 
ATOM     11  C19 KU0 d   1     129.908 100.729 415.878  0.00  0.00    -0.048 C 
ATOM     12  H6  KU0 d   1     129.202 101.338 417.843  0.00  0.00     0.036 H 
ATOM     13  H7  KU0 d   1     127.919 100.705 416.758  0.00  0.00     0.036 H 
ATOM     14  C20 KU0 d   1     129.383 101.146 414.526  0.00  0.00    -0.001 C 
ATOM     15  H8  KU0 d   1     129.972  99.634 415.964  0.00  0.00     0.035 H 
ATOM     16  H9  KU0 d   1     130.895 101.171 416.080  0.00  0.00     0.035 H 
ATOM     17  N1  KU0 d   1     128.884 102.506 414.790  0.00  0.00    -0.336 N 
ATOM     18  H10 KU0 d   1     128.572 100.482 414.191  0.00  0.00     0.064 H 
ATOM     19  H11 KU0 d   1     130.185 101.155 413.773  0.00  0.00     0.064 H 
ATOM     20  C3  KU0 d   1     128.729 103.400 413.800  0.00  0.00     0.258 C 
ATOM     21  O1  KU0 d   1     128.847 103.065 412.623  0.00  0.00    -0.267 OA
ATOM     22  H14 KU0 d   1     127.577 103.004 416.386  0.00  0.00     0.085 H 
BRANCH  20  23
ATOM     23  C2  KU0 d   1     128.521 104.843 414.152  0.00  0.00     0.078 A 
ATOM     24  C1  KU0 d   1     127.341 105.346 414.702  0.00  0.00     0.069 A 
ATOM     25  C23 KU0 d   1     127.244 106.698 414.997  0.00  0.00     0.024 A 
ATOM     26 CL1  KU0 d   1     125.997 104.312 415.007  0.00  0.00    -0.082 Cl
ATOM     27  N5  KU0 d   1     128.242 107.551 414.783  0.00  0.00    -0.270 NA
ATOM     28  H13 KU0 d   1     126.319 107.074 415.418  0.00  0.00     0.117 H 
ATOM     29  C22 KU0 d   1     129.376 107.090 414.265  0.00  0.00     0.024 A 
ATOM     30  C21 KU0 d   1     129.556 105.754 413.939  0.00  0.00     0.069 A 
ATOM     31  H12 KU0 d   1     130.190 107.784 414.091  0.00  0.00     0.117 H 
ATOM     32 CL2  KU0 d   1     131.057 105.234 413.271  0.00  0.00    -0.082 Cl
ENDBRANCH  20  23
ENDBRANCH   3   9
BRANCH   4  33
ATOM     33  C7  KU0 d   1     132.816 105.178 416.176  0.00  0.00     0.273 C 
ATOM     34  N3  KU0 d   1     133.197 104.216 415.337  0.00  0.00    -0.355 N 
ATOM     35  H19 KU0 d   1     132.538 103.505 415.091  0.00  0.00     0.162 HD
ATOM     36  O2  KU0 d   1     133.511 106.151 416.465  0.00  0.00    -0.266 OA
BRANCH  34  37
ATOM     37  C8  KU0 d   1     134.533 104.158 414.765  0.00  0.00     0.008 C 
ATOM     38  H15 KU0 d   1     134.555 103.360 414.008  0.00  0.00     0.065 H 
ATOM     39  H16 KU0 d   1     134.751 105.124 414.286  0.00  0.00     0.065 H 
BRANCH  37  40
ATOM     40  C9  KU0 d   1     135.610 103.876 415.795  0.00  0.00     0.048 C 
ATOM     41  H17 KU0 d   1     135.484 104.579 416.632  0.00  0.00     0.059 H 
ATOM     42  H18 KU0 d   1     136.591 104.037 415.325  0.00  0.00     0.059 H 
BRANCH  40  43
ATOM     43  S1  KU0 d   1     135.561 102.221 416.440  0.00  0.00     0.177 S 
ATOM     44  O3  KU0 d   1     136.770 101.996 417.177  0.00  0.00    -0.223 OA
ATOM     45  O4  KU0 d   1     135.239 101.327 415.366  0.00  0.00    -0.223 OA
BRANCH  43  46
ATOM     46  C10 KU0 d   1     134.220 102.209 417.588  0.00  0.00     0.059 A 
ATOM     47  C11 KU0 d   1     134.082 103.243 418.498  0.00  0.00    -0.062 A 
ATOM     48  C12 KU0 d   1     133.029 103.224 419.394  0.00  0.00    -0.082 A 
ATOM     49  H1  KU0 d   1     134.793 104.061 418.508  0.00  0.00     0.085 H 
ATOM     50  C13 KU0 d   1     132.125 102.186 419.382  0.00  0.00    -0.083 A 
ATOM     51  H2  KU0 d   1     132.915 104.030 420.109  0.00  0.00     0.083 H 
ATOM     52  C14 KU0 d   1     132.265 101.160 418.477  0.00  0.00    -0.082 A 
ATOM     53  H3  KU0 d   1     131.302 102.177 420.087  0.00  0.00     0.083 H 
ATOM     54  C15 KU0 d   1     133.312 101.163 417.574  0.00  0.00    -0.062 A 
ATOM     55  H4  KU0 d   1     131.551 100.345 418.472  0.00  0.00     0.083 H 
ATOM     56  H5  KU0 d   1     133.421 100.354 416.861  0.00  0.00     0.085 H 
ENDBRANCH  43  46
ENDBRANCH  40  43
ENDBRANCH  37  40
ENDBRANCH  34  37
ENDBRANCH   4  33
BRANCH   1  57
ATOM     57  O5  KU0 d   1     131.809 106.750 418.371  0.00  0.00    -0.354 OA
ATOM     58  H21 KU0 d   1     132.619 106.382 418.703  0.00  0.00     0.218 HD
ENDBRANCH   1  57
TORSDOF 8
