REMARK  7 active torsions:
REMARK  status: ('A' for Active; 'I' for Inactive)
REMARK    1  A    between atoms: O09_16  and  C10_1 
REMARK    2  A    between atoms: C25_26  and  C24_6 
REMARK    3  A    between atoms: C27_28  and  C28_7 
REMARK    4  A    between atoms: C05_12  and  C06_13 
REMARK    5  A    between atoms: C07_14  and  C08_15 
REMARK    6  A    between atoms: C08_15  and  O09_16 
REMARK       I    between atoms: N26_27  and  C25_26 
REMARK    7  A    between atoms: N26_27  and  C27_28 
ROOT
ATOM      1  C21 AFM d   1     -18.352  32.003  18.133  0.00  0.00     0.082 C 
ATOM      2  C22 AFM d   1     -17.719  30.817  17.396  0.00  0.00    -0.035 C 
ATOM      3  C06 AFM d   1     -18.576  29.594  17.446  0.00  0.00    -0.020 C 
ATOM      4  C07 AFM d   1     -18.976  29.218  18.837  0.00  0.00    -0.002 C 
ATOM      5  C19 AFM d   1     -19.507  30.390  19.678  0.00  0.00     0.087 C 
ATOM      6  N20 AFM d   1     -18.805  31.698  19.523  0.00  0.00    -0.075 N 
ATOM      7  H1  AFM d   1     -19.224  32.342  17.554  0.00  0.00     0.075 H 
ATOM      8  H2  AFM d   1     -17.609  32.812  18.184  0.00  0.00     0.075 H 
ATOM      9  H3  AFM d   1     -16.749  30.588  17.862  0.00  0.00     0.036 H 
ATOM     10  H4  AFM d   1     -17.564  31.097  16.344  0.00  0.00     0.036 H 
ATOM     11  H7  AFM d   1     -19.486  29.775  16.855  0.00  0.00     0.048 H 
ATOM     12  H8  AFM d   1     -18.103  28.781  19.344  0.00  0.00     0.046 H 
ATOM     13  H16 AFM d   1     -19.439  30.099  20.736  0.00  0.00     0.076 H 
ATOM     14  H17 AFM d   1     -20.562  30.544  19.407  0.00  0.00     0.076 H 
ATOM     15  H18 AFM d   1     -19.435  32.429  19.815  0.00  0.00     0.277 HD
ATOM     16  H19 AFM d   1     -17.995  31.692  20.123  0.00  0.00     0.277 HD
ENDROOT
BRANCH   3  17
ATOM     17  C05 AFM d   1     -17.755  28.395  16.807  0.00  0.00    -0.052 A 
ATOM     18  C04 AFM d   1     -18.191  27.793  15.634  0.00  0.00    -0.073 A 
ATOM     19  C03 AFM d   1     -17.477  26.748  15.065  0.00  0.00    -0.044 A 
ATOM     20  H6  AFM d   1     -19.099  28.143  15.157  0.00  0.00     0.084 H 
ATOM     21  C02 AFM d   1     -16.319  26.299  15.670  0.00  0.00     0.132 A 
ATOM     22  H5  AFM d   1     -17.827  26.286  14.149  0.00  0.00     0.088 H 
ATOM     23  C24 AFM d   1     -15.881  26.887  16.839  0.00  0.00     0.071 A 
ATOM     24  F01 AFM d   1     -15.614  25.275  15.114  0.00  0.00    -0.205 F 
ATOM     25  C23 AFM d   1     -16.594  27.937  17.406  0.00  0.00    -0.058 A 
ATOM     26  H20 AFM d   1     -16.240  28.399  18.320  0.00  0.00     0.086 H 
BRANCH  23  27
ATOM     27  C25 AFM d   1     -14.599  26.387  17.502  0.00  0.00     0.255 C 
ATOM     28  N26 AFM d   1     -14.387  26.596  18.927  0.00  0.00    -0.351 N 
ATOM     29  H21 AFM d   1     -15.083  27.063  19.473  0.00  0.00     0.163 HD
ATOM     30  O33 AFM d   1     -13.779  25.835  16.854  0.00  0.00    -0.268 OA
BRANCH  28  31
ATOM     31  C27 AFM d   1     -13.161  26.125  19.558  0.00  0.00     0.037 C 
ATOM     32  H22 AFM d   1     -12.332  26.194  18.838  0.00  0.00     0.073 H 
ATOM     33  H23 AFM d   1     -12.939  26.752  20.434  0.00  0.00     0.073 H 
BRANCH  31  34
ATOM     34  C28 AFM d   1     -13.324  24.674  20.003  0.00  0.00     0.073 A 
ATOM     35  C29 AFM d   1     -12.333  23.852  20.475  0.00  0.00    -0.040 A 
ATOM     36  C30 AFM d   1     -12.912  22.624  20.765  0.00  0.00    -0.002 A 
ATOM     37  H24 AFM d   1     -11.284  24.115  20.600  0.00  0.00     0.088 H 
ATOM     38  N31 AFM d   1     -14.212  22.715  20.473  0.00  0.00    -0.289 N 
ATOM     39  H25 AFM d   1     -12.400  21.747  21.159  0.00  0.00     0.113 H 
ATOM     40  N32 AFM d   1     -14.437  23.985  20.009  0.00  0.00    -0.178 NA
ATOM     41  H26 AFM d   1     -14.915  21.969  20.577  0.00  0.00     0.188 HD
ENDBRANCH  31  34
ENDBRANCH  28  31
ENDBRANCH  23  27
ENDBRANCH   3  17
BRANCH   4  42
ATOM     42  C08 AFM d   1     -20.132  28.173  18.767  0.00  0.00     0.032 C 
ATOM     43  H9  AFM d   1     -20.876  28.381  19.550  0.00  0.00     0.075 H 
ATOM     44  H10 AFM d   1     -19.731  27.158  18.902  0.00  0.00     0.075 H 
BRANCH  42  45
ATOM     45  O09 AFM d   1     -20.720  28.292  17.503  0.00  0.00    -0.351 OA
BRANCH  45  46
ATOM     46  C10 AFM d   1     -21.993  27.738  17.333  0.00  0.00     0.069 A 
ATOM     47  C11 AFM d   1     -22.911  28.421  16.538  0.00  0.00    -0.049 A 
ATOM     48  C12 AFM d   1     -24.180  27.909  16.333  0.00  0.00    -0.050 A 
ATOM     49  H11 AFM d   1     -22.629  29.360  16.077  0.00  0.00     0.087 H 
ATOM     50  C13 AFM d   1     -24.552  26.690  16.925  0.00  0.00     0.088 A 
ATOM     51  H12 AFM d   1     -24.888  28.449  15.715  0.00  0.00     0.087 H 
ATOM     52  C17 AFM d   1     -23.651  26.010  17.707  0.00  0.00     0.014 A 
ATOM     53  N14 AFM d   1     -25.700  25.984  16.890  0.00  0.00    -0.175 NA
ATOM     54  C16 AFM d   1     -24.354  24.840  18.139  0.00  0.00     0.008 A 
ATOM     55  C18 AFM d   1     -22.353  26.529  17.919  0.00  0.00    -0.037 A 
ATOM     56  N15 AFM d   1     -25.575  24.865  17.626  0.00  0.00    -0.288 N 
ATOM     57  H14 AFM d   1     -23.952  24.059  18.783  0.00  0.00     0.115 H 
ATOM     58  H13 AFM d   1     -26.303  24.151  17.767  0.00  0.00     0.188 HD
ATOM     59  H15 AFM d   1     -21.643  25.988  18.534  0.00  0.00     0.089 H 
ENDBRANCH  45  46
ENDBRANCH  42  45
ENDBRANCH   4  42
TORSDOF 7
