REMARK  7 active torsions:
REMARK  status: ('A' for Active; 'I' for Inactive)
REMARK    1  A    between atoms: C6_14  and  O_6 
REMARK    2  A    between atoms: O_6  and  C7_15 
REMARK    3  A    between atoms: C3_9  and  C4_11 
REMARK       I    between atoms: N3_10  and  C19_27 
REMARK    4  A    between atoms: C20_28  and  N3_10 
REMARK    5  A    between atoms: C5_13  and  C6_14 
REMARK    6  A    between atoms: C19_27  and  C18_26 
REMARK    7  A    between atoms: C20_28  and  C21_29 
ROOT
ATOM      1  N2  AFV d   1     -18.332  31.560  19.399  0.00  0.00    -0.075 N 
ATOM      2  C4  AFV d   1     -18.814  29.652  17.262  0.00  0.00    -0.020 C 
ATOM      3  C5  AFV d   1     -19.242  29.409  18.706  0.00  0.00    -0.002 C 
ATOM      4  C14 AFV d   1     -19.439  30.683  19.457  0.00  0.00     0.087 C 
ATOM      5  C15 AFV d   1     -18.268  32.107  18.060  0.00  0.00     0.082 C 
ATOM      6  C16 AFV d   1     -17.944  30.915  17.070  0.00  0.00    -0.035 C 
ATOM      7  H4  AFV d   1     -17.484  31.055  19.604  0.00  0.00     0.277 HD
ATOM      8  H5  AFV d   1     -18.450  32.305  20.068  0.00  0.00     0.277 HD
ATOM      9  H7  AFV d   1     -19.717  29.748  16.641  0.00  0.00     0.048 H 
ATOM     10  H8  AFV d   1     -18.464  28.814  19.206  0.00  0.00     0.046 H 
ATOM     11  H15 AFV d   1     -20.314  31.201  19.036  0.00  0.00     0.076 H 
ATOM     12  H16 AFV d   1     -19.631  30.437  20.512  0.00  0.00     0.076 H 
ATOM     13  H17 AFV d   1     -17.475  32.867  18.003  0.00  0.00     0.075 H 
ATOM     14  H18 AFV d   1     -19.233  32.563  17.795  0.00  0.00     0.075 H 
ATOM     15  H19 AFV d   1     -18.090  31.277  16.041  0.00  0.00     0.036 H 
ATOM     16  H20 AFV d   1     -16.891  30.629  17.213  0.00  0.00     0.036 H 
ENDROOT
BRANCH   2  17
ATOM     17  C3  AFV d   1     -17.987  28.449  16.797  0.00  0.00    -0.052 A 
ATOM     18  C2  AFV d   1     -18.504  27.544  15.682  0.00  0.00    -0.073 A 
ATOM     19  C1  AFV d   1     -17.788  26.512  15.284  0.00  0.00    -0.044 A 
ATOM     20  H2  AFV d   1     -19.461  27.750  15.217  0.00  0.00     0.084 H 
ATOM     21  C   AFV d   1     -16.441  26.218  15.940  0.00  0.00     0.132 A 
ATOM     22  H1  AFV d   1     -18.155  25.871  14.491  0.00  0.00     0.088 H 
ATOM     23  C18 AFV d   1     -15.999  26.995  16.904  0.00  0.00     0.071 A 
ATOM     24  F   AFV d   1     -15.697  25.148  15.529  0.00  0.00    -0.205 F 
ATOM     25  C17 AFV d   1     -16.823  28.197  17.363  0.00  0.00    -0.058 A 
ATOM     26  H21 AFV d   1     -16.452  28.841  18.152  0.00  0.00     0.086 H 
BRANCH  23  27
ATOM     27  C19 AFV d   1     -14.643  26.714  17.552  0.00  0.00     0.255 C 
ATOM     28  O1  AFV d   1     -13.757  26.282  16.893  0.00  0.00    -0.268 OA
ATOM     29  N3  AFV d   1     -14.436  26.985  18.964  0.00  0.00    -0.351 N 
ATOM     30  H6  AFV d   1     -15.182  27.348  19.523  0.00  0.00     0.163 HD
BRANCH  29  31
ATOM     31  C20 AFV d   1     -13.137  26.724  19.557  0.00  0.00     0.035 C 
ATOM     32  H22 AFV d   1     -13.052  27.281  20.502  0.00  0.00     0.073 H 
ATOM     33  H23 AFV d   1     -12.350  27.055  18.864  0.00  0.00     0.073 H 
BRANCH  31  34
ATOM     34  C21 AFV d   1     -12.967  25.236  19.836  0.00  0.00     0.051 A 
ATOM     35  N4  AFV d   1     -11.607  24.678  20.049  0.00  0.00    -0.264 NA
ATOM     36  C22 AFV d   1     -11.458  23.425  20.285  0.00  0.00     0.003 A 
ATOM     37  C23 AFV d   1     -12.676  22.514  20.347  0.00  0.00    -0.066 A 
ATOM     38  H24 AFV d   1     -10.466  23.016  20.440  0.00  0.00     0.114 H 
ATOM     39  C24 AFV d   1     -13.849  22.992  20.165  0.00  0.00    -0.080 A 
ATOM     40  H25 AFV d   1     -12.549  21.456  20.546  0.00  0.00     0.085 H 
ATOM     41  C25 AFV d   1     -14.022  24.450  19.890  0.00  0.00    -0.058 A 
ATOM     42  H26 AFV d   1     -14.714  22.341  20.210  0.00  0.00     0.083 H 
ATOM     43  H27 AFV d   1     -15.014  24.860  19.735  0.00  0.00     0.086 H 
ENDBRANCH  31  34
ENDBRANCH  29  31
ENDBRANCH  23  27
ENDBRANCH   2  17
BRANCH   3  44
ATOM     44  C6  AFV d   1     -20.588  28.636  18.740  0.00  0.00     0.032 C 
ATOM     45  H9  AFV d   1     -20.485  27.747  19.379  0.00  0.00     0.075 H 
ATOM     46  H10 AFV d   1     -21.377  29.288  19.143  0.00  0.00     0.075 H 
BRANCH  44  47
ATOM     47  O   AFV d   1     -20.925  28.242  17.438  0.00  0.00    -0.351 OA
BRANCH  47  48
ATOM     48  C7  AFV d   1     -22.217  27.721  17.298  0.00  0.00     0.069 A 
ATOM     49  C8  AFV d   1     -23.173  28.414  16.517  0.00  0.00    -0.049 A 
ATOM     50  C9  AFV d   1     -24.458  27.893  16.371  0.00  0.00    -0.050 A 
ATOM     51  H11 AFV d   1     -22.907  29.347  16.034  0.00  0.00     0.087 H 
ATOM     52  C10 AFV d   1     -24.771  26.715  16.986  0.00  0.00     0.088 A 
ATOM     53  H12 AFV d   1     -25.199  28.416  15.777  0.00  0.00     0.087 H 
ATOM     54  N   AFV d   1     -25.976  25.859  17.081  0.00  0.00    -0.175 NA
ATOM     55  C12 AFV d   1     -23.809  25.996  17.784  0.00  0.00     0.014 A 
ATOM     56  N1  AFV d   1     -25.759  24.764  17.844  0.00  0.00    -0.288 N 
ATOM     57  C11 AFV d   1     -24.563  24.910  18.188  0.00  0.00     0.008 A 
ATOM     58  H3  AFV d   1     -26.411  24.003  18.082  0.00  0.00     0.188 HD
ATOM     59  H13 AFV d   1     -24.103  24.157  18.826  0.00  0.00     0.115 H 
ATOM     60  C13 AFV d   1     -22.542  26.509  17.927  0.00  0.00    -0.037 A 
ATOM     61  H14 AFV d   1     -21.802  25.983  18.519  0.00  0.00     0.089 H 
ENDBRANCH  47  48
ENDBRANCH  44  47
ENDBRANCH   3  44
TORSDOF 7
