REMARK  4 active torsions:
REMARK  status: ('A' for Active; 'I' for Inactive)
REMARK    1  A    between atoms: C3_5  and  C6_8 
REMARK    2  A    between atoms: C10_9  and  C11_14 
REMARK    3  A    between atoms: C11_14  and  O_15 
REMARK    4  A    between atoms: O_15  and  C12_16 
ROOT
ATOM      1  C6  ZSO d   1     -17.612  29.308  17.622  0.00  0.00    -0.020 C 
ATOM      2  C10 ZSO d   1     -18.234  29.046  18.985  0.00  0.00    -0.002 C 
ATOM      3  C9  ZSO d   1     -18.925  30.307  19.482  0.00  0.00     0.087 C 
ATOM      4  N   ZSO d   1     -17.964  31.423  19.550  0.00  0.00    -0.075 N 
ATOM      5  C8  ZSO d   1     -17.427  31.729  18.211  0.00  0.00     0.082 C 
ATOM      6  C7  ZSO d   1     -16.681  30.514  17.671  0.00  0.00    -0.035 C 
ATOM      7  H5  ZSO d   1     -18.420  29.529  16.909  0.00  0.00     0.048 H 
ATOM      8  H6  ZSO d   1     -17.445  28.756  19.695  0.00  0.00     0.046 H 
ATOM      9  H7  ZSO d   1     -19.339  30.123  20.484  0.00  0.00     0.076 H 
ATOM     10  H8  ZSO d   1     -19.739  30.571  18.791  0.00  0.00     0.076 H 
ATOM     11  H9  ZSO d   1     -17.204  31.169  20.161  0.00  0.00     0.277 HD
ATOM     12  H10 ZSO d   1     -18.430  32.239  19.914  0.00  0.00     0.277 HD
ATOM     13  H11 ZSO d   1     -16.736  32.582  18.279  0.00  0.00     0.075 H 
ATOM     14  H12 ZSO d   1     -18.256  31.981  17.533  0.00  0.00     0.075 H 
ATOM     15  H13 ZSO d   1     -16.315  30.733  16.657  0.00  0.00     0.036 H 
ATOM     16  H14 ZSO d   1     -15.828  30.289  18.328  0.00  0.00     0.036 H 
ENDROOT
BRANCH   2  17
ATOM     17  C11 ZSO d   1     -19.258  27.926  18.881  0.00  0.00     0.032 C 
ATOM     18  H15 ZSO d   1     -20.001  28.022  19.687  0.00  0.00     0.075 H 
ATOM     19  H16 ZSO d   1     -18.755  26.951  18.960  0.00  0.00     0.075 H 
BRANCH  17  20
ATOM     20  O   ZSO d   1     -19.901  28.040  17.612  0.00  0.00    -0.351 OA
BRANCH  20  21
ATOM     21  C12 ZSO d   1     -21.127  27.474  17.396  0.00  0.00     0.069 A 
ATOM     22  C18 ZSO d   1     -21.502  26.329  18.089  0.00  0.00    -0.037 A 
ATOM     23  C17 ZSO d   1     -22.752  25.773  17.854  0.00  0.00     0.014 A 
ATOM     24  H17 ZSO d   1     -20.826  25.875  18.805  0.00  0.00     0.089 H 
ATOM     25  C15 ZSO d   1     -23.612  26.349  16.944  0.00  0.00     0.062 A 
ATOM     26  C16 ZSO d   1     -23.312  24.612  18.469  0.00  0.00     0.034 A 
ATOM     27  C14 ZSO d   1     -23.246  27.491  16.245  0.00  0.00    -0.052 A 
ATOM     28  N1  ZSO d   1     -24.712  25.576  16.963  0.00  0.00    -0.278 N 
ATOM     29  C13 ZSO d   1     -21.995  28.052  16.474  0.00  0.00    -0.049 A 
ATOM     30  H18 ZSO d   1     -23.927  27.939  15.530  0.00  0.00     0.087 H 
ATOM     31  H19 ZSO d   1     -21.695  28.942  15.933  0.00  0.00     0.087 H 
ATOM     32  N2  ZSO d   1     -24.532  24.521  17.889  0.00  0.00    -0.186 NA
ATOM     33  H21 ZSO d   1     -25.555  25.728  16.392  0.00  0.00     0.189 HD
ATOM     34  H20 ZSO d   1     -22.867  23.960  19.220  0.00  0.00     0.118 H 
ENDBRANCH  20  21
ENDBRANCH  17  20
ENDBRANCH   2  17
BRANCH   1  35
ATOM     35  C3  ZSO d   1     -16.896  28.099  17.153  0.00  0.00    -0.053 A 
ATOM     36  C4  ZSO d   1     -15.962  27.472  17.969  0.00  0.00    -0.074 A 
ATOM     37  C5  ZSO d   1     -15.300  26.336  17.517  0.00  0.00    -0.045 A 
ATOM     38  H2  ZSO d   1     -15.750  27.868  18.956  0.00  0.00     0.084 H 
ATOM     39  C   ZSO d   1     -15.575  25.828  16.252  0.00  0.00     0.116 A 
ATOM     40  H1  ZSO d   1     -14.569  25.846  18.151  0.00  0.00     0.088 H 
ATOM     41  F   ZSO d   1     -14.934  24.732  15.814  0.00  0.00    -0.206 F 
ATOM     42  C1  ZSO d   1     -16.507  26.456  15.436  0.00  0.00    -0.045 A 
ATOM     43  C2  ZSO d   1     -17.169  27.591  15.888  0.00  0.00    -0.074 A 
ATOM     44  H4  ZSO d   1     -16.718  26.061  14.448  0.00  0.00     0.088 H 
ATOM     45  H3  ZSO d   1     -17.899  28.081  15.254  0.00  0.00     0.084 H 
ENDBRANCH   1  35
TORSDOF 4
