REMARK  12 active torsions:
REMARK  status: ('A' for Active; 'I' for Inactive)
REMARK    1  A    between atoms: C26_3  and  C25_2 
REMARK    2  A    between atoms: C19_7  and  C20_6 
REMARK    3  A    between atoms: C16_11  and  C17_10 
REMARK    4  A    between atoms: C10_13  and  C11_12 
REMARK       I    between atoms: C11_12  and  N13_33 
REMARK    5  A    between atoms: C14_15  and  C15_14 
REMARK    6  A    between atoms: N13_33  and  C14_15 
REMARK    7  A    between atoms: C02_17  and  C01_16 
REMARK    8  A    between atoms: C03_18  and  C02_17 
REMARK    9  A    between atoms: C03_18  and  C04_19 
REMARK   10  A    between atoms: N05_32  and  C03_18 
REMARK   11  A    between atoms: C07_21  and  C08_22 
REMARK   12  A    between atoms: N30_35  and  C29_24 
ROOT
ATOM      1  C24 A9G d   1     -81.068   1.910 -55.091  0.00  0.00    -0.056 A 
ATOM      2  C25 A9G d   1     -81.342   2.827 -56.132  0.00  0.00    -0.021 A 
ATOM      3  C10 A9G d   1     -79.885   1.811 -54.382  0.00  0.00     0.045 A 
ATOM      4  C06 A9G d   1     -76.982   4.014 -54.996  0.00  0.00    -0.013 A 
ATOM      5  C07 A9G d   1     -77.458   2.969 -54.229  0.00  0.00    -0.033 A 
ATOM      6  C09 A9G d   1     -78.812   2.705 -54.680  0.00  0.00     0.014 A 
ATOM      7  C38 A9G d   1     -80.307   3.688 -56.419  0.00  0.00    -0.045 A 
ATOM      8  C39 A9G d   1     -79.084   3.647 -55.743  0.00  0.00     0.047 A 
ATOM      9  N05 A9G d   1     -77.938   4.449 -55.918  0.00  0.00    -0.351 N 
ATOM     10  H1  A9G d   1     -81.860   1.220 -54.824  0.00  0.00     0.086 H 
ATOM     11  H22 A9G d   1     -75.987   4.445 -54.895  0.00  0.00     0.112 H 
ATOM     12  H35 A9G d   1     -80.446   4.427 -57.200  0.00  0.00     0.088 H 
ENDROOT
BRANCH   2  13
ATOM     13  C26 A9G d   1     -82.643   2.903 -56.883  0.00  0.00    -0.008 A 
ATOM     14  C27 A9G d   1     -82.849   3.521 -58.131  0.00  0.00    -0.067 A 
ATOM     15  C28 A9G d   1     -84.093   3.565 -58.784  0.00  0.00    -0.038 A 
ATOM     16  H3  A9G d   1     -82.000   3.990 -58.616  0.00  0.00     0.085 H 
ATOM     17  C29 A9G d   1     -85.253   2.977 -58.222  0.00  0.00     0.125 A 
ATOM     18  H2  A9G d   1     -84.167   4.063 -59.744  0.00  0.00     0.089 H 
ATOM     19  N36 A9G d   1     -85.087   2.365 -56.999  0.00  0.00    -0.243 NA
ATOM     20  C37 A9G d   1     -83.861   2.351 -56.412  0.00  0.00     0.015 A 
ATOM     21  H34 A9G d   1     -83.807   1.849 -55.453  0.00  0.00     0.116 H 
BRANCH  17  22
ATOM     22  N30 A9G d   1     -86.534   3.049 -58.932  0.00  0.00    -0.363 N 
ATOM     23  C31 A9G d   1     -86.842   2.346 -60.222  0.00  0.00     0.019 C 
ATOM     24  C32 A9G d   1     -87.891   1.203 -60.146  0.00  0.00     0.096 C 
ATOM     25  H26 A9G d   1     -87.215   3.098 -60.933  0.00  0.00     0.066 H 
ATOM     26  H27 A9G d   1     -85.904   1.916 -60.602  0.00  0.00     0.066 H 
ATOM     27  N33 A9G d   1     -89.133   1.686 -59.527  0.00  0.00    -0.072 N 
ATOM     28  H28 A9G d   1     -87.484   0.377 -59.544  0.00  0.00     0.078 H 
ATOM     29  H29 A9G d   1     -88.109   0.843 -61.162  0.00  0.00     0.078 H 
ATOM     30  C34 A9G d   1     -88.874   2.236 -58.175  0.00  0.00     0.096 C 
ATOM     31  H38 A9G d   1     -89.784   0.920 -59.452  0.00  0.00     0.277 HD
ATOM     32  H39 A9G d   1     -89.531   2.409 -60.106  0.00  0.00     0.277 HD
ATOM     33  C35 A9G d   1     -87.840   3.379 -58.260  0.00  0.00     0.019 C 
ATOM     34  H30 A9G d   1     -89.813   2.624 -57.754  0.00  0.00     0.078 H 
ATOM     35  H31 A9G d   1     -88.483   1.438 -57.526  0.00  0.00     0.078 H 
ATOM     36  H32 A9G d   1     -87.616   3.705 -57.234  0.00  0.00     0.066 H 
ATOM     37  H33 A9G d   1     -88.302   4.208 -58.815  0.00  0.00     0.066 H 
ENDBRANCH  17  22
ENDBRANCH   2  13
BRANCH   3  38
ATOM     38  C11 A9G d   1     -79.683   0.774 -53.249  0.00  0.00     0.252 C 
ATOM     39  N13 A9G d   1     -80.895   0.542 -52.507  0.00  0.00    -0.352 N 
ATOM     40  H36 A9G d   1     -81.730   1.035 -52.753  0.00  0.00     0.163 HD
ATOM     41  O12 A9G d   1     -78.668   0.227 -53.029  0.00  0.00    -0.268 OA
BRANCH  39  42
ATOM     42  C14 A9G d   1     -80.913  -0.415 -51.390  0.00  0.00     0.024 C 
ATOM     43  H11 A9G d   1     -81.545  -1.276 -51.652  0.00  0.00     0.071 H 
ATOM     44  H12 A9G d   1     -79.889  -0.761 -51.184  0.00  0.00     0.071 H 
BRANCH  42  45
ATOM     45  C15 A9G d   1     -81.464   0.259 -50.183  0.00  0.00     0.019 A 
ATOM     46  C22 A9G d   1     -82.850   0.413 -49.994  0.00  0.00     0.187 A 
ATOM     47  N21 A9G d   1     -83.457   1.020 -48.930  0.00  0.00    -0.338 N 
ATOM     48  O23 A9G d   1     -83.636  -0.086 -50.944  0.00  0.00    -0.172 OA
ATOM     49  C19 A9G d   1     -82.648   1.528 -47.958  0.00  0.00     0.008 A 
ATOM     50  H37 A9G d   1     -84.453   1.088 -48.868  0.00  0.00     0.168 HD
ATOM     51  C18 A9G d   1     -81.260   1.416 -48.077  0.00  0.00    -0.055 A 
ATOM     52  C16 A9G d   1     -80.676   0.793 -49.184  0.00  0.00    -0.048 A 
ATOM     53  H7  A9G d   1     -80.622   1.821 -47.293  0.00  0.00     0.087 H 
BRANCH  49  54
ATOM     54  C20 A9G d   1     -83.283   2.208 -46.764  0.00  0.00    -0.037 C 
ATOM     55  H4  A9G d   1     -82.496   2.558 -46.080  0.00  0.00     0.035 H 
ATOM     56  H5  A9G d   1     -83.934   1.494 -46.239  0.00  0.00     0.035 H 
ATOM     57  H6  A9G d   1     -83.880   3.066 -47.105  0.00  0.00     0.035 H 
ENDBRANCH  49  54
BRANCH  52  58
ATOM     58  C17 A9G d   1     -79.201   0.703 -49.268  0.00  0.00    -0.050 C 
ATOM     59  H8  A9G d   1     -78.754   1.182 -48.385  0.00  0.00     0.033 H 
ATOM     60  H9  A9G d   1     -78.854   1.214 -50.178  0.00  0.00     0.033 H 
ATOM     61  H10 A9G d   1     -78.900  -0.354 -49.303  0.00  0.00     0.033 H 
ENDBRANCH  52  58
ENDBRANCH  42  45
ENDBRANCH  39  42
ENDBRANCH   3  38
BRANCH   9  62
ATOM     62  C03 A9G d   1     -77.701   5.567 -56.885  0.00  0.00     0.013 C 
ATOM     63  H18 A9G d   1     -78.433   5.452 -57.698  0.00  0.00     0.072 H 
BRANCH  62  64
ATOM     64  C02 A9G d   1     -76.278   5.548 -57.505  0.00  0.00    -0.049 C 
ATOM     65  H16 A9G d   1     -75.546   5.416 -56.694  0.00  0.00     0.035 H 
ATOM     66  H17 A9G d   1     -76.212   4.699 -58.201  0.00  0.00     0.035 H 
BRANCH  64  67
ATOM     67  C01 A9G d   1     -75.931   6.828 -58.268  0.00  0.00    -0.075 C 
ATOM     68  H13 A9G d   1     -74.914   6.746 -58.678  0.00  0.00     0.027 H 
ATOM     69  H14 A9G d   1     -75.982   7.688 -57.584  0.00  0.00     0.027 H 
ATOM     70  H15 A9G d   1     -76.648   6.971 -59.090  0.00  0.00     0.027 H 
ENDBRANCH  64  67
ENDBRANCH  62  64
BRANCH  62  71
ATOM     71  C04 A9G d   1     -77.894   6.960 -56.251  0.00  0.00    -0.057 C 
ATOM     72  H19 A9G d   1     -78.894   7.021 -55.797  0.00  0.00     0.030 H 
ATOM     73  H20 A9G d   1     -77.797   7.733 -57.028  0.00  0.00     0.030 H 
ATOM     74  H21 A9G d   1     -77.129   7.120 -55.477  0.00  0.00     0.030 H 
ENDBRANCH  62  71
ENDBRANCH   9  62
BRANCH   5  75
ATOM     75  C08 A9G d   1     -76.625   2.326 -53.165  0.00  0.00    -0.049 C 
ATOM     76  H23 A9G d   1     -75.640   2.814 -53.126  0.00  0.00     0.033 H 
ATOM     77  H24 A9G d   1     -76.496   1.258 -53.395  0.00  0.00     0.033 H 
ATOM     78  H25 A9G d   1     -77.126   2.433 -52.192  0.00  0.00     0.033 H 
ENDBRANCH   5  75
TORSDOF 12
