REMARK  1 active torsions:
REMARK  status: ('A' for Active; 'I' for Inactive)
REMARK    1  A    between atoms: CAJ_1  and  CAC_2 
ROOT
ATOM      1  CAC AUD d   1      -1.730   6.463  85.064  0.00  0.00     0.070 C 
ATOM      2  OAB AUD d   1      -2.849   5.727  85.610  0.00  0.00    -0.221 OA
ATOM      3  SAA AUD d   1      -2.578   4.964  86.963  0.00  0.00     0.369 S 
ATOM      4  OAG AUD d   1      -3.460   3.791  86.968  0.00  0.00    -0.175 OA
ATOM      5  OAH AUD d   1      -2.758   5.981  87.996  0.00  0.00    -0.175 OA
ATOM      6  NAF AUD d   1      -1.130   4.331  87.116  0.00  0.00    -0.228 N 
ATOM      7  CAE AUD d   1      -0.105   4.820  86.290  0.00  0.00     0.258 C 
ATOM      8  OAI AUD d   1       0.996   4.392  86.355  0.00  0.00    -0.267 OA
ATOM      9  CAD AUD d   1      -0.421   5.992  85.254  0.00  0.00     0.012 C 
ATOM     10  H4  AUD d   1      -0.953   3.605  87.781  0.00  0.00     0.184 HD
ATOM     11  H5  AUD d   1       0.394   6.435  84.684  0.00  0.00     0.096 H 
ENDROOT
BRANCH   1  12
ATOM     12  CAJ AUD d   1      -1.993   7.540  84.025  0.00  0.00    -0.030 C 
ATOM     13  H1  AUD d   1      -1.040   7.996  83.720  0.00  0.00     0.036 H 
ATOM     14  H2  AUD d   1      -2.647   8.312  84.455  0.00  0.00     0.036 H 
ATOM     15  H3  AUD d   1      -2.482   7.092  83.148  0.00  0.00     0.036 H 
ENDBRANCH   1  12
TORSDOF 1
