REMARK  4 active torsions:
REMARK  status: ('A' for Active; 'I' for Inactive)
REMARK    1  A    between atoms: C10_1  and  C14_8 
REMARK    2  A    between atoms: C07_3  and  C13_2 
REMARK    3  A    between atoms: C13_2  and  O02_10 
REMARK    4  A    between atoms: C14_8  and  O04_11 
ROOT
ATOM      1  C10 LB1 d   1       4.507  -1.932  -9.962  0.00  0.00    -0.001 C 
ATOM      2  C07 LB1 d   1       3.947  -0.508 -10.091  0.00  0.00    -0.001 C 
ATOM      3  C08 LB1 d   1       5.208   0.299 -10.476  0.00  0.00     0.045 C 
ATOM      4  C09 LB1 d   1       5.999  -1.691 -10.226  0.00  0.00     0.045 C 
ATOM      5  C11 LB1 d   1       6.141   0.488  -9.275  0.00  0.00    -0.038 C 
ATOM      6  C12 LB1 d   1       6.650  -0.947  -9.056  0.00  0.00    -0.038 C 
ATOM      7  O01 LB1 d   1       5.968  -0.667 -11.249  0.00  0.00    -0.380 OA
ATOM      8  H1  LB1 d   1       4.335  -2.308  -8.943  0.00  0.00     0.048 H 
ATOM      9  H4  LB1 d   1       3.533  -0.170  -9.130  0.00  0.00     0.048 H 
ATOM     10  H5  LB1 d   1       4.973   1.239 -10.998  0.00  0.00     0.084 H 
ATOM     11  H6  LB1 d   1       6.538  -2.608 -10.506  0.00  0.00     0.084 H 
ATOM     12  H7  LB1 d   1       5.594   0.859  -8.396  0.00  0.00     0.036 H 
ATOM     13  H8  LB1 d   1       6.966   1.176  -9.511  0.00  0.00     0.036 H 
ATOM     14  H9  LB1 d   1       7.747  -0.996  -9.111  0.00  0.00     0.036 H 
ATOM     15  H10 LB1 d   1       6.313  -1.348  -8.089  0.00  0.00     0.036 H 
ENDROOT
BRANCH   1  16
ATOM     16  C14 LB1 d   1       3.989  -2.963 -10.942  0.00  0.00     0.023 C 
ATOM     17  H11 LB1 d   1       3.021  -2.596 -11.314  0.00  0.00     0.074 H 
ATOM     18  H12 LB1 d   1       3.836  -3.895 -10.378  0.00  0.00     0.074 H 
BRANCH  16  19
ATOM     19  O04 LB1 d   1       4.671  -3.248 -11.931  0.00  0.00    -0.400 OA
ATOM     20  H14 LB1 d   1       4.807  -2.468 -12.456  0.00  0.00     0.209 HD
ENDBRANCH  16  19
ENDBRANCH   1  16
BRANCH   2  21
ATOM     21  C13 LB1 d   1       2.893  -0.352 -11.160  0.00  0.00     0.023 C 
ATOM     22  H2  LB1 d   1       2.653   0.718 -11.245  0.00  0.00     0.074 H 
ATOM     23  H3  LB1 d   1       1.998  -0.904 -10.837  0.00  0.00     0.074 H 
BRANCH  21  24
ATOM     24  O02 LB1 d   1       3.208  -0.762 -12.283  0.00  0.00    -0.400 OA
ATOM     25  H13 LB1 d   1       3.973  -0.288 -12.589  0.00  0.00     0.209 HD
ENDBRANCH  21  24
ENDBRANCH   2  21
TORSDOF 4
