REMARK  10 active torsions:
REMARK  status: ('A' for Active; 'I' for Inactive)
REMARK    1  A    between atoms: C13_5  and  C14_6 
REMARK    2  A    between atoms: C15_7  and  C16_8 
REMARK       I    between atoms: N3_29  and  C15_7 
REMARK    3  A    between atoms: C16_8  and  C17_9 
REMARK    4  A    between atoms: C17_9  and  C18_10 
REMARK    5  A    between atoms: C2_12  and  O2_32 
REMARK    6  A    between atoms: C4_21  and  C3_20 
REMARK       I    between atoms: N1_27  and  C4_21 
REMARK    7  A    between atoms: C6_23  and  C5_22 
REMARK    8  A    between atoms: C5_22  and  N1_27 
REMARK    9  A    between atoms: O3_33  and  C6_23 
REMARK   10  A    between atoms: C7_24  and  O3_33 
ROOT
ATOM      1  C1  KU4 d   1     492.357 196.714 553.760  0.00  0.00     0.282 A 
ATOM      2  C13 KU4 d   1     492.048 194.723 552.447  0.00  0.00     0.131 A 
ATOM      3  C2  KU4 d   1     493.595 196.856 553.137  0.00  0.00     0.169 A 
ATOM      4  C3  KU4 d   1     494.002 195.938 552.215  0.00  0.00     0.165 A 
ATOM      5  N2  KU4 d   1     493.243 194.886 551.875  0.00  0.00    -0.225 NA
ATOM      6  N4  KU4 d   1     491.602 195.618 553.390  0.00  0.00    -0.307 N 
ATOM      7  O1  KU4 d   1     491.919 197.505 554.610  0.00  0.00    -0.265 OA
ATOM      8  H26 KU4 d   1     490.710 195.472 553.818  0.00  0.00     0.170 HD
ENDROOT
BRANCH   2   9
ATOM      9  C14 KU4 d   1     491.234 193.509 552.044  0.00  0.00     0.072 C 
ATOM     10  C26 KU4 d   1     491.457 192.304 552.969  0.00  0.00    -0.038 C 
ATOM     11  C25 KU4 d   1     492.825 191.821 552.509  0.00  0.00    -0.048 C 
ATOM     12  H17 KU4 d   1     490.687 191.533 552.818  0.00  0.00     0.036 H 
ATOM     13  H18 KU4 d   1     491.472 192.606 554.027  0.00  0.00     0.036 H 
ATOM     14  C24 KU4 d   1     492.703 191.878 550.997  0.00  0.00    -0.001 C 
ATOM     15  H15 KU4 d   1     493.623 192.487 552.869  0.00  0.00     0.035 H 
ATOM     16  H16 KU4 d   1     493.021 190.795 552.854  0.00  0.00     0.035 H 
ATOM     17  N3  KU4 d   1     491.672 192.903 550.775  0.00  0.00    -0.340 N 
ATOM     18  H13 KU4 d   1     492.385 190.906 550.591  0.00  0.00     0.064 H 
ATOM     19  H14 KU4 d   1     493.657 192.174 550.536  0.00  0.00     0.064 H 
ATOM     20  C15 KU4 d   1     491.120 193.186 549.584  0.00  0.00     0.220 C 
ATOM     21  O5  KU4 d   1     491.636 192.761 548.555  0.00  0.00    -0.273 OA
ATOM     22  H4  KU4 d   1     490.173 193.796 552.005  0.00  0.00     0.085 H 
BRANCH  20  23
ATOM     23  C16 KU4 d   1     489.848 193.995 549.565  0.00  0.00     0.013 C 
ATOM     24  H5  KU4 d   1     489.649 194.356 550.585  0.00  0.00     0.047 H 
ATOM     25  H6  KU4 d   1     489.024 193.342 549.240  0.00  0.00     0.047 H 
BRANCH  23  26
ATOM     26  C17 KU4 d   1     489.908 195.193 548.634  0.00  0.00    -0.032 C 
ATOM     27  H7  KU4 d   1     488.992 195.787 548.770  0.00  0.00     0.040 H 
ATOM     28  H8  KU4 d   1     489.957 194.827 547.598  0.00  0.00     0.040 H 
BRANCH  26  29
ATOM     29  C18 KU4 d   1     491.098 196.086 548.883  0.00  0.00    -0.036 A 
ATOM     30  C19 KU4 d   1     492.293 195.933 548.184  0.00  0.00    -0.075 A 
ATOM     31  C20 KU4 d   1     493.375 196.759 548.415  0.00  0.00    -0.082 A 
ATOM     32  H9  KU4 d   1     492.375 195.147 547.442  0.00  0.00     0.084 H 
ATOM     33  C21 KU4 d   1     493.288 197.760 549.354  0.00  0.00    -0.081 A 
ATOM     34  H10 KU4 d   1     494.293 196.619 547.856  0.00  0.00     0.083 H 
ATOM     35  C22 KU4 d   1     492.126 197.940 550.062  0.00  0.00    -0.061 A 
ATOM     36  H11 KU4 d   1     494.138 198.408 549.535  0.00  0.00     0.083 H 
ATOM     37  C23 KU4 d   1     491.045 197.109 549.824  0.00  0.00     0.040 A 
ATOM     38  H12 KU4 d   1     492.055 198.728 550.803  0.00  0.00     0.086 H 
ATOM     39 CL1  KU4 d   1     489.583 197.373 550.743  0.00  0.00    -0.084 Cl
ENDBRANCH  26  29
ENDBRANCH  23  26
ENDBRANCH  20  23
ENDBRANCH   2   9
BRANCH   4  40
ATOM     40  C4  KU4 d   1     495.339 196.051 551.531  0.00  0.00     0.273 C 
ATOM     41  N1  KU4 d   1     495.616 195.060 550.685  0.00  0.00    -0.353 N 
ATOM     42  H25 KU4 d   1     494.941 194.331 550.573  0.00  0.00     0.162 HD
ATOM     43  O4  KU4 d   1     496.101 196.987 551.766  0.00  0.00    -0.266 OA
BRANCH  41  44
ATOM     44  C5  KU4 d   1     496.847 194.981 549.915  0.00  0.00     0.016 C 
ATOM     45  H19 KU4 d   1     497.501 195.817 550.204  0.00  0.00     0.067 H 
ATOM     46  H20 KU4 d   1     497.347 194.028 550.142  0.00  0.00     0.067 H 
BRANCH  44  47
ATOM     47  C6  KU4 d   1     496.590 195.055 548.431  0.00  0.00     0.041 C 
ATOM     48  H21 KU4 d   1     497.538 194.946 547.884  0.00  0.00     0.077 H 
ATOM     49  H22 KU4 d   1     496.132 196.024 548.181  0.00  0.00     0.077 H 
BRANCH  47  50
ATOM     50  O3  KU4 d   1     495.700 193.993 548.073  0.00  0.00    -0.350 OA
BRANCH  50  51
ATOM     51  C7  KU4 d   1     495.047 194.067 546.870  0.00  0.00     0.068 A 
ATOM     52  C12 KU4 d   1     494.233 193.024 546.455  0.00  0.00    -0.051 A 
ATOM     53  C11 KU4 d   1     493.576 193.115 545.238  0.00  0.00    -0.080 A 
ATOM     54  H3  KU4 d   1     494.111 192.145 547.077  0.00  0.00     0.087 H 
ATOM     55  C10 KU4 d   1     493.724 194.227 544.443  0.00  0.00    -0.083 A 
ATOM     56  H2  KU4 d   1     492.939 192.302 544.910  0.00  0.00     0.083 H 
ATOM     57  C9  KU4 d   1     494.532 195.259 544.858  0.00  0.00    -0.080 A 
ATOM     58  H1  KU4 d   1     493.206 194.290 543.493  0.00  0.00     0.083 H 
ATOM     59  C8  KU4 d   1     495.199 195.190 546.071  0.00  0.00    -0.051 A 
ATOM     60  H24 KU4 d   1     494.649 196.135 544.230  0.00  0.00     0.083 H 
ATOM     61  H23 KU4 d   1     495.834 196.007 546.393  0.00  0.00     0.087 H 
ENDBRANCH  50  51
ENDBRANCH  47  50
ENDBRANCH  44  47
ENDBRANCH  41  44
ENDBRANCH   4  40
BRANCH   3  62
ATOM     62  O2  KU4 d   1     494.326 197.917 553.508  0.00  0.00    -0.354 OA
ATOM     63  H27 KU4 d   1     495.149 197.619 553.877  0.00  0.00     0.218 HD
ENDBRANCH   3  62
TORSDOF 10
