REMARK WARNING: 32 MAX_TORS EXCEEDED!!!
REMARK  45 active torsions:
REMARK  status: ('A' for Active; 'I' for Inactive)
REMARK    1  A    between atoms: C_1  and  CH3_3 
REMARK       I    between atoms: C_1  and  N_4 
REMARK    2  A    between atoms: N_4  and  CA_5 
REMARK    3  A    between atoms: CA_5  and  C_6 
REMARK    4  A    between atoms: CA_5  and  CB_8 
REMARK       I    between atoms: C_6  and  N_14 
REMARK    5  A    between atoms: CB_8  and  CG_9 
REMARK    6  A    between atoms: N_14  and  CA_15 
REMARK    7  A    between atoms: CA_15  and  C_16 
REMARK    8  A    between atoms: CA_15  and  CB_18 
REMARK       I    between atoms: C_16  and  N_23 
REMARK    9  A    between atoms: CB_18  and  CG_19 
REMARK   10  A    between atoms: CG_19  and  CD_20 
REMARK   11  A    between atoms: CD_20  and  CE_21 
REMARK   12  A    between atoms: CE_21  and  NZ_22 
REMARK   13  A    between atoms: N_23  and  CA_24 
REMARK   14  A    between atoms: CA_24  and  C_25 
REMARK   15  A    between atoms: CA_24  and  CB_27 
REMARK       I    between atoms: C_25  and  N_31 
REMARK   16  A    between atoms: CB_27  and  CG1_28 
REMARK   17  A    between atoms: CB_27  and  CG2_29 
REMARK   18  A    between atoms: CG1_28  and  CD1_30 
REMARK   19  A    between atoms: N_31  and  CA_32 
REMARK   20  A    between atoms: CA_32  and  C_33 
REMARK   21  A    between atoms: CA_32  and  CB_35 
REMARK       I    between atoms: C_33  and  N_39 
REMARK   22  A    between atoms: CB_35  and  CG_36 
REMARK   23  A    between atoms: CG_36  and  CD1_37 
REMARK   24  A    between atoms: CG_36  and  CD2_38 
REMARK   25  A    between atoms: N_39  and  CA_40 
REMARK   26  A    between atoms: CA_40  and  C_41 
REMARK   27  A    between atoms: CA_40  and  CB_43 
REMARK       I    between atoms: C_41  and  N_49 
REMARK   28  A    between atoms: CB_43  and  CG_44 
REMARK   29  A    between atoms: N_49  and  CA_50 
REMARK   30  A    between atoms: CA_59  and  CB_62 
REMARK   31  A    between atoms: CB_62  and  CG_63 
REMARK   32  A    between atoms: CG_63  and  CD1_64 
REMARK   33  A    between atoms: CG_63  and  CD2_65 
REMARK   34  A    between atoms: CA_67  and  CB_70 
REMARK   35  A    between atoms: CB_70  and  CG_71 
REMARK   36  A    between atoms: CG_71  and  CD1_72 
REMARK   37  A    between atoms: CG_71  and  CD2_73 
REMARK   38  A    between atoms: CA_75  and  CB_78 
REMARK   39  A    between atoms: CB_78  and  CG_79 
REMARK   40  A    between atoms: CG_79  and  CD_80 
REMARK       I    between atoms: CD_80  and  NE2_82 
REMARK   41  A    between atoms: CA_84  and  C_85 
REMARK       I    between atoms: C_85  and  N_90 
REMARK   42  A    between atoms: N_90  and  CA_91 
REMARK   43  A    between atoms: CA_91  and  C_92 
REMARK   44  A    between atoms: CA_91  and  CB_94 
REMARK       I    between atoms: C_92  and  N_96 
REMARK   45  A    between atoms: CB_94  and  OG_95 
ROOT
ATOM      1  C   HIS d   1      61.711  19.499  57.996  0.00  0.00     0.241 C 
ATOM      2  O   HIS d   1      60.912  19.980  57.281  0.00  0.00    -0.271 OA
ATOM      3  N   LYS d   1      62.895  19.175  57.573  0.00  0.00    -0.346 N 
ATOM      4  H53 LYS d   1      63.537  18.754  58.214  0.00  0.00     0.163 HD
ENDROOT
BRANCH   1   5
ATOM      5  CA  HIS d   1      61.390  19.079  59.439  0.00  0.00     0.094 C 
ATOM      6  H47 HIS d   1      60.297  19.064  59.562  0.00  0.00     0.088 H 
BRANCH   5   7
ATOM      7  N   HIS d   1      61.923  17.732  59.699  0.00  0.00    -0.346 N 
ATOM      8  C   LEU d   1      61.609  16.736  58.937  0.00  0.00     0.241 C 
ATOM      9  O   LEU d   1      60.850  16.821  58.025  0.00  0.00    -0.271 OA
ATOM     10  H46 HIS d   1      62.536  17.585  60.475  0.00  0.00     0.163 HD
BRANCH   8  11
ATOM     11  CA  LEU d   1      62.241  15.416  59.352  0.00  0.00     0.089 C 
ATOM     12  H36 LEU d   1      62.173  14.669  58.548  0.00  0.00     0.087 H 
BRANCH  11  13
ATOM     13  N   LEU d   1      63.651  15.685  59.727  0.00  0.00    -0.346 N 
ATOM     14  C   ILE d   1      64.517  16.174  58.874  0.00  0.00     0.241 C 
ATOM     15  O   ILE d   1      64.248  16.415  57.742  0.00  0.00    -0.271 OA
ATOM     16  H35 LEU d   1      63.950  15.487  60.660  0.00  0.00     0.163 HD
BRANCH  14  17
ATOM     17  CA  ILE d   1      65.941  16.437  59.398  0.00  0.00     0.092 C 
ATOM     18  H25 ILE d   1      66.255  17.355  58.880  0.00  0.00     0.088 H 
BRANCH  17  19
ATOM     19  N   ILE d   1      65.924  16.818  60.799  0.00  0.00    -0.346 N 
ATOM     20  C   LYS d   1      65.349  17.945  61.144  0.00  0.00     0.241 C 
ATOM     21  O   LYS d   1      64.784  18.675  60.374  0.00  0.00    -0.271 OA
ATOM     22  H24 ILE d   1      66.344  16.230  61.490  0.00  0.00     0.163 HD
BRANCH  20  23
ATOM     23  CA  LYS d   1      65.367  18.253  62.632  0.00  0.00     0.089 C 
ATOM     24  H12 LYS d   1      66.228  17.759  63.105  0.00  0.00     0.087 H 
BRANCH  23  25
ATOM     25  N   LYS d   1      65.411  19.664  62.892  0.00  0.00    -0.346 N 
ATOM     26  C   HIS d   1      66.235  20.502  62.306  0.00  0.00     0.241 C 
ATOM     27  O   HIS d   1      67.137  20.153  61.590  0.00  0.00    -0.271 OA
ATOM     28  H11 LYS d   1      64.771  20.034  63.565  0.00  0.00     0.163 HD
BRANCH  26  29
ATOM     29  CA  HIS d   1      66.060  21.985  62.704  0.00  0.00     0.094 C 
ATOM     30  H5  HIS d   1      65.804  22.011  63.773  0.00  0.00     0.088 H 
BRANCH  29  31
ATOM     31  N   HIS d   1      67.339  22.678  62.531  0.00  0.00    -0.348 N 
ATOM     32  C   ACE d   1      68.380  22.518  63.334  0.00  0.00     0.214 C 
ATOM     33  O   ACE d   1      69.417  23.135  63.166  0.00  0.00    -0.274 OA
ATOM     34  H4  HIS d   1      67.432  23.309  61.761  0.00  0.00     0.163 HD
BRANCH  32  35
ATOM     35  CH3 ACE d   1      68.231  21.579  64.507  0.00  0.00    -0.003 C 
ATOM     36  H1  ACE d   1      67.231  21.120  64.485  0.00  0.00     0.040 H 
ATOM     37  H2  ACE d   1      68.356  22.141  65.445  0.00  0.00     0.040 H 
ATOM     38  H3  ACE d   1      68.997  20.792  64.446  0.00  0.00     0.040 H 
ENDBRANCH  32  35
ENDBRANCH  29  31
BRANCH  29  39
ATOM     39  CB  HIS d   1      64.920  22.699  61.953  0.00  0.00     0.002 C 
ATOM     40  H6  HIS d   1      64.056  22.019  61.916  0.00  0.00     0.046 H 
ATOM     41  H7  HIS d   1      65.264  22.911  60.930  0.00  0.00     0.046 H 
BRANCH  39  42
ATOM     42  CG  HIS d   1      64.460  24.027  62.591  0.00  0.00     0.030 A 
ATOM     43  ND1 HIS d   1      64.745  25.241  62.126  0.00  0.00    -0.353 N 
ATOM     44  CE1 HIS d   1      64.180  26.109  62.923  0.00  0.00     0.063 A 
ATOM     45  H8  HIS d   1      65.308  25.457  61.291  0.00  0.00     0.166 HD
ATOM     46  NE2 HIS d   1      63.545  25.438  63.848  0.00  0.00    -0.254 NA
ATOM     47  H10 HIS d   1      64.229  27.193  62.833  0.00  0.00     0.143 H 
ATOM     48  CD2 HIS d   1      63.702  24.135  63.661  0.00  0.00     0.025 A 
ATOM     49  H9  HIS d   1      63.291  23.327  64.264  0.00  0.00     0.117 H 
ENDBRANCH  39  42
ENDBRANCH  29  39
ENDBRANCH  26  29
ENDBRANCH  23  25
BRANCH  23  50
ATOM     50  CB  LYS d   1      64.064  17.739  63.212  0.00  0.00    -0.038 C 
ATOM     51  H13 LYS d   1      64.018  16.649  63.069  0.00  0.00     0.036 H 
ATOM     52  H14 LYS d   1      63.227  18.215  62.680  0.00  0.00     0.036 H 
BRANCH  50  53
ATOM     53  CG  LYS d   1      63.937  18.044  64.698  0.00  0.00    -0.061 C 
ATOM     54  H15 LYS d   1      63.915  19.135  64.835  0.00  0.00     0.033 H 
ATOM     55  H16 LYS d   1      64.810  17.626  65.221  0.00  0.00     0.033 H 
BRANCH  53  56
ATOM     56  CD  LYS d   1      62.692  17.458  65.294  0.00  0.00    -0.043 C 
ATOM     57  H17 LYS d   1      62.556  16.430  64.927  0.00  0.00     0.035 H 
ATOM     58  H18 LYS d   1      61.823  18.068  65.005  0.00  0.00     0.035 H 
BRANCH  56  59
ATOM     59  CE  LYS d   1      62.822  17.445  66.781  0.00  0.00     0.080 C 
ATOM     60  H19 LYS d   1      63.211  18.421  67.106  0.00  0.00     0.075 H 
ATOM     61  H20 LYS d   1      63.533  16.655  67.063  0.00  0.00     0.075 H 
BRANCH  59  62
ATOM     62  NZ  LYS d   1      61.567  17.199  67.462  0.00  0.00    -0.079 N 
ATOM     63  H21 LYS d   1      61.719  17.202  68.458  0.00  0.00     0.274 HD
ATOM     64  H22 LYS d   1      61.202  16.302  67.181  0.00  0.00     0.274 HD
ATOM     65  H23 LYS d   1      60.907  17.921  67.221  0.00  0.00     0.274 HD
ENDBRANCH  59  62
ENDBRANCH  56  59
ENDBRANCH  53  56
ENDBRANCH  50  53
ENDBRANCH  23  50
ENDBRANCH  20  23
ENDBRANCH  17  19
BRANCH  17  66
ATOM     66  CB  ILE d   1      67.001  15.405  58.953  0.00  0.00    -0.030 C 
ATOM     67  H26 ILE d   1      67.551  15.920  58.151  0.00  0.00     0.043 H 
BRANCH  66  68
ATOM     68  CG1 ILE d   1      68.056  15.118  60.002  0.00  0.00    -0.063 C 
ATOM     69  H27 ILE d   1      67.582  14.662  60.884  0.00  0.00     0.033 H 
ATOM     70  H28 ILE d   1      68.548  16.058  60.294  0.00  0.00     0.033 H 
BRANCH  68  71
ATOM     71  CD1 ILE d   1      69.074  14.176  59.440  0.00  0.00    -0.076 C 
ATOM     72  H32 ILE d   1      69.840  13.967  60.201  0.00  0.00     0.027 H 
ATOM     73  H33 ILE d   1      69.548  14.632  58.558  0.00  0.00     0.027 H 
ATOM     74  H34 ILE d   1      68.582  13.236  59.148  0.00  0.00     0.027 H 
ENDBRANCH  68  71
ENDBRANCH  66  68
BRANCH  66  75
ATOM     75  CG2 ILE d   1      66.461  14.175  58.287  0.00  0.00    -0.071 C 
ATOM     76  H29 ILE d   1      65.704  14.463  57.542  0.00  0.00     0.028 H 
ATOM     77  H30 ILE d   1      66.001  13.521  59.042  0.00  0.00     0.028 H 
ATOM     78  H31 ILE d   1      67.281  13.638  57.788  0.00  0.00     0.028 H 
ENDBRANCH  66  75
ENDBRANCH  17  66
ENDBRANCH  14  17
ENDBRANCH  11  13
BRANCH  11  79
ATOM     79  CB  LEU d   1      61.543  14.952  60.598  0.00  0.00    -0.035 C 
ATOM     80  H37 LEU d   1      61.127  15.838  61.100  0.00  0.00     0.037 H 
ATOM     81  H38 LEU d   1      62.295  14.481  61.248  0.00  0.00     0.037 H 
BRANCH  79  82
ATOM     82  CG  LEU d   1      60.435  13.978  60.405  0.00  0.00    -0.059 C 
ATOM     83  H39 LEU d   1      60.881  12.983  60.260  0.00  0.00     0.038 H 
BRANCH  82  84
ATOM     84  CD1 LEU d   1      59.554  13.930  61.600  0.00  0.00    -0.073 C 
ATOM     85  H40 LEU d   1      58.745  13.204  61.430  0.00  0.00     0.028 H 
ATOM     86  H41 LEU d   1      59.121  14.926  61.777  0.00  0.00     0.028 H 
ATOM     87  H42 LEU d   1      60.143  13.625  62.478  0.00  0.00     0.028 H 
ENDBRANCH  82  84
BRANCH  82  88
ATOM     88  CD2 LEU d   1      59.606  14.299  59.207  0.00  0.00    -0.073 C 
ATOM     89  H43 LEU d   1      60.249  14.337  58.316  0.00  0.00     0.028 H 
ATOM     90  H44 LEU d   1      59.118  15.275  59.349  0.00  0.00     0.028 H 
ATOM     91  H45 LEU d   1      58.839  13.522  59.073  0.00  0.00     0.028 H 
ENDBRANCH  82  88
ENDBRANCH  79  82
ENDBRANCH  11  79
ENDBRANCH   8  11
ENDBRANCH   5   7
BRANCH   5  92
ATOM     92  CB  HIS d   1      61.979  20.036  60.451  0.00  0.00     0.002 C 
ATOM     93  H48 HIS d   1      63.073  20.053  60.337  0.00  0.00     0.046 H 
ATOM     94  H49 HIS d   1      61.721  19.693  61.464  0.00  0.00     0.046 H 
BRANCH  92  95
ATOM     95  CG  HIS d   1      61.445  21.413  60.251  0.00  0.00     0.030 A 
ATOM     96  ND1 HIS d   1      61.962  22.250  59.414  0.00  0.00    -0.353 N 
ATOM     97  CE1 HIS d   1      61.247  23.342  59.508  0.00  0.00     0.063 A 
ATOM     98  H50 HIS d   1      62.772  22.090  58.798  0.00  0.00     0.166 HD
ATOM     99  NE2 HIS d   1      60.310  23.157  60.407  0.00  0.00    -0.254 NA
ATOM    100  H52 HIS d   1      61.404  24.254  58.934  0.00  0.00     0.143 H 
ATOM    101  CD2 HIS d   1      60.437  21.948  60.886  0.00  0.00     0.025 A 
ATOM    102  H51 HIS d   1      59.827  21.481  61.658  0.00  0.00     0.117 H 
ENDBRANCH  92  95
ENDBRANCH   5  92
ENDBRANCH   1   5
BRANCH   3 103
ATOM    103  CA  LYS d   1      63.319  19.400  56.211  0.00  0.00     0.092 C 
ATOM    104  C   LYS d   1      62.670  18.575  55.324  0.00  0.00     0.241 C 
ATOM    105  O   LYS d   1      62.179  19.038  54.321  0.00  0.00    -0.271 OA
ATOM    106  N   LEU d   1      62.557  17.215  55.491  0.00  0.00    -0.346 N 
ATOM    107  CA  LEU d   1      61.873  16.360  54.511  0.00  0.00     0.089 C 
ATOM    108  H62 LEU d   1      62.953  16.794  56.307  0.00  0.00     0.163 HD
ATOM    109  C   LEU d   1      60.511  16.668  54.336  0.00  0.00     0.241 C 
ATOM    110  H63 LEU d   1      62.361  16.534  53.541  0.00  0.00     0.087 H 
ATOM    111  O   LEU d   1      59.942  16.379  53.299  0.00  0.00    -0.271 OA
ATOM    112  N   LEU d   1      59.804  17.293  55.339  0.00  0.00    -0.346 N 
ATOM    113  CA  LEU d   1      58.380  17.617  55.154  0.00  0.00     0.089 C 
ATOM    114  H73 LEU d   1      60.260  17.528  56.197  0.00  0.00     0.163 HD
ATOM    115  C   LEU d   1      58.168  18.606  54.196  0.00  0.00     0.241 C 
ATOM    116  H74 LEU d   1      57.872  16.708  54.798  0.00  0.00     0.087 H 
ATOM    117  O   LEU d   1      57.072  18.853  53.737  0.00  0.00    -0.271 OA
ATOM    118  N   GLN d   1      59.267  19.284  53.715  0.00  0.00    -0.346 N 
ATOM    119  CA  GLN d   1      59.190  20.396  52.719  0.00  0.00     0.090 C 
ATOM    120  H84 GLN d   1      60.169  19.016  54.052  0.00  0.00     0.163 HD
ATOM    121  C   GLN d   1      59.619  20.072  51.419  0.00  0.00     0.241 C 
ATOM    122  H85 GLN d   1      58.143  20.726  52.657  0.00  0.00     0.087 H 
ATOM    123  O   GLN d   1      59.044  20.405  50.406  0.00  0.00    -0.271 OA
ATOM    124  N   ASP d   1      60.742  19.395  51.263  0.00  0.00    -0.346 N 
ATOM    125  CA  ASP d   1      61.383  19.124  49.969  0.00  0.00     0.097 C 
ATOM    126  H92 ASP d   1      61.188  19.041  52.085  0.00  0.00     0.163 HD
ATOM    127  CB  ASP d   1      62.891  18.990  50.108  0.00  0.00     0.036 C 
ATOM    128  H93 ASP d   1      61.210  19.999  49.325  0.00  0.00     0.088 H 
ATOM    129  CG  ASP d   1      63.421  19.820  51.096  0.00  0.00     0.220 C 
ATOM    130  H94 ASP d   1      63.357  19.249  49.145  0.00  0.00     0.051 H 
ATOM    131  H95 ASP d   1      63.129  17.946  50.362  0.00  0.00     0.051 H 
ATOM    132  NZ  LYS d   1      64.628  19.464  51.656  0.00  0.00    -0.358 N 
ATOM    133  OD1 ASP d   1      62.834  20.836  51.484  0.00  0.00    -0.274 OA
ATOM    134  CE  LYS d   1      65.141  20.291  52.768  0.00  0.00     0.010 C 
ATOM    135  H61 LYS d   1      65.140  18.673  51.321  0.00  0.00     0.162 HD
ATOM    136  CD  LYS d   1      65.062  19.316  53.954  0.00  0.00    -0.090 C 
ATOM    137  H59 LYS d   1      66.177  20.612  52.583  0.00  0.00     0.070 H 
ATOM    138  H60 LYS d   1      64.507  21.175  52.934  0.00  0.00     0.070 H 
ATOM    139  CG  LYS d   1      65.451  19.890  55.204  0.00  0.00    -0.103 C 
ATOM    140  H58 LYS d   1      64.739  18.281  53.851  0.00  0.00     0.078 H 
ATOM    141  CB  LYS d   1      64.770  19.111  56.220  0.00  0.00    -0.023 C 
ATOM    142  H57 LYS d   1      66.119  20.736  55.361  0.00  0.00     0.076 H 
ATOM    143  H55 LYS d   1      64.927  18.041  56.021  0.00  0.00     0.042 H 
ATOM    144  H56 LYS d   1      65.183  19.364  57.207  0.00  0.00     0.042 H 
ATOM    145  H54 LYS d   1      63.137  20.447  55.925  0.00  0.00     0.088 H 
BRANCH 107 146
ATOM    146  CB  LEU d   1      62.077  14.891  54.864  0.00  0.00    -0.035 C 
ATOM    147  H64 LEU d   1      61.565  14.255  54.127  0.00  0.00     0.037 H 
ATOM    148  H65 LEU d   1      61.672  14.688  55.867  0.00  0.00     0.037 H 
BRANCH 146 149
ATOM    149  CG  LEU d   1      63.559  14.608  54.843  0.00  0.00    -0.059 C 
ATOM    150  H66 LEU d   1      64.088  15.452  55.309  0.00  0.00     0.038 H 
BRANCH 149 151
ATOM    151  CD1 LEU d   1      63.881  13.355  55.587  0.00  0.00    -0.073 C 
ATOM    152  H67 LEU d   1      64.966  13.177  55.553  0.00  0.00     0.028 H 
ATOM    153  H68 LEU d   1      63.356  12.507  55.122  0.00  0.00     0.028 H 
ATOM    154  H69 LEU d   1      63.559  13.457  56.634  0.00  0.00     0.028 H 
ENDBRANCH 149 151
BRANCH 149 155
ATOM    155  CD2 LEU d   1      64.036  14.439  53.413  0.00  0.00    -0.073 C 
ATOM    156  H70 LEU d   1      63.810  15.351  52.841  0.00  0.00     0.028 H 
ATOM    157  H71 LEU d   1      63.522  13.582  52.954  0.00  0.00     0.028 H 
ATOM    158  H72 LEU d   1      65.122  14.262  53.407  0.00  0.00     0.028 H 
ENDBRANCH 149 155
ENDBRANCH 146 149
ENDBRANCH 107 146
BRANCH 113 159
ATOM    159  CB  LEU d   1      57.787  17.987  56.499  0.00  0.00    -0.035 C 
ATOM    160  H75 LEU d   1      56.868  18.576  56.359  0.00  0.00     0.037 H 
ATOM    161  H76 LEU d   1      58.512  18.572  57.085  0.00  0.00     0.037 H 
BRANCH 159 162
ATOM    162  CG  LEU d   1      57.471  16.691  57.207  0.00  0.00    -0.059 C 
ATOM    163  H77 LEU d   1      58.283  15.970  57.030  0.00  0.00     0.038 H 
BRANCH 162 164
ATOM    164  CD1 LEU d   1      57.308  16.910  58.675  0.00  0.00    -0.073 C 
ATOM    165  H78 LEU d   1      57.079  15.952  59.165  0.00  0.00     0.028 H 
ATOM    166  H79 LEU d   1      56.485  17.618  58.851  0.00  0.00     0.028 H 
ATOM    167  H80 LEU d   1      58.240  17.321  59.090  0.00  0.00     0.028 H 
ENDBRANCH 162 164
BRANCH 162 168
ATOM    168  CD2 LEU d   1      56.175  16.148  56.670  0.00  0.00    -0.073 C 
ATOM    169  H81 LEU d   1      56.269  15.978  55.587  0.00  0.00     0.028 H 
ATOM    170  H82 LEU d   1      55.368  16.872  56.858  0.00  0.00     0.028 H 
ATOM    171  H83 LEU d   1      55.940  15.198  57.172  0.00  0.00     0.028 H 
ENDBRANCH 162 168
ENDBRANCH 159 162
ENDBRANCH 113 159
BRANCH 119 172
ATOM    172  CB  GLN d   1      60.051  21.536  53.239  0.00  0.00    -0.030 C 
ATOM    173  H86 GLN d   1      59.901  22.418  52.599  0.00  0.00     0.037 H 
ATOM    174  H87 GLN d   1      61.107  21.231  53.202  0.00  0.00     0.037 H 
BRANCH 172 175
ATOM    175  CG  GLN d   1      59.688  21.904  54.688  0.00  0.00     0.011 C 
ATOM    176  H88 GLN d   1      59.890  21.036  55.332  0.00  0.00     0.047 H 
ATOM    177  H89 GLN d   1      58.617  22.150  54.730  0.00  0.00     0.047 H 
BRANCH 175 178
ATOM    178  CD  GLN d   1      60.482  23.094  55.211  0.00  0.00     0.215 C 
ATOM    179  OE1 GLN d   1      60.321  24.193  54.753  0.00  0.00    -0.274 OA
ATOM    180  NE2 GLN d   1      61.347  22.836  56.127  0.00  0.00    -0.370 N 
ATOM    181  H90 GLN d   1      61.901  23.573  56.513  0.00  0.00     0.159 HD
ATOM    182  H91 GLN d   1      61.465  21.898  56.453  0.00  0.00     0.159 HD
ENDBRANCH 175 178
ENDBRANCH 172 175
ENDBRANCH 119 172
BRANCH 125 183
ATOM    183  C   ASP d   1      60.746  18.051  49.363  0.00  0.00     0.241 C 
ATOM    184  O   ASP d   1      60.861  16.913  49.800  0.00  0.00    -0.271 OA
ATOM    185  N   SER d   1      59.934  18.440  48.377  0.00  0.00    -0.344 N 
ATOM    186  H96 SER d   1      59.971  19.409  48.132  0.00  0.00     0.163 HD
BRANCH 185 187
ATOM    187  CA  SER d   1      59.002  17.621  47.616  0.00  0.00     0.109 C 
ATOM    188  H97 SER d   1      59.273  17.586  46.551  0.00  0.00     0.090 H 
BRANCH 187 189
ATOM    189  C   SER d   1      57.681  18.367  47.875  0.00  0.00     0.240 C 
ATOM    190  O   SER d   1      56.896  18.645  46.979  0.00  0.00    -0.271 OA
ATOM    191  N   NH2 d   1      57.459  18.682  49.146  0.00  0.00    -0.368 N 
ATOM    192 1H10 NH2 d   1      56.623  19.168  49.402  0.00  0.00     0.159 HD
ATOM    193 2H10 NH2 d   1      58.127  18.433  49.847  0.00  0.00     0.159 HD
ENDBRANCH 187 189
BRANCH 187 194
ATOM    194  CB  SER d   1      58.830  16.197  48.169  0.00  0.00     0.044 C 
ATOM    195  H98 SER d   1      57.788  15.898  47.981  0.00  0.00     0.077 H 
ATOM    196  H99 SER d   1      59.007  16.245  49.254  0.00  0.00     0.077 H 
BRANCH 194 197
ATOM    197  OG  SER d   1      59.681  15.145  47.641  0.00  0.00    -0.398 OA
ATOM    198 0H10 SER d   1      60.591  15.363  47.805  0.00  0.00     0.209 HD
ENDBRANCH 194 197
ENDBRANCH 187 194
ENDBRANCH 185 187
ENDBRANCH 125 183
ENDBRANCH   3 103
TORSDOF 45
