REMARK  29 active torsions:
REMARK  status: ('A' for Active; 'I' for Inactive)
REMARK    1  A    between atoms: C_1  and  CH3_3 
REMARK       I    between atoms: N_4  and  C_1 
REMARK    2  A    between atoms: CA_5  and  N_4 
REMARK    3  A    between atoms: C_6  and  CA_5 
REMARK    4  A    between atoms: CA_5  and  CB_8 
REMARK       I    between atoms: N_14  and  C_6 
REMARK    5  A    between atoms: CB_8  and  CG_9 
REMARK    6  A    between atoms: CA_15  and  N_14 
REMARK    7  A    between atoms: C_16  and  CA_15 
REMARK    8  A    between atoms: CA_15  and  CB_18 
REMARK       I    between atoms: N_24  and  C_16 
REMARK    9  A    between atoms: CB_18  and  CG_19 
REMARK   10  A    between atoms: CG_19  and  CD_20 
REMARK   11  A    between atoms: CD_20  and  CE_21 
REMARK   12  A    between atoms: CE_21  and  NZ_22 
REMARK   13  A    between atoms: CA_26  and  N_24 
REMARK   14  A    between atoms: CA_26  and  CB1_31 
REMARK   15  A    between atoms: CA_33  and  CB_36 
REMARK   16  A    between atoms: CB_36  and  CG_37 
REMARK   17  A    between atoms: CG_37  and  CD1_38 
REMARK   18  A    between atoms: CG_37  and  CD2_39 
REMARK   19  A    between atoms: CA_41  and  CB_44 
REMARK   20  A    between atoms: CB_44  and  CG_45 
REMARK   21  A    between atoms: CA_62  and  CB1_67 
REMARK   22  A    between atoms: CA_69  and  CB_72 
REMARK   23  A    between atoms: CB_72  and  CG_73 
REMARK   24  A    between atoms: CG_73  and  CD1_74 
REMARK   25  A    between atoms: CG_73  and  CD2_75 
REMARK   26  A    between atoms: CA_77  and  CB_80 
REMARK   27  A    between atoms: CB_80  and  CG_81 
REMARK   28  A    between atoms: CG_81  and  CD_82 
REMARK   29  A    between atoms: CA_86  and  C_87 
ROOT
ATOM      1  N   HIS d   1     -15.858  -1.650   4.891  0.00  0.00    -0.346 N 
ATOM      2  CA  HIS d   1     -16.949  -2.553   4.545  0.00  0.00     0.094 C 
ATOM      3  C   HIS d   1     -17.780  -2.783   5.601  0.00  0.00     0.241 C 
ATOM      4  O   HIS d   1     -18.955  -2.899   5.378  0.00  0.00    -0.271 OA
ATOM      5  H46 HIS d   1     -14.920  -1.980   4.789  0.00  0.00     0.163 HD
ATOM      6  H47 HIS d   1     -17.533  -2.097   3.732  0.00  0.00     0.088 H 
ATOM      7  N   LYS d   1     -17.351  -2.897   6.914  0.00  0.00    -0.346 N 
ATOM      8  CA  LYS d   1     -18.306  -3.175   7.979  0.00  0.00     0.089 C 
ATOM      9  C   LYS d   1     -18.915  -2.060   8.357  0.00  0.00     0.241 C 
ATOM     10  O   LYS d   1     -20.054  -2.138   8.740  0.00  0.00    -0.271 OA
ATOM     11  CB  LYS d   1     -17.734  -3.801   9.178  0.00  0.00    -0.038 C 
ATOM     12  CG  LYS d   1     -18.860  -4.562   9.808  0.00  0.00    -0.061 C 
ATOM     13  CD  LYS d   1     -18.836  -4.392  11.258  0.00  0.00    -0.050 C 
ATOM     14  CE  LYS d   1     -20.008  -3.615  11.671  0.00  0.00    -0.005 C 
ATOM     15  NZ  LYS d   1     -21.149  -4.377  11.318  0.00  0.00    -0.361 N 
ATOM     16  H53 LYS d   1     -16.381  -2.788   7.132  0.00  0.00     0.163 HD
ATOM     17  H54 LYS d   1     -19.058  -3.864   7.569  0.00  0.00     0.087 H 
ATOM     18  H55 LYS d   1     -17.355  -3.034   9.869  0.00  0.00     0.036 H 
ATOM     19  H56 LYS d   1     -16.916  -4.483   8.903  0.00  0.00     0.036 H 
ATOM     20  H57 LYS d   1     -18.757  -5.630   9.566  0.00  0.00     0.033 H 
ATOM     21  H58 LYS d   1     -19.816  -4.188   9.414  0.00  0.00     0.033 H 
ATOM     22  H59 LYS d   1     -17.919  -3.859  11.551  0.00  0.00     0.035 H 
ATOM     23  H60 LYS d   1     -18.858  -5.378  11.745  0.00  0.00     0.035 H 
ATOM     24  H61 LYS d   1     -20.023  -2.647  11.150  0.00  0.00     0.064 H 
ATOM     25  H62 LYS d   1     -19.987  -3.446  12.758  0.00  0.00     0.064 H 
ATOM     26  H63 LYS d   1     -21.093  -5.375  11.326  0.00  0.00     0.162 HD
ATOM     27  C   MK8 d   1     -14.136  -0.936   7.587  0.00  0.00     0.246 C 
ATOM     28  O   MK8 d   1     -15.190  -0.783   8.177  0.00  0.00    -0.271 OA
ATOM     29  CA  MK8 d   1     -13.068  -1.670   8.091  0.00  0.00     0.110 C 
ATOM     30  CB  MK8 d   1     -12.139  -0.762   8.824  0.00  0.00    -0.033 C 
ATOM     31  CD  MK8 d   1     -13.376   1.313   9.397  0.00  0.00    -0.050 C 
ATOM     32  CE  MK8 d   1     -13.882   2.003  10.461  0.00  0.00    -0.107 C 
ATOM     33  CG  MK8 d   1     -12.831   0.019   9.938  0.00  0.00    -0.059 C 
ATOM     34  C   MK8 d   1     -20.030   0.652   7.916  0.00  0.00     0.246 C 
ATOM     35  N   MK8 d   1     -18.262  -0.856   8.326  0.00  0.00    -0.342 N 
ATOM     36  O   MK8 d   1     -20.984   1.286   8.297  0.00  0.00    -0.271 OA
ATOM     37  CA  MK8 d   1     -18.989   0.348   8.771  0.00  0.00     0.110 C 
ATOM     38  CB  MK8 d   1     -18.148   1.539   8.813  0.00  0.00    -0.033 C 
ATOM     39  CD  MK8 d   1     -16.016   2.393   9.472  0.00  0.00    -0.050 C 
ATOM     40  CE  MK8 d   1     -15.174   2.479  10.546  0.00  0.00    -0.107 C 
ATOM     41  CG  MK8 d   1     -16.937   1.253   9.592  0.00  0.00    -0.059 C 
ATOM     42  H25 MK8 d   1     -11.709  -0.046   8.108  0.00  0.00     0.037 H 
ATOM     43  H26 MK8 d   1     -11.334  -1.366   9.267  0.00  0.00     0.037 H 
ATOM     44  H27 MK8 d   1     -12.572   1.891   8.918  0.00  0.00     0.038 H 
ATOM     45  H28 MK8 d   1     -14.171   1.112   8.663  0.00  0.00     0.038 H 
ATOM     46  H29 MK8 d   1     -13.218   2.191  11.303  0.00  0.00     0.076 H 
ATOM     47  H30 MK8 d   1     -12.106   0.235  10.736  0.00  0.00     0.033 H 
ATOM     48  H31 MK8 d   1     -13.657  -0.582  10.345  0.00  0.00     0.033 H 
ATOM     49  H64 MK8 d   1     -17.315  -0.795   8.009  0.00  0.00     0.163 HD
ATOM     50  H65 MK8 d   1     -18.702   2.363   9.286  0.00  0.00     0.037 H 
ATOM     51  H66 MK8 d   1     -17.866   1.826   7.789  0.00  0.00     0.037 H 
ATOM     52  H67 MK8 d   1     -15.416   2.272   8.558  0.00  0.00     0.038 H 
ATOM     53  H68 MK8 d   1     -16.604   3.320   9.405  0.00  0.00     0.038 H 
ATOM     54  H69 MK8 d   1     -15.526   2.926  11.475  0.00  0.00     0.076 H 
ATOM     55  H70 MK8 d   1     -16.453   0.345   9.203  0.00  0.00     0.033 H 
ATOM     56  H71 MK8 d   1     -17.204   1.103  10.649  0.00  0.00     0.033 H 
ATOM     57  N   LEU d   1     -13.978  -0.357   6.368  0.00  0.00    -0.346 N 
ATOM     58  CA  LEU d   1     -15.001   0.432   5.722  0.00  0.00     0.089 C 
ATOM     59  C   LEU d   1     -16.048  -0.387   5.344  0.00  0.00     0.241 C 
ATOM     60  O   LEU d   1     -17.187  -0.015   5.487  0.00  0.00    -0.271 OA
ATOM     61  N   LEU d   1     -19.942   0.315   6.605  0.00  0.00    -0.346 N 
ATOM     62  CA  LEU d   1     -20.999   0.622   5.682  0.00  0.00     0.089 C 
ATOM     63  C   LEU d   1     -22.003  -0.290   5.836  0.00  0.00     0.241 C 
ATOM     64  O   LEU d   1     -23.150   0.022   5.648  0.00  0.00    -0.271 OA
ATOM     65  H35 LEU d   1     -13.107  -0.484   5.893  0.00  0.00     0.163 HD
ATOM     66  H36 LEU d   1     -15.386   1.190   6.420  0.00  0.00     0.087 H 
ATOM     67  H75 LEU d   1     -19.125  -0.157   6.274  0.00  0.00     0.163 HD
ATOM     68  H76 LEU d   1     -21.384   1.634   5.876  0.00  0.00     0.087 H 
ATOM     69  N   GLN d   1     -21.733  -1.581   6.138  0.00  0.00    -0.346 N 
ATOM     70  CA  GLN d   1     -22.755  -2.622   6.303  0.00  0.00     0.090 C 
ATOM     71  C   GLN d   1     -23.444  -2.482   7.501  0.00  0.00     0.241 C 
ATOM     72  O   GLN d   1     -24.557  -2.983   7.598  0.00  0.00    -0.271 OA
ATOM     73  H86 GLN d   1     -20.775  -1.843   6.256  0.00  0.00     0.163 HD
ATOM     74  H87 GLN d   1     -23.468  -2.543   5.469  0.00  0.00     0.087 H 
ATOM     75  N   ASP d   1     -22.837  -1.966   8.613  0.00  0.00    -0.344 N 
ATOM     76  CA  ASP d   1     -23.512  -1.990   9.877  0.00  0.00     0.104 C 
ATOM     77  CB  ASP d   1     -22.497  -2.412  10.956  0.00  0.00     0.037 C 
ATOM     78  CG  ASP d   1     -22.316  -3.781  10.969  0.00  0.00     0.220 C 
ATOM     79  OD1 ASP d   1     -23.222  -4.543  10.709  0.00  0.00    -0.274 OA
ATOM     80  H94 ASP d   1     -21.921  -1.571   8.544  0.00  0.00     0.163 HD
ATOM     81  H95 ASP d   1     -24.316  -2.740   9.849  0.00  0.00     0.090 H 
ATOM     82  H96 ASP d   1     -22.867  -2.091  11.941  0.00  0.00     0.051 H 
ATOM     83  H97 ASP d   1     -21.532  -1.925  10.750  0.00  0.00     0.051 H 
ENDROOT
BRANCH  29  84
ATOM     84  N   MK8 d   1     -12.328  -2.303   7.014  0.00  0.00    -0.342 N 
ATOM     85  C   LYS d   1     -12.855  -3.285   6.285  0.00  0.00     0.241 C 
ATOM     86  O   LYS d   1     -13.952  -3.731   6.506  0.00  0.00    -0.271 OA
ATOM     87  H24 MK8 d   1     -11.398  -1.994   6.814  0.00  0.00     0.163 HD
BRANCH  85  88
ATOM     88  CA  LYS d   1     -12.040  -3.840   5.136  0.00  0.00     0.089 C 
ATOM     89  H12 LYS d   1     -11.023  -4.097   5.466  0.00  0.00     0.087 H 
BRANCH  88  90
ATOM     90  N   LYS d   1     -12.727  -5.020   4.611  0.00  0.00    -0.346 N 
ATOM     91  C   HIS d   1     -12.222  -5.873   3.696  0.00  0.00     0.241 C 
ATOM     92  O   HIS d   1     -11.093  -5.845   3.240  0.00  0.00    -0.271 OA
ATOM     93  H11 LYS d   1     -13.645  -5.210   4.958  0.00  0.00     0.163 HD
BRANCH  91  94
ATOM     94  CA  HIS d   1     -13.148  -7.026   3.269  0.00  0.00     0.094 C 
ATOM     95  H5  HIS d   1     -13.720  -6.703   2.387  0.00  0.00     0.088 H 
BRANCH  94  96
ATOM     96  N   HIS d   1     -12.317  -8.171   2.923  0.00  0.00    -0.348 N 
ATOM     97  C   ACE d   1     -12.161  -8.648   1.688  0.00  0.00     0.214 C 
ATOM     98  O   ACE d   1     -11.438  -9.608   1.440  0.00  0.00    -0.274 OA
ATOM     99  H4  HIS d   1     -11.829  -8.632   3.664  0.00  0.00     0.163 HD
BRANCH  97 100
ATOM    100  CH3 ACE d   1     -12.921  -7.925   0.569  0.00  0.00    -0.003 C 
ATOM    101  H1  ACE d   1     -13.507  -7.099   0.998  0.00  0.00     0.040 H 
ATOM    102  H2  ACE d   1     -13.597  -8.633   0.068  0.00  0.00     0.040 H 
ATOM    103  H3  ACE d   1     -12.203  -7.524  -0.162  0.00  0.00     0.040 H 
ENDBRANCH  97 100
ENDBRANCH  94  96
BRANCH  94 104
ATOM    104  CB  HIS d   1     -14.128  -7.472   4.342  0.00  0.00     0.002 C 
ATOM    105  H6  HIS d   1     -14.415  -8.516   4.151  0.00  0.00     0.046 H 
ATOM    106  H7  HIS d   1     -15.021  -6.832   4.297  0.00  0.00     0.046 H 
BRANCH 104 107
ATOM    107  CG  HIS d   1     -13.522  -7.375   5.730  0.00  0.00     0.030 A 
ATOM    108  ND1 HIS d   1     -14.119  -6.837   6.765  0.00  0.00    -0.353 N 
ATOM    109  CE1 HIS d   1     -13.236  -6.943   7.751  0.00  0.00     0.063 A 
ATOM    110  H8  HIS d   1     -15.062  -6.424   6.805  0.00  0.00     0.166 HD
ATOM    111  NE2 HIS d   1     -12.132  -7.516   7.290  0.00  0.00    -0.254 NA
ATOM    112  H10 HIS d   1     -13.393  -6.612   8.776  0.00  0.00     0.143 H 
ATOM    113  CD2 HIS d   1     -12.301  -7.781   6.020  0.00  0.00     0.025 A 
ATOM    114  H9  HIS d   1     -11.583  -8.241   5.343  0.00  0.00     0.117 H 
ENDBRANCH 104 107
ENDBRANCH  94 104
ENDBRANCH  91  94
ENDBRANCH  88  90
BRANCH  88 115
ATOM    115  CB  LYS d   1     -12.004  -2.778   4.041  0.00  0.00    -0.038 C 
ATOM    116  H13 LYS d   1     -11.952  -1.785   4.512  0.00  0.00     0.036 H 
ATOM    117  H14 LYS d   1     -12.925  -2.853   3.445  0.00  0.00     0.036 H 
BRANCH 115 118
ATOM    118  CG  LYS d   1     -10.806  -2.944   3.115  0.00  0.00    -0.061 C 
ATOM    119  H15 LYS d   1     -10.210  -3.808   3.446  0.00  0.00     0.033 H 
ATOM    120  H16 LYS d   1     -10.188  -2.035   3.157  0.00  0.00     0.033 H 
BRANCH 118 121
ATOM    121  CD  LYS d   1     -11.263  -3.171   1.686  0.00  0.00    -0.043 C 
ATOM    122  H17 LYS d   1     -12.362  -3.163   1.647  0.00  0.00     0.035 H 
ATOM    123  H18 LYS d   1     -10.891  -4.144   1.333  0.00  0.00     0.035 H 
BRANCH 121 124
ATOM    124  CE  LYS d   1     -10.716  -2.065   0.795  0.00  0.00     0.080 C 
ATOM    125  H19 LYS d   1      -9.656  -1.913   1.046  0.00  0.00     0.075 H 
ATOM    126  H20 LYS d   1     -11.278  -1.143   1.005  0.00  0.00     0.075 H 
BRANCH 124 127
ATOM    127  NZ  LYS d   1     -10.813  -2.346  -0.644  0.00  0.00    -0.079 N 
ATOM    128  H21 LYS d   1     -10.432  -1.571  -1.164  0.00  0.00     0.274 HD
ATOM    129  H22 LYS d   1     -11.780  -2.477  -0.896  0.00  0.00     0.274 HD
ATOM    130  H23 LYS d   1     -10.293  -3.182  -0.859  0.00  0.00     0.274 HD
ENDBRANCH 124 127
ENDBRANCH 121 124
ENDBRANCH 118 121
ENDBRANCH 115 118
ENDBRANCH  88 115
ENDBRANCH  85  88
ENDBRANCH  29  84
BRANCH  29 131
ATOM    131  CB1 MK8 d   1     -13.548  -2.759   9.002  0.00  0.00    -0.044 C 
ATOM    132  H32 MK8 d   1     -14.116  -2.317   9.834  0.00  0.00     0.031 H 
ATOM    133  H33 MK8 d   1     -12.684  -3.312   9.400  0.00  0.00     0.031 H 
ATOM    134  H34 MK8 d   1     -14.197  -3.447   8.441  0.00  0.00     0.031 H 
ENDBRANCH  29 131
BRANCH  58 135
ATOM    135  CB  LEU d   1     -14.326   1.129   4.555  0.00  0.00    -0.035 C 
ATOM    136  H37 LEU d   1     -14.323   0.422   3.712  0.00  0.00     0.037 H 
ATOM    137  H38 LEU d   1     -13.290   1.342   4.859  0.00  0.00     0.037 H 
BRANCH 135 138
ATOM    138  CG  LEU d   1     -14.918   2.424   4.050  0.00  0.00    -0.059 C 
ATOM    139  H39 LEU d   1     -14.167   3.225   4.115  0.00  0.00     0.038 H 
BRANCH 138 140
ATOM    140  CD1 LEU d   1     -15.299   2.157   2.641  0.00  0.00    -0.073 C 
ATOM    141  H40 LEU d   1     -15.742   3.064   2.203  0.00  0.00     0.028 H 
ATOM    142  H41 LEU d   1     -16.033   1.338   2.608  0.00  0.00     0.028 H 
ATOM    143  H42 LEU d   1     -14.405   1.871   2.067  0.00  0.00     0.028 H 
ENDBRANCH 138 140
BRANCH 138 144
ATOM    144  CD2 LEU d   1     -16.162   2.851   4.757  0.00  0.00    -0.073 C 
ATOM    145  H43 LEU d   1     -15.930   3.062   5.811  0.00  0.00     0.028 H 
ATOM    146  H44 LEU d   1     -16.911   2.047   4.700  0.00  0.00     0.028 H 
ATOM    147  H45 LEU d   1     -16.561   3.759   4.281  0.00  0.00     0.028 H 
ENDBRANCH 138 144
ENDBRANCH 135 138
ENDBRANCH  58 135
BRANCH   2 148
ATOM    148  CB  HIS d   1     -16.379  -3.889   4.062  0.00  0.00     0.002 C 
ATOM    149  H48 HIS d   1     -15.913  -4.393   4.922  0.00  0.00     0.046 H 
ATOM    150  H49 HIS d   1     -15.613  -3.679   3.301  0.00  0.00     0.046 H 
BRANCH 148 151
ATOM    151  CG  HIS d   1     -17.403  -4.839   3.454  0.00  0.00     0.030 A 
ATOM    152  ND1 HIS d   1     -17.977  -5.821   4.100  0.00  0.00    -0.353 N 
ATOM    153  CE1 HIS d   1     -18.760  -6.413   3.244  0.00  0.00     0.063 A 
ATOM    154  H50 HIS d   1     -17.838  -6.075   5.088  0.00  0.00     0.166 HD
ATOM    155  NE2 HIS d   1     -18.676  -5.807   2.089  0.00  0.00    -0.254 NA
ATOM    156  H52 HIS d   1     -19.387  -7.278   3.457  0.00  0.00     0.143 H 
ATOM    157  CD2 HIS d   1     -17.817  -4.825   2.214  0.00  0.00     0.025 A 
ATOM    158  H51 HIS d   1     -17.508  -4.130   1.434  0.00  0.00     0.117 H 
ENDBRANCH 148 151
ENDBRANCH   2 148
BRANCH  37 159
ATOM    159  CB1 MK8 d   1     -19.471   0.076  10.177  0.00  0.00    -0.044 C 
ATOM    160  H72 MK8 d   1     -20.022   0.952  10.552  0.00  0.00     0.031 H 
ATOM    161  H73 MK8 d   1     -18.607  -0.121  10.829  0.00  0.00     0.031 H 
ATOM    162  H74 MK8 d   1     -20.135  -0.801  10.174  0.00  0.00     0.031 H 
ENDBRANCH  37 159
BRANCH  62 163
ATOM    163  CB  LEU d   1     -20.453   0.546   4.284  0.00  0.00    -0.035 C 
ATOM    164  H77 LEU d   1     -21.273   0.288   3.597  0.00  0.00     0.037 H 
ATOM    165  H78 LEU d   1     -19.683  -0.238   4.247  0.00  0.00     0.037 H 
BRANCH 163 166
ATOM    166  CG  LEU d   1     -19.842   1.845   3.842  0.00  0.00    -0.059 C 
ATOM    167  H79 LEU d   1     -19.147   2.218   4.609  0.00  0.00     0.038 H 
BRANCH 166 168
ATOM    168  CD1 LEU d   1     -19.117   1.622   2.538  0.00  0.00    -0.073 C 
ATOM    169  H80 LEU d   1     -18.665   2.567   2.204  0.00  0.00     0.028 H 
ATOM    170  H81 LEU d   1     -19.829   1.268   1.778  0.00  0.00     0.028 H 
ATOM    171  H82 LEU d   1     -18.328   0.869   2.681  0.00  0.00     0.028 H 
ENDBRANCH 166 168
BRANCH 166 172
ATOM    172  CD2 LEU d   1     -20.935   2.847   3.595  0.00  0.00    -0.073 C 
ATOM    173  H83 LEU d   1     -21.483   3.030   4.531  0.00  0.00     0.028 H 
ATOM    174  H84 LEU d   1     -21.628   2.455   2.836  0.00  0.00     0.028 H 
ATOM    175  H85 LEU d   1     -20.495   3.789   3.237  0.00  0.00     0.028 H 
ENDBRANCH 166 172
ENDBRANCH 163 166
ENDBRANCH  62 163
BRANCH  70 176
ATOM    176  CB  GLN d   1     -22.118  -4.017   6.291  0.00  0.00    -0.031 C 
ATOM    177  H88 GLN d   1     -21.326  -4.041   7.054  0.00  0.00     0.037 H 
ATOM    178  H89 GLN d   1     -21.676  -4.186   5.298  0.00  0.00     0.037 H 
BRANCH 176 179
ATOM    179  CG  GLN d   1     -23.090  -5.148   6.578  0.00  0.00    -0.001 C 
ATOM    180  H90 GLN d   1     -23.837  -5.176   5.771  0.00  0.00     0.045 H 
ATOM    181  H91 GLN d   1     -23.592  -4.939   7.535  0.00  0.00     0.045 H 
BRANCH 179 182
ATOM    182  CD  GLN d   1     -22.436  -6.510   6.670  0.00  0.00     0.149 C 
ATOM    183  OE1 GLN d   1     -23.002  -7.394   7.494  0.00  0.00    -0.178 OA
ATOM    184  NE2 GLN d   1     -21.395  -6.748   5.914  0.00  0.00    -0.381 N 
ATOM    185  H92 GLN d   1     -20.942  -7.639   5.953  0.00  0.00     0.158 HD
ATOM    186  H93 GLN d   1     -21.052  -6.039   5.297  0.00  0.00     0.158 HD
ENDBRANCH 179 182
ENDBRANCH 176 179
ENDBRANCH  70 176
BRANCH  76 187
ATOM    187  C   ASP d   1     -24.082  -0.760  10.082  0.00  0.00     0.197 C 
ATOM    188  O   ASP d   1     -25.295  -0.676  10.182  0.00  0.00    -0.646 OA
ATOM    189  OXT ASP d   1     -23.363   0.223  10.160  0.00  0.00    -0.646 OA
ENDBRANCH  76 187
TORSDOF 29
