REMARK  9 active torsions:
REMARK  status: ('A' for Active; 'I' for Inactive)
REMARK    1  A    between atoms: C1_2  and  O1_4 
REMARK    2  A    between atoms: O1_4  and  C2_5 
REMARK    3  A    between atoms: C3_6  and  O2_7 
REMARK    4  A    between atoms: O2_7  and  C8_8 
REMARK    5  A    between atoms: C5_15  and  C12_17 
REMARK    6  A    between atoms: C12_17  and  C13_19 
REMARK    7  A    between atoms: C13_19  and  C14_20 
REMARK    8  A    between atoms: C14_20  and  C16_21 
REMARK    9  A    between atoms: C14_20  and  C15_22 
ROOT
ATOM      1  C2  R91 d   1       5.760  -2.675  58.975  0.00  0.00     0.108 A 
ATOM      2  C3  R91 d   1       4.837  -3.186  58.080  0.00  0.00     0.103 A 
ATOM      3  C7  R91 d   1       6.666  -1.701  58.543  0.00  0.00    -0.047 A 
ATOM      4  C6  R91 d   1       6.639  -1.257  57.222  0.00  0.00    -0.067 A 
ATOM      5  C5  R91 d   1       5.707  -1.779  56.325  0.00  0.00     0.013 A 
ATOM      6  C4  R91 d   1       4.813  -2.741  56.761  0.00  0.00    -0.035 A 
ATOM      7  H9  R91 d   1       7.391  -1.291  59.237  0.00  0.00     0.087 H 
ATOM      8  H10 R91 d   1       7.345  -0.504  56.891  0.00  0.00     0.085 H 
ATOM      9  H11 R91 d   1       4.087  -3.152  56.069  0.00  0.00     0.089 H 
ENDROOT
BRANCH   5  10
ATOM     10  C12 R91 d   1       5.592  -1.343  54.892  0.00  0.00     0.160 C 
ATOM     11  O4  R91 d   1       4.524  -1.521  54.315  0.00  0.00    -0.292 OA
BRANCH  10  12
ATOM     12  C13 R91 d   1       6.729  -0.680  54.150  0.00  0.00    -0.003 C 
ATOM     13  H12 R91 d   1       7.526  -0.419  54.862  0.00  0.00     0.045 H 
ATOM     14  H13 R91 d   1       6.361   0.234  53.661  0.00  0.00     0.045 H 
BRANCH  12  15
ATOM     15  C14 R91 d   1       7.285  -1.626  53.096  0.00  0.00    -0.054 C 
ATOM     16  H14 R91 d   1       6.474  -1.876  52.396  0.00  0.00     0.039 H 
BRANCH  15  17
ATOM     17  C16 R91 d   1       8.404  -0.957  52.291  0.00  0.00    -0.073 C 
ATOM     18  H15 R91 d   1       8.786  -1.662  51.538  0.00  0.00     0.028 H 
ATOM     19  H16 R91 d   1       9.220  -0.666  52.969  0.00  0.00     0.028 H 
ATOM     20  H17 R91 d   1       8.009  -0.062  51.788  0.00  0.00     0.028 H 
ENDBRANCH  15  17
BRANCH  15  21
ATOM     21  C15 R91 d   1       7.743  -2.917  53.767  0.00  0.00    -0.073 C 
ATOM     22  H18 R91 d   1       6.905  -3.355  54.330  0.00  0.00     0.028 H 
ATOM     23  H19 R91 d   1       8.572  -2.698  54.456  0.00  0.00     0.028 H 
ATOM     24  H20 R91 d   1       8.082  -3.629  53.000  0.00  0.00     0.028 H 
ENDBRANCH  15  21
ENDBRANCH  12  15
ENDBRANCH  10  12
ENDBRANCH   5  10
BRANCH   2  25
ATOM     25  O2  R91 d   1       3.953  -4.137  58.513  0.00  0.00    -0.341 OA
BRANCH  25  26
ATOM     26  C8  R91 d   1       2.784  -4.494  57.750  0.00  0.00     0.067 C 
ATOM     27  C11 R91 d   1       2.992  -5.876  57.170  0.00  0.00     0.044 C 
ATOM     28  O3  R91 d   1       2.593  -6.755  58.229  0.00  0.00    -0.389 OA
ATOM     29  H3  R91 d   1       4.048  -6.035  56.906  0.00  0.00     0.078 H 
ATOM     30  H4  R91 d   1       2.364  -6.026  56.279  0.00  0.00     0.078 H 
ATOM     31  C10 R91 d   1       1.714  -6.080  59.131  0.00  0.00     0.022 C 
ATOM     32  C9  R91 d   1       1.614  -4.648  58.689  0.00  0.00    -0.019 C 
ATOM     33  H5  R91 d   1       2.117  -6.129  60.153  0.00  0.00     0.074 H 
ATOM     34  H6  R91 d   1       0.720  -6.550  59.106  0.00  0.00     0.074 H 
ATOM     35  H7  R91 d   1       0.663  -4.462  58.168  0.00  0.00     0.040 H 
ATOM     36  H8  R91 d   1       1.703  -3.964  59.546  0.00  0.00     0.040 H 
ATOM     37  H2  R91 d   1       2.582  -3.748  56.967  0.00  0.00     0.087 H 
ENDBRANCH  25  26
ENDBRANCH   2  25
BRANCH   1  38
ATOM     38  O1  R91 d   1       5.712  -3.158  60.264  0.00  0.00    -0.287 OA
BRANCH  38  39
ATOM     39  C1  R91 d   1       6.560  -2.729  61.322  0.00  0.00     0.310 C 
ATOM     40  F2  R91 d   1       7.846  -3.062  61.007  0.00  0.00    -0.184 F 
ATOM     41  F1  R91 d   1       6.459  -1.380  61.495  0.00  0.00    -0.184 F 
ATOM     42  H1  R91 d   1       6.267  -3.235  62.254  0.00  0.00     0.195 H 
ENDBRANCH  38  39
ENDBRANCH   1  38
TORSDOF 9
