REMARK  9 active torsions:
REMARK  status: ('A' for Active; 'I' for Inactive)
REMARK    1  A    between atoms: O1_15  and  C1_1 
REMARK    2  A    between atoms: C3_3  and  O2_2 
REMARK    3  A    between atoms: O2_2  and  C8_8 
REMARK    4  A    between atoms: C12_19  and  C5_5 
REMARK    5  A    between atoms: C14_11  and  C16_12 
REMARK    6  A    between atoms: C13_21  and  C14_11 
REMARK    7  A    between atoms: C14_11  and  C15_22 
REMARK    8  A    between atoms: C2_16  and  O1_15 
REMARK    9  A    between atoms: C12_19  and  C13_21 
ROOT
ATOM      1  C3  AKJ d   1       4.652  -3.105  58.276  0.00  0.00     0.103 A 
ATOM      2  C4  AKJ d   1       4.608  -2.709  56.943  0.00  0.00    -0.035 A 
ATOM      3  C5  AKJ d   1       5.606  -1.905  56.414  0.00  0.00     0.013 A 
ATOM      4  C6  AKJ d   1       6.666  -1.514  57.244  0.00  0.00    -0.067 A 
ATOM      5  C7  AKJ d   1       6.707  -1.918  58.579  0.00  0.00    -0.047 A 
ATOM      6  C2  AKJ d   1       5.687  -2.723  59.097  0.00  0.00     0.108 A 
ATOM      7  H2  AKJ d   1       3.787  -3.032  56.313  0.00  0.00     0.089 H 
ATOM      8  H3  AKJ d   1       7.460  -0.893  56.846  0.00  0.00     0.085 H 
ATOM      9  H4  AKJ d   1       7.529  -1.608  59.214  0.00  0.00     0.087 H 
ENDROOT
BRANCH   3  10
ATOM     10  C12 AKJ d   1       5.468  -1.503  54.968  0.00  0.00     0.160 C 
ATOM     11  O4  AKJ d   1       4.505  -1.891  54.319  0.00  0.00    -0.292 OA
BRANCH  10  12
ATOM     12  C13 AKJ d   1       6.485  -0.659  54.243  0.00  0.00    -0.003 C 
ATOM     13  H16 AKJ d   1       5.986   0.190  53.752  0.00  0.00     0.045 H 
ATOM     14  H17 AKJ d   1       7.234  -0.282  54.955  0.00  0.00     0.045 H 
BRANCH  12  15
ATOM     15  C14 AKJ d   1       7.160  -1.542  53.196  0.00  0.00    -0.054 C 
ATOM     16  H10 AKJ d   1       6.384  -1.863  52.486  0.00  0.00     0.039 H 
BRANCH  15  17
ATOM     17  C16 AKJ d   1       8.222  -0.782  52.401  0.00  0.00    -0.073 C 
ATOM     18  H11 AKJ d   1       8.679  -1.456  51.662  0.00  0.00     0.028 H 
ATOM     19  H12 AKJ d   1       8.997  -0.410  53.087  0.00  0.00     0.028 H 
ATOM     20  H13 AKJ d   1       7.754   0.067  51.882  0.00  0.00     0.028 H 
ENDBRANCH  15  17
BRANCH  15  21
ATOM     21  C15 AKJ d   1       7.748  -2.796  53.837  0.00  0.00    -0.073 C 
ATOM     22  H18 AKJ d   1       8.227  -3.413  53.063  0.00  0.00     0.028 H 
ATOM     23  H19 AKJ d   1       6.945  -3.372  54.320  0.00  0.00     0.028 H 
ATOM     24  H20 AKJ d   1       8.496  -2.507  54.590  0.00  0.00     0.028 H 
ENDBRANCH  15  21
ENDBRANCH  12  15
ENDBRANCH  10  12
ENDBRANCH   3  10
BRANCH   1  25
ATOM     25  O2  AKJ d   1       3.678  -3.888  58.829  0.00  0.00    -0.341 OA
BRANCH  25  26
ATOM     26  C8  AKJ d   1       2.546  -4.333  58.087  0.00  0.00     0.067 C 
ATOM     27  C11 AKJ d   1       2.892  -5.624  57.388  0.00  0.00    -0.019 C 
ATOM     28  C10 AKJ d   1       2.569  -6.657  58.451  0.00  0.00     0.022 C 
ATOM     29  H8  AKJ d   1       3.956  -5.655  57.111  0.00  0.00     0.040 H 
ATOM     30  H9  AKJ d   1       2.275  -5.769  56.489  0.00  0.00     0.040 H 
ATOM     31  O3  AKJ d   1       1.569  -6.089  59.300  0.00  0.00    -0.389 OA
ATOM     32  H6  AKJ d   1       3.471  -6.892  59.035  0.00  0.00     0.074 H 
ATOM     33  H7  AKJ d   1       2.187  -7.575  57.981  0.00  0.00     0.074 H 
ATOM     34  C9  AKJ d   1       1.442  -4.694  59.062  0.00  0.00     0.044 C 
ATOM     35  H14 AKJ d   1       0.458  -4.469  58.625  0.00  0.00     0.078 H 
ATOM     36  H15 AKJ d   1       1.563  -4.134  60.001  0.00  0.00     0.078 H 
ATOM     37  H5  AKJ d   1       2.220  -3.563  57.373  0.00  0.00     0.087 H 
ENDBRANCH  25  26
ENDBRANCH   1  25
BRANCH   6  38
ATOM     38  O1  AKJ d   1       5.619  -3.183  60.395  0.00  0.00    -0.287 OA
BRANCH  38  39
ATOM     39  C1  AKJ d   1       6.481  -2.751  61.445  0.00  0.00     0.310 C 
ATOM     40  F1  AKJ d   1       6.427  -1.394  61.571  0.00  0.00    -0.184 F 
ATOM     41  F2  AKJ d   1       7.756  -3.132  61.146  0.00  0.00    -0.184 F 
ATOM     42  H1  AKJ d   1       6.169  -3.217  62.391  0.00  0.00     0.195 H 
ENDBRANCH  38  39
ENDBRANCH   6  38
TORSDOF 9
