REMARK  4 active torsions:
REMARK  status: ('A' for Active; 'I' for Inactive)
REMARK    1  A    between atoms: C6_3  and  C3_18 
REMARK    2  A    between atoms: C7_5  and  C8_6 
REMARK    3  A    between atoms: C11_10  and  O1_19 
REMARK    4  A    between atoms: N_13  and  C_14 
ROOT
ATOM      1  C4  AJJ d   1      32.828   3.039  -3.389  0.00  0.00    -0.032 C 
ATOM      2  C5  AJJ d   1      32.618   2.879  -4.892  0.00  0.00     0.084 C 
ATOM      3  N   AJJ d   1      31.633   1.838  -5.180  0.00  0.00    -0.075 N 
ATOM      4  C1  AJJ d   1      30.344   2.215  -4.606  0.00  0.00     0.084 C 
ATOM      5  C2  AJJ d   1      30.434   2.346  -3.090  0.00  0.00    -0.032 C 
ATOM      6  C3  AJJ d   1      31.507   3.361  -2.681  0.00  0.00     0.011 C 
ATOM      7  H1  AJJ d   1      33.541   3.858  -3.211  0.00  0.00     0.036 H 
ATOM      8  H2  AJJ d   1      33.236   2.102  -2.981  0.00  0.00     0.036 H 
ATOM      9  H3  AJJ d   1      33.575   2.607  -5.361  0.00  0.00     0.076 H 
ATOM     10  H4  AJJ d   1      32.264   3.833  -5.309  0.00  0.00     0.076 H 
ATOM     11  H9  AJJ d   1      31.530   1.762  -6.180  0.00  0.00     0.279 HD
ATOM     12  H13 AJJ d   1      29.600   1.444  -4.856  0.00  0.00     0.076 H 
ATOM     13  H14 AJJ d   1      30.030   3.179  -5.032  0.00  0.00     0.076 H 
ATOM     14  H15 AJJ d   1      30.686   1.365  -2.660  0.00  0.00     0.036 H 
ATOM     15  H16 AJJ d   1      29.460   2.678  -2.701  0.00  0.00     0.036 H 
ATOM     16  H17 AJJ d   1      31.679   3.237  -1.602  0.00  0.00     0.052 H 
ENDROOT
BRANCH   6  17
ATOM     17  C6  AJJ d   1      31.062   4.771  -2.883  0.00  0.00     0.160 A 
ATOM     18  N1  AJJ d   1      31.088   5.678  -1.860  0.00  0.00    -0.204 NA
ATOM     19  C7  AJJ d   1      30.589   6.743  -2.405  0.00  0.00     0.206 A 
ATOM     20  O   AJJ d   1      30.260   6.571  -3.694  0.00  0.00    -0.191 OA
ATOM     21  N2  AJJ d   1      30.589   5.228  -4.003  0.00  0.00    -0.110 NA
BRANCH  19  22
ATOM     22  C8  AJJ d   1      30.335   8.045  -1.788  0.00  0.00     0.019 A 
ATOM     23  C9  AJJ d   1      29.769   9.077  -2.527  0.00  0.00    -0.066 A 
ATOM     24  C10 AJJ d   1      29.489  10.297  -1.940  0.00  0.00    -0.050 A 
ATOM     25  H5  AJJ d   1      29.544   8.924  -3.576  0.00  0.00     0.085 H 
ATOM     26  C11 AJJ d   1      29.774  10.502  -0.599  0.00  0.00     0.065 A 
ATOM     27  H6  AJJ d   1      29.047  11.093  -2.528  0.00  0.00     0.087 H 
ATOM     28  C12 AJJ d   1      30.351   9.485   0.146  0.00  0.00    -0.050 A 
ATOM     29  C13 AJJ d   1      30.628   8.267  -0.448  0.00  0.00    -0.066 A 
ATOM     30  H7  AJJ d   1      30.585   9.644   1.192  0.00  0.00     0.087 H 
ATOM     31  H8  AJJ d   1      31.079   7.476   0.139  0.00  0.00     0.085 H 
BRANCH  26  32
ATOM     32  O1  AJJ d   1      29.470  11.696  -0.010  0.00  0.00    -0.361 OA
ATOM     33  H18 AJJ d   1      29.084  12.277  -0.655  0.00  0.00     0.217 HD
ENDBRANCH  26  32
ENDBRANCH  19  22
ENDBRANCH   6  17
BRANCH   3  34
ATOM     34  C   AJJ d   1      32.076   0.536  -4.661  0.00  0.00     0.066 C 
ATOM     35  H10 AJJ d   1      31.318  -0.227  -4.891  0.00  0.00     0.068 H 
ATOM     36  H11 AJJ d   1      32.211   0.602  -3.571  0.00  0.00     0.068 H 
ATOM     37  H12 AJJ d   1      33.030   0.259  -5.133  0.00  0.00     0.068 H 
ENDBRANCH   3  34
TORSDOF 4
