REMARK  5 active torsions:
REMARK  status: ('A' for Active; 'I' for Inactive)
REMARK    1  A    between atoms: N2_12  and  C6_4 
REMARK    2  A    between atoms: C7_5  and  N2_12 
REMARK    3  A    between atoms: C3_15  and  C2_16 
REMARK    4  A    between atoms: C2_16  and  C1_17 
REMARK    5  A    between atoms: C1_17  and  C_18 
ROOT
ATOM      1  N1  AQ1 d   1      16.399   8.398   3.167  0.00  0.00    -0.195 N 
ATOM      2  C4  AQ1 d   1      14.944   8.831   1.249  0.00  0.00     0.005 A 
ATOM      3  C5  AQ1 d   1      14.118   9.676   2.040  0.00  0.00     0.261 A 
ATOM      4  C6  AQ1 d   1      15.551   9.096   3.891  0.00  0.00     0.685 A 
ATOM      5  N   AQ1 d   1      14.474   9.748   3.368  0.00  0.00    -0.156 N 
ATOM      6  O   AQ1 d   1      13.190  10.376   1.619  0.00  0.00    -0.268 OA
ATOM      7  C3  AQ1 d   1      16.039   8.238   1.797  0.00  0.00     0.032 A 
ATOM      8  H1  AQ1 d   1      17.261   7.996   3.562  0.00  0.00     0.184 HD
ATOM      9  H2  AQ1 d   1      14.700   8.658   0.202  0.00  0.00     0.095 H 
ATOM     10  H8  AQ1 d   1      13.914  10.307   3.980  0.00  0.00     0.187 HD
ENDROOT
BRANCH   4  11
ATOM     11  N2  AQ1 d   1      15.639   8.966   5.240  0.00  0.00    -0.189 N 
ATOM     12  H7  AQ1 d   1      16.491   8.458   5.518  0.00  0.00     0.184 HD
BRANCH  11  13
ATOM     13  C7  AQ1 d   1      14.862   9.348   6.370  0.00  0.00     0.087 A 
ATOM     14  C8  AQ1 d   1      13.700  10.124   6.349  0.00  0.00    -0.054 A 
ATOM     15  C9  AQ1 d   1      13.067  10.467   7.539  0.00  0.00    -0.081 A 
ATOM     16  H3  AQ1 d   1      13.291  10.460   5.403  0.00  0.00     0.087 H 
ATOM     17  C10 AQ1 d   1      13.572  10.033   8.756  0.00  0.00    -0.080 A 
ATOM     18  H6  AQ1 d   1      12.172  11.078   7.515  0.00  0.00     0.083 H 
ATOM     19  C11 AQ1 d   1      14.730   9.270   8.797  0.00  0.00    -0.043 A 
ATOM     20  H4  AQ1 d   1      13.061  10.290   9.677  0.00  0.00     0.083 H 
ATOM     21  C12 AQ1 d   1      15.343   8.953   7.606  0.00  0.00     0.143 A 
ATOM     22  H5  AQ1 d   1      15.141   8.932   9.742  0.00  0.00     0.088 H 
ATOM     23  F   AQ1 d   1      16.495   8.251   7.624  0.00  0.00    -0.204 F 
ENDBRANCH  11  13
ENDBRANCH   4  11
BRANCH   7  24
ATOM     24  C2  AQ1 d   1      16.962   7.329   1.045  0.00  0.00    -0.026 C 
ATOM     25  H9  AQ1 d   1      17.894   7.256   1.625  0.00  0.00     0.042 H 
ATOM     26  H10 AQ1 d   1      17.170   7.804   0.075  0.00  0.00     0.042 H 
BRANCH  24  27
ATOM     27  C1  AQ1 d   1      16.481   5.870   0.754  0.00  0.00    -0.064 C 
ATOM     28  H11 AQ1 d   1      16.126   5.433   1.699  0.00  0.00     0.033 H 
ATOM     29  H12 AQ1 d   1      17.342   5.294   0.384  0.00  0.00     0.033 H 
BRANCH  27  30
ATOM     30  C   AQ1 d   1      15.362   5.756  -0.269  0.00  0.00    -0.076 C 
ATOM     31  H13 AQ1 d   1      15.095   4.697  -0.404  0.00  0.00     0.027 H 
ATOM     32  H14 AQ1 d   1      15.699   6.175  -1.229  0.00  0.00     0.027 H 
ATOM     33  H15 AQ1 d   1      14.483   6.313   0.086  0.00  0.00     0.027 H 
ENDBRANCH  27  30
ENDBRANCH  24  27
ENDBRANCH   7  24
TORSDOF 5
