REMARK  2 active torsions:
REMARK  status: ('A' for Active; 'I' for Inactive)
REMARK    1  A    between atoms: N1_1  and  C7_5 
REMARK    2  A    between atoms: C1_8  and  C2_9 
ROOT
ATOM      1  C4  AOY d   1      15.567   6.910   0.192  0.00  0.00     0.029 C 
ATOM      2  C5  AOY d   1      16.897   7.097   0.893  0.00  0.00    -0.043 C 
ATOM      3  C6  AOY d   1      16.689   7.433   2.353  0.00  0.00    -0.047 C 
ATOM      4  C1  AOY d   1      15.544   8.394   2.565  0.00  0.00     0.062 C 
ATOM      5  C3  AOY d   1      14.560   8.695   1.525  0.00  0.00     0.268 C 
ATOM      6  O1  AOY d   1      14.582   7.976   0.383  0.00  0.00    -0.321 OA
ATOM      7  O2  AOY d   1      13.705   9.543   1.619  0.00  0.00    -0.264 OA
ATOM      8  H1  AOY d   1      15.123   5.973   0.558  0.00  0.00     0.075 H 
ATOM      9  H2  AOY d   1      15.765   6.825  -0.887  0.00  0.00     0.075 H 
ATOM     10  H3  AOY d   1      17.448   7.917   0.409  0.00  0.00     0.036 H 
ATOM     11  H4  AOY d   1      17.480   6.167   0.816  0.00  0.00     0.036 H 
ATOM     12  H5  AOY d   1      17.610   7.889   2.745  0.00  0.00     0.034 H 
ATOM     13  H6  AOY d   1      16.477   6.504   2.902  0.00  0.00     0.034 H 
ATOM     14  H9  AOY d   1      16.178   9.244   2.273  0.00  0.00     0.064 H 
ENDROOT
BRANCH   4  15
ATOM     15  C2  AOY d   1      15.279   8.938   3.798  0.00  0.00    -0.004 C 
ATOM     16  N1  AOY d   1      15.880   8.601   4.931  0.00  0.00    -0.264 NA
ATOM     17  H10 AOY d   1      14.512   9.710   3.849  0.00  0.00     0.109 H 
BRANCH  16  18
ATOM     18  C7  AOY d   1      15.436   8.933   6.233  0.00  0.00     0.056 A 
ATOM     19  C8  AOY d   1      14.292   9.714   6.412  0.00  0.00    -0.055 A 
ATOM     20  C9  AOY d   1      13.869  10.041   7.693  0.00  0.00    -0.081 A 
ATOM     21  H7  AOY d   1      13.735  10.065   5.551  0.00  0.00     0.087 H 
ATOM     22  C10 AOY d   1      14.574   9.592   8.799  0.00  0.00    -0.083 A 
ATOM     23  H11 AOY d   1      12.983  10.650   7.829  0.00  0.00     0.083 H 
ATOM     24  C11 AOY d   1      15.721   8.832   8.623  0.00  0.00    -0.081 A 
ATOM     25  H8  AOY d   1      14.230   9.834   9.798  0.00  0.00     0.083 H 
ATOM     26  C12 AOY d   1      16.151   8.494   7.345  0.00  0.00    -0.055 A 
ATOM     27  H12 AOY d   1      16.285   8.500   9.487  0.00  0.00     0.083 H 
ATOM     28  H13 AOY d   1      17.041   7.890   7.214  0.00  0.00     0.087 H 
ENDBRANCH  16  18
ENDBRANCH   4  15
TORSDOF 2
