REMARK  1 active torsions:
REMARK  status: ('A' for Active; 'I' for Inactive)
REMARK    1  A    between atoms: C1_1  and  C2_2 
ROOT
ATOM      1  C2  FOA d   1       0.233 -15.556 -19.554  0.00  0.00     0.151 A 
ATOM      2  C3  FOA d   1      -0.388 -16.310 -20.543  0.00  0.00    -0.042 A 
ATOM      3  C4  FOA d   1      -1.004 -17.405 -19.930  0.00  0.00    -0.059 A 
ATOM      4  C5  FOA d   1      -0.760 -17.322 -18.564  0.00  0.00     0.020 A 
ATOM      5  O8  FOA d   1       0.005 -16.180 -18.329  0.00  0.00    -0.316 OA
ATOM      6  H1  FOA d   1      -0.394 -16.087 -21.609  0.00  0.00     0.088 H 
ATOM      7  H2  FOA d   1      -1.574 -18.185 -20.433  0.00  0.00     0.086 H 
ATOM      8  H3  FOA d   1      -1.106 -18.026 -17.809  0.00  0.00     0.123 H 
ENDROOT
BRANCH   1   9
ATOM      9  C1  FOA d   1       1.022 -14.284 -19.766  0.00  0.00     0.234 C 
ATOM     10  O6  FOA d   1       2.260 -14.348 -19.988  0.00  0.00    -0.642 OA
ATOM     11  O7  FOA d   1       0.444 -13.166 -19.719  0.00  0.00    -0.642 OA
ENDBRANCH   1   9
TORSDOF 1
