REMARK  1 active torsions:
REMARK  status: ('A' for Active; 'I' for Inactive)
REMARK    1  A    between atoms: CAH_1  and  CAF_4 
ROOT
ATOM      1  CAF AO4 d   1     -34.040  -9.080  13.147  0.00  0.00     0.045 A 
ATOM      2  CAA AO4 d   1     -34.849  -9.180  12.032  0.00  0.00    -0.027 A 
ATOM      3  CAB AO4 d   1     -36.261  -8.856  12.203  0.00  0.00     0.126 A 
ATOM      4 CL1  AO4 d   1     -37.380  -8.966  10.782  0.00  0.00    -0.062 Cl
ATOM      5  NAC AO4 d   1     -36.836  -8.456  13.420  0.00  0.00    -0.249 NA
ATOM      6  CAD AO4 d   1     -36.027  -8.377  14.448  0.00  0.00     0.005 A 
ATOM      7  CAE AO4 d   1     -34.598  -8.680  14.375  0.00  0.00    -0.049 A 
ATOM      8  H1  AO4 d   1     -34.452  -9.486  11.071  0.00  0.00     0.090 H 
ATOM      9  H2  AO4 d   1     -36.439  -8.071  15.403  0.00  0.00     0.114 H 
ATOM     10  H3  AO4 d   1     -33.975  -8.597  15.258  0.00  0.00     0.087 H 
ENDROOT
BRANCH   1  11
ATOM     11  CAH AO4 d   1     -32.538  -9.396  13.083  0.00  0.00     0.209 C 
ATOM     12  OAI AO4 d   1     -32.208 -10.585  13.285  0.00  0.00    -0.644 OA
ATOM     13  OAJ AO4 d   1     -31.785  -8.426  12.835  0.00  0.00    -0.644 OA
ENDBRANCH   1  11
TORSDOF 1
