REMARK  11 active torsions:
REMARK  status: ('A' for Active; 'I' for Inactive)
REMARK    1  A    between atoms: C1_1  and  N3_18 
REMARK    2  A    between atoms: C9_24  and  O1_4 
REMARK    3  A    between atoms: C17_12  and  O2_5 
REMARK    4  A    between atoms: C7_22  and  C11_6 
REMARK    5  A    between atoms: C7_22  and  C12_7 
REMARK    6  A    between atoms: N5_25  and  C13_8 
REMARK    7  A    between atoms: N3_18  and  C14_9 
REMARK    8  A    between atoms: N4_19  and  C5_20 
REMARK    9  A    between atoms: C5_20  and  C6_21 
REMARK   10  A    between atoms: C6_21  and  C7_22 
REMARK   11  A    between atoms: C8_23  and  C10_26 
ROOT
ATOM      1  C1  MOL d   1      27.257  67.399  87.353  0.00  0.00     0.728 A 
ATOM      2  C2  MOL d   1      25.946  66.809  89.223  0.00  0.00     0.178 A 
ATOM      3  C3  MOL d   1      26.979  66.044  89.682  0.00  0.00     0.101 A 
ATOM      4  N1  MOL d   1      28.269  66.659  87.794  0.00  0.00    -0.073 NA
ATOM      5  N2  MOL d   1      26.115  67.481  88.035  0.00  0.00    -0.042 NA
ATOM      6  C4  MOL d   1      28.194  65.973  88.927  0.00  0.00     0.051 A 
ATOM      7  N4  MOL d   1      24.782  66.881  89.945  0.00  0.00    -0.329 N 
ATOM      8  C8  MOL d   1      24.659  66.205  91.090  0.00  0.00     0.060 A 
ATOM      9  C9  MOL d   1      25.731  65.430  91.546  0.00  0.00     0.165 A 
ATOM     10  N5  MOL d   1      26.862  65.353  90.856  0.00  0.00    -0.326 N 
ATOM     11  H14 MOL d   1      29.030  65.375  89.272  0.00  0.00     0.119 H 
ENDROOT
BRANCH   7  12
ATOM     12  C5  MOL d   1      23.669  67.687  89.448  0.00  0.00     0.002 C 
ATOM     13  H16 MOL d   1      22.730  67.274  89.845  0.00  0.00     0.065 H 
ATOM     14  H17 MOL d   1      23.658  67.633  88.349  0.00  0.00     0.065 H 
BRANCH  12  15
ATOM     15  C6  MOL d   1      23.774  69.158  89.866  0.00  0.00    -0.047 C 
ATOM     16  H18 MOL d   1      24.469  69.678  89.190  0.00  0.00     0.035 H 
ATOM     17  H19 MOL d   1      24.153  69.215  90.897  0.00  0.00     0.035 H 
BRANCH  15  18
ATOM     18  C7  MOL d   1      22.401  69.834  89.795  0.00  0.00    -0.060 C 
ATOM     19  H20 MOL d   1      21.649  69.095  90.110  0.00  0.00     0.038 H 
BRANCH  18  20
ATOM     20  C11 MOL d   1      22.064  70.257  88.365  0.00  0.00    -0.073 C 
ATOM     21  H3  MOL d   1      21.075  70.738  88.348  0.00  0.00     0.028 H 
ATOM     22  H4  MOL d   1      22.052  69.371  87.714  0.00  0.00     0.028 H 
ATOM     23  H5  MOL d   1      22.823  70.967  88.004  0.00  0.00     0.028 H 
ENDBRANCH  18  20
BRANCH  18  24
ATOM     24  C12 MOL d   1      22.316  71.018  90.755  0.00  0.00    -0.073 C 
ATOM     25  H6  MOL d   1      22.563  70.683  91.773  0.00  0.00     0.028 H 
ATOM     26  H7  MOL d   1      21.296  71.428  90.742  0.00  0.00     0.028 H 
ATOM     27  H8  MOL d   1      23.028  71.796  90.442  0.00  0.00     0.028 H 
ENDBRANCH  18  24
ENDBRANCH  15  18
ENDBRANCH  12  15
ENDBRANCH   7  12
BRANCH   8  28
ATOM     28  C10 MOL d   1      23.370  66.267  91.911  0.00  0.00    -0.033 C 
ATOM     29  H21 MOL d   1      23.478  65.643  92.810  0.00  0.00     0.035 H 
ATOM     30  H22 MOL d   1      22.531  65.895  91.305  0.00  0.00     0.035 H 
ATOM     31  H23 MOL d   1      23.174  67.308  92.208  0.00  0.00     0.035 H 
ENDBRANCH   8  28
BRANCH   9  32
ATOM     32  O1  MOL d   1      25.615  64.723  92.745  0.00  0.00    -0.344 OA
ATOM     33  H1  MOL d   1      24.756  64.876  93.120  0.00  0.00     0.219 HD
ENDBRANCH   9  32
BRANCH  10  34
ATOM     34  C13 MOL d   1      27.964  64.540  91.348  0.00  0.00    -0.012 C 
ATOM     35  H9  MOL d   1      28.808  64.602  90.645  0.00  0.00     0.057 H 
ATOM     36  H10 MOL d   1      27.637  63.494  91.437  0.00  0.00     0.057 H 
ATOM     37  H11 MOL d   1      28.281  64.910  92.334  0.00  0.00     0.057 H 
ENDBRANCH  10  34
BRANCH   1  38
ATOM     38  N3  MOL d   1      27.477  68.099  86.084  0.00  0.00    -0.188 N 
ATOM     39  H15 MOL d   1      28.274  67.774  85.519  0.00  0.00     0.184 HD
BRANCH  38  40
ATOM     40  C14 MOL d   1      26.701  69.202  85.526  0.00  0.00     0.055 A 
ATOM     41  C15 MOL d   1      25.762  69.911  86.262  0.00  0.00    -0.016 A 
ATOM     42  C16 MOL d   1      25.059  70.953  85.669  0.00  0.00     0.154 A 
ATOM     43  H12 MOL d   1      25.577  69.652  87.298  0.00  0.00     0.091 H 
ATOM     44  C17 MOL d   1      25.295  71.292  84.344  0.00  0.00     0.143 A 
ATOM     45  F1  MOL d   1      24.132  71.648  86.389  0.00  0.00    -0.203 F 
ATOM     46  C18 MOL d   1      26.235  70.587  83.609  0.00  0.00     0.154 A 
ATOM     47  C19 MOL d   1      26.935  69.550  84.202  0.00  0.00    -0.016 A 
ATOM     48  F2  MOL d   1      26.471  70.915  82.306  0.00  0.00    -0.203 F 
ATOM     49  H13 MOL d   1      27.674  69.004  83.627  0.00  0.00     0.091 H 
BRANCH  44  50
ATOM     50  O2  MOL d   1      24.586  72.344  83.746  0.00  0.00    -0.355 OA
ATOM     51  H2  MOL d   1      24.867  72.442  82.844  0.00  0.00     0.218 HD
ENDBRANCH  44  50
ENDBRANCH  38  40
ENDBRANCH   1  38
TORSDOF 11
