REMARK  2 active torsions:
REMARK  status: ('A' for Active; 'I' for Inactive)
REMARK    1  A    between atoms: CAL_2  and  CAH_4 
REMARK    2  A    between atoms: CAF_9  and  NAA_10 
ROOT
ATOM      1  CAH XXE d   1      36.977  13.522   3.477  0.00  0.00     0.134 A 
ATOM      2  CAG XXE d   1      35.789  13.335   4.167  0.00  0.00    -0.022 A 
ATOM      3  NAI XXE d   1      37.045  13.239   2.145  0.00  0.00    -0.254 NA
ATOM      4  CAJ XXE d   1      35.947  12.769   1.489  0.00  0.00     0.005 A 
ATOM      5  CAK XXE d   1      34.761  12.579   2.178  0.00  0.00    -0.040 A 
ATOM      6  CAF XXE d   1      34.693  12.863   3.512  0.00  0.00     0.042 A 
ATOM      7  H1  XXE d   1      35.733  13.564   5.225  0.00  0.00     0.091 H 
ATOM      8  H2  XXE d   1      36.002  12.544   0.430  0.00  0.00     0.114 H 
ATOM      9  H3  XXE d   1      33.886  12.205   1.658  0.00  0.00     0.089 H 
ENDROOT
BRANCH   6  10
ATOM     10  NAA XXE d   1      33.475  12.666   4.212  0.00  0.00    -0.333 N 
ATOM     11  CAB XXE d   1      33.345  12.158   5.511  0.00  0.00    -0.015 A 
ATOM     12  CAC XXE d   1      31.988  12.119   5.820  0.00  0.00    -0.066 A 
ATOM     13  H4  XXE d   1      34.160  11.849   6.163  0.00  0.00     0.112 H 
ATOM     14  CAD XXE d   1      31.272  12.603   4.710  0.00  0.00    -0.066 A 
ATOM     15  H5  XXE d   1      31.556  11.774   6.758  0.00  0.00     0.085 H 
ATOM     16  CAE XXE d   1      32.190  12.938   3.722  0.00  0.00    -0.015 A 
ATOM     17  H6  XXE d   1      30.190  12.698   4.638  0.00  0.00     0.085 H 
ATOM     18  H7  XXE d   1      31.953  13.341   2.739  0.00  0.00     0.112 H 
ENDBRANCH   6  10
BRANCH   1  19
ATOM     19  CAL XXE d   1      38.201  14.043   4.199  0.00  0.00     0.229 C 
ATOM     20  OAM XXE d   1      39.049  14.738   3.580  0.00  0.00    -0.643 OA
ATOM     21  OAN XXE d   1      38.371  13.784   5.419  0.00  0.00    -0.643 OA
ENDBRANCH   1  19
TORSDOF 2
