REMARK  2 active torsions:
REMARK  status: ('A' for Active; 'I' for Inactive)
REMARK    1  A    between atoms: CAF_5  and  CAA_1 
REMARK    2  A    between atoms: CAJ_8  and  CAL_10 
ROOT
ATOM      1  CAF XXO d   1     -36.959  -9.147  12.263  0.00  0.00     0.091 A 
ATOM      2  CAH XXO d   1     -36.617  -9.317  14.634  0.00  0.00     0.004 A 
ATOM      3  CAI XXO d   1     -35.123  -9.434  14.346  0.00  0.00    -0.049 A 
ATOM      4  CAJ XXO d   1     -34.700  -9.402  13.135  0.00  0.00     0.044 A 
ATOM      5  CAK XXO d   1     -35.670  -9.252  12.009  0.00  0.00    -0.036 A 
ATOM      6  NAG XXO d   1     -37.449  -9.186  13.666  0.00  0.00    -0.258 NA
ATOM      7  H4  XXO d   1     -36.975  -9.345  15.657  0.00  0.00     0.114 H 
ATOM      8  H5  XXO d   1     -34.420  -9.544  15.164  0.00  0.00     0.087 H 
ATOM      9  H6  XXO d   1     -35.315  -9.230  10.985  0.00  0.00     0.088 H 
ENDROOT
BRANCH   1  10
ATOM     10  CAA XXO d   1     -37.959  -8.995  11.119  0.00  0.00     0.103 A 
ATOM     11  CAE XXO d   1     -37.727  -8.300   9.843  0.00  0.00    -0.046 A 
ATOM     12  CAD XXO d   1     -39.028  -8.504   9.195  0.00  0.00    -0.059 A 
ATOM     13  H3  XXO d   1     -36.840  -7.781   9.482  0.00  0.00     0.087 H 
ATOM     14  CAC XXO d   1     -39.841  -9.205  10.001  0.00  0.00     0.019 A 
ATOM     15  H2  XXO d   1     -39.295  -8.140   8.204  0.00  0.00     0.086 H 
ATOM     16  OAB XXO d   1     -39.230  -9.483  11.096  0.00  0.00    -0.320 OA
ATOM     17  H1  XXO d   1     -40.864  -9.494   9.763  0.00  0.00     0.123 H 
ENDBRANCH   1  10
BRANCH   4  18
ATOM     18  CAL XXO d   1     -33.205  -9.520  12.846  0.00  0.00     0.209 C 
ATOM     19  OAM XXO d   1     -32.636 -10.640  12.925  0.00  0.00    -0.644 OA
ATOM     20  OAN XXO d   1     -32.545  -8.496  12.527  0.00  0.00    -0.644 OA
ENDBRANCH   4  18
TORSDOF 2
