REMARK WARNING: 32 MAX_TORS EXCEEDED!!!
REMARK  66 active torsions:
REMARK  status: ('A' for Active; 'I' for Inactive)
REMARK    1  A    between atoms: N_1  and  CA_2 
REMARK    2  A    between atoms: CA_2  and  C_3 
REMARK    3  A    between atoms: CA_2  and  CB_5 
REMARK       I    between atoms: C_3  and  N_10 
REMARK    4  A    between atoms: CB_5  and  CG_6 
REMARK    5  A    between atoms: CG_6  and  CD_7 
REMARK    6  A    between atoms: CD_7  and  CE_8 
REMARK    7  A    between atoms: CE_8  and  NZ_9 
REMARK    8  A    between atoms: N_10  and  CA_11 
REMARK    9  A    between atoms: CA_11  and  C_12 
REMARK   10  A    between atoms: CA_11  and  CB_14 
REMARK       I    between atoms: C_12  and  N_18 
REMARK   11  A    between atoms: CB_14  and  CG1_15 
REMARK   12  A    between atoms: CB_14  and  CG2_16 
REMARK   13  A    between atoms: CG1_15  and  CD1_17 
REMARK   14  A    between atoms: N_18  and  CA_19 
REMARK   15  A    between atoms: CA_19  and  C_20 
REMARK   16  A    between atoms: CA_19  and  CB_22 
REMARK       I    between atoms: C_20  and  N_26 
REMARK   17  A    between atoms: CB_22  and  CG_23 
REMARK   18  A    between atoms: CG_23  and  CD1_24 
REMARK   19  A    between atoms: CG_23  and  CD2_25 
REMARK   20  A    between atoms: N_26  and  CA_27 
REMARK   21  A    between atoms: CA_27  and  C_28 
REMARK   22  A    between atoms: CA_27  and  CB_30 
REMARK       I    between atoms: C_28  and  N_34 
REMARK   23  A    between atoms: CB_30  and  CG_31 
REMARK   24  A    between atoms: CG_31  and  CD1_32 
REMARK   25  A    between atoms: CG_31  and  CD2_33 
REMARK   26  A    between atoms: N_34  and  CA_35 
REMARK   27  A    between atoms: CA_35  and  C_36 
REMARK   28  A    between atoms: CA_35  and  CB_38 
REMARK       I    between atoms: C_36  and  N_41 
REMARK   29  A    between atoms: CB_38  and  OG1_39 
REMARK   30  A    between atoms: CB_38  and  CG2_40 
REMARK   31  A    between atoms: CA_42  and  C_43 
REMARK       I    between atoms: C_43  and  N_48 
REMARK   32  A    between atoms: N_48  and  CA_49 
REMARK   33  A    between atoms: CA_49  and  C_50 
REMARK   34  A    between atoms: CA_49  and  CB_52 
REMARK       I    between atoms: C_50  and  N_59 
REMARK   35  A    between atoms: CB_52  and  CG_53 
REMARK   36  A    between atoms: CG_53  and  CD_54 
REMARK   37  A    between atoms: CD_54  and  NE_55 
REMARK       I    between atoms: NE_55  and  CZ_56 
REMARK       I    between atoms: CZ_56  and  NH1_57 
REMARK       I    between atoms: CZ_56  and  NH2_58 
REMARK   38  A    between atoms: N_59  and  CA_60 
REMARK   39  A    between atoms: CA_60  and  C_61 
REMARK   40  A    between atoms: CA_60  and  CB_63 
REMARK       I    between atoms: C_61  and  N_70 
REMARK   41  A    between atoms: CB_63  and  CG_64 
REMARK   42  A    between atoms: CG_64  and  CD_65 
REMARK   43  A    between atoms: CD_65  and  NE_66 
REMARK       I    between atoms: NE_66  and  CZ_67 
REMARK       I    between atoms: CZ_67  and  NH1_68 
REMARK       I    between atoms: CZ_67  and  NH2_69 
REMARK   44  A    between atoms: N_70  and  CA_71 
REMARK   45  A    between atoms: CA_71  and  C_72 
REMARK   46  A    between atoms: CA_71  and  CB_74 
REMARK       I    between atoms: C_72  and  N_81 
REMARK   47  A    between atoms: CB_74  and  CG_75 
REMARK   48  A    between atoms: CG_75  and  CD_76 
REMARK   49  A    between atoms: CD_76  and  NE_77 
REMARK       I    between atoms: NE_77  and  CZ_78 
REMARK       I    between atoms: CZ_78  and  NH1_79 
REMARK       I    between atoms: CZ_78  and  NH2_80 
REMARK   50  A    between atoms: N_81  and  CA_82 
REMARK   51  A    between atoms: CA_82  and  C_83 
REMARK   52  A    between atoms: CA_82  and  CB_85 
REMARK       I    between atoms: C_83  and  N_90 
REMARK   53  A    between atoms: CB_85  and  CG_86 
REMARK   54  A    between atoms: CG_86  and  CD_87 
REMARK       I    between atoms: CD_87  and  NE2_89 
REMARK   55  A    between atoms: N_90  and  CA_91 
REMARK   56  A    between atoms: CA_91  and  C_92 
REMARK   57  A    between atoms: CA_91  and  CB_94 
REMARK       I    between atoms: C_92  and  N_101 
REMARK   58  A    between atoms: CB_94  and  CG_95 
REMARK   59  A    between atoms: CG_95  and  CD_96 
REMARK   60  A    between atoms: CD_96  and  NE_97 
REMARK       I    between atoms: NE_97  and  CZ_98 
REMARK       I    between atoms: CZ_98  and  NH1_99 
REMARK   61  A    between atoms: N_101  and  CA_102 
REMARK   62  A    between atoms: CA_102  and  C_103 
REMARK   63  A    between atoms: CA_102  and  CB_105 
REMARK   64  A    between atoms: CB_105  and  CG_106 
REMARK   65  A    between atoms: CG_106  and  CD1_107 
REMARK   66  A    between atoms: CG_106  and  CD2_108 
ROOT
ATOM      1  CA  ARG d   1     -69.501  28.194 -13.020  0.00  0.00     0.089 C 
ATOM      2  H64 ARG d   1     -69.013  27.208 -13.013  0.00  0.00     0.087 H 
ENDROOT
BRANCH   1   3
ATOM      3  N   ARG d   1     -69.069  28.929 -11.824  0.00  0.00    -0.346 N 
ATOM      4  C   PRO d   1     -67.983  28.619 -11.104  0.00  0.00     0.241 C 
ATOM      5  O   PRO d   1     -67.329  27.587 -11.251  0.00  0.00    -0.271 OA
ATOM      6  H63 ARG d   1     -69.620  29.709 -11.529  0.00  0.00     0.163 HD
BRANCH   4   7
ATOM      7  CA  PRO d   1     -67.529  29.643 -10.043  0.00  0.00     0.091 C 
ATOM      8  N   PRO d   1     -66.540  29.155  -9.072  0.00  0.00    -0.337 N 
ATOM      9  C   THR d   1     -66.782  28.513  -7.919  0.00  0.00     0.245 C 
ATOM     10  CD  PRO d   1     -65.162  29.518  -9.462  0.00  0.00    -0.001 C 
ATOM     11  O   THR d   1     -67.910  28.178  -7.569  0.00  0.00    -0.271 OA
ATOM     12  CG  PRO d   1     -65.347  30.262 -10.766  0.00  0.00    -0.048 C 
ATOM     13  H61 PRO d   1     -64.545  28.619  -9.607  0.00  0.00     0.064 H 
ATOM     14  H62 PRO d   1     -64.696  30.164  -8.704  0.00  0.00     0.064 H 
ATOM     15  CB  PRO d   1     -66.779  30.777 -10.730  0.00  0.00    -0.036 C 
ATOM     16  H59 PRO d   1     -64.637  31.099 -10.837  0.00  0.00     0.035 H 
ATOM     17  H60 PRO d   1     -65.202  29.585 -11.621  0.00  0.00     0.035 H 
ATOM     18  H57 PRO d   1     -66.850  31.708 -10.149  0.00  0.00     0.036 H 
ATOM     19  H58 PRO d   1     -67.164  30.948 -11.746  0.00  0.00     0.036 H 
ATOM     20  H56 PRO d   1     -68.418  30.017  -9.515  0.00  0.00     0.087 H 
BRANCH   9  21
ATOM     21  CA  THR d   1     -65.571  28.209  -7.034  0.00  0.00     0.114 C 
ATOM     22  H50 THR d   1     -64.729  28.831  -7.372  0.00  0.00     0.091 H 
BRANCH  21  23
ATOM     23  N   THR d   1     -65.846  28.550  -5.632  0.00  0.00    -0.344 N 
ATOM     24  C   LEU d   1     -65.295  29.630  -5.079  0.00  0.00     0.241 C 
ATOM     25  O   LEU d   1     -64.535  30.374  -5.700  0.00  0.00    -0.271 OA
ATOM     26  H49 THR d   1     -66.451  27.968  -5.089  0.00  0.00     0.163 HD
BRANCH  24  27
ATOM     27  CA  LEU d   1     -65.633  29.926  -3.621  0.00  0.00     0.089 C 
ATOM     28  H39 LEU d   1     -65.651  31.018  -3.494  0.00  0.00     0.087 H 
BRANCH  27  29
ATOM     29  N   LEU d   1     -66.948  29.412  -3.230  0.00  0.00    -0.346 N 
ATOM     30  C   LEU d   1     -67.984  30.220  -2.988  0.00  0.00     0.241 C 
ATOM     31  O   LEU d   1     -67.910  31.442  -3.081  0.00  0.00    -0.271 OA
ATOM     32  H38 LEU d   1     -67.074  28.424  -3.141  0.00  0.00     0.163 HD
BRANCH  30  33
ATOM     33  CA  LEU d   1     -69.306  29.560  -2.567  0.00  0.00     0.089 C 
ATOM     34  H28 LEU d   1     -69.882  30.304  -1.997  0.00  0.00     0.087 H 
BRANCH  33  35
ATOM     35  N   LEU d   1     -70.114  29.144  -3.698  0.00  0.00    -0.346 N 
ATOM     36  C   ILE d   1     -71.073  29.938  -4.152  0.00  0.00     0.241 C 
ATOM     37  O   ILE d   1     -71.250  31.081  -3.709  0.00  0.00    -0.271 OA
ATOM     38  H27 LEU d   1     -69.948  28.260  -4.134  0.00  0.00     0.163 HD
BRANCH  36  39
ATOM     39  CA  ILE d   1     -71.954  29.364  -5.266  0.00  0.00     0.092 C 
ATOM     40  H17 ILE d   1     -71.590  28.355  -5.511  0.00  0.00     0.088 H 
BRANCH  39  41
ATOM     41  N   ILE d   1     -73.341  29.252  -4.829  0.00  0.00    -0.346 N 
ATOM     42  C   LYS d   1     -73.735  28.339  -3.943  0.00  0.00     0.249 C 
ATOM     43  O   LYS d   1     -72.970  27.498  -3.453  0.00  0.00    -0.271 OA
ATOM     44  H16 ILE d   1     -74.019  29.882  -5.207  0.00  0.00     0.163 HD
BRANCH  42  45
ATOM     45  CA  LYS d   1     -75.214  28.390  -3.553  0.00  0.00     0.176 C 
ATOM     46  H4  LYS d   1     -75.740  29.013  -4.291  0.00  0.00     0.099 H 
BRANCH  45  47
ATOM     47  N   LYS d   1     -75.826  27.067  -3.567  0.00  0.00    -0.067 N 
ATOM     48  H1  LYS d   1     -76.796  27.143  -3.305  0.00  0.00     0.275 HD
ATOM     49  H2  LYS d   1     -75.347  26.468  -2.912  0.00  0.00     0.275 HD
ATOM     50  H3  LYS d   1     -75.757  26.675  -4.493  0.00  0.00     0.275 HD
ENDBRANCH  45  47
BRANCH  45  51
ATOM     51  CB  LYS d   1     -75.369  29.043  -2.175  0.00  0.00    -0.030 C 
ATOM     52  H5  LYS d   1     -75.487  28.247  -1.425  0.00  0.00     0.036 H 
ATOM     53  H6  LYS d   1     -76.272  29.671  -2.188  0.00  0.00     0.036 H 
BRANCH  51  54
ATOM     54  CG  LYS d   1     -74.179  29.917  -1.769  0.00  0.00    -0.061 C 
ATOM     55  H7  LYS d   1     -73.623  30.194  -2.677  0.00  0.00     0.033 H 
ATOM     56  H8  LYS d   1     -73.527  29.333  -1.103  0.00  0.00     0.033 H 
BRANCH  54  57
ATOM     57  CD  LYS d   1     -74.591  31.192  -1.046  0.00  0.00    -0.043 C 
ATOM     58  H9  LYS d   1     -74.980  30.935  -0.050  0.00  0.00     0.035 H 
ATOM     59  H10 LYS d   1     -75.375  31.701  -1.626  0.00  0.00     0.035 H 
BRANCH  57  60
ATOM     60  CE  LYS d   1     -73.387  32.129  -0.892  0.00  0.00     0.080 C 
ATOM     61  H11 LYS d   1     -72.936  32.289  -1.882  0.00  0.00     0.075 H 
ATOM     62  H12 LYS d   1     -72.652  31.652  -0.227  0.00  0.00     0.075 H 
BRANCH  60  63
ATOM     63  NZ  LYS d   1     -73.763  33.452  -0.319  0.00  0.00    -0.079 N 
ATOM     64  H13 LYS d   1     -72.941  34.029  -0.238  0.00  0.00     0.274 HD
ATOM     65  H14 LYS d   1     -74.171  33.319   0.593  0.00  0.00     0.274 HD
ATOM     66  H15 LYS d   1     -74.431  33.903  -0.924  0.00  0.00     0.274 HD
ENDBRANCH  60  63
ENDBRANCH  57  60
ENDBRANCH  54  57
ENDBRANCH  51  54
ENDBRANCH  45  51
ENDBRANCH  42  45
ENDBRANCH  39  41
BRANCH  39  67
ATOM     67  CB  ILE d   1     -71.840  30.239  -6.524  0.00  0.00    -0.030 C 
ATOM     68  H18 ILE d   1     -72.219  31.244  -6.285  0.00  0.00     0.043 H 
BRANCH  67  69
ATOM     69  CG1 ILE d   1     -72.709  29.657  -7.651  0.00  0.00    -0.063 C 
ATOM     70  H19 ILE d   1     -73.722  29.499  -7.253  0.00  0.00     0.033 H 
ATOM     71  H20 ILE d   1     -72.277  28.690  -7.949  0.00  0.00     0.033 H 
BRANCH  69  72
ATOM     72  CD1 ILE d   1     -72.824  30.538  -8.914  0.00  0.00    -0.076 C 
ATOM     73  H24 ILE d   1     -73.463  30.035  -9.655  0.00  0.00     0.027 H 
ATOM     74  H25 ILE d   1     -71.823  30.699  -9.341  0.00  0.00     0.027 H 
ATOM     75  H26 ILE d   1     -73.268  31.508  -8.645  0.00  0.00     0.027 H 
ENDBRANCH  69  72
ENDBRANCH  67  69
BRANCH  67  76
ATOM     76  CG2 ILE d   1     -70.380  30.370  -6.939  0.00  0.00    -0.071 C 
ATOM     77  H21 ILE d   1     -69.798  30.789  -6.105  0.00  0.00     0.028 H 
ATOM     78  H22 ILE d   1     -70.305  31.037  -7.810  0.00  0.00     0.028 H 
ATOM     79  H23 ILE d   1     -69.983  29.378  -7.202  0.00  0.00     0.028 H 
ENDBRANCH  67  76
ENDBRANCH  39  67
ENDBRANCH  36  39
ENDBRANCH  33  35
BRANCH  33  80
ATOM     80  CB  LEU d   1     -69.046  28.363  -1.663  0.00  0.00    -0.035 C 
ATOM     81  H29 LEU d   1     -68.323  27.708  -2.171  0.00  0.00     0.037 H 
ATOM     82  H30 LEU d   1     -69.998  27.827  -1.532  0.00  0.00     0.037 H 
BRANCH  80  83
ATOM     83  CG  LEU d   1     -68.495  28.679  -0.277  0.00  0.00    -0.059 C 
ATOM     84  H31 LEU d   1     -67.478  29.086  -0.373  0.00  0.00     0.038 H 
BRANCH  83  85
ATOM     85  CD1 LEU d   1     -69.370  29.714   0.420  0.00  0.00    -0.073 C 
ATOM     86  H32 LEU d   1     -68.959  29.930   1.417  0.00  0.00     0.028 H 
ATOM     87  H33 LEU d   1     -70.392  29.321   0.522  0.00  0.00     0.028 H 
ATOM     88  H34 LEU d   1     -69.391  30.638  -0.176  0.00  0.00     0.028 H 
ENDBRANCH  83  85
BRANCH  83  89
ATOM     89  CD2 LEU d   1     -68.439  27.382   0.507  0.00  0.00    -0.073 C 
ATOM     90  H35 LEU d   1     -67.801  26.660  -0.024  0.00  0.00     0.028 H 
ATOM     91  H36 LEU d   1     -69.454  26.970   0.607  0.00  0.00     0.028 H 
ATOM     92  H37 LEU d   1     -68.022  27.575   1.506  0.00  0.00     0.028 H 
ENDBRANCH  83  89
ENDBRANCH  80  83
ENDBRANCH  33  80
ENDBRANCH  30  33
ENDBRANCH  27  29
BRANCH  27  93
ATOM     93  CB  LEU d   1     -64.535  29.354  -2.715  0.00  0.00    -0.035 C 
ATOM     94  H40 LEU d   1     -63.578  29.777  -3.055  0.00  0.00     0.037 H 
ATOM     95  H41 LEU d   1     -64.526  28.264  -2.860  0.00  0.00     0.037 H 
BRANCH  93  96
ATOM     96  CG  LEU d   1     -64.637  29.611  -1.212  0.00  0.00    -0.059 C 
ATOM     97  H42 LEU d   1     -65.501  29.057  -0.817  0.00  0.00     0.038 H 
BRANCH  96  98
ATOM     98  CD1 LEU d   1     -63.378  29.126  -0.509  0.00  0.00    -0.073 C 
ATOM     99  H43 LEU d   1     -63.465  29.317   0.571  0.00  0.00     0.028 H 
ATOM    100  H44 LEU d   1     -62.505  29.664  -0.908  0.00  0.00     0.028 H 
ATOM    101  H45 LEU d   1     -63.254  28.047  -0.682  0.00  0.00     0.028 H 
ENDBRANCH  96  98
BRANCH  96 102
ATOM    102  CD2 LEU d   1     -64.837  31.096  -0.937  0.00  0.00    -0.073 C 
ATOM    103  H46 LEU d   1     -65.748  31.444  -1.446  0.00  0.00     0.028 H 
ATOM    104  H47 LEU d   1     -63.969  31.659  -1.312  0.00  0.00     0.028 H 
ATOM    105  H48 LEU d   1     -64.938  31.258   0.146  0.00  0.00     0.028 H 
ENDBRANCH  96 102
ENDBRANCH  93  96
ENDBRANCH  27  93
ENDBRANCH  24  27
ENDBRANCH  21  23
BRANCH  21 106
ATOM    106  CB  THR d   1     -65.170  26.712  -7.211  0.00  0.00     0.060 C 
ATOM    107  H51 THR d   1     -64.784  26.562  -8.230  0.00  0.00     0.086 H 
BRANCH 106 108
ATOM    108  OG1 THR d   1     -66.310  25.880  -7.007  0.00  0.00    -0.393 OA
ATOM    109  H52 THR d   1     -66.981  26.103  -7.641  0.00  0.00     0.210 HD
ENDBRANCH 106 108
BRANCH 106 110
ATOM    110  CG2 THR d   1     -64.111  26.322  -6.218  0.00  0.00    -0.050 C 
ATOM    111  H53 THR d   1     -63.845  25.264  -6.362  0.00  0.00     0.031 H 
ATOM    112  H54 THR d   1     -64.494  26.468  -5.197  0.00  0.00     0.031 H 
ATOM    113  H55 THR d   1     -63.219  26.948  -6.368  0.00  0.00     0.031 H 
ENDBRANCH 106 110
ENDBRANCH  21 106
ENDBRANCH   9  21
ENDBRANCH   4   7
ENDBRANCH   1   3
BRANCH   1 114
ATOM    114  C   ARG d   1     -69.073  28.937 -14.294  0.00  0.00     0.241 C 
ATOM    115  O   ARG d   1     -68.494  30.027 -14.214  0.00  0.00    -0.271 OA
ATOM    116  N   ARG d   1     -69.353  28.346 -15.460  0.00  0.00    -0.346 N 
ATOM    117  H76 ARG d   1     -69.850  27.478 -15.451  0.00  0.00     0.163 HD
BRANCH 116 118
ATOM    118  CA  ARG d   1     -68.960  28.920 -16.755  0.00  0.00     0.089 C 
ATOM    119  H77 ARG d   1     -68.210  29.702 -16.565  0.00  0.00     0.087 H 
BRANCH 118 120
ATOM    120  C   ARG d   1     -70.137  29.557 -17.503  0.00  0.00     0.241 C 
ATOM    121  O   ARG d   1     -71.098  28.861 -17.826  0.00  0.00    -0.271 OA
ATOM    122  N   ARG d   1     -70.059  30.858 -17.799  0.00  0.00    -0.346 N 
ATOM    123  H89 ARG d   1     -69.249  31.375 -17.524  0.00  0.00     0.163 HD
BRANCH 122 124
ATOM    124  CA  ARG d   1     -71.143  31.546 -18.523  0.00  0.00     0.089 C 
ATOM    125  H90 ARG d   1     -72.087  31.330 -18.002  0.00  0.00     0.087 H 
BRANCH 124 126
ATOM    126  C   ARG d   1     -71.265  31.038 -19.964  0.00  0.00     0.241 C 
ATOM    127  O   ARG d   1     -72.374  30.957 -20.530  0.00  0.00    -0.271 OA
ATOM    128  N   GLN d   1     -70.126  30.667 -20.547  0.00  0.00    -0.346 N 
ATOM    129 2H10 GLN d   1     -69.269  30.741 -20.038  0.00  0.00     0.163 HD
BRANCH 128 130
ATOM    130  CA  GLN d   1     -70.104  30.155 -21.915  0.00  0.00     0.090 C 
ATOM    131 3H10 GLN d   1     -70.913  30.657 -22.466  0.00  0.00     0.087 H 
BRANCH 130 132
ATOM    132  C   GLN d   1     -70.341  28.649 -22.025  0.00  0.00     0.241 C 
ATOM    133  O   GLN d   1     -69.507  27.925 -22.566  0.00  0.00    -0.271 OA
ATOM    134  N   ARG d   1     -71.492  28.180 -21.548  0.00  0.00    -0.346 N 
ATOM    135 0H11 ARG d   1     -72.157  28.820 -21.163  0.00  0.00     0.163 HD
BRANCH 134 136
ATOM    136  CA  ARG d   1     -71.809  26.745 -21.573  0.00  0.00     0.089 C 
ATOM    137 1H11 ARG d   1     -70.987  26.213 -22.075  0.00  0.00     0.087 H 
BRANCH 136 138
ATOM    138  C   ARG d   1     -73.106  26.493 -22.353  0.00  0.00     0.241 C 
ATOM    139  O   ARG d   1     -73.449  27.274 -23.245  0.00  0.00    -0.271 OA
ATOM    140  N   LEU d   1     -73.824  25.429 -21.964  0.00  0.00    -0.345 N 
ATOM    141 3H12 LEU d   1     -73.465  24.905 -21.192  0.00  0.00     0.163 HD
BRANCH 140 142
ATOM    142  CA  LEU d   1     -75.092  24.950 -22.558  0.00  0.00     0.096 C 
ATOM    143 4H12 LEU d   1     -74.914  23.922 -22.907  0.00  0.00     0.089 H 
BRANCH 142 144
ATOM    144  C   LEU d   1     -75.587  25.760 -23.751  0.00  0.00     0.196 C 
ATOM    145  O   LEU d   1     -75.533  25.299 -24.885  0.00  0.00    -0.646 OA
ATOM    146  OXT LEU d   1     -76.047  26.885 -23.595  0.00  0.00    -0.646 OA
ENDBRANCH 142 144
BRANCH 142 147
ATOM    147  CB  LEU d   1     -76.215  24.916 -21.508  0.00  0.00    -0.034 C 
ATOM    148 5H12 LEU d   1     -76.875  24.087 -21.802  0.00  0.00     0.037 H 
ATOM    149 6H12 LEU d   1     -76.754  25.869 -21.615  0.00  0.00     0.037 H 
BRANCH 147 150
ATOM    150  CG  LEU d   1     -75.970  24.741 -20.004  0.00  0.00    -0.059 C 
ATOM    151 7H12 LEU d   1     -75.526  25.672 -19.621  0.00  0.00     0.038 H 
BRANCH 150 152
ATOM    152  CD1 LEU d   1     -77.319  24.538 -19.341  0.00  0.00    -0.073 C 
ATOM    153 8H12 LEU d   1     -77.179  24.409 -18.258  0.00  0.00     0.028 H 
ATOM    154 9H12 LEU d   1     -77.801  23.642 -19.758  0.00  0.00     0.028 H 
ATOM    155 0H13 LEU d   1     -77.955  25.416 -19.526  0.00  0.00     0.028 H 
ENDBRANCH 150 152
BRANCH 150 156
ATOM    156  CD2 LEU d   1     -75.008  23.598 -19.653  0.00  0.00    -0.073 C 
ATOM    157 1H13 LEU d   1     -74.040  23.770 -20.145  0.00  0.00     0.028 H 
ATOM    158 2H13 LEU d   1     -75.431  22.643 -19.999  0.00  0.00     0.028 H 
ATOM    159 3H13 LEU d   1     -74.864  23.562 -18.563  0.00  0.00     0.028 H 
ENDBRANCH 150 156
ENDBRANCH 147 150
ENDBRANCH 142 147
ENDBRANCH 140 142
ENDBRANCH 136 138
BRANCH 136 160
ATOM    160  CB  ARG d   1     -71.944  26.206 -20.145  0.00  0.00    -0.036 C 
ATOM    161 2H11 ARG d   1     -70.983  26.323 -19.623  0.00  0.00     0.036 H 
ATOM    162 3H11 ARG d   1     -72.211  25.140 -20.186  0.00  0.00     0.036 H 
BRANCH 160 163
ATOM    163  CG  ARG d   1     -73.035  26.971 -19.373  0.00  0.00    -0.048 C 
ATOM    164 4H11 ARG d   1     -73.959  26.957 -19.969  0.00  0.00     0.035 H 
ATOM    165 5H11 ARG d   1     -72.702  28.011 -19.237  0.00  0.00     0.035 H 
BRANCH 163 166
ATOM    166  CD  ARG d   1     -73.337  26.371 -17.992  0.00  0.00     0.009 C 
ATOM    167 6H11 ARG d   1     -72.472  26.535 -17.332  0.00  0.00     0.064 H 
ATOM    168 7H11 ARG d   1     -73.515  25.291 -18.101  0.00  0.00     0.064 H 
BRANCH 166 169
ATOM    169  NE  ARG d   1     -74.522  26.994 -17.392  0.00  0.00    -0.227 N 
ATOM    170  CZ  ARG d   1     -74.511  28.181 -16.778  0.00  0.00     0.665 C 
ATOM    171  NH1 ARG d   1     -73.404  28.918 -16.748  0.00  0.00    -0.235 N 
ATOM    172  NH2 ARG d   1     -75.618  28.678 -16.245  0.00  0.00    -0.235 N 
ATOM    173 9H11 ARG d   1     -73.406  29.831 -16.272  0.00  0.00     0.174 HD
ATOM    174 0H12 ARG d   1     -72.545  28.575 -17.201  0.00  0.00     0.174 HD
ATOM    175 1H12 ARG d   1     -76.488  28.126 -16.256  0.00  0.00     0.174 HD
ATOM    176 2H12 ARG d   1     -75.609  29.616 -15.820  0.00  0.00     0.174 HD
ATOM    177 8H11 ARG d   1     -75.416  26.486 -17.447  0.00  0.00     0.177 HD
ENDBRANCH 166 169
ENDBRANCH 163 166
ENDBRANCH 160 163
ENDBRANCH 136 160
ENDBRANCH 134 136
ENDBRANCH 130 132
BRANCH 130 178
ATOM    178  CB  GLN d   1     -68.773  30.513 -22.585  0.00  0.00    -0.030 C 
ATOM    179 4H10 GLN d   1     -68.717  31.609 -22.665  0.00  0.00     0.037 H 
ATOM    180 5H10 GLN d   1     -68.770  30.071 -23.592  0.00  0.00     0.037 H 
BRANCH 178 181
ATOM    181  CG  GLN d   1     -67.527  30.031 -21.858  0.00  0.00     0.011 C 
ATOM    182 6H10 GLN d   1     -67.615  28.948 -21.684  0.00  0.00     0.047 H 
ATOM    183 7H10 GLN d   1     -67.456  30.553 -20.892  0.00  0.00     0.047 H 
BRANCH 181 184
ATOM    184  CD  GLN d   1     -66.261  30.298 -22.652  0.00  0.00     0.215 C 
ATOM    185  OE1 GLN d   1     -65.912  31.449 -22.926  0.00  0.00    -0.274 OA
ATOM    186  NE2 GLN d   1     -65.576  29.223 -23.052  0.00  0.00    -0.370 N 
ATOM    187 8H10 GLN d   1     -64.733  29.335 -23.579  0.00  0.00     0.159 HD
ATOM    188 9H10 GLN d   1     -65.906  28.307 -22.825  0.00  0.00     0.159 HD
ENDBRANCH 181 184
ENDBRANCH 178 181
ENDBRANCH 130 178
ENDBRANCH 128 130
ENDBRANCH 124 126
BRANCH 124 189
ATOM    189  CB  ARG d   1     -70.934  33.069 -18.526  0.00  0.00    -0.036 C 
ATOM    190  H91 ARG d   1     -71.713  33.520 -19.158  0.00  0.00     0.036 H 
ATOM    191  H92 ARG d   1     -69.945  33.278 -18.959  0.00  0.00     0.036 H 
BRANCH 189 192
ATOM    192  CG  ARG d   1     -70.998  33.728 -17.150  0.00  0.00    -0.048 C 
ATOM    193  H93 ARG d   1     -70.263  33.245 -16.489  0.00  0.00     0.035 H 
ATOM    194  H94 ARG d   1     -72.008  33.592 -16.736  0.00  0.00     0.035 H 
BRANCH 192 195
ATOM    195  CD  ARG d   1     -70.689  35.231 -17.224  0.00  0.00     0.009 C 
ATOM    196  H95 ARG d   1     -69.716  35.370 -17.719  0.00  0.00     0.064 H 
ATOM    197  H96 ARG d   1     -70.642  35.635 -16.202  0.00  0.00     0.064 H 
BRANCH 195 198
ATOM    198  NE  ARG d   1     -71.712  35.963 -17.976  0.00  0.00    -0.227 N 
ATOM    199  CZ  ARG d   1     -71.666  37.268 -18.247  0.00  0.00     0.665 C 
ATOM    200  NH1 ARG d   1     -70.629  38.005 -17.849  0.00  0.00    -0.235 N 
ATOM    201  NH2 ARG d   1     -72.657  37.832 -18.939  0.00  0.00    -0.235 N 
ATOM    202  H98 ARG d   1     -70.601  39.012 -18.062  0.00  0.00     0.174 HD
ATOM    203  H99 ARG d   1     -69.856  37.567 -17.328  0.00  0.00     0.174 HD
ATOM    204 0H10 ARG d   1     -73.459  37.263 -19.247  0.00  0.00     0.174 HD
ATOM    205 1H10 ARG d   1     -72.621  38.836 -19.165  0.00  0.00     0.174 HD
ATOM    206  H97 ARG d   1     -72.525  35.432 -18.320  0.00  0.00     0.177 HD
ENDBRANCH 195 198
ENDBRANCH 192 195
ENDBRANCH 189 192
ENDBRANCH 124 189
ENDBRANCH 122 124
ENDBRANCH 118 120
BRANCH 118 207
ATOM    207  CB  ARG d   1     -68.327  27.837 -17.645  0.00  0.00    -0.036 C 
ATOM    208  H78 ARG d   1     -67.953  28.323 -18.558  0.00  0.00     0.036 H 
ATOM    209  H79 ARG d   1     -69.112  27.113 -17.910  0.00  0.00     0.036 H 
BRANCH 207 210
ATOM    210  CG  ARG d   1     -67.170  27.069 -17.012  0.00  0.00    -0.048 C 
ATOM    211  H80 ARG d   1     -67.490  26.686 -16.032  0.00  0.00     0.035 H 
ATOM    212  H81 ARG d   1     -66.319  27.753 -16.879  0.00  0.00     0.035 H 
BRANCH 210 213
ATOM    213  CD  ARG d   1     -66.728  25.888 -17.888  0.00  0.00     0.009 C 
ATOM    214  H82 ARG d   1     -67.543  25.150 -17.920  0.00  0.00     0.064 H 
ATOM    215  H83 ARG d   1     -65.836  25.430 -17.435  0.00  0.00     0.064 H 
BRANCH 213 216
ATOM    216  NE  ARG d   1     -66.403  26.287 -19.262  0.00  0.00    -0.227 N 
ATOM    217  CZ  ARG d   1     -67.049  25.852 -20.341  0.00  0.00     0.665 C 
ATOM    218  NH1 ARG d   1     -66.690  26.275 -21.549  0.00  0.00    -0.235 N 
ATOM    219  NH2 ARG d   1     -68.055  24.991 -20.214  0.00  0.00    -0.235 N 
ATOM    220  H85 ARG d   1     -67.191  25.937 -22.383  0.00  0.00     0.174 HD
ATOM    221  H86 ARG d   1     -65.911  26.941 -21.651  0.00  0.00     0.174 HD
ATOM    222  H87 ARG d   1     -68.336  24.661 -19.279  0.00  0.00     0.174 HD
ATOM    223  H88 ARG d   1     -68.553  24.654 -21.050  0.00  0.00     0.174 HD
ATOM    224  H84 ARG d   1     -65.624  26.947 -19.400  0.00  0.00     0.177 HD
ENDBRANCH 213 216
ENDBRANCH 210 213
ENDBRANCH 207 210
ENDBRANCH 118 207
ENDBRANCH 116 118
ENDBRANCH   1 114
BRANCH   1 225
ATOM    225  CB  ARG d   1     -71.030  27.979 -13.014  0.00  0.00    -0.036 C 
ATOM    226  H65 ARG d   1     -71.253  27.083 -13.611  0.00  0.00     0.036 H 
ATOM    227  H66 ARG d   1     -71.502  28.857 -13.479  0.00  0.00     0.036 H 
BRANCH 225 228
ATOM    228  CG  ARG d   1     -71.639  27.790 -11.623  0.00  0.00    -0.048 C 
ATOM    229  H67 ARG d   1     -71.586  28.758 -11.103  0.00  0.00     0.035 H 
ATOM    230  H68 ARG d   1     -71.023  27.052 -11.088  0.00  0.00     0.035 H 
BRANCH 228 231
ATOM    231  CD  ARG d   1     -73.122  27.301 -11.560  0.00  0.00     0.009 C 
ATOM    232  H69 ARG d   1     -73.533  27.591 -10.582  0.00  0.00     0.064 H 
ATOM    233  H70 ARG d   1     -73.121  26.204 -11.646  0.00  0.00     0.064 H 
BRANCH 231 234
ATOM    234  NE  ARG d   1     -74.011  27.834 -12.599  0.00  0.00    -0.227 N 
ATOM    235  CZ  ARG d   1     -75.340  27.855 -12.486  0.00  0.00     0.665 C 
ATOM    236  NH1 ARG d   1     -75.941  27.388 -11.400  0.00  0.00    -0.235 N 
ATOM    237  NH2 ARG d   1     -76.082  28.364 -13.436  0.00  0.00    -0.235 N 
ATOM    238  H72 ARG d   1     -76.968  27.412 -11.329  0.00  0.00     0.174 HD
ATOM    239  H73 ARG d   1     -75.380  27.001 -10.627  0.00  0.00     0.174 HD
ATOM    240  H74 ARG d   1     -75.642  28.734 -14.291  0.00  0.00     0.174 HD
ATOM    241  H75 ARG d   1     -77.106  28.395 -13.329  0.00  0.00     0.174 HD
ATOM    242  H71 ARG d   1     -73.587  28.211 -13.459  0.00  0.00     0.177 HD
ENDBRANCH 231 234
ENDBRANCH 228 231
ENDBRANCH 225 228
ENDBRANCH   1 225
TORSDOF 66
