REMARK  9 active torsions:
REMARK  status: ('A' for Active; 'I' for Inactive)
REMARK       I    between atoms: N12_1  and  C13_2 
REMARK    1  A    between atoms: C11_18  and  N12_1 
REMARK    2  A    between atoms: C13_2  and  C14_19 
REMARK    3  A    between atoms: C14_19  and  C15_3 
REMARK    4  A    between atoms: C26_6  and  N27_28 
REMARK       I    between atoms: N27_28  and  C28_7 
REMARK    5  A    between atoms: C28_7  and  C29_29 
REMARK    6  A    between atoms: C23_25  and  N03_10 
REMARK    7  A    between atoms: C06_13  and  N07_14 
REMARK    8  A    between atoms: N07_14  and  C08_15 
REMARK    9  A    between atoms: C29_29  and  C30_30 
ROOT
ATOM      1  C01 B4A d   1      77.856 159.885  -1.140  0.00  0.00    -0.031 C 
ATOM      2  C02 B4A d   1      76.544 159.775  -0.384  0.00  0.00    -0.001 C 
ATOM      3  N03 B4A d   1      75.962 161.110  -0.196  0.00  0.00    -0.358 N 
ATOM      4  C04 B4A d   1      76.857 162.057   0.440  0.00  0.00    -0.001 C 
ATOM      5  C05 B4A d   1      78.064 162.197  -0.425  0.00  0.00    -0.031 C 
ATOM      6  C06 B4A d   1      78.684 160.848  -0.406  0.00  0.00     0.014 C 
ATOM      7  H4  B4A d   1      77.675 160.243  -2.164  0.00  0.00     0.038 H 
ATOM      8  H5  B4A d   1      78.356 158.906  -1.177  0.00  0.00     0.038 H 
ATOM      9  H6  B4A d   1      76.727 159.315   0.598  0.00  0.00     0.064 H 
ATOM     10  H7  B4A d   1      75.844 159.149  -0.957  0.00  0.00     0.064 H 
ATOM     11  H8  B4A d   1      77.150 161.686   1.433  0.00  0.00     0.064 H 
ATOM     12  H9  B4A d   1      76.357 163.031   0.545  0.00  0.00     0.064 H 
ATOM     13  H10 B4A d   1      78.754 162.949  -0.014  0.00  0.00     0.038 H 
ATOM     14  H11 B4A d   1      77.779 162.481  -1.449  0.00  0.00     0.038 H 
ATOM     15  H12 B4A d   1      78.784 160.488   0.629  0.00  0.00     0.072 H 
ENDROOT
BRANCH   6  16
ATOM     16  N07 B4A d   1      79.965 161.076  -0.946  0.00  0.00    -0.363 N 
ATOM     17  H13 B4A d   1      80.323 160.732  -1.849  0.00  0.00     0.162 HD
BRANCH  16  18
ATOM     18  C08 B4A d   1      80.690 161.900   0.031  0.00  0.00     0.191 A 
ATOM     19  N09 B4A d   1      80.587 161.816   1.372  0.00  0.00    -0.122 NA
ATOM     20  N10 B4A d   1      81.338 162.690   2.082  0.00  0.00    -0.121 NA
ATOM     21  C11 B4A d   1      82.091 163.551   1.381  0.00  0.00     0.198 A 
ATOM     22  S22 B4A d   1      81.768 163.185  -0.290  0.00  0.00    -0.011 SA
BRANCH  21  23
ATOM     23  N12 B4A d   1      82.962 164.530   1.939  0.00  0.00    -0.304 N 
ATOM     24  C13 B4A d   1      83.881 165.282   1.109  0.00  0.00     0.227 C 
ATOM     25  O21 B4A d   1      83.912 165.111  -0.095  0.00  0.00    -0.273 OA
ATOM     26  H1  B4A d   1      82.939 164.702   2.924  0.00  0.00     0.171 HD
BRANCH  24  27
ATOM     27  C14 B4A d   1      84.855 166.336   1.733  0.00  0.00     0.033 C 
ATOM     28  H14 B4A d   1      85.857 166.195   1.302  0.00  0.00     0.054 H 
ATOM     29  H15 B4A d   1      84.899 166.181   2.821  0.00  0.00     0.054 H 
BRANCH  27  30
ATOM     30  C15 B4A d   1      84.390 167.769   1.453  0.00  0.00    -0.050 A 
ATOM     31  C20 B4A d   1      83.347 168.317   2.199  0.00  0.00    -0.076 A 
ATOM     32  C19 B4A d   1      82.906 169.628   1.953  0.00  0.00    -0.082 A 
ATOM     33  H3  B4A d   1      82.873 167.727   2.975  0.00  0.00     0.084 H 
ATOM     34  C18 B4A d   1      83.519 170.369   0.968  0.00  0.00    -0.083 A 
ATOM     35  H18 B4A d   1      82.093 170.051   2.532  0.00  0.00     0.083 H 
ATOM     36  C17 B4A d   1      84.570 169.816   0.222  0.00  0.00    -0.082 A 
ATOM     37  H17 B4A d   1      83.189 171.382   0.769  0.00  0.00     0.083 H 
ATOM     38  C16 B4A d   1      85.009 168.512   0.467  0.00  0.00    -0.076 A 
ATOM     39  H2  B4A d   1      85.047 170.406  -0.552  0.00  0.00     0.083 H 
ATOM     40  H16 B4A d   1      85.824 168.089  -0.109  0.00  0.00     0.084 H 
ENDBRANCH  27  30
ENDBRANCH  24  27
ENDBRANCH  21  23
ENDBRANCH  16  18
ENDBRANCH   6  16
BRANCH   3  41
ATOM     41  C23 B4A d   1      75.201 161.656  -1.254  0.00  0.00     0.193 A 
ATOM     42  N24 B4A d   1      75.211 161.337  -2.562  0.00  0.00    -0.122 NA
ATOM     43  N25 B4A d   1      74.389 162.023  -3.363  0.00  0.00    -0.121 NA
ATOM     44  C26 B4A d   1      73.675 162.989  -2.764  0.00  0.00     0.198 A 
ATOM     45  S37 B4A d   1      74.082 162.932  -1.087  0.00  0.00    -0.011 SA
BRANCH  44  46
ATOM     46  N27 B4A d   1      72.713 163.808  -3.427  0.00  0.00    -0.304 N 
ATOM     47  C28 B4A d   1      71.823 164.721  -2.750  0.00  0.00     0.227 C 
ATOM     48  O36 B4A d   1      71.886 164.877  -1.565  0.00  0.00    -0.273 OA
ATOM     49  H19 B4A d   1      72.651 163.746  -4.423  0.00  0.00     0.171 HD
BRANCH  47  50
ATOM     50  C29 B4A d   1      70.791 165.451  -3.564  0.00  0.00     0.033 C 
ATOM     51  H20 B4A d   1      69.911 164.793  -3.624  0.00  0.00     0.054 H 
ATOM     52  H21 B4A d   1      71.217 165.585  -4.569  0.00  0.00     0.054 H 
BRANCH  50  53
ATOM     53  C30 B4A d   1      70.284 166.826  -3.112  0.00  0.00    -0.050 A 
ATOM     54  C31 B4A d   1      69.800 167.117  -1.811  0.00  0.00    -0.076 A 
ATOM     55  C32 B4A d   1      69.355 168.404  -1.508  0.00  0.00    -0.082 A 
ATOM     56  H22 B4A d   1      69.776 166.341  -1.054  0.00  0.00     0.084 H 
ATOM     57  C33 B4A d   1      69.373 169.387  -2.506  0.00  0.00    -0.083 A 
ATOM     58  H23 B4A d   1      68.999 168.641  -0.512  0.00  0.00     0.083 H 
ATOM     59  C34 B4A d   1      69.828 169.080  -3.794  0.00  0.00    -0.082 A 
ATOM     60  H24 B4A d   1      69.033 170.391  -2.280  0.00  0.00     0.083 H 
ATOM     61  C35 B4A d   1      70.271 167.808  -4.093  0.00  0.00    -0.076 A 
ATOM     62  H25 B4A d   1      69.832 169.846  -4.561  0.00  0.00     0.083 H 
ATOM     63  H26 B4A d   1      70.610 167.575  -5.096  0.00  0.00     0.084 H 
ENDBRANCH  50  53
ENDBRANCH  47  50
ENDBRANCH  44  46
ENDBRANCH   3  41
TORSDOF 9
