REMARK  6 active torsions:
REMARK  status: ('A' for Active; 'I' for Inactive)
REMARK    1  A    between atoms: C9_16  and  C4_1 
REMARK    2  A    between atoms: C18_23  and  C17_6 
REMARK    3  A    between atoms: C22_8  and  N23_26 
REMARK    4  A    between atoms: C24_9  and  C26_10 
REMARK       I    between atoms: N23_26  and  C24_9 
REMARK    5  A    between atoms: C2_13  and  C1_12 
REMARK    6  A    between atoms: C31_31  and  C32_32 
ROOT
ATOM      1  C20 AQY d   1      17.004  -4.866   5.869  0.00  0.00     0.005 A 
ATOM      2  C22 AQY d   1      14.725  -4.868   5.410  0.00  0.00     0.130 A 
ATOM      3  C18 AQY d   1      16.288  -5.090   3.576  0.00  0.00     0.000 A 
ATOM      4  C19 AQY d   1      17.320  -4.990   4.531  0.00  0.00    -0.054 A 
ATOM      5  N21 AQY d   1      15.743  -4.813   6.269  0.00  0.00    -0.243 NA
ATOM      6  C34 AQY d   1      14.960  -5.000   4.039  0.00  0.00    -0.026 A 
ATOM      7  H4  AQY d   1      17.800  -4.811   6.603  0.00  0.00     0.114 H 
ATOM      8  H12 AQY d   1      18.357  -5.010   4.216  0.00  0.00     0.087 H 
ATOM      9  H19 AQY d   1      14.132  -5.033   3.341  0.00  0.00     0.090 H 
ENDROOT
BRANCH   3  10
ATOM     10  C17 AQY d   1      16.588  -5.189   2.134  0.00  0.00     0.100 A 
ATOM     11  C9  AQY d   1      17.748  -5.591   1.468  0.00  0.00     0.099 A 
ATOM     12  N10 AQY d   1      17.568  -5.453   0.149  0.00  0.00    -0.226 NA
ATOM     13  C11 AQY d   1      16.361  -4.980  -0.064  0.00  0.00     0.152 A 
ATOM     14  C12 AQY d   1      15.688  -4.662  -1.261  0.00  0.00    -0.035 A 
ATOM     15  N16 AQY d   1      15.721  -4.793   1.140  0.00  0.00    -0.213 N 
ATOM     16  C13 AQY d   1      14.420  -4.186  -1.159  0.00  0.00    -0.061 A 
ATOM     17  H10 AQY d   1      16.166  -4.793  -2.231  0.00  0.00     0.089 H 
ATOM     18  C14 AQY d   1      13.778  -4.029   0.078  0.00  0.00     0.022 A 
ATOM     19  H3  AQY d   1      13.884  -3.917  -2.068  0.00  0.00     0.086 H 
ATOM     20  N15 AQY d   1      14.415  -4.303   1.185  0.00  0.00    -0.178 NA
ATOM     21  H11 AQY d   1      12.748  -3.678   0.116  0.00  0.00     0.117 H 
BRANCH  11  22
ATOM     22  C4  AQY d   1      19.001  -6.147   1.999  0.00  0.00    -0.004 A 
ATOM     23  C5  AQY d   1      18.932  -7.355   2.722  0.00  0.00    -0.068 A 
ATOM     24  C6  AQY d   1      20.088  -7.938   3.208  0.00  0.00    -0.044 A 
ATOM     25  H1  AQY d   1      17.972  -7.827   2.897  0.00  0.00     0.085 H 
ATOM     26  C7  AQY d   1      21.306  -7.332   2.931  0.00  0.00     0.122 A 
ATOM     27  H2  AQY d   1      20.044  -8.849   3.793  0.00  0.00     0.088 H 
ATOM     28  C2  AQY d   1      21.374  -6.141   2.198  0.00  0.00    -0.022 A 
ATOM     29  F8  AQY d   1      22.431  -7.886   3.407  0.00  0.00    -0.206 F 
ATOM     30  C3  AQY d   1      20.228  -5.554   1.714  0.00  0.00    -0.062 A 
ATOM     31  H9  AQY d   1      20.279  -4.647   1.122  0.00  0.00     0.085 H 
BRANCH  28  32
ATOM     32  C1  AQY d   1      22.702  -5.491   1.919  0.00  0.00    -0.048 C 
ATOM     33  H6  AQY d   1      22.545  -4.573   1.334  0.00  0.00     0.033 H 
ATOM     34  H7  AQY d   1      23.337  -6.185   1.349  0.00  0.00     0.033 H 
ATOM     35  H8  AQY d   1      23.195  -5.240   2.870  0.00  0.00     0.033 H 
ENDBRANCH  28  32
ENDBRANCH  11  22
ENDBRANCH   3  10
BRANCH   2  36
ATOM     36  N23 AQY d   1      13.449  -4.776   5.955  0.00  0.00    -0.307 N 
ATOM     37  C24 AQY d   1      12.283  -4.470   5.337  0.00  0.00     0.257 C 
ATOM     38  O25 AQY d   1      12.196  -4.243   4.141  0.00  0.00    -0.267 OA
ATOM     39  H13 AQY d   1      13.383  -4.961   6.936  0.00  0.00     0.170 HD
BRANCH  37  40
ATOM     40  C26 AQY d   1      11.084  -4.426   6.200  0.00  0.00     0.035 A 
ATOM     41  C27 AQY d   1       9.946  -3.669   5.854  0.00  0.00    -0.050 A 
ATOM     42  C28 AQY d   1       8.865  -3.664   6.724  0.00  0.00     0.012 A 
ATOM     43  H14 AQY d   1       9.916  -3.104   4.929  0.00  0.00     0.087 H 
ATOM     44  N29 AQY d   1       8.915  -4.347   7.865  0.00  0.00    -0.204 N 
ATOM     45  H5  AQY d   1       7.974  -3.100   6.473  0.00  0.00     0.115 H 
ATOM     46  O30 AQY d   1       7.779  -4.300   8.714  0.00  0.00    -0.081 OA
ATOM     47  C31 AQY d   1       9.969  -5.070   8.233  0.00  0.00     0.040 A 
ATOM     48  C33 AQY d   1      11.082  -5.131   7.415  0.00  0.00    -0.044 A 
ATOM     49  H18 AQY d   1      11.945  -5.718   7.709  0.00  0.00     0.088 H 
BRANCH  47  50
ATOM     50  C32 AQY d   1       9.994  -5.834   9.539  0.00  0.00    -0.035 C 
ATOM     51  H15 AQY d   1      10.956  -6.358   9.639  0.00  0.00     0.035 H 
ATOM     52  H16 AQY d   1       9.174  -6.567   9.551  0.00  0.00     0.035 H 
ATOM     53  H17 AQY d   1       9.870  -5.132  10.377  0.00  0.00     0.035 H 
ENDBRANCH  47  50
ENDBRANCH  37  40
ENDBRANCH   2  36
TORSDOF 6
