REMARK WARNING: 32 MAX_TORS EXCEEDED!!!
REMARK  39 active torsions:
REMARK  status: ('A' for Active; 'I' for Inactive)
REMARK    1  A    between atoms: N_1  and  CA_2 
REMARK    2  A    between atoms: CA_2  and  C_3 
REMARK       I    between atoms: C_3  and  N_5 
REMARK    3  A    between atoms: N_5  and  CA_6 
REMARK    4  A    between atoms: CA_6  and  C_7 
REMARK    5  A    between atoms: CA_6  and  CB_9 
REMARK       I    between atoms: C_7  and  N_12 
REMARK    6  A    between atoms: CB_9  and  OG1_10 
REMARK    7  A    between atoms: CB_9  and  CG2_11 
REMARK    8  A    between atoms: N_12  and  CA_13 
REMARK    9  A    between atoms: CA_13  and  C_14 
REMARK   10  A    between atoms: CA_13  and  CB_16 
REMARK       I    between atoms: C_14  and  N_18 
REMARK   11  A    between atoms: CB_16  and  OG_17 
REMARK   12  A    between atoms: N_18  and  CA_19 
REMARK   13  A    between atoms: CA_19  and  C_20 
REMARK       I    between atoms: C_20  and  N_22 
REMARK   14  A    between atoms: N_22  and  CA_23 
REMARK   15  A    between atoms: CA_23  and  C_24 
REMARK   16  A    between atoms: CA_23  and  CB_26 
REMARK       I    between atoms: C_24  and  N_28 
REMARK   17  A    between atoms: CB_26  and  OG_27 
REMARK   18  A    between atoms: CA_29  and  C_30 
REMARK       I    between atoms: C_30  and  N_35 
REMARK   19  A    between atoms: N_35  and  CA_36 
REMARK   20  A    between atoms: CA_36  and  C_37 
REMARK   21  A    between atoms: CA_36  and  CB_39 
REMARK       I    between atoms: C_37  and  N_43 
REMARK   22  A    between atoms: CB_39  and  CG1_40 
REMARK   23  A    between atoms: CB_39  and  CG2_41 
REMARK   24  A    between atoms: CG1_40  and  CD1_42 
REMARK   25  A    between atoms: N_43  and  CA_44 
REMARK   26  A    between atoms: CA_44  and  C_45 
REMARK   27  A    between atoms: CA_44  and  CB_47 
REMARK       I    between atoms: C_45  and  N_50 
REMARK   28  A    between atoms: CB_47  and  CG1_48 
REMARK   29  A    between atoms: CB_47  and  CG2_49 
REMARK   30  A    between atoms: N_50  and  CA_51 
REMARK   31  A    between atoms: CA_51  and  C_52 
REMARK   32  A    between atoms: CA_51  and  CB_54 
REMARK       I    between atoms: C_52  and  N_58 
REMARK   33  A    between atoms: CB_54  and  CG_55 
REMARK       I    between atoms: CG_55  and  ND2_57 
REMARK   34  A    between atoms: N_58  and  CA_59 
REMARK   35  A    between atoms: CA_59  and  C_60 
REMARK   36  A    between atoms: CA_59  and  CB_62 
REMARK   37  A    between atoms: CB_62  and  CG_63 
REMARK   38  A    between atoms: CG_63  and  CD_64 
REMARK   39  A    between atoms: CD_64  and  NE_65 
REMARK       I    between atoms: NE_65  and  CZ_66 
REMARK       I    between atoms: CZ_66  and  NH1_67 
ROOT
ATOM      1  CA  ILE d   1     -35.283  12.197   9.932  0.00  0.00     0.092 C 
ATOM      2  H34 ILE d   1     -34.901  12.566   8.969  0.00  0.00     0.088 H 
ENDROOT
BRANCH   1   3
ATOM      3  N   ILE d   1     -35.829  10.873   9.696  0.00  0.00    -0.346 N 
ATOM      4  C   PRO d   1     -36.066  10.346   8.493  0.00  0.00     0.241 C 
ATOM      5  O   PRO d   1     -35.917  10.984   7.446  0.00  0.00    -0.271 OA
ATOM      6  H33 ILE d   1     -36.044  10.313  10.496  0.00  0.00     0.163 HD
BRANCH   4   7
ATOM      7  CA  PRO d   1     -36.570   8.899   8.466  0.00  0.00     0.091 C 
ATOM      8  N   PRO d   1     -37.598   8.636   7.453  0.00  0.00    -0.337 N 
ATOM      9  C   SER d   1     -38.947   8.656   7.580  0.00  0.00     0.245 C 
ATOM     10  CD  PRO d   1     -36.972   8.260   6.170  0.00  0.00    -0.001 C 
ATOM     11  O   SER d   1     -39.683   8.402   6.619  0.00  0.00    -0.271 OA
ATOM     12  CG  PRO d   1     -35.563   7.822   6.558  0.00  0.00    -0.048 C 
ATOM     13  H31 PRO d   1     -36.939   9.120   5.485  0.00  0.00     0.064 H 
ATOM     14  H32 PRO d   1     -37.521   7.434   5.695  0.00  0.00     0.064 H 
ATOM     15  CB  PRO d   1     -35.465   7.914   8.077  0.00  0.00    -0.036 C 
ATOM     16  H29 PRO d   1     -35.387   6.787   6.231  0.00  0.00     0.035 H 
ATOM     17  H30 PRO d   1     -34.820   8.486   6.091  0.00  0.00     0.035 H 
ATOM     18  H27 PRO d   1     -35.638   6.931   8.539  0.00  0.00     0.036 H 
ATOM     19  H28 PRO d   1     -34.479   8.294   8.382  0.00  0.00     0.036 H 
ATOM     20  H26 PRO d   1     -36.961   8.658   9.465  0.00  0.00     0.087 H 
BRANCH   9  21
ATOM     21  CA  SER d   1     -39.592   9.008   8.941  0.00  0.00     0.109 C 
ATOM     22  H22 SER d   1     -38.792   9.287   9.643  0.00  0.00     0.090 H 
BRANCH  21  23
ATOM     23  N   SER d   1     -40.506  10.142   8.805  0.00  0.00    -0.344 N 
ATOM     24  C   GLY d   1     -40.643  11.156   9.684  0.00  0.00     0.236 C 
ATOM     25  O   GLY d   1     -39.986  11.243  10.724  0.00  0.00    -0.272 OA
ATOM     26  H21 SER d   1     -41.081  10.168   7.987  0.00  0.00     0.163 HD
BRANCH  24  27
ATOM     27  CA  GLY d   1     -41.672  12.214   9.340  0.00  0.00     0.069 C 
ATOM     28  H19 GLY d   1     -42.543  12.097  10.002  0.00  0.00     0.078 H 
ATOM     29  H20 GLY d   1     -41.228  13.209   9.490  0.00  0.00     0.078 H 
BRANCH  27  30
ATOM     30  N   GLY d   1     -42.106  12.090   7.957  0.00  0.00    -0.350 N 
ATOM     31  C   SER d   1     -41.948  13.043   7.055  0.00  0.00     0.242 C 
ATOM     32  O   SER d   1     -41.483  14.159   7.310  0.00  0.00    -0.271 OA
ATOM     33  H18 GLY d   1     -42.547  11.239   7.674  0.00  0.00     0.163 HD
BRANCH  31  34
ATOM     34  CA  SER d   1     -42.407  12.697   5.639  0.00  0.00     0.109 C 
ATOM     35  H14 SER d   1     -43.089  11.834   5.668  0.00  0.00     0.090 H 
BRANCH  34  36
ATOM     36  N   SER d   1     -43.104  13.852   5.101  0.00  0.00    -0.344 N 
ATOM     37  C   THR d   1     -44.382  14.134   5.374  0.00  0.00     0.243 C 
ATOM     38  O   THR d   1     -45.097  13.415   6.074  0.00  0.00    -0.271 OA
ATOM     39  H13 SER d   1     -42.602  14.469   4.495  0.00  0.00     0.163 HD
BRANCH  37  40
ATOM     40  CA  THR d   1     -44.902  15.451   4.805  0.00  0.00     0.113 C 
ATOM     41  H7  THR d   1     -44.480  15.568   3.796  0.00  0.00     0.091 H 
BRANCH  40  42
ATOM     42  N   THR d   1     -46.360  15.538   4.674  0.00  0.00    -0.344 N 
ATOM     43  C   GLY d   1     -47.117  14.714   3.933  0.00  0.00     0.243 C 
ATOM     44  O   GLY d   1     -46.660  13.766   3.300  0.00  0.00    -0.272 OA
ATOM     45  H6  THR d   1     -46.826  16.267   5.175  0.00  0.00     0.163 HD
BRANCH  43  46
ATOM     46  CA  GLY d   1     -48.604  14.986   3.917  0.00  0.00     0.152 C 
ATOM     47  H4  GLY d   1     -49.129  14.101   4.305  0.00  0.00     0.090 H 
ATOM     48  H5  GLY d   1     -48.812  15.850   4.566  0.00  0.00     0.090 H 
BRANCH  46  49
ATOM     49  N   GLY d   1     -49.101  15.276   2.577  0.00  0.00    -0.071 N 
ATOM     50  H1  GLY d   1     -50.093  15.450   2.617  0.00  0.00     0.274 HD
ATOM     51  H2  GLY d   1     -48.922  14.488   1.974  0.00  0.00     0.274 HD
ATOM     52  H3  GLY d   1     -48.632  16.090   2.213  0.00  0.00     0.274 HD
ENDBRANCH  46  49
ENDBRANCH  43  46
ENDBRANCH  40  42
BRANCH  40  53
ATOM     53  CB  THR d   1     -44.369  16.580   5.688  0.00  0.00     0.060 C 
ATOM     54  H8  THR d   1     -43.311  16.368   5.901  0.00  0.00     0.086 H 
BRANCH  53  55
ATOM     55  OG1 THR d   1     -45.079  16.585   6.923  0.00  0.00    -0.393 OA
ATOM     56  H9  THR d   1     -46.004  16.721   6.755  0.00  0.00     0.210 HD
ENDBRANCH  53  55
BRANCH  53  57
ATOM     57  CG2 THR d   1     -44.433  17.933   5.025  0.00  0.00    -0.050 C 
ATOM     58  H10 THR d   1     -44.036  18.696   5.711  0.00  0.00     0.031 H 
ATOM     59  H11 THR d   1     -45.478  18.171   4.777  0.00  0.00     0.031 H 
ATOM     60  H12 THR d   1     -43.831  17.919   4.104  0.00  0.00     0.031 H 
ENDBRANCH  53  57
ENDBRANCH  40  53
ENDBRANCH  37  40
ENDBRANCH  34  36
BRANCH  34  61
ATOM     61  CB  SER d   1     -41.195  12.353   4.780  0.00  0.00     0.044 C 
ATOM     62  H15 SER d   1     -40.474  13.182   4.824  0.00  0.00     0.077 H 
ATOM     63  H16 SER d   1     -41.520  12.204   3.740  0.00  0.00     0.077 H 
BRANCH  61  64
ATOM     64  OG  SER d   1     -40.571  11.168   5.248  0.00  0.00    -0.398 OA
ATOM     65  H17 SER d   1     -39.819  10.970   4.702  0.00  0.00     0.209 HD
ENDBRANCH  61  64
ENDBRANCH  34  61
ENDBRANCH  31  34
ENDBRANCH  27  30
ENDBRANCH  24  27
ENDBRANCH  21  23
BRANCH  21  66
ATOM     66  CB  SER d   1     -40.339   7.800   9.509  0.00  0.00     0.044 C 
ATOM     67  H23 SER d   1     -41.343   7.768   9.061  0.00  0.00     0.077 H 
ATOM     68  H24 SER d   1     -40.427   7.924  10.598  0.00  0.00     0.077 H 
BRANCH  66  69
ATOM     69  OG  SER d   1     -39.688   6.568   9.246  0.00  0.00    -0.398 OA
ATOM     70  H25 SER d   1     -39.613   6.445   8.307  0.00  0.00     0.209 HD
ENDBRANCH  66  69
ENDBRANCH  21  66
ENDBRANCH   9  21
ENDBRANCH   4   7
ENDBRANCH   1   3
BRANCH   1  71
ATOM     71  C   ILE d   1     -34.088  11.978  10.845  0.00  0.00     0.241 C 
ATOM     72  O   ILE d   1     -34.183  12.056  12.076  0.00  0.00    -0.271 OA
ATOM     73  N   VAL d   1     -32.977  11.589  10.207  0.00  0.00    -0.346 N 
ATOM     74  H44 VAL d   1     -33.032  11.489   9.213  0.00  0.00     0.163 HD
BRANCH  73  75
ATOM     75  CA  VAL d   1     -31.693  11.299  10.838  0.00  0.00     0.092 C 
ATOM     76  H45 VAL d   1     -31.817  11.475  11.917  0.00  0.00     0.088 H 
BRANCH  75  77
ATOM     77  C   VAL d   1     -30.618  12.272  10.343  0.00  0.00     0.241 C 
ATOM     78  O   VAL d   1     -30.733  12.816   9.238  0.00  0.00    -0.271 OA
ATOM     79  N   ASN d   1     -29.589  12.504  11.176  0.00  0.00    -0.346 N 
ATOM     80  H53 ASN d   1     -29.580  12.049  12.066  0.00  0.00     0.163 HD
BRANCH  79  81
ATOM     81  CA  ASN d   1     -28.485  13.394  10.833  0.00  0.00     0.097 C 
ATOM     82  H54 ASN d   1     -28.900  14.378  10.568  0.00  0.00     0.088 H 
BRANCH  81  83
ATOM     83  C   ASN d   1     -27.721  12.849   9.634  0.00  0.00     0.241 C 
ATOM     84  O   ASN d   1     -27.533  11.635   9.504  0.00  0.00    -0.271 OA
ATOM     85  N   ARG d   1     -27.292  13.751   8.752  0.00  0.00    -0.345 N 
ATOM     86  H59 ARG d   1     -27.489  14.721   8.896  0.00  0.00     0.163 HD
BRANCH  85  87
ATOM     87  CA  ARG d   1     -26.537  13.330   7.578  0.00  0.00     0.096 C 
ATOM     88  H60 ARG d   1     -26.753  12.262   7.429  0.00  0.00     0.089 H 
BRANCH  87  89
ATOM     89  C   ARG d   1     -24.998  13.436   7.815  0.00  0.00     0.196 C 
ATOM     90  O   ARG d   1     -24.555  14.213   8.685  0.00  0.00    -0.646 OA
ATOM     91  OXT ARG d   1     -24.255  12.632   7.220  0.00  0.00    -0.646 OA
ENDBRANCH  87  89
BRANCH  87  92
ATOM     92  CB  ARG d   1     -27.022  14.052   6.304  0.00  0.00    -0.035 C 
ATOM     93  H61 ARG d   1     -28.122  14.054   6.320  0.00  0.00     0.036 H 
ATOM     94  H62 ARG d   1     -26.669  13.473   5.438  0.00  0.00     0.036 H 
BRANCH  92  95
ATOM     95  CG  ARG d   1     -26.565  15.475   6.120  0.00  0.00    -0.047 C 
ATOM     96  H63 ARG d   1     -25.467  15.495   6.056  0.00  0.00     0.035 H 
ATOM     97  H64 ARG d   1     -26.893  16.073   6.983  0.00  0.00     0.035 H 
BRANCH  95  98
ATOM     98  CD  ARG d   1     -27.147  16.072   4.853  0.00  0.00     0.009 C 
ATOM     99  H65 ARG d   1     -27.383  15.259   4.150  0.00  0.00     0.064 H 
ATOM    100  H66 ARG d   1     -26.403  16.744   4.400  0.00  0.00     0.064 H 
BRANCH  98 101
ATOM    101  NE  ARG d   1     -28.367  16.830   5.130  0.00  0.00    -0.227 N 
ATOM    102  CZ  ARG d   1     -29.577  16.489   4.709  0.00  0.00     0.665 C 
ATOM    103  NH1 ARG d   1     -29.744  15.406   3.965  0.00  0.00    -0.235 N 
ATOM    104  NH2 ARG d   1     -30.627  17.234   5.020  0.00  0.00    -0.235 N 
ATOM    105  H68 ARG d   1     -30.686  15.145   3.640  0.00  0.00     0.174 HD
ATOM    106  H69 ARG d   1     -28.932  14.825   3.711  0.00  0.00     0.174 HD
ATOM    107  H70 ARG d   1     -30.507  18.078   5.598  0.00  0.00     0.174 HD
ATOM    108  H71 ARG d   1     -31.564  16.969   4.684  0.00  0.00     0.174 HD
ATOM    109  H67 ARG d   1     -28.280  17.689   5.692  0.00  0.00     0.177 HD
ENDBRANCH  98 101
ENDBRANCH  95  98
ENDBRANCH  92  95
ENDBRANCH  87  92
ENDBRANCH  85  87
ENDBRANCH  81  83
BRANCH  81 110
ATOM    110  CB  ASN d   1     -27.534  13.571  12.023  0.00  0.00     0.036 C 
ATOM    111  H55 ASN d   1     -26.631  14.084  11.660  0.00  0.00     0.051 H 
ATOM    112  H56 ASN d   1     -27.264  12.570  12.391  0.00  0.00     0.051 H 
BRANCH 110 113
ATOM    113  CG  ASN d   1     -28.078  14.360  13.187  0.00  0.00     0.217 C 
ATOM    114  OD1 ASN d   1     -28.000  13.924  14.340  0.00  0.00    -0.274 OA
ATOM    115  ND2 ASN d   1     -28.555  15.570  12.933  0.00  0.00    -0.370 N 
ATOM    116  H57 ASN d   1     -28.925  16.128  13.676  0.00  0.00     0.159 HD
ATOM    117  H58 ASN d   1     -28.544  15.926  11.998  0.00  0.00     0.159 HD
ENDBRANCH 110 113
ENDBRANCH  81 110
ENDBRANCH  79  81
ENDBRANCH  75  77
BRANCH  75 118
ATOM    118  CB  VAL d   1     -31.268   9.817  10.674  0.00  0.00    -0.033 C 
ATOM    119  H46 VAL d   1     -30.254   9.715  11.088  0.00  0.00     0.042 H 
BRANCH 118 120
ATOM    120  CG1 VAL d   1     -32.186   8.894  11.462  0.00  0.00    -0.071 C 
ATOM    121  H47 VAL d   1     -31.861   7.852  11.327  0.00  0.00     0.028 H 
ATOM    122  H48 VAL d   1     -33.218   9.006  11.099  0.00  0.00     0.028 H 
ATOM    123  H49 VAL d   1     -32.142   9.157  12.529  0.00  0.00     0.028 H 
ENDBRANCH 118 120
BRANCH 118 124
ATOM    124  CG2 VAL d   1     -31.211   9.404   9.208  0.00  0.00    -0.071 C 
ATOM    125  H50 VAL d   1     -30.543  10.085   8.661  0.00  0.00     0.028 H 
ATOM    126  H51 VAL d   1     -32.220   9.454   8.774  0.00  0.00     0.028 H 
ATOM    127  H52 VAL d   1     -30.829   8.375   9.131  0.00  0.00     0.028 H 
ENDBRANCH 118 124
ENDBRANCH  75 118
ENDBRANCH  73  75
ENDBRANCH   1  71
BRANCH   1 128
ATOM    128  CB  ILE d   1     -36.277  13.279  10.420  0.00  0.00    -0.030 C 
ATOM    129  H35 ILE d   1     -36.643  12.992  11.417  0.00  0.00     0.043 H 
BRANCH 128 130
ATOM    130  CG1 ILE d   1     -37.490  13.402   9.473  0.00  0.00    -0.063 C 
ATOM    131  H36 ILE d   1     -37.888  12.391   9.300  0.00  0.00     0.033 H 
ATOM    132  H37 ILE d   1     -37.135  13.824   8.521  0.00  0.00     0.033 H 
BRANCH 130 133
ATOM    133  CD1 ILE d   1     -38.638  14.281   9.980  0.00  0.00    -0.076 C 
ATOM    134  H41 ILE d   1     -39.444  14.298   9.232  0.00  0.00     0.027 H 
ATOM    135  H42 ILE d   1     -38.270  15.304  10.147  0.00  0.00     0.027 H 
ATOM    136  H43 ILE d   1     -39.024  13.871  10.925  0.00  0.00     0.027 H 
ENDBRANCH 130 133
ENDBRANCH 128 130
BRANCH 128 137
ATOM    137  CG2 ILE d   1     -35.556  14.626  10.529  0.00  0.00    -0.071 C 
ATOM    138  H38 ILE d   1     -34.694  14.527  11.206  0.00  0.00     0.028 H 
ATOM    139  H39 ILE d   1     -36.249  15.382  10.927  0.00  0.00     0.028 H 
ATOM    140  H40 ILE d   1     -35.207  14.937   9.533  0.00  0.00     0.028 H 
ENDBRANCH 128 137
ENDBRANCH   1 128
TORSDOF 39
