REMARK WARNING: 32 MAX_TORS EXCEEDED!!!
REMARK  40 active torsions:
REMARK  status: ('A' for Active; 'I' for Inactive)
REMARK    1  A    between atoms: N_1  and  CA_2 
REMARK    2  A    between atoms: CA_2  and  C_3 
REMARK       I    between atoms: C_3  and  N_5 
REMARK    3  A    between atoms: N_5  and  CA_6 
REMARK    4  A    between atoms: CA_6  and  C_7 
REMARK    5  A    between atoms: CA_6  and  CB_9 
REMARK       I    between atoms: C_7  and  N_12 
REMARK    6  A    between atoms: CB_9  and  OG1_10 
REMARK    7  A    between atoms: CB_9  and  CG2_11 
REMARK    8  A    between atoms: N_12  and  CA_13 
REMARK    9  A    between atoms: CA_13  and  C_14 
REMARK   10  A    between atoms: CA_13  and  CB_16 
REMARK       I    between atoms: C_14  and  N_18 
REMARK   11  A    between atoms: CB_16  and  OG_17 
REMARK   12  A    between atoms: N_18  and  CA_19 
REMARK   13  A    between atoms: CA_19  and  C_20 
REMARK       I    between atoms: C_20  and  N_22 
REMARK   14  A    between atoms: N_22  and  CA_23 
REMARK   15  A    between atoms: CA_23  and  C_24 
REMARK   16  A    between atoms: CA_23  and  CB_26 
REMARK       I    between atoms: C_24  and  N_28 
REMARK   17  A    between atoms: CB_26  and  OG_27 
REMARK   18  A    between atoms: CA_29  and  C_30 
REMARK       I    between atoms: C_30  and  N_35 
REMARK   19  A    between atoms: N_35  and  CA_36 
REMARK   20  A    between atoms: CA_36  and  C_37 
REMARK   21  A    between atoms: CA_36  and  CB_39 
REMARK       I    between atoms: C_37  and  N_43 
REMARK   22  A    between atoms: CB_39  and  CG1_40 
REMARK   23  A    between atoms: CB_39  and  CG2_41 
REMARK   24  A    between atoms: CG1_40  and  CD1_42 
REMARK   25  A    between atoms: N_43  and  CA_44 
REMARK   26  A    between atoms: CA_44  and  C_45 
REMARK   27  A    between atoms: CA_44  and  CB_47 
REMARK       I    between atoms: C_45  and  N_51 
REMARK   28  A    between atoms: CB_47  and  CG1_48 
REMARK   29  A    between atoms: CB_47  and  CG2_49 
REMARK   30  A    between atoms: CG1_48  and  CD1_50 
REMARK   31  A    between atoms: N_51  and  CA_52 
REMARK   32  A    between atoms: CA_52  and  C_53 
REMARK   33  A    between atoms: CA_52  and  CB_55 
REMARK       I    between atoms: C_53  and  N_59 
REMARK   34  A    between atoms: CB_55  and  CG_56 
REMARK       I    between atoms: CG_56  and  ND2_58 
REMARK   35  A    between atoms: N_59  and  CA_60 
REMARK   36  A    between atoms: CA_60  and  C_61 
REMARK   37  A    between atoms: CA_60  and  CB_63 
REMARK   38  A    between atoms: CB_63  and  CG_64 
REMARK   39  A    between atoms: CG_64  and  CD_65 
REMARK   40  A    between atoms: CD_65  and  NE_66 
REMARK       I    between atoms: NE_66  and  CZ_67 
REMARK       I    between atoms: CZ_67  and  NH1_68 
ROOT
ATOM      1  CA  ILE d   1      31.348  -1.977  16.182  0.00  0.00     0.092 C 
ATOM      2  H34 ILE d   1      31.835  -1.045  16.504  0.00  0.00     0.088 H 
ENDROOT
BRANCH   1   3
ATOM      3  N   ILE d   1      30.400  -1.686  15.121  0.00  0.00    -0.346 N 
ATOM      4  C   PRO d   1      29.898  -0.493  14.782  0.00  0.00     0.241 C 
ATOM      5  O   PRO d   1      30.076   0.539  15.444  0.00  0.00    -0.271 OA
ATOM      6  H33 ILE d   1      30.086  -2.467  14.582  0.00  0.00     0.163 HD
BRANCH   4   7
ATOM      7  CA  PRO d   1      29.030  -0.488  13.523  0.00  0.00     0.091 C 
ATOM      8  N   PRO d   1      27.976   0.524  13.543  0.00  0.00    -0.337 N 
ATOM      9  C   SER d   1      26.717   0.406  14.027  0.00  0.00     0.245 C 
ATOM     10  CD  PRO d   1      28.459   1.780  12.939  0.00  0.00    -0.001 C 
ATOM     11  O   SER d   1      25.924   1.348  13.994  0.00  0.00    -0.271 OA
ATOM     12  CG  PRO d   1      29.717   1.373  12.176  0.00  0.00    -0.048 C 
ATOM     13  H31 PRO d   1      28.698   2.520  13.717  0.00  0.00     0.064 H 
ATOM     14  H32 PRO d   1      27.706   2.198  12.254  0.00  0.00     0.064 H 
ATOM     15  CB  PRO d   1      29.813  -0.128  12.257  0.00  0.00    -0.036 C 
ATOM     16  H29 PRO d   1      29.642   1.691  11.126  0.00  0.00     0.035 H 
ATOM     17  H30 PRO d   1      30.604   1.834  12.636  0.00  0.00     0.035 H 
ATOM     18  H27 PRO d   1      29.359  -0.596  11.371  0.00  0.00     0.036 H 
ATOM     19  H28 PRO d   1      30.862  -0.448  12.343  0.00  0.00     0.036 H 
ATOM     20  H26 PRO d   1      28.585  -1.488  13.417  0.00  0.00     0.087 H 
BRANCH   9  21
ATOM     21  CA  SER d   1      26.262  -0.947  14.607  0.00  0.00     0.109 C 
ATOM     22  H22 SER d   1      27.168  -1.562  14.714  0.00  0.00     0.090 H 
BRANCH  21  23
ATOM     23  N   SER d   1      25.671  -0.835  15.931  0.00  0.00    -0.344 N 
ATOM     24  C   GLY d   1      25.855  -1.755  16.898  0.00  0.00     0.236 C 
ATOM     25  O   GLY d   1      26.537  -2.770  16.747  0.00  0.00    -0.272 OA
ATOM     26  H21 SER d   1      25.102  -0.038  16.133  0.00  0.00     0.163 HD
BRANCH  24  27
ATOM     27  CA  GLY d   1      25.161  -1.487  18.211  0.00  0.00     0.069 C 
ATOM     28  H19 GLY d   1      24.238  -2.083  18.266  0.00  0.00     0.078 H 
ATOM     29  H20 GLY d   1      25.827  -1.765  19.041  0.00  0.00     0.078 H 
BRANCH  27  30
ATOM     30  N   GLY d   1      24.831  -0.077  18.309  0.00  0.00    -0.350 N 
ATOM     31  C   SER d   1      25.381   0.714  19.210  0.00  0.00     0.242 C 
ATOM     32  O   SER d   1      26.168   0.317  20.072  0.00  0.00    -0.271 OA
ATOM     33  H18 GLY d   1      24.164   0.308  17.672  0.00  0.00     0.163 HD
BRANCH  31  34
ATOM     34  CA  SER d   1      24.969   2.176  19.145  0.00  0.00     0.109 C 
ATOM     35  H14 SER d   1      24.048   2.264  18.550  0.00  0.00     0.090 H 
BRANCH  34  36
ATOM     36  N   SER d   1      24.714   2.677  20.489  0.00  0.00    -0.344 N 
ATOM     37  C   THR d   1      23.702   2.284  21.308  0.00  0.00     0.243 C 
ATOM     38  O   THR d   1      22.849   1.439  21.008  0.00  0.00    -0.271 OA
ATOM     39  H13 SER d   1      25.340   3.373  20.841  0.00  0.00     0.163 HD
BRANCH  37  40
ATOM     40  CA  THR d   1      23.685   2.906  22.689  0.00  0.00     0.113 C 
ATOM     41  H7  THR d   1      24.019   3.950  22.592  0.00  0.00     0.091 H 
BRANCH  40  42
ATOM     42  N   THR d   1      22.342   2.934  23.269  0.00  0.00    -0.344 N 
ATOM     43  C   GLY d   1      21.350   3.755  22.852  0.00  0.00     0.243 C 
ATOM     44  O   GLY d   1      21.476   4.579  21.946  0.00  0.00    -0.272 OA
ATOM     45  H6  THR d   1      22.144   2.306  24.022  0.00  0.00     0.163 HD
BRANCH  43  46
ATOM     46  CA  GLY d   1      20.040   3.674  23.591  0.00  0.00     0.152 C 
ATOM     47  H4  GLY d   1      19.251   3.328  22.907  0.00  0.00     0.090 H 
ATOM     48  H5  GLY d   1      20.133   2.969  24.430  0.00  0.00     0.090 H 
BRANCH  46  49
ATOM     49  N   GLY d   1      19.702   4.991  24.097  0.00  0.00    -0.071 N 
ATOM     50  H1  GLY d   1      18.826   4.946  24.593  0.00  0.00     0.274 HD
ATOM     51  H2  GLY d   1      19.619   5.636  23.327  0.00  0.00     0.274 HD
ATOM     52  H3  GLY d   1      20.427   5.307  24.723  0.00  0.00     0.274 HD
ENDBRANCH  46  49
ENDBRANCH  43  46
ENDBRANCH  40  42
BRANCH  40  53
ATOM     53  CB  THR d   1      24.696   2.169  23.589  0.00  0.00     0.060 C 
ATOM     54  H8  THR d   1      25.637   2.108  23.023  0.00  0.00     0.086 H 
BRANCH  53  55
ATOM     55  OG1 THR d   1      24.274   0.829  23.846  0.00  0.00    -0.393 OA
ATOM     56  H9  THR d   1      23.430   0.842  24.283  0.00  0.00     0.210 HD
ENDBRANCH  53  55
BRANCH  53  57
ATOM     57  CG2 THR d   1      25.007   2.899  24.855  0.00  0.00    -0.050 C 
ATOM     58  H10 THR d   1      25.731   2.318  25.445  0.00  0.00     0.031 H 
ATOM     59  H11 THR d   1      24.084   3.033  25.437  0.00  0.00     0.031 H 
ATOM     60  H12 THR d   1      25.435   3.883  24.615  0.00  0.00     0.031 H 
ENDBRANCH  53  57
ENDBRANCH  40  53
ENDBRANCH  37  40
ENDBRANCH  34  36
BRANCH  34  61
ATOM     61  CB  SER d   1      26.072   2.993  18.475  0.00  0.00     0.044 C 
ATOM     62  H15 SER d   1      26.880   3.146  19.206  0.00  0.00     0.077 H 
ATOM     63  H16 SER d   1      25.651   3.967  18.185  0.00  0.00     0.077 H 
BRANCH  61  64
ATOM     64  OG  SER d   1      26.630   2.385  17.315  0.00  0.00    -0.398 OA
ATOM     65  H17 SER d   1      27.305   2.949  16.957  0.00  0.00     0.209 HD
ENDBRANCH  61  64
ENDBRANCH  34  61
ENDBRANCH  31  34
ENDBRANCH  27  30
ENDBRANCH  24  27
ENDBRANCH  21  23
BRANCH  21  66
ATOM     66  CB  SER d   1      25.322  -1.695  13.657  0.00  0.00     0.044 C 
ATOM     67  H23 SER d   1      24.442  -2.026  14.229  0.00  0.00     0.077 H 
ATOM     68  H24 SER d   1      25.854  -2.573  13.263  0.00  0.00     0.077 H 
BRANCH  66  69
ATOM     69  OG  SER d   1      24.873  -0.912  12.557  0.00  0.00    -0.398 OA
ATOM     70  H25 SER d   1      24.402  -0.154  12.881  0.00  0.00     0.209 HD
ENDBRANCH  66  69
ENDBRANCH  21  66
ENDBRANCH   9  21
ENDBRANCH   4   7
ENDBRANCH   1   3
BRANCH   1  71
ATOM     71  C   ILE d   1      32.366  -2.859  15.456  0.00  0.00     0.241 C 
ATOM     72  O   ILE d   1      32.206  -4.082  15.383  0.00  0.00    -0.271 OA
ATOM     73  N   ILE d   1      33.333  -2.194  14.792  0.00  0.00    -0.346 N 
ATOM     74  H44 ILE d   1      33.335  -1.197  14.868  0.00  0.00     0.163 HD
BRANCH  73  75
ATOM     75  CA  ILE d   1      34.380  -2.804  13.970  0.00  0.00     0.092 C 
ATOM     76  H45 ILE d   1      34.356  -3.890  14.142  0.00  0.00     0.088 H 
BRANCH  75  77
ATOM     77  C   ILE d   1      35.741  -2.295  14.385  0.00  0.00     0.241 C 
ATOM     78  O   ILE d   1      35.853  -1.162  14.859  0.00  0.00    -0.271 OA
ATOM     79  N   ASN d   1      36.782  -3.109  14.163  0.00  0.00    -0.346 N 
ATOM     80  H55 ASN d   1      36.611  -4.001  13.745  0.00  0.00     0.163 HD
BRANCH  79  81
ATOM     81  CA  ASN d   1      38.154  -2.750  14.505  0.00  0.00     0.097 C 
ATOM     82  H56 ASN d   1      38.136  -2.404  15.549  0.00  0.00     0.088 H 
BRANCH  81  83
ATOM     83  C   ASN d   1      38.721  -1.599  13.675  0.00  0.00     0.241 C 
ATOM     84  O   ASN d   1      38.287  -1.371  12.542  0.00  0.00    -0.271 OA
ATOM     85  N   ARG d   1      39.686  -0.868  14.278  0.00  0.00    -0.345 N 
ATOM     86  H61 ARG d   1      39.943  -1.149  15.203  0.00  0.00     0.163 HD
BRANCH  85  87
ATOM     87  CA  ARG d   1      40.401   0.294  13.726  0.00  0.00     0.096 C 
ATOM     88  H62 ARG d   1      39.743   0.774  12.986  0.00  0.00     0.089 H 
BRANCH  87  89
ATOM     89  C   ARG d   1      41.701  -0.117  13.008  0.00  0.00     0.196 C 
ATOM     90  O   ARG d   1      42.338  -1.117  13.420  0.00  0.00    -0.646 OA
ATOM     91  OXT ARG d   1      42.088   0.577  12.043  0.00  0.00    -0.646 OA
ENDBRANCH  87  89
BRANCH  87  92
ATOM     92  CB  ARG d   1      40.707   1.322  14.839  0.00  0.00    -0.035 C 
ATOM     93  H63 ARG d   1      41.510   1.988  14.488  0.00  0.00     0.036 H 
ATOM     94  H64 ARG d   1      41.046   0.778  15.733  0.00  0.00     0.036 H 
BRANCH  92  95
ATOM     95  CG  ARG d   1      39.508   2.173  15.220  0.00  0.00    -0.047 C 
ATOM     96  H65 ARG d   1      38.711   1.504  15.577  0.00  0.00     0.035 H 
ATOM     97  H66 ARG d   1      39.164   2.706  14.321  0.00  0.00     0.035 H 
BRANCH  95  98
ATOM     98  CD  ARG d   1      39.788   3.201  16.304  0.00  0.00     0.009 C 
ATOM     99  H67 ARG d   1      39.173   4.093  16.116  0.00  0.00     0.064 H 
ATOM    100  H68 ARG d   1      40.853   3.475  16.268  0.00  0.00     0.064 H 
BRANCH  98 101
ATOM    101  NE  ARG d   1      39.476   2.683  17.639  0.00  0.00    -0.227 N 
ATOM    102  CZ  ARG d   1      38.275   2.734  18.215  0.00  0.00     0.665 C 
ATOM    103  NH1 ARG d   1      37.246   3.279  17.576  0.00  0.00    -0.235 N 
ATOM    104  NH2 ARG d   1      38.092   2.228  19.427  0.00  0.00    -0.235 N 
ATOM    105  H70 ARG d   1      36.321   3.315  18.027  0.00  0.00     0.174 HD
ATOM    106  H71 ARG d   1      37.373   3.665  16.630  0.00  0.00     0.174 HD
ATOM    107  H72 ARG d   1      38.882   1.803  19.932  0.00  0.00     0.174 HD
ATOM    108  H73 ARG d   1      37.159   2.260  19.863  0.00  0.00     0.174 HD
ATOM    109  H69 ARG d   1      40.242   2.247  18.172  0.00  0.00     0.177 HD
ENDBRANCH  98 101
ENDBRANCH  95  98
ENDBRANCH  92  95
ENDBRANCH  87  92
ENDBRANCH  85  87
ENDBRANCH  81  83
BRANCH  81 110
ATOM    110  CB  ASN d   1      39.066  -3.960  14.452  0.00  0.00     0.036 C 
ATOM    111  H57 ASN d   1      40.107  -3.606  14.441  0.00  0.00     0.051 H 
ATOM    112  H58 ASN d   1      38.855  -4.509  13.522  0.00  0.00     0.051 H 
BRANCH 110 113
ATOM    113  CG  ASN d   1      38.905  -4.911  15.607  0.00  0.00     0.217 C 
ATOM    114  OD1 ASN d   1      38.687  -6.115  15.416  0.00  0.00    -0.274 OA
ATOM    115  ND2 ASN d   1      39.077  -4.403  16.831  0.00  0.00    -0.370 N 
ATOM    116  H59 ASN d   1      38.982  -4.991  17.634  0.00  0.00     0.159 HD
ATOM    117  H60 ASN d   1      39.301  -3.435  16.944  0.00  0.00     0.159 HD
ENDBRANCH 110 113
ENDBRANCH  81 110
ENDBRANCH  79  81
ENDBRANCH  75  77
BRANCH  75 118
ATOM    118  CB  ILE d   1      34.128  -2.556  12.456  0.00  0.00    -0.030 C 
ATOM    119  H46 ILE d   1      35.074  -2.741  11.926  0.00  0.00     0.043 H 
BRANCH 118 120
ATOM    120  CG1 ILE d   1      33.725  -1.089  12.190  0.00  0.00    -0.063 C 
ATOM    121  H47 ILE d   1      34.408  -0.442  12.760  0.00  0.00     0.033 H 
ATOM    122  H48 ILE d   1      32.697  -0.949  12.556  0.00  0.00     0.033 H 
BRANCH 120 123
ATOM    123  CD1 ILE d   1      33.765  -0.661  10.788  0.00  0.00    -0.076 C 
ATOM    124  H52 ILE d   1      33.461   0.394  10.718  0.00  0.00     0.027 H 
ATOM    125  H53 ILE d   1      33.077  -1.281  10.195  0.00  0.00     0.027 H 
ATOM    126  H54 ILE d   1      34.788  -0.774  10.399  0.00  0.00     0.027 H 
ENDBRANCH 120 123
ENDBRANCH 118 120
BRANCH 118 127
ATOM    127  CG2 ILE d   1      33.095  -3.531  11.906  0.00  0.00    -0.071 C 
ATOM    128  H49 ILE d   1      33.417  -4.562  12.114  0.00  0.00     0.028 H 
ATOM    129  H50 ILE d   1      32.999  -3.389  10.819  0.00  0.00     0.028 H 
ATOM    130  H51 ILE d   1      32.123  -3.346  12.387  0.00  0.00     0.028 H 
ENDBRANCH 118 127
ENDBRANCH  75 118
ENDBRANCH  73  75
ENDBRANCH   1  71
BRANCH   1 131
ATOM    131  CB  ILE d   1      30.720  -2.620  17.447  0.00  0.00    -0.030 C 
ATOM    132  H35 ILE d   1      30.196  -3.540  17.149  0.00  0.00     0.043 H 
BRANCH 131 133
ATOM    133  CG1 ILE d   1      29.691  -1.659  18.103  0.00  0.00    -0.063 C 
ATOM    134  H36 ILE d   1      28.985  -1.350  17.318  0.00  0.00     0.033 H 
ATOM    135  H37 ILE d   1      30.247  -0.781  18.463  0.00  0.00     0.033 H 
BRANCH 133 136
ATOM    136  CD1 ILE d   1      28.843  -2.202  19.307  0.00  0.00    -0.076 C 
ATOM    137  H41 ILE d   1      28.164  -1.413  19.663  0.00  0.00     0.027 H 
ATOM    138  H42 ILE d   1      29.516  -2.502  20.124  0.00  0.00     0.027 H 
ATOM    139  H43 ILE d   1      28.255  -3.071  18.979  0.00  0.00     0.027 H 
ENDBRANCH 133 136
ENDBRANCH 131 133
BRANCH 131 140
ATOM    140  CG2 ILE d   1      31.827  -2.987  18.446  0.00  0.00    -0.071 C 
ATOM    141  H38 ILE d   1      32.545  -3.667  17.964  0.00  0.00     0.028 H 
ATOM    142  H39 ILE d   1      31.382  -3.484  19.321  0.00  0.00     0.028 H 
ATOM    143  H40 ILE d   1      32.347  -2.073  18.769  0.00  0.00     0.028 H 
ENDBRANCH 131 140
ENDBRANCH   1 131
TORSDOF 40
