REMARK  15 active torsions:
REMARK  status: ('A' for Active; 'I' for Inactive)
REMARK    1  A    between atoms: C11_1  and  C12_2 
REMARK    2  A    between atoms: C11_1  and  C19_16 
REMARK    3  A    between atoms: N10_24  and  C11_1 
REMARK    4  A    between atoms: C12_2  and  C13_3 
REMARK    5  A    between atoms: C24_5  and  C25_6 
REMARK    6  A    between atoms: C23_17  and  C24_5 
REMARK       I    between atoms: C02_8  and  N03_23 
REMARK    7  A    between atoms: O22_30  and  C02_8 
REMARK    8  A    between atoms: C04_9  and  C05_10 
REMARK    9  A    between atoms: C04_9  and  C09_14 
REMARK   10  A    between atoms: N03_23  and  C04_9 
REMARK   11  A    between atoms: C05_10  and  C06_11 
REMARK   12  A    between atoms: C06_11  and  C07_12 
REMARK   13  A    between atoms: C06_11  and  C08_13 
REMARK       I    between atoms: C09_14  and  N10_24 
REMARK   14  A    between atoms: C19_16  and  O20_28 
REMARK   15  A    between atoms: C23_17  and  O22_30 
ROOT
ATOM      1  C04 AVY d   1     -20.925  -2.862   1.973  0.00  0.00     0.092 C 
ATOM      2  H9  AVY d   1     -19.848  -3.053   2.093  0.00  0.00     0.087 H 
ENDROOT
BRANCH   1   3
ATOM      3  C05 AVY d   1     -21.133  -1.838   0.859  0.00  0.00    -0.035 C 
ATOM      4  H10 AVY d   1     -20.672  -0.885   1.158  0.00  0.00     0.037 H 
ATOM      5  H11 AVY d   1     -22.212  -1.691   0.705  0.00  0.00     0.037 H 
BRANCH   3   6
ATOM      6  C06 AVY d   1     -20.501  -2.307  -0.455  0.00  0.00    -0.059 C 
ATOM      7  H12 AVY d   1     -20.921  -3.300  -0.675  0.00  0.00     0.038 H 
BRANCH   6   8
ATOM      8  C07 AVY d   1     -20.834  -1.392  -1.638  0.00  0.00    -0.073 C 
ATOM      9  H13 AVY d   1     -20.354  -1.780  -2.548  0.00  0.00     0.028 H 
ATOM     10  H14 AVY d   1     -20.463  -0.377  -1.432  0.00  0.00     0.028 H 
ATOM     11  H15 AVY d   1     -21.924  -1.362  -1.783  0.00  0.00     0.028 H 
ENDBRANCH   6   8
BRANCH   6  12
ATOM     12  C08 AVY d   1     -18.981  -2.458  -0.352  0.00  0.00    -0.073 C 
ATOM     13  H16 AVY d   1     -18.734  -3.114   0.496  0.00  0.00     0.028 H 
ATOM     14  H17 AVY d   1     -18.524  -1.470  -0.196  0.00  0.00     0.028 H 
ATOM     15  H18 AVY d   1     -18.592  -2.899  -1.282  0.00  0.00     0.028 H 
ENDBRANCH   6  12
ENDBRANCH   3   6
ENDBRANCH   1   3
BRANCH   1  16
ATOM     16  C09 AVY d   1     -21.499  -2.360   3.294  0.00  0.00     0.240 C 
ATOM     17  N10 AVY d   1     -20.551  -1.789   4.220  0.00  0.00    -0.353 N 
ATOM     18  H31 AVY d   1     -19.583  -1.745   3.972  0.00  0.00     0.163 HD
ATOM     19  O21 AVY d   1     -22.651  -2.442   3.568  0.00  0.00    -0.271 OA
BRANCH  17  20
ATOM     20  C11 AVY d   1     -20.983  -1.281   5.498  0.00  0.00     0.033 C 
ATOM     21  H1  AVY d   1     -22.073  -1.379   5.613  0.00  0.00     0.075 H 
BRANCH  20  22
ATOM     22  C12 AVY d   1     -20.284  -2.119   6.583  0.00  0.00    -0.033 C 
ATOM     23  H2  AVY d   1     -20.482  -1.657   7.561  0.00  0.00     0.037 H 
ATOM     24  H3  AVY d   1     -19.202  -2.111   6.386  0.00  0.00     0.037 H 
BRANCH  22  25
ATOM     25  C13 AVY d   1     -20.761  -3.585   6.629  0.00  0.00     0.027 C 
ATOM     26  C14 AVY d   1     -20.141  -4.330   7.746  0.00  0.00     0.221 C 
ATOM     27  N15 AVY d   1     -21.209  -5.040   8.522  0.00  0.00    -0.361 N 
ATOM     28  O18 AVY d   1     -18.992  -4.413   8.008  0.00  0.00    -0.273 OA
ATOM     29  C16 AVY d   1     -22.491  -4.756   7.930  0.00  0.00    -0.004 C 
ATOM     30  H32 AVY d   1     -21.056  -5.619   9.323  0.00  0.00     0.162 HD
ATOM     31  C17 AVY d   1     -22.260  -3.627   6.886  0.00  0.00    -0.039 C 
ATOM     32  H7  AVY d   1     -22.888  -5.655   7.435  0.00  0.00     0.064 H 
ATOM     33  H8  AVY d   1     -23.199  -4.420   8.702  0.00  0.00     0.064 H 
ATOM     34  H19 AVY d   1     -22.800  -3.853   5.955  0.00  0.00     0.036 H 
ATOM     35  H20 AVY d   1     -22.605  -2.662   7.285  0.00  0.00     0.036 H 
ATOM     36  H4  AVY d   1     -20.522  -4.074   5.673  0.00  0.00     0.054 H 
ENDBRANCH  22  25
ENDBRANCH  20  22
BRANCH  20  37
ATOM     37  C19 AVY d   1     -20.602   0.200   5.494  0.00  0.00     0.035 C 
ATOM     38  H21 AVY d   1     -19.512   0.303   5.389  0.00  0.00     0.077 H 
ATOM     39  H22 AVY d   1     -20.925   0.669   6.435  0.00  0.00     0.077 H 
BRANCH  37  40
ATOM     40  O20 AVY d   1     -21.243   0.821   4.410  0.00  0.00    -0.399 OA
ATOM     41  H33 AVY d   1     -20.962   0.411   3.600  0.00  0.00     0.209 HD
ENDBRANCH  37  40
ENDBRANCH  20  37
ENDBRANCH  17  20
ENDBRANCH   1  16
BRANCH   1  42
ATOM     42  N03 AVY d   1     -21.600  -4.085   1.617  0.00  0.00    -0.324 N 
ATOM     43  C02 AVY d   1     -21.550  -5.225   2.492  0.00  0.00     0.361 C 
ATOM     44  O01 AVY d   1     -20.729  -5.312   3.360  0.00  0.00    -0.239 OA
ATOM     45  H30 AVY d   1     -22.106  -4.141   0.756  0.00  0.00     0.165 HD
BRANCH  43  46
ATOM     46  O22 AVY d   1     -22.565  -6.167   2.272  0.00  0.00    -0.304 OA
BRANCH  46  47
ATOM     47  C23 AVY d   1     -22.280  -7.520   2.489  0.00  0.00     0.034 C 
ATOM     48  H23 AVY d   1     -23.093  -8.134   2.075  0.00  0.00     0.075 H 
ATOM     49  H24 AVY d   1     -21.335  -7.777   1.988  0.00  0.00     0.075 H 
BRANCH  47  50
ATOM     50  C24 AVY d   1     -22.144  -7.811   4.062  0.00  0.00    -0.021 C 
ATOM     51  H5  AVY d   1     -22.095  -8.899   4.213  0.00  0.00     0.043 H 
ATOM     52  H6  AVY d   1     -21.213  -7.349   4.423  0.00  0.00     0.043 H 
BRANCH  50  53
ATOM     53  C25 AVY d   1     -23.311  -7.259   4.883  0.00  0.00    -0.056 A 
ATOM     54  C26 AVY d   1     -23.801  -5.971   4.711  0.00  0.00    -0.077 A 
ATOM     55  C27 AVY d   1     -24.846  -5.514   5.497  0.00  0.00    -0.082 A 
ATOM     56  H25 AVY d   1     -23.365  -5.322   3.960  0.00  0.00     0.084 H 
ATOM     57  C28 AVY d   1     -25.403  -6.343   6.455  0.00  0.00    -0.083 A 
ATOM     58  H26 AVY d   1     -25.227  -4.508   5.362  0.00  0.00     0.083 H 
ATOM     59  C29 AVY d   1     -24.911  -7.622   6.629  0.00  0.00    -0.082 A 
ATOM     60  H27 AVY d   1     -26.224  -5.989   7.068  0.00  0.00     0.083 H 
ATOM     61  C30 AVY d   1     -23.862  -8.077   5.854  0.00  0.00    -0.077 A 
ATOM     62  H28 AVY d   1     -25.350  -8.272   7.377  0.00  0.00     0.083 H 
ATOM     63  H29 AVY d   1     -23.470  -9.076   6.006  0.00  0.00     0.084 H 
ENDBRANCH  50  53
ENDBRANCH  47  50
ENDBRANCH  46  47
ENDBRANCH  43  46
ENDBRANCH   1  42
TORSDOF 15
