REMARK  13 active torsions:
REMARK  status: ('A' for Active; 'I' for Inactive)
REMARK       I    between atoms: N03_16  and  C02_1 
REMARK    1  A    between atoms: C02_1  and  O22_23 
REMARK    2  A    between atoms: C04_2  and  C05_3 
REMARK    3  A    between atoms: C09_7  and  C04_2 
REMARK    4  A    between atoms: C04_2  and  N03_16 
REMARK    5  A    between atoms: C05_3  and  C06_4 
REMARK    6  A    between atoms: C06_4  and  C07_5 
REMARK    7  A    between atoms: C06_4  and  C08_6 
REMARK       I    between atoms: N10_17  and  C09_7 
REMARK    8  A    between atoms: C11_8  and  C12_9 
REMARK    9  A    between atoms: C11_8  and  C19_14 
REMARK   10  A    between atoms: C11_8  and  N10_17 
REMARK   11  A    between atoms: C12_9  and  C13_10 
REMARK   12  A    between atoms: C19_14  and  O20_21 
REMARK   13  A    between atoms: O22_23  and  C23_15 
ROOT
ATOM      1  C04 N02 d   1     -20.934  -3.278   1.855  0.00  0.00     0.092 C 
ATOM      2  H1  N02 d   1     -19.900  -3.643   1.944  0.00  0.00     0.087 H 
ENDROOT
BRANCH   1   3
ATOM      3  C05 N02 d   1     -20.989  -2.161   0.809  0.00  0.00    -0.035 C 
ATOM      4  H2  N02 d   1     -20.361  -1.328   1.159  0.00  0.00     0.037 H 
ATOM      5  H3  N02 d   1     -22.032  -1.822   0.720  0.00  0.00     0.037 H 
BRANCH   3   6
ATOM      6  C06 N02 d   1     -20.496  -2.586  -0.588  0.00  0.00    -0.059 C 
ATOM      7  H4  N02 d   1     -20.920  -3.578  -0.803  0.00  0.00     0.038 H 
BRANCH   6   8
ATOM      8  C07 N02 d   1     -18.970  -2.708  -0.630  0.00  0.00    -0.073 C 
ATOM      9  H5  N02 d   1     -18.654  -3.012  -1.639  0.00  0.00     0.028 H 
ATOM     10  H6  N02 d   1     -18.642  -3.463   0.100  0.00  0.00     0.028 H 
ATOM     11  H7  N02 d   1     -18.517  -1.737  -0.381  0.00  0.00     0.028 H 
ENDBRANCH   6   8
BRANCH   6  12
ATOM     12  C08 N02 d   1     -20.981  -1.624  -1.674  0.00  0.00    -0.073 C 
ATOM     13  H8  N02 d   1     -22.077  -1.546  -1.632  0.00  0.00     0.028 H 
ATOM     14  H9  N02 d   1     -20.678  -2.003  -2.661  0.00  0.00     0.028 H 
ATOM     15  H10 N02 d   1     -20.537  -0.631  -1.510  0.00  0.00     0.028 H 
ENDBRANCH   6  12
ENDBRANCH   3   6
ENDBRANCH   1   3
BRANCH   1  16
ATOM     16  C09 N02 d   1     -21.425  -2.771   3.218  0.00  0.00     0.240 C 
ATOM     17  N10 N02 d   1     -20.559  -1.961   4.071  0.00  0.00    -0.353 N 
ATOM     18  H23 N02 d   1     -19.634  -1.734   3.765  0.00  0.00     0.163 HD
ATOM     19  O21 N02 d   1     -22.513  -3.042   3.587  0.00  0.00    -0.271 OA
BRANCH  17  20
ATOM     20  C11 N02 d   1     -21.029  -1.483   5.358  0.00  0.00     0.033 C 
ATOM     21  H11 N02 d   1     -22.120  -1.607   5.415  0.00  0.00     0.075 H 
BRANCH  20  22
ATOM     22  C12 N02 d   1     -20.390  -2.304   6.498  0.00  0.00    -0.030 C 
ATOM     23  H12 N02 d   1     -20.655  -1.835   7.457  0.00  0.00     0.037 H 
ATOM     24  H13 N02 d   1     -19.297  -2.287   6.371  0.00  0.00     0.037 H 
BRANCH  22  25
ATOM     25  C13 N02 d   1     -20.852  -3.759   6.526  0.00  0.00     0.043 C 
ATOM     26  C14 N02 d   1     -20.099  -4.509   7.704  0.00  0.00     0.229 C 
ATOM     27  N15 N02 d   1     -21.057  -5.142   8.442  0.00  0.00    -0.337 N 
ATOM     28  O18 N02 d   1     -18.925  -4.498   7.891  0.00  0.00    -0.273 OA
ATOM     29  C16 N02 d   1     -22.480  -4.864   7.780  0.00  0.00    -0.023 C 
ATOM     30  H24 N02 d   1     -20.893  -5.690   9.262  0.00  0.00     0.168 HD
ATOM     31  C17 N02 d   1     -22.343  -3.838   6.883  0.00  0.00    -0.075 C 
ATOM     32  H15 N02 d   1     -23.403  -5.398   8.003  0.00  0.00     0.110 H 
ATOM     33  H16 N02 d   1     -23.138  -3.201   6.498  0.00  0.00     0.080 H 
ATOM     34  H14 N02 d   1     -20.654  -4.240   5.557  0.00  0.00     0.061 H 
ENDBRANCH  22  25
ENDBRANCH  20  22
BRANCH  20  35
ATOM     35  C19 N02 d   1     -20.700   0.004   5.443  0.00  0.00     0.035 C 
ATOM     36  H17 N02 d   1     -21.062   0.436   4.499  0.00  0.00     0.077 H 
ATOM     37  H18 N02 d   1     -19.602   0.057   5.473  0.00  0.00     0.077 H 
BRANCH  35  38
ATOM     38  O20 N02 d   1     -21.139   0.876   6.440  0.00  0.00    -0.399 OA
ATOM     39  H25 N02 d   1     -22.089   0.900   6.442  0.00  0.00     0.209 HD
ENDBRANCH  35  38
ENDBRANCH  20  35
ENDBRANCH  17  20
ENDBRANCH   1  16
BRANCH   1  40
ATOM     40  N03 N02 d   1     -21.807  -4.356   1.459  0.00  0.00    -0.324 N 
ATOM     41  C02 N02 d   1     -21.558  -5.668   2.006  0.00  0.00     0.360 C 
ATOM     42  O01 N02 d   1     -20.738  -5.807   2.867  0.00  0.00    -0.239 OA
ATOM     43  H22 N02 d   1     -22.563  -4.199   0.824  0.00  0.00     0.165 HD
BRANCH  41  44
ATOM     44  O22 N02 d   1     -22.292  -6.754   1.505  0.00  0.00    -0.309 OA
BRANCH  44  45
ATOM     45  C23 N02 d   1     -22.263  -7.909   2.317  0.00  0.00     0.015 C 
ATOM     46  H19 N02 d   1     -22.862  -8.703   1.847  0.00  0.00     0.067 H 
ATOM     47  H20 N02 d   1     -22.680  -7.672   3.307  0.00  0.00     0.067 H 
ATOM     48  H21 N02 d   1     -21.224  -8.252   2.430  0.00  0.00     0.067 H 
ENDBRANCH  44  45
ENDBRANCH  41  44
ENDBRANCH   1  40
TORSDOF 13
