REMARK WARNING: 32 MAX_TORS EXCEEDED!!!
REMARK  37 active torsions:
REMARK  status: ('A' for Active; 'I' for Inactive)
REMARK    1  A    between atoms: N_1  and  CA_2 
REMARK    2  A    between atoms: CA_2  and  C_3 
REMARK    3  A    between atoms: CA_2  and  CB_5 
REMARK       I    between atoms: C_3  and  N_6 
REMARK    4  A    between atoms: N_6  and  CA_7 
REMARK    5  A    between atoms: CA_7  and  C_8 
REMARK    6  A    between atoms: CA_7  and  CB_10 
REMARK       I    between atoms: C_8  and  N_17 
REMARK    7  A    between atoms: CB_10  and  CG_11 
REMARK    8  A    between atoms: CG_11  and  CD_12 
REMARK    9  A    between atoms: CD_12  and  NE_13 
REMARK       I    between atoms: NE_13  and  CZ_14 
REMARK       I    between atoms: CZ_14  and  NH1_15 
REMARK   10  A    between atoms: N_17  and  CA_18 
REMARK   11  A    between atoms: CA_18  and  C_19 
REMARK   12  A    between atoms: CA_18  and  CB_21 
REMARK       I    between atoms: C_19  and  N_24 
REMARK   13  A    between atoms: CB_21  and  OG1_22 
REMARK   14  A    between atoms: CB_21  and  CG2_23 
REMARK   15  A    between atoms: N_24  and  CA_25 
REMARK   16  A    between atoms: CA_25  and  CB_26 
REMARK   17  A    between atoms: CA_25  and  C_31 
REMARK   18  A    between atoms: CB_26  and  CG_27 
REMARK   19  A    between atoms: CG_27  and  CD_28 
REMARK   20  A    between atoms: CD_28  and  CE_29 
REMARK   21  A    between atoms: CE_29  and  NZ_30 
REMARK   22  A    between atoms: NZ_30  and  CM1_33 
REMARK   23  A    between atoms: NZ_30  and  CM2_34 
REMARK   24  A    between atoms: NZ_30  and  CM3_35 
REMARK       I    between atoms: C_31  and  N_36 
REMARK   25  A    between atoms: N_36  and  CA_37 
REMARK   26  A    between atoms: CA_37  and  C_38 
REMARK   27  A    between atoms: CA_37  and  CB_40 
REMARK       I    between atoms: C_38  and  N_45 
REMARK   28  A    between atoms: CB_40  and  CG_41 
REMARK   29  A    between atoms: CG_41  and  CD_42 
REMARK       I    between atoms: CD_42  and  NE2_44 
REMARK   30  A    between atoms: N_45  and  CA_46 
REMARK   31  A    between atoms: CA_46  and  C_47 
REMARK   32  A    between atoms: CA_46  and  CB_49 
REMARK       I    between atoms: C_47  and  N_52 
REMARK   33  A    between atoms: CB_49  and  OG1_50 
REMARK   34  A    between atoms: CB_49  and  CG2_51 
REMARK   35  A    between atoms: N_52  and  CA_53 
REMARK   36  A    between atoms: CA_53  and  C_54 
REMARK   37  A    between atoms: CA_53  and  CB_56 
ROOT
ATOM      1  CA  M3L d   1      -3.753  -3.844  44.721  0.00  0.00     0.089 C 
ATOM      2  H29 M3L d   1      -3.715  -4.546  45.566  0.00  0.00     0.087 H 
ENDROOT
BRANCH   1   3
ATOM      3  N   M3L d   1      -3.151  -4.514  43.585  0.00  0.00    -0.346 N 
ATOM      4  C   THR d   1      -2.172  -5.397  43.737  0.00  0.00     0.243 C 
ATOM      5  O   THR d   1      -1.711  -5.697  44.829  0.00  0.00    -0.271 OA
ATOM      6  H28 M3L d   1      -3.482  -4.306  42.664  0.00  0.00     0.163 HD
BRANCH   4   7
ATOM      7  CA  THR d   1      -1.695  -6.091  42.476  0.00  0.00     0.113 C 
ATOM      8  H22 THR d   1      -1.657  -5.358  41.657  0.00  0.00     0.091 H 
BRANCH   7   9
ATOM      9  N   THR d   1      -0.352  -6.635  42.656  0.00  0.00    -0.344 N 
ATOM     10  C   ARG d   1       0.594  -6.464  41.734  0.00  0.00     0.241 C 
ATOM     11  O   ARG d   1       0.376  -5.924  40.643  0.00  0.00    -0.271 OA
ATOM     12  H21 THR d   1      -0.138  -7.146  43.488  0.00  0.00     0.163 HD
BRANCH  10  13
ATOM     13  CA  ARG d   1       1.964  -7.041  42.077  0.00  0.00     0.089 C 
ATOM     14  H9  ARG d   1       1.818  -7.987  42.620  0.00  0.00     0.087 H 
BRANCH  13  15
ATOM     15  N   ARG d   1       2.707  -7.312  40.860  0.00  0.00    -0.346 N 
ATOM     16  C   ALA d   1       2.283  -8.226  39.991  0.00  0.00     0.248 C 
ATOM     17  O   ALA d   1       1.306  -8.943  40.197  0.00  0.00    -0.271 OA
ATOM     18  H8  ARG d   1       3.548  -6.805  40.672  0.00  0.00     0.163 HD
BRANCH  16  19
ATOM     19  CA  ALA d   1       3.095  -8.356  38.700  0.00  0.00     0.172 C 
ATOM     20  H4  ALA d   1       3.851  -7.557  38.689  0.00  0.00     0.098 H 
BRANCH  19  21
ATOM     21  N   ALA d   1       3.787  -9.637  38.633  0.00  0.00    -0.067 N 
ATOM     22  H1  ALA d   1       4.311  -9.691  37.774  0.00  0.00     0.275 HD
ATOM     23  H2  ALA d   1       3.112 -10.385  38.663  0.00  0.00     0.275 HD
ATOM     24  H3  ALA d   1       4.416  -9.720  39.416  0.00  0.00     0.275 HD
ENDBRANCH  19  21
BRANCH  19  25
ATOM     25  CB  ALA d   1       2.196  -8.181  37.489  0.00  0.00    -0.042 C 
ATOM     26  H5  ALA d   1       1.680  -7.211  37.552  0.00  0.00     0.030 H 
ATOM     27  H6  ALA d   1       1.452  -8.991  37.465  0.00  0.00     0.030 H 
ATOM     28  H7  ALA d   1       2.804  -8.214  36.573  0.00  0.00     0.030 H 
ENDBRANCH  19  25
ENDBRANCH  16  19
ENDBRANCH  13  15
BRANCH  13  29
ATOM     29  CB  ARG d   1       2.756  -6.085  42.972  0.00  0.00    -0.036 C 
ATOM     30  H10 ARG d   1       2.209  -5.952  43.917  0.00  0.00     0.036 H 
ATOM     31  H11 ARG d   1       2.845  -5.115  42.460  0.00  0.00     0.036 H 
BRANCH  29  32
ATOM     32  CG  ARG d   1       4.155  -6.600  43.287  0.00  0.00    -0.048 C 
ATOM     33  H12 ARG d   1       4.698  -6.743  42.341  0.00  0.00     0.035 H 
ATOM     34  H13 ARG d   1       4.065  -7.565  43.807  0.00  0.00     0.035 H 
BRANCH  32  35
ATOM     35  CD  ARG d   1       4.955  -5.647  44.167  0.00  0.00     0.009 C 
ATOM     36  H14 ARG d   1       5.316  -4.812  43.549  0.00  0.00     0.064 H 
ATOM     37  H15 ARG d   1       5.814  -6.190  44.588  0.00  0.00     0.064 H 
BRANCH  35  38
ATOM     38  NE  ARG d   1       4.157  -5.110  45.262  0.00  0.00    -0.227 N 
ATOM     39  CZ  ARG d   1       4.203  -3.842  45.660  0.00  0.00     0.665 C 
ATOM     40  NH1 ARG d   1       3.440  -3.432  46.668  0.00  0.00    -0.235 N 
ATOM     41  NH2 ARG d   1       5.015  -2.985  45.052  0.00  0.00    -0.235 N 
ATOM     42  H17 ARG d   1       3.477  -2.450  46.975  0.00  0.00     0.174 HD
ATOM     43  H18 ARG d   1       2.812  -4.097  47.142  0.00  0.00     0.174 HD
ATOM     44  H19 ARG d   1       5.607  -3.302  44.271  0.00  0.00     0.174 HD
ATOM     45  H20 ARG d   1       5.053  -2.003  45.362  0.00  0.00     0.174 HD
ATOM     46  H16 ARG d   1       3.520  -5.750  45.757  0.00  0.00     0.177 HD
ENDBRANCH  35  38
ENDBRANCH  32  35
ENDBRANCH  29  32
ENDBRANCH  13  29
ENDBRANCH  10  13
ENDBRANCH   7   9
BRANCH   7  47
ATOM     47  CB  THR d   1      -2.735  -7.173  42.120  0.00  0.00     0.060 C 
ATOM     48  H23 THR d   1      -3.715  -6.688  41.999  0.00  0.00     0.086 H 
BRANCH  47  49
ATOM     49  OG1 THR d   1      -2.821  -8.124  43.190  0.00  0.00    -0.393 OA
ATOM     50  H24 THR d   1      -1.972  -8.530  43.320  0.00  0.00     0.210 HD
ENDBRANCH  47  49
BRANCH  47  51
ATOM     51  CG2 THR d   1      -2.384  -7.881  40.809  0.00  0.00    -0.050 C 
ATOM     52  H25 THR d   1      -3.146  -8.643  40.589  0.00  0.00     0.031 H 
ATOM     53  H26 THR d   1      -1.400  -8.363  40.905  0.00  0.00     0.031 H 
ATOM     54  H27 THR d   1      -2.354  -7.146  39.992  0.00  0.00     0.031 H 
ENDBRANCH  47  51
ENDBRANCH   7  47
ENDBRANCH   4   7
ENDBRANCH   1   3
BRANCH   1  55
ATOM     55  CB  M3L d   1      -2.981  -2.604  45.165  0.00  0.00    -0.038 C 
ATOM     56  H30 M3L d   1      -1.927  -2.890  45.298  0.00  0.00     0.036 H 
ATOM     57  H31 M3L d   1      -3.396  -2.273  46.128  0.00  0.00     0.036 H 
BRANCH  55  58
ATOM     58  CG  M3L d   1      -3.030  -1.428  44.204  0.00  0.00    -0.061 C 
ATOM     59  H32 M3L d   1      -4.077  -1.180  43.977  0.00  0.00     0.033 H 
ATOM     60  H33 M3L d   1      -2.505  -1.689  43.274  0.00  0.00     0.033 H 
BRANCH  58  61
ATOM     61  CD  M3L d   1      -2.350  -0.228  44.857  0.00  0.00    -0.042 C 
ATOM     62  H34 M3L d   1      -1.499  -0.583  45.458  0.00  0.00     0.035 H 
ATOM     63  H35 M3L d   1      -3.074   0.281  45.511  0.00  0.00     0.035 H 
BRANCH  61  64
ATOM     64  CE  M3L d   1      -1.843   0.761  43.817  0.00  0.00     0.084 C 
ATOM     65  H36 M3L d   1      -2.698   1.130  43.232  0.00  0.00     0.076 H 
ATOM     66  H37 M3L d   1      -1.138   0.244  43.150  0.00  0.00     0.076 H 
BRANCH  64  67
ATOM     67  NZ  M3L d   1      -1.160   1.907  44.433  0.00  0.00    -0.079 N 
BRANCH  67  68
ATOM     68  CM1 M3L d   1      -1.948   2.471  45.532  0.00  0.00     0.067 C 
ATOM     69  H38 M3L d   1      -1.409   3.324  45.969  0.00  0.00     0.068 H 
ATOM     70  H39 M3L d   1      -2.105   1.702  46.303  0.00  0.00     0.068 H 
ATOM     71  H40 M3L d   1      -2.922   2.810  45.149  0.00  0.00     0.068 H 
ENDBRANCH  67  68
BRANCH  67  72
ATOM     72  CM2 M3L d   1      -0.981   2.935  43.402  0.00  0.00     0.067 C 
ATOM     73  H41 M3L d   1      -0.390   2.522  42.571  0.00  0.00     0.068 H 
ATOM     74  H42 M3L d   1      -0.454   3.799  43.833  0.00  0.00     0.068 H 
ATOM     75  H43 M3L d   1      -1.965   3.255  43.029  0.00  0.00     0.068 H 
ENDBRANCH  67  72
BRANCH  67  76
ATOM     76  CM3 M3L d   1       0.147   1.501  44.955  0.00  0.00     0.067 C 
ATOM     77  H44 M3L d   1       0.010   0.730  45.728  0.00  0.00     0.068 H 
ATOM     78  H45 M3L d   1       0.654   2.373  45.393  0.00  0.00     0.068 H 
ATOM     79  H46 M3L d   1       0.759   1.094  44.136  0.00  0.00     0.068 H 
ENDBRANCH  67  76
ENDBRANCH  64  67
ENDBRANCH  61  64
ENDBRANCH  58  61
ENDBRANCH  55  58
ENDBRANCH   1  55
BRANCH   1  80
ATOM     80  C   M3L d   1      -5.213  -3.586  44.432  0.00  0.00     0.241 C 
ATOM     81  O   M3L d   1      -5.587  -3.396  43.261  0.00  0.00    -0.271 OA
ATOM     82  N   GLN d   1      -6.032  -3.607  45.481  0.00  0.00    -0.346 N 
ATOM     83  H47 GLN d   1      -5.635  -3.793  46.380  0.00  0.00     0.163 HD
BRANCH  82  84
ATOM     84  CA  GLN d   1      -7.481  -3.375  45.405  0.00  0.00     0.090 C 
ATOM     85  H48 GLN d   1      -7.886  -3.394  46.428  0.00  0.00     0.087 H 
BRANCH  84  86
ATOM     86  C   GLN d   1      -8.149  -4.484  44.600  0.00  0.00     0.241 C 
ATOM     87  O   GLN d   1      -8.830  -4.224  43.610  0.00  0.00    -0.271 OA
ATOM     88  N   THR d   1      -7.960  -5.726  45.043  0.00  0.00    -0.344 N 
ATOM     89  H55 THR d   1      -7.476  -5.863  45.907  0.00  0.00     0.163 HD
BRANCH  88  90
ATOM     90  CA  THR d   1      -8.435  -6.890  44.310  0.00  0.00     0.113 C 
ATOM     91  H56 THR d   1      -8.715  -6.558  43.300  0.00  0.00     0.091 H 
BRANCH  90  92
ATOM     92  C   THR d   1      -9.660  -7.534  44.944  0.00  0.00     0.243 C 
ATOM     93  O   THR d   1     -10.090  -8.597  44.479  0.00  0.00    -0.271 OA
ATOM     94  N   ALA d   1     -10.224  -6.929  45.991  0.00  0.00    -0.345 N 
ATOM     95  H62 ALA d   1      -9.884  -6.034  46.279  0.00  0.00     0.163 HD
BRANCH  94  96
ATOM     96  CA  ALA d   1     -11.330  -7.546  46.729  0.00  0.00     0.093 C 
ATOM     97  H63 ALA d   1     -10.996  -8.535  47.076  0.00  0.00     0.089 H 
BRANCH  96  98
ATOM     98  C   ALA d   1     -12.557  -7.745  45.845  0.00  0.00     0.196 C 
ATOM     99  O   ALA d   1     -12.919  -6.851  45.071  0.00  0.00    -0.646 OA
ATOM    100  OXT ALA d   1     -13.198  -8.802  45.897  0.00  0.00    -0.646 OA
ENDBRANCH  96  98
BRANCH  96 101
ATOM    101  CB  ALA d   1     -11.691  -6.707  47.952  0.00  0.00    -0.048 C 
ATOM    102  H64 ALA d   1     -12.521  -7.185  48.492  0.00  0.00     0.030 H 
ATOM    103  H65 ALA d   1     -11.995  -5.700  47.629  0.00  0.00     0.030 H 
ATOM    104  H66 ALA d   1     -10.817  -6.631  48.616  0.00  0.00     0.030 H 
ENDBRANCH  96 101
ENDBRANCH  94  96
ENDBRANCH  90  92
BRANCH  90 105
ATOM    105  CB  THR d   1      -7.311  -7.926  44.184  0.00  0.00     0.060 C 
ATOM    106  H57 THR d   1      -7.726  -8.868  43.797  0.00  0.00     0.086 H 
BRANCH 105 107
ATOM    107  OG1 THR d   1      -6.718  -8.154  45.475  0.00  0.00    -0.393 OA
ATOM    108  H58 THR d   1      -6.022  -8.796  45.394  0.00  0.00     0.210 HD
ENDBRANCH 105 107
BRANCH 105 109
ATOM    109  CG2 THR d   1      -6.232  -7.414  43.230  0.00  0.00    -0.050 C 
ATOM    110  H59 THR d   1      -5.431  -8.163  43.146  0.00  0.00     0.031 H 
ATOM    111  H60 THR d   1      -5.815  -6.473  43.619  0.00  0.00     0.031 H 
ATOM    112  H61 THR d   1      -6.673  -7.237  42.238  0.00  0.00     0.031 H 
ENDBRANCH 105 109
ENDBRANCH  90 105
ENDBRANCH  88  90
ENDBRANCH  84  86
BRANCH  84 113
ATOM    113  CB  GLN d   1      -7.802  -2.009  44.789  0.00  0.00    -0.030 C 
ATOM    114  H49 GLN d   1      -8.890  -1.942  44.641  0.00  0.00     0.037 H 
ATOM    115  H50 GLN d   1      -7.294  -1.939  43.816  0.00  0.00     0.037 H 
BRANCH 113 116
ATOM    116  CG  GLN d   1      -7.364  -0.843  45.640  0.00  0.00     0.011 C 
ATOM    117  H51 GLN d   1      -7.880   0.065  45.293  0.00  0.00     0.047 H 
ATOM    118  H52 GLN d   1      -6.277  -0.711  45.532  0.00  0.00     0.047 H 
BRANCH 116 119
ATOM    119  CD  GLN d   1      -7.685  -1.061  47.086  0.00  0.00     0.215 C 
ATOM    120  OE1 GLN d   1      -6.812  -1.410  47.887  0.00  0.00    -0.274 OA
ATOM    121  NE2 GLN d   1      -8.950  -0.876  47.437  0.00  0.00    -0.370 N 
ATOM    122  H53 GLN d   1      -9.229  -1.006  48.389  0.00  0.00     0.159 HD
ATOM    123  H54 GLN d   1      -9.625  -0.607  46.750  0.00  0.00     0.159 HD
ENDBRANCH 116 119
ENDBRANCH 113 116
ENDBRANCH  84 113
ENDBRANCH  82  84
ENDBRANCH   1  80
TORSDOF 37
