REMARK  11 active torsions:
REMARK  status: ('A' for Active; 'I' for Inactive)
REMARK    1  A    between atoms: C01_1  and  S07_7 
REMARK    2  A    between atoms: C04_4  and  O11_11 
REMARK    3  A    between atoms: S07_7  and  N10_10 
REMARK    4  A    between atoms: O11_11  and  C12_12 
REMARK    5  A    between atoms: C12_12  and  C13_13 
REMARK    6  A    between atoms: C13_13  and  C14_14 
REMARK    7  A    between atoms: C13_13  and  O16_16 
REMARK    8  A    between atoms: C14_14  and  N15_15 
REMARK    9  A    between atoms: N15_15  and  C17_17 
REMARK   10  A    between atoms: C17_17  and  C18_18 
REMARK   11  A    between atoms: C17_17  and  C19_19 
ROOT
ATOM      1  C12 86B d   1      -2.584   6.016  13.560  0.00  0.00     0.051 C 
ATOM      2  H7  86B d   1      -2.475   5.136  12.909  0.00  0.00     0.079 H 
ATOM      3  H8  86B d   1      -1.911   5.918  14.424  0.00  0.00     0.079 H 
ENDROOT
BRANCH   1   4
ATOM      4  O11 86B d   1      -3.851   6.090  13.994  0.00  0.00    -0.349 OA
BRANCH   4   5
ATOM      5  C04 86B d   1      -4.340   4.980  14.680  0.00  0.00     0.069 A 
ATOM      6  C03 86B d   1      -5.666   4.908  15.051  0.00  0.00    -0.049 A 
ATOM      7  C02 86B d   1      -6.194   3.846  15.729  0.00  0.00    -0.058 A 
ATOM      8  H2  86B d   1      -6.320   5.733  14.793  0.00  0.00     0.087 H 
ATOM      9  C01 86B d   1      -5.372   2.817  16.037  0.00  0.00     0.079 A 
ATOM     10  H1  86B d   1      -7.240   3.829  16.012  0.00  0.00     0.086 H 
ATOM     11  C06 86B d   1      -4.060   2.868  15.703  0.00  0.00    -0.058 A 
ATOM     12  C05 86B d   1      -3.540   3.920  15.009  0.00  0.00    -0.049 A 
ATOM     13  H4  86B d   1      -3.408   2.053  15.995  0.00  0.00     0.086 H 
ATOM     14  H3  86B d   1      -2.496   3.917  14.719  0.00  0.00     0.087 H 
BRANCH   9  15
ATOM     15  S07 86B d   1      -6.046   1.395  16.951  0.00  0.00     0.256 S 
ATOM     16  O08 86B d   1      -5.597   1.514  18.249  0.00  0.00    -0.201 OA
ATOM     17  O09 86B d   1      -7.347   1.529  16.888  0.00  0.00    -0.201 OA
BRANCH  15  18
ATOM     18  N10 86B d   1      -5.343   0.053  16.289  0.00  0.00    -0.324 N 
ATOM     19  H5  86B d   1      -5.570  -0.855  16.641  0.00  0.00     0.169 HD
ATOM     20  H6  86B d   1      -4.691   0.149  15.537  0.00  0.00     0.169 HD
ENDBRANCH  15  18
ENDBRANCH   9  15
ENDBRANCH   4   5
ENDBRANCH   1   4
BRANCH   1  21
ATOM     21  C13 86B d   1      -2.211   7.277  12.771  0.00  0.00     0.079 C 
ATOM     22  H9  86B d   1      -1.317   7.079  12.162  0.00  0.00     0.088 H 
BRANCH  21  23
ATOM     23  C14 86B d   1      -1.930   8.358  13.772  0.00  0.00     0.107 C 
ATOM     24  H10 86B d   1      -1.094   8.058  14.421  0.00  0.00     0.079 H 
ATOM     25  H11 86B d   1      -2.824   8.539  14.386  0.00  0.00     0.079 H 
BRANCH  23  26
ATOM     26  N15 86B d   1      -1.575   9.581  13.033  0.00  0.00    -0.069 N 
ATOM     27  H12 86B d   1      -2.264   9.762  12.320  0.00  0.00     0.277 HD
ATOM     28  H13 86B d   1      -0.669   9.471  12.605  0.00  0.00     0.277 HD
BRANCH  26  29
ATOM     29  C17 86B d   1      -1.543  10.665  13.961  0.00  0.00     0.095 C 
ATOM     30  H15 86B d   1      -2.436  10.531  14.588  0.00  0.00     0.083 H 
BRANCH  29  31
ATOM     31  C18 86B d   1      -1.734  11.998  13.342  0.00  0.00    -0.050 C 
ATOM     32  H16 86B d   1      -1.696  12.773  14.122  0.00  0.00     0.030 H 
ATOM     33  H17 86B d   1      -2.712  12.032  12.839  0.00  0.00     0.030 H 
ATOM     34  H18 86B d   1      -0.936  12.178  12.606  0.00  0.00     0.030 H 
ENDBRANCH  29  31
BRANCH  29  35
ATOM     35  C19 86B d   1      -0.379  10.530  14.919  0.00  0.00    -0.050 C 
ATOM     36  H19 86B d   1      -0.381  11.378  15.620  0.00  0.00     0.030 H 
ATOM     37  H20 86B d   1       0.564  10.525  14.352  0.00  0.00     0.030 H 
ATOM     38  H21 86B d   1      -0.474   9.589  15.481  0.00  0.00     0.030 H 
ENDBRANCH  29  35
ENDBRANCH  26  29
ENDBRANCH  23  26
ENDBRANCH  21  23
BRANCH  21  39
ATOM     39  O16 86B d   1      -3.213   7.689  11.969  0.00  0.00    -0.392 OA
ATOM     40  H14 86B d   1      -3.403   7.013  11.329  0.00  0.00     0.210 HD
ENDBRANCH  21  39
ENDBRANCH   1  21
TORSDOF 11
