REMARK  15 active torsions:
REMARK  status: ('A' for Active; 'I' for Inactive)
REMARK    1  A    between atoms: C01_1  and  S07_7 
REMARK    2  A    between atoms: C04_4  and  C11_11 
REMARK    3  A    between atoms: S07_7  and  N10_10 
REMARK    4  A    between atoms: C11_11  and  C12_12 
REMARK    5  A    between atoms: C12_12  and  N13_13 
REMARK       I    between atoms: N13_13  and  C14_14 
REMARK    6  A    between atoms: C14_14  and  C16_16 
REMARK    7  A    between atoms: C19_19  and  O22_22 
REMARK    8  A    between atoms: O22_22  and  C23_23 
REMARK    9  A    between atoms: C23_23  and  C24_24 
REMARK   10  A    between atoms: C24_24  and  O25_25 
REMARK   11  A    between atoms: C24_24  and  C26_26 
REMARK   12  A    between atoms: C26_26  and  N27_27 
REMARK   13  A    between atoms: N27_27  and  C28_28 
REMARK   14  A    between atoms: C28_28  and  C29_29 
REMARK   15  A    between atoms: C28_28  and  C30_30 
ROOT
ATOM      1  C16 42G d   1      -5.133   8.733  10.426  0.00  0.00     0.032 A 
ATOM      2  C17 42G d   1      -5.869   9.375   9.483  0.00  0.00    -0.065 A 
ATOM      3  C18 42G d   1      -5.332  10.430   8.765  0.00  0.00    -0.050 A 
ATOM      4  C19 42G d   1      -4.017  10.815   8.952  0.00  0.00     0.068 A 
ATOM      5  C20 42G d   1      -3.272  10.145   9.885  0.00  0.00    -0.050 A 
ATOM      6  C21 42G d   1      -3.821   9.072  10.590  0.00  0.00    -0.065 A 
ATOM      7  H12 42G d   1      -6.888   9.058   9.290  0.00  0.00     0.085 H 
ATOM      8  H13 42G d   1      -5.949  10.960   8.049  0.00  0.00     0.087 H 
ATOM      9  H14 42G d   1      -2.250  10.449  10.078  0.00  0.00     0.087 H 
ATOM     10  H15 42G d   1      -3.200   8.504  11.273  0.00  0.00     0.085 H 
ENDROOT
BRANCH   1  11
ATOM     11  C14 42G d   1      -5.645   7.512  11.189  0.00  0.00     0.251 C 
ATOM     12  N13 42G d   1      -4.657   7.046  12.145  0.00  0.00    -0.357 N 
ATOM     13  H11 42G d   1      -3.808   7.561  12.262  0.00  0.00     0.162 HD
ATOM     14  O15 42G d   1      -6.613   6.920  10.954  0.00  0.00    -0.268 OA
BRANCH  12  15
ATOM     15  C12 42G d   1      -4.871   5.869  12.921  0.00  0.00    -0.001 C 
ATOM     16  H9  42G d   1      -5.883   5.910  13.350  0.00  0.00     0.064 H 
ATOM     17  H10 42G d   1      -4.787   4.993  12.261  0.00  0.00     0.064 H 
BRANCH  15  18
ATOM     18  C11 42G d   1      -3.876   5.723  14.046  0.00  0.00    -0.026 C 
ATOM     19  H7  42G d   1      -2.860   5.564  13.655  0.00  0.00     0.042 H 
ATOM     20  H8  42G d   1      -3.884   6.610  14.696  0.00  0.00     0.042 H 
BRANCH  18  21
ATOM     21  C04 42G d   1      -4.365   4.506  14.789  0.00  0.00    -0.057 A 
ATOM     22  C03 42G d   1      -3.532   3.454  15.012  0.00  0.00    -0.075 A 
ATOM     23  C02 42G d   1      -4.013   2.374  15.678  0.00  0.00    -0.060 A 
ATOM     24  H2  42G d   1      -2.505   3.478  14.665  0.00  0.00     0.084 H 
ATOM     25  C01 42G d   1      -5.297   2.350  16.093  0.00  0.00     0.079 A 
ATOM     26  H1  42G d   1      -3.364   1.529  15.877  0.00  0.00     0.085 H 
ATOM     27  C06 42G d   1      -6.136   3.391  15.848  0.00  0.00    -0.060 A 
ATOM     28  C05 42G d   1      -5.656   4.478  15.191  0.00  0.00    -0.075 A 
ATOM     29  H4  42G d   1      -7.170   3.354  16.171  0.00  0.00     0.085 H 
ATOM     30  H3  42G d   1      -6.306   5.322  14.989  0.00  0.00     0.084 H 
BRANCH  25  31
ATOM     31  S07 42G d   1      -5.952   0.904  17.000  0.00  0.00     0.256 S 
ATOM     32  O08 42G d   1      -5.479   0.949  18.336  0.00  0.00    -0.201 OA
ATOM     33  O09 42G d   1      -7.339   1.031  16.935  0.00  0.00    -0.201 OA
BRANCH  31  34
ATOM     34  N10 42G d   1      -5.324  -0.489  16.297  0.00  0.00    -0.324 N 
ATOM     35  H5  42G d   1      -5.571  -1.387  16.660  0.00  0.00     0.169 HD
ATOM     36  H6  42G d   1      -4.704  -0.419  15.516  0.00  0.00     0.169 HD
ENDBRANCH  31  34
ENDBRANCH  25  31
ENDBRANCH  18  21
ENDBRANCH  15  18
ENDBRANCH  12  15
ENDBRANCH   1  11
BRANCH   4  37
ATOM     37  O22 42G d   1      -3.478  11.871   8.207  0.00  0.00    -0.349 OA
BRANCH  37  38
ATOM     38  C23 42G d   1      -3.607  11.688   6.824  0.00  0.00     0.051 C 
ATOM     39  H16 42G d   1      -4.584  12.074   6.497  0.00  0.00     0.079 H 
ATOM     40  H17 42G d   1      -3.541  10.614   6.593  0.00  0.00     0.079 H 
BRANCH  38  41
ATOM     41  C24 42G d   1      -2.510  12.424   6.087  0.00  0.00     0.079 C 
ATOM     42  H18 42G d   1      -2.757  12.482   5.017  0.00  0.00     0.088 H 
BRANCH  41  43
ATOM     43  O25 42G d   1      -1.324  11.723   6.229  0.00  0.00    -0.392 OA
ATOM     44  H19 42G d   1      -0.630  12.180   5.768  0.00  0.00     0.210 HD
ENDBRANCH  41  43
BRANCH  41  45
ATOM     45  C26 42G d   1      -2.443  13.844   6.656  0.00  0.00     0.107 C 
ATOM     46  H20 42G d   1      -3.476  14.171   6.847  0.00  0.00     0.079 H 
ATOM     47  H21 42G d   1      -1.992  14.486   5.885  0.00  0.00     0.079 H 
BRANCH  45  48
ATOM     48  N27 42G d   1      -1.685  14.047   7.892  0.00  0.00    -0.069 N 
ATOM     49  H22 42G d   1      -1.520  13.164   8.350  0.00  0.00     0.277 HD
ATOM     50  H23 42G d   1      -2.189  14.659   8.515  0.00  0.00     0.277 HD
BRANCH  48  51
ATOM     51  C28 42G d   1      -0.435  14.650   7.502  0.00  0.00     0.095 C 
ATOM     52  H24 42G d   1      -0.597  14.923   6.449  0.00  0.00     0.083 H 
BRANCH  51  53
ATOM     53  C29 42G d   1      -0.068  15.946   8.198  0.00  0.00    -0.050 C 
ATOM     54  H25 42G d   1       0.900  16.305   7.818  0.00  0.00     0.030 H 
ATOM     55  H26 42G d   1       0.005  15.772   9.282  0.00  0.00     0.030 H 
ATOM     56  H27 42G d   1      -0.843  16.701   7.999  0.00  0.00     0.030 H 
ENDBRANCH  51  53
BRANCH  51  57
ATOM     57  C30 42G d   1       0.782  13.757   7.494  0.00  0.00    -0.050 C 
ATOM     58  H28 42G d   1       1.661  14.338   7.180  0.00  0.00     0.030 H 
ATOM     59  H29 42G d   1       0.622  12.926   6.792  0.00  0.00     0.030 H 
ATOM     60  H30 42G d   1       0.949  13.356   8.505  0.00  0.00     0.030 H 
ENDBRANCH  51  57
ENDBRANCH  48  51
ENDBRANCH  45  48
ENDBRANCH  41  45
ENDBRANCH  38  41
ENDBRANCH  37  38
ENDBRANCH   4  37
TORSDOF 15
