REMARK  6 active torsions:
REMARK  status: ('A' for Active; 'I' for Inactive)
REMARK    1  A    between atoms: C_17  and  C1_1 
REMARK       I    between atoms: C1_1  and  N_18 
REMARK    2  A    between atoms: N1_21  and  C3_3 
REMARK    3  A    between atoms: N4_16  and  C9_6 
REMARK    4  A    between atoms: C10_7  and  N4_16 
REMARK    5  A    between atoms: C12_9  and  O2_15 
REMARK    6  A    between atoms: O2_15  and  C13_10 
ROOT
ATOM      1  C3  B7V d   1       6.564  54.923   1.031  0.00  0.00     0.070 C 
ATOM      2  C7  B7V d   1       7.613  54.524   2.122  0.00  0.00     0.056 C 
ATOM      3  C8  B7V d   1       7.329  55.250   3.365  0.00  0.00     0.066 C 
ATOM      4  N2  B7V d   1       7.136  55.788   4.347  0.00  0.00    -0.197 NA
ATOM      5  C6  B7V d   1       7.529  53.010   2.379  0.00  0.00    -0.028 C 
ATOM      6  C5  B7V d   1       7.692  52.255   1.081  0.00  0.00     0.021 C 
ATOM      7  O1  B7V d   1       6.694  52.608   0.116  0.00  0.00    -0.389 OA
ATOM      8  C4  B7V d   1       6.739  54.020  -0.194  0.00  0.00     0.041 C 
ATOM      9  H2  B7V d   1       5.558  54.761   1.444  0.00  0.00     0.081 H 
ATOM     10  H3  B7V d   1       8.623  54.781   1.771  0.00  0.00     0.066 H 
ATOM     11  H13 B7V d   1       6.550  52.769   2.820  0.00  0.00     0.038 H 
ATOM     12  H14 B7V d   1       8.328  52.714   3.075  0.00  0.00     0.038 H 
ATOM     13  H15 B7V d   1       7.618  51.177   1.287  0.00  0.00     0.074 H 
ATOM     14  H16 B7V d   1       8.684  52.481   0.663  0.00  0.00     0.074 H 
ATOM     15  H17 B7V d   1       7.712  54.244  -0.655  0.00  0.00     0.077 H 
ATOM     16  H18 B7V d   1       5.934  54.245  -0.909  0.00  0.00     0.077 H 
ENDROOT
BRANCH   1  17
ATOM     17  N1  B7V d   1       6.678  56.346   0.649  0.00  0.00    -0.270 N 
ATOM     18  C2  B7V d   1       5.794  57.334   0.855  0.00  0.00     0.018 A 
ATOM     19  C   B7V d   1       6.319  58.451   0.266  0.00  0.00     0.096 A 
ATOM     20  H1  B7V d   1       4.846  57.261   1.386  0.00  0.00     0.116 H 
ATOM     21  C9  B7V d   1       7.571  58.011  -0.289  0.00  0.00     0.165 A 
ATOM     22  N3  B7V d   1       7.792  56.745  -0.045  0.00  0.00    -0.153 NA
BRANCH  19  23
ATOM     23  C1  B7V d   1       5.753  59.817   0.176  0.00  0.00     0.254 C 
ATOM     24  N   B7V d   1       4.641  60.055   0.854  0.00  0.00    -0.366 N 
ATOM     25  H11 B7V d   1       4.222  60.962   0.824  0.00  0.00     0.159 HD
ATOM     26  H12 B7V d   1       4.221  59.328   1.396  0.00  0.00     0.159 HD
ATOM     27  O   B7V d   1       6.327  60.675  -0.494  0.00  0.00    -0.268 OA
ENDBRANCH  19  23
BRANCH  21  28
ATOM     28  N4  B7V d   1       8.371  58.858  -1.010  0.00  0.00    -0.339 N 
ATOM     29  H10 B7V d   1       8.028  59.827  -1.080  0.00  0.00     0.167 HD
BRANCH  28  30
ATOM     30  C10 B7V d   1       9.594  58.608  -1.673  0.00  0.00     0.036 A 
ATOM     31  C11 B7V d   1      10.174  57.345  -1.596  0.00  0.00    -0.023 A 
ATOM     32  C12 B7V d   1      11.370  57.083  -2.254  0.00  0.00     0.092 A 
ATOM     33  H4  B7V d   1       9.691  56.563  -1.021  0.00  0.00     0.091 H 
ATOM     34  C14 B7V d   1      11.946  58.087  -3.028  0.00  0.00     0.067 A 
ATOM     35  C15 B7V d   1      11.373  59.345  -3.105  0.00  0.00    -0.057 A 
ATOM     36 CL   B7V d   1      13.413  57.766  -3.888  0.00  0.00    -0.081 Cl
ATOM     37  C16 B7V d   1      10.196  59.607  -2.428  0.00  0.00    -0.055 A 
ATOM     38  H8  B7V d   1      11.846  60.122  -3.694  0.00  0.00     0.086 H 
ATOM     39  H9  B7V d   1       9.744  60.590  -2.486  0.00  0.00     0.087 H 
BRANCH  32  40
ATOM     40  O2  B7V d   1      12.073  55.913  -2.136  0.00  0.00    -0.354 OA
BRANCH  40  41
ATOM     41  C13 B7V d   1      11.492  54.842  -1.372  0.00  0.00     0.010 C 
ATOM     42  H5  B7V d   1      12.174  53.979  -1.373  0.00  0.00     0.066 H 
ATOM     43  H6  B7V d   1      10.531  54.550  -1.821  0.00  0.00     0.066 H 
ATOM     44  H7  B7V d   1      11.326  55.177  -0.338  0.00  0.00     0.066 H 
ENDBRANCH  40  41
ENDBRANCH  32  40
ENDBRANCH  28  30
ENDBRANCH  21  28
ENDBRANCH   1  17
TORSDOF 6
