REMARK WARNING: 32 MAX_TORS EXCEEDED!!!
REMARK  34 active torsions:
REMARK  status: ('A' for Active; 'I' for Inactive)
REMARK    1  A    between atoms: N_1  and  CA_2 
REMARK    2  A    between atoms: CA_2  and  C_3 
REMARK    3  A    between atoms: CA_2  and  CB_5 
REMARK       I    between atoms: C_3  and  N_9 
REMARK    4  A    between atoms: CB_5  and  CG_6 
REMARK    5  A    between atoms: CG_6  and  CD1_7 
REMARK    6  A    between atoms: CG_6  and  CD2_8 
REMARK    7  A    between atoms: CA_10  and  C_11 
REMARK       I    between atoms: C_11  and  N_16 
REMARK    8  A    between atoms: N_16  and  CA_17 
REMARK    9  A    between atoms: CA_17  and  C_18 
REMARK   10  A    between atoms: CA_17  and  CB_20 
REMARK       I    between atoms: C_18  and  N_22 
REMARK   11  A    between atoms: CB_20  and  OG_21 
REMARK   12  A    between atoms: N_22  and  CA_23 
REMARK   13  A    between atoms: CA_23  and  C_24 
REMARK   14  A    between atoms: CA_23  and  CB_26 
REMARK       I    between atoms: C_24  and  N_33 
REMARK   15  A    between atoms: CB_26  and  CG_27 
REMARK   16  A    between atoms: N_33  and  CA_34 
REMARK   17  A    between atoms: CA_34  and  C_35 
REMARK   18  A    between atoms: CA_34  and  CB_37 
REMARK       I    between atoms: C_35  and  N_42 
REMARK   19  A    between atoms: CB_37  and  CG_38 
REMARK   20  A    between atoms: CG_38  and  CD_39 
REMARK   21  A    between atoms: N_42  and  CA_43 
REMARK   22  A    between atoms: CA_43  and  C_44 
REMARK   23  A    between atoms: CA_43  and  CB_46 
REMARK       I    between atoms: C_44  and  N_49 
REMARK   24  A    between atoms: CB_46  and  OG1_47 
REMARK   25  A    between atoms: CB_46  and  CG2_48 
REMARK   26  A    between atoms: N_49  and  CA_50 
REMARK   27  A    between atoms: CA_50  and  C_51 
REMARK   28  A    between atoms: CA_50  and  CB_53 
REMARK       I    between atoms: C_51  and  N_54 
REMARK   29  A    between atoms: N_54  and  CA_55 
REMARK   30  A    between atoms: CA_55  and  C_56 
REMARK   31  A    between atoms: CA_55  and  CB_58 
REMARK   32  A    between atoms: CB_58  and  CG_59 
REMARK   33  A    between atoms: CG_59  and  CD1_60 
REMARK   34  A    between atoms: CG_59  and  CD2_61 
ROOT
ATOM      1  CA  PHE d   1      15.768  33.796  30.357  0.00  0.00     0.093 C 
ATOM      2  H27 PHE d   1      16.246  34.694  29.939  0.00  0.00     0.088 H 
ENDROOT
BRANCH   1   3
ATOM      3  N   PHE d   1      14.391  33.745  29.894  0.00  0.00    -0.346 N 
ATOM      4  C   SER d   1      13.954  34.462  28.864  0.00  0.00     0.243 C 
ATOM      5  O   SER d   1      14.693  35.156  28.161  0.00  0.00    -0.271 OA
ATOM      6  H26 PHE d   1      13.747  33.146  30.370  0.00  0.00     0.163 HD
BRANCH   4   7
ATOM      7  CA  SER d   1      12.457  34.408  28.594  0.00  0.00     0.109 C 
ATOM      8  H22 SER d   1      12.030  33.514  29.072  0.00  0.00     0.090 H 
BRANCH   7   9
ATOM      9  N   SER d   1      11.899  35.605  29.211  0.00  0.00    -0.344 N 
ATOM     10  C   PRO d   1      10.987  35.556  30.171  0.00  0.00     0.241 C 
ATOM     11  O   PRO d   1      10.422  34.515  30.515  0.00  0.00    -0.271 OA
ATOM     12  H21 SER d   1      12.217  36.499  28.897  0.00  0.00     0.163 HD
BRANCH  10  13
ATOM     13  CA  PRO d   1      10.657  36.887  30.818  0.00  0.00     0.091 C 
ATOM     14  N   PRO d   1       9.257  36.913  31.238  0.00  0.00    -0.337 N 
ATOM     15  C   LEU d   1       8.298  36.880  30.320  0.00  0.00     0.251 C 
ATOM     16  CD  PRO d   1       9.128  36.829  32.705  0.00  0.00    -0.001 C 
ATOM     17  O   LEU d   1       8.530  36.899  29.110  0.00  0.00    -0.271 OA
ATOM     18  CG  PRO d   1      10.527  36.495  33.159  0.00  0.00    -0.048 C 
ATOM     19  H19 PRO d   1       8.421  36.037  32.993  0.00  0.00     0.064 H 
ATOM     20  H20 PRO d   1       8.796  37.789  33.127  0.00  0.00     0.064 H 
ATOM     21  CB  PRO d   1      11.427  37.081  32.128  0.00  0.00    -0.036 C 
ATOM     22  H17 PRO d   1      10.729  36.941  34.144  0.00  0.00     0.035 H 
ATOM     23  H18 PRO d   1      10.664  35.405  33.215  0.00  0.00     0.035 H 
ATOM     24  H15 PRO d   1      11.604  38.149  32.324  0.00  0.00     0.036 H 
ATOM     25  H16 PRO d   1      12.389  36.549  32.100  0.00  0.00     0.036 H 
ATOM     26  H14 PRO d   1      10.874  37.702  30.112  0.00  0.00     0.087 H 
BRANCH  15  27
ATOM     27  CA  LEU d   1       6.874  36.806  30.819  0.00  0.00     0.176 C 
ATOM     28  H4  LEU d   1       6.803  37.336  31.780  0.00  0.00     0.099 H 
BRANCH  27  29
ATOM     29  N   LEU d   1       5.991  37.453  29.863  0.00  0.00    -0.066 N 
ATOM     30  H1  LEU d   1       5.041  37.404  30.196  0.00  0.00     0.275 HD
ATOM     31  H2  LEU d   1       6.059  36.986  28.973  0.00  0.00     0.275 HD
ATOM     32  H3  LEU d   1       6.260  38.419  29.757  0.00  0.00     0.275 HD
ENDBRANCH  27  29
BRANCH  27  33
ATOM     33  CB  LEU d   1       6.481  35.346  31.035  0.00  0.00    -0.028 C 
ATOM     34  H5  LEU d   1       7.244  34.887  31.680  0.00  0.00     0.037 H 
ATOM     35  H6  LEU d   1       6.485  34.850  30.053  0.00  0.00     0.037 H 
BRANCH  33  36
ATOM     36  CG  LEU d   1       5.119  35.093  31.676  0.00  0.00    -0.059 C 
ATOM     37  H7  LEU d   1       4.346  35.551  31.042  0.00  0.00     0.038 H 
BRANCH  36  38
ATOM     38  CD1 LEU d   1       4.854  33.596  31.755  0.00  0.00    -0.073 C 
ATOM     39  H8  LEU d   1       3.871  33.422  32.218  0.00  0.00     0.028 H 
ATOM     40  H9  LEU d   1       5.636  33.117  32.363  0.00  0.00     0.028 H 
ATOM     41  H10 LEU d   1       4.863  33.168  30.742  0.00  0.00     0.028 H 
ENDBRANCH  36  38
BRANCH  36  42
ATOM     42  CD2 LEU d   1       5.042  35.723  33.048  0.00  0.00    -0.073 C 
ATOM     43  H11 LEU d   1       5.236  36.803  32.967  0.00  0.00     0.028 H 
ATOM     44  H12 LEU d   1       5.795  35.263  33.705  0.00  0.00     0.028 H 
ATOM     45  H13 LEU d   1       4.039  35.562  33.470  0.00  0.00     0.028 H 
ENDBRANCH  36  42
ENDBRANCH  33  36
ENDBRANCH  27  33
ENDBRANCH  15  27
ENDBRANCH  10  13
ENDBRANCH   7   9
BRANCH   7  46
ATOM     46  CB  SER d   1      12.146  34.350  27.103  0.00  0.00     0.044 C 
ATOM     47  H23 SER d   1      12.743  35.111  26.580  0.00  0.00     0.077 H 
ATOM     48  H24 SER d   1      11.076  34.553  26.949  0.00  0.00     0.077 H 
BRANCH  46  49
ATOM     49  OG  SER d   1      12.457  33.072  26.576  0.00  0.00    -0.398 OA
ATOM     50  H25 SER d   1      12.257  33.056  25.648  0.00  0.00     0.209 HD
ENDBRANCH  46  49
ENDBRANCH   7  46
ENDBRANCH   4   7
ENDBRANCH   1   3
BRANCH   1  51
ATOM     51  C   PHE d   1      16.528  32.567  29.883  0.00  0.00     0.241 C 
ATOM     52  O   PHE d   1      15.986  31.458  29.861  0.00  0.00    -0.271 OA
ATOM     53  N   GLU d   1      17.782  32.779  29.495  0.00  0.00    -0.346 N 
ATOM     54  H35 GLU d   1      18.083  33.721  29.350  0.00  0.00     0.163 HD
BRANCH  53  55
ATOM     55  CA  GLU d   1      18.737  31.703  29.271  0.00  0.00     0.090 C 
ATOM     56  H36 GLU d   1      18.448  30.834  29.881  0.00  0.00     0.087 H 
BRANCH  55  57
ATOM     57  C   GLU d   1      20.094  32.208  29.724  0.00  0.00     0.241 C 
ATOM     58  O   GLU d   1      20.529  33.282  29.298  0.00  0.00    -0.271 OA
ATOM     59  N   THR d   1      20.752  31.448  30.594  0.00  0.00    -0.344 N 
ATOM     60  H41 THR d   1      20.382  30.548  30.823  0.00  0.00     0.163 HD
BRANCH  59  61
ATOM     61  CA  THR d   1      21.992  31.878  31.226  0.00  0.00     0.113 C 
ATOM     62  H42 THR d   1      22.330  32.809  30.747  0.00  0.00     0.091 H 
BRANCH  61  63
ATOM     63  C   THR d   1      23.046  30.807  31.016  0.00  0.00     0.243 C 
ATOM     64  O   THR d   1      22.844  29.649  31.404  0.00  0.00    -0.271 OA
ATOM     65  N   ALA d   1      24.160  31.191  30.398  0.00  0.00    -0.346 N 
ATOM     66  H48 ALA d   1      24.214  32.126  30.049  0.00  0.00     0.163 HD
BRANCH  65  67
ATOM     67  CA  ALA d   1      25.302  30.311  30.208  0.00  0.00     0.086 C 
ATOM     68  H49 ALA d   1      24.936  29.288  30.037  0.00  0.00     0.086 H 
BRANCH  67  69
ATOM     69  C   ALA d   1      26.172  30.322  31.455  0.00  0.00     0.240 C 
ATOM     70  O   ALA d   1      26.407  31.378  32.051  0.00  0.00    -0.271 OA
ATOM     71  N   LEU d   1      26.659  29.143  31.835  0.00  0.00    -0.345 N 
ATOM     72  H53 LEU d   1      26.556  28.357  31.226  0.00  0.00     0.163 HD
BRANCH  71  73
ATOM     73  CA  LEU d   1      27.339  28.963  33.113  0.00  0.00     0.096 C 
ATOM     74  H54 LEU d   1      27.663  29.950  33.475  0.00  0.00     0.089 H 
BRANCH  73  75
ATOM     75  C   LEU d   1      28.567  28.078  32.965  0.00  0.00     0.196 C 
ATOM     76  O   LEU d   1      29.377  27.969  33.886  0.00  0.00    -0.646 OA
ATOM     77  OXT LEU d   1      28.771  27.448  31.928  0.00  0.00    -0.646 OA
ENDBRANCH  73  75
BRANCH  73  78
ATOM     78  CB  LEU d   1      26.380  28.356  34.142  0.00  0.00    -0.034 C 
ATOM     79  H55 LEU d   1      26.938  28.195  35.076  0.00  0.00     0.037 H 
ATOM     80  H56 LEU d   1      26.029  27.389  33.753  0.00  0.00     0.037 H 
BRANCH  78  81
ATOM     81  CG  LEU d   1      25.154  29.213  34.462  0.00  0.00    -0.059 C 
ATOM     82  H57 LEU d   1      24.714  29.550  33.512  0.00  0.00     0.038 H 
BRANCH  81  83
ATOM     83  CD1 LEU d   1      24.099  28.411  35.214  0.00  0.00    -0.073 C 
ATOM     84  H58 LEU d   1      23.233  29.055  35.428  0.00  0.00     0.028 H 
ATOM     85  H59 LEU d   1      24.524  28.041  36.159  0.00  0.00     0.028 H 
ATOM     86  H60 LEU d   1      23.779  27.558  34.598  0.00  0.00     0.028 H 
ENDBRANCH  81  83
BRANCH  81  87
ATOM     87  CD2 LEU d   1      25.562  30.440  35.260  0.00  0.00    -0.073 C 
ATOM     88  H61 LEU d   1      26.323  31.005  34.701  0.00  0.00     0.028 H 
ATOM     89  H62 LEU d   1      25.977  30.126  36.229  0.00  0.00     0.028 H 
ATOM     90  H63 LEU d   1      24.682  31.078  35.427  0.00  0.00     0.028 H 
ENDBRANCH  81  87
ENDBRANCH  78  81
ENDBRANCH  73  78
ENDBRANCH  71  73
ENDBRANCH  67  69
BRANCH  67  91
ATOM     91  CB  ALA d   1      26.123  30.749  28.996  0.00  0.00    -0.049 C 
ATOM     92  H50 ALA d   1      26.980  30.072  28.870  0.00  0.00     0.030 H 
ATOM     93  H51 ALA d   1      26.486  31.776  29.151  0.00  0.00     0.030 H 
ATOM     94  H52 ALA d   1      25.493  30.715  28.095  0.00  0.00     0.030 H 
ENDBRANCH  67  91
ENDBRANCH  65  67
ENDBRANCH  61  63
BRANCH  61  95
ATOM     95  CB  THR d   1      21.783  32.151  32.718  0.00  0.00     0.060 C 
ATOM     96  H43 THR d   1      21.476  31.218  33.214  0.00  0.00     0.086 H 
BRANCH  95  97
ATOM     97  OG1 THR d   1      20.755  33.137  32.884  0.00  0.00    -0.393 OA
ATOM     98  H44 THR d   1      21.015  33.940  32.448  0.00  0.00     0.210 HD
ENDBRANCH  95  97
BRANCH  95  99
ATOM     99  CG2 THR d   1      23.067  32.655  33.358  0.00  0.00    -0.050 C 
ATOM    100  H45 THR d   1      22.894  32.844  34.428  0.00  0.00     0.031 H 
ATOM    101  H46 THR d   1      23.380  33.588  32.867  0.00  0.00     0.031 H 
ATOM    102  H47 THR d   1      23.856  31.897  33.243  0.00  0.00     0.031 H 
ENDBRANCH  95  99
ENDBRANCH  61  95
ENDBRANCH  59  61
ENDBRANCH  55  57
BRANCH  55 103
ATOM    103  CB  GLU d   1      18.787  31.266  27.801  0.00  0.00    -0.029 C 
ATOM    104  H37 GLU d   1      19.126  32.119  27.195  0.00  0.00     0.037 H 
ATOM    105  H38 GLU d   1      17.773  30.974  27.489  0.00  0.00     0.037 H 
BRANCH 103 106
ATOM    106  CG  GLU d   1      19.724  30.095  27.551  0.00  0.00     0.018 C 
ATOM    107  H39 GLU d   1      19.551  29.335  28.327  0.00  0.00     0.049 H 
ATOM    108  H40 GLU d   1      20.761  30.455  27.616  0.00  0.00     0.049 H 
BRANCH 106 109
ATOM    109  CD  GLU d   1      19.518  29.454  26.190  0.00  0.00     0.172 C 
ATOM    110  OE1 GLU d   1      18.491  29.742  25.540  0.00  0.00    -0.648 OA
ATOM    111  OE2 GLU d   1      20.378  28.655  25.770  0.00  0.00    -0.648 OA
ENDBRANCH 106 109
ENDBRANCH 103 106
ENDBRANCH  55 103
ENDBRANCH  53  55
ENDBRANCH   1  51
BRANCH   1 112
ATOM    112  CB  PHE d   1      15.830  33.870  31.885  0.00  0.00    -0.014 C 
ATOM    113  H28 PHE d   1      16.871  33.698  32.197  0.00  0.00     0.043 H 
ATOM    114  H29 PHE d   1      15.188  33.076  32.295  0.00  0.00     0.043 H 
BRANCH 112 115
ATOM    115  CG  PHE d   1      15.377  35.187  32.458  0.00  0.00    -0.056 A 
ATOM    116  CD1 PHE d   1      15.820  36.385  31.925  0.00  0.00    -0.077 A 
ATOM    117  CE1 PHE d   1      15.406  37.594  32.455  0.00  0.00    -0.082 A 
ATOM    118  H30 PHE d   1      16.500  36.376  31.081  0.00  0.00     0.084 H 
ATOM    119  CZ  PHE d   1      14.540  37.615  33.527  0.00  0.00    -0.083 A 
ATOM    120  H32 PHE d   1      15.762  38.524  32.027  0.00  0.00     0.083 H 
ATOM    121  CE2 PHE d   1      14.091  36.429  34.072  0.00  0.00    -0.082 A 
ATOM    122  H34 PHE d   1      14.212  38.561  33.941  0.00  0.00     0.083 H 
ATOM    123  CD2 PHE d   1      14.508  35.222  33.536  0.00  0.00    -0.077 A 
ATOM    124  H33 PHE d   1      13.413  36.442  34.918  0.00  0.00     0.083 H 
ATOM    125  H31 PHE d   1      14.150  34.293  33.965  0.00  0.00     0.084 H 
ENDBRANCH 112 115
ENDBRANCH   1 112
TORSDOF 34
