REMARK  6 active torsions:
REMARK  status: ('A' for Active; 'I' for Inactive)
REMARK    1  A    between atoms: C1_10  and  C2_2 
REMARK    2  A    between atoms: C_9  and  C16_7 
REMARK    3  A    between atoms: C_9  and  C1_10 
REMARK    4  A    between atoms: C3_15  and  O_16 
REMARK    5  A    between atoms: O_16  and  C10_17 
REMARK    6  A    between atoms: C10_17  and  C11_18 
ROOT
ATOM      1  C4  B8P d   1      -1.485   4.631   8.732  0.00  0.00     0.088 A 
ATOM      2  C2  B8P d   1       0.481   2.777   8.494  0.00  0.00     0.088 A 
ATOM      3  N1  B8P d   1       0.141   3.400   7.398  0.00  0.00    -0.247 NA
ATOM      4  C6  B8P d   1      -2.888   6.229   7.618  0.00  0.00    -0.081 A 
ATOM      5  C5  B8P d   1      -2.515   5.594   8.765  0.00  0.00    -0.053 A 
ATOM      6  C9  B8P d   1      -0.845   4.349   7.496  0.00  0.00     0.086 A 
ATOM      7  C8  B8P d   1      -1.240   5.056   6.339  0.00  0.00    -0.053 A 
ATOM      8  C7  B8P d   1      -2.233   5.981   6.413  0.00  0.00    -0.081 A 
ATOM      9  N   B8P d   1      -1.148   3.970   9.883  0.00  0.00    -0.221 NA
ATOM     10  C3  B8P d   1      -0.211   3.080   9.754  0.00  0.00     0.190 A 
ATOM     11  H1  B8P d   1      -3.707   6.938   7.643  0.00  0.00     0.083 H 
ATOM     12  H2  B8P d   1      -3.009   5.829   9.701  0.00  0.00     0.087 H 
ATOM     13  H7  B8P d   1      -0.751   4.861   5.391  0.00  0.00     0.087 H 
ATOM     14  H8  B8P d   1      -2.519   6.532   5.524  0.00  0.00     0.083 H 
ENDROOT
BRANCH  10  15
ATOM     15  O   B8P d   1       0.156   2.328  10.805  0.00  0.00    -0.327 OA
BRANCH  15  16
ATOM     16  C10 B8P d   1      -0.483   2.603  12.070  0.00  0.00     0.067 C 
ATOM     17  H9  B8P d   1      -1.576   2.550  11.960  0.00  0.00     0.085 H 
ATOM     18  H10 B8P d   1      -0.198   3.604  12.427  0.00  0.00     0.085 H 
BRANCH  16  19
ATOM     19  C11 B8P d   1      -0.013   1.559  13.039  0.00  0.00     0.058 A 
ATOM     20  N2  B8P d   1      -0.416   0.306  12.769  0.00  0.00    -0.263 NA
ATOM     21  C15 B8P d   1       0.037  -0.674  13.563  0.00  0.00     0.003 A 
ATOM     22  C14 B8P d   1       0.875  -0.461  14.632  0.00  0.00    -0.066 A 
ATOM     23  H11 B8P d   1      -0.274  -1.690  13.351  0.00  0.00     0.114 H 
ATOM     24  C13 B8P d   1       1.286   0.822  14.885  0.00  0.00    -0.080 A 
ATOM     25  H12 B8P d   1       1.201  -1.284  15.257  0.00  0.00     0.085 H 
ATOM     26  C12 B8P d   1       0.843   1.855  14.085  0.00  0.00    -0.057 A 
ATOM     27  H13 B8P d   1       1.957   1.024  15.712  0.00  0.00     0.083 H 
ATOM     28  H14 B8P d   1       1.158   2.875  14.272  0.00  0.00     0.086 H 
ENDBRANCH  16  19
ENDBRANCH  15  16
ENDBRANCH  10  15
BRANCH   2  29
ATOM     29  C1  B8P d   1       1.640   1.822   8.503  0.00  0.00    -0.011 C 
ATOM     30  H5  B8P d   1       1.298   0.851   8.115  0.00  0.00     0.043 H 
ATOM     31  H6  B8P d   1       1.987   1.701   9.540  0.00  0.00     0.043 H 
BRANCH  29  32
ATOM     32  C   B8P d   1       2.809   2.302   7.651  0.00  0.00     0.021 C 
ATOM     33  H3  B8P d   1       3.537   1.480   7.591  0.00  0.00     0.049 H 
ATOM     34  H4  B8P d   1       2.420   2.522   6.646  0.00  0.00     0.049 H 
BRANCH  32  35
ATOM     35  C16 B8P d   1       3.546   3.532   8.136  0.00  0.00     0.172 C 
ATOM     36  O2  B8P d   1       4.406   3.981   7.456  0.00  0.00    -0.648 OA
ATOM     37  O1  B8P d   1       3.207   4.084   9.283  0.00  0.00    -0.648 OA
ENDBRANCH  32  35
ENDBRANCH  29  32
ENDBRANCH   2  29
TORSDOF 6
