REMARK  11 active torsions:
REMARK  status: ('A' for Active; 'I' for Inactive)
REMARK    1  A    between atoms: C40_2  and  C12_3 
REMARK    2  A    between atoms: C13_4  and  C16_5 
REMARK    3  A    between atoms: C17_6  and  C18_7 
REMARK    4  A    between atoms: C21_10  and  O39_11 
REMARK    5  A    between atoms: C9_18  and  C14_26 
REMARK    6  A    between atoms: C9_18  and  C15_34 
REMARK    7  A    between atoms: C1_21  and  O37_22 
REMARK    8  A    between atoms: C31_29  and  O34_30 
REMARK    9  A    between atoms: O34_30  and  C38_31 
REMARK   10  A    between atoms: C26_37  and  O35_38 
REMARK   11  A    between atoms: O35_38  and  C36_39 
ROOT
ATOM      1  C12 J20 d   1     -26.311   5.850  25.014  0.00  0.00     0.021 A 
ATOM      2  C13 J20 d   1     -26.404   5.531  26.382  0.00  0.00     0.040 A 
ATOM      3  C8  J20 d   1     -27.195   6.318  27.223  0.00  0.00    -0.005 A 
ATOM      4  C7  J20 d   1     -27.854   7.417  26.677  0.00  0.00    -0.016 A 
ATOM      5  C10 J20 d   1     -27.765   7.755  25.336  0.00  0.00    -0.071 A 
ATOM      6  C11 J20 d   1     -26.989   6.962  24.501  0.00  0.00    -0.068 A 
ATOM      7  C9  J20 d   1     -27.488   6.258  28.707  0.00  0.00     0.071 A 
ATOM      8  C5  J20 d   1     -28.419   7.427  28.857  0.00  0.00    -0.022 A 
ATOM      9  C6  J20 d   1     -29.038   7.917  29.997  0.00  0.00    -0.042 A 
ATOM     10  C1  J20 d   1     -29.831   9.057  29.903  0.00  0.00     0.066 A 
ATOM     11  C2  J20 d   1     -29.995   9.711  28.677  0.00  0.00    -0.050 A 
ATOM     12  C3  J20 d   1     -29.362   9.226  27.530  0.00  0.00    -0.069 A 
ATOM     13  C4  J20 d   1     -28.576   8.082  27.651  0.00  0.00    -0.017 A 
ATOM     14  H7  J20 d   1     -28.290   8.620  24.947  0.00  0.00     0.084 H 
ATOM     15  H8  J20 d   1     -26.908   7.205  23.448  0.00  0.00     0.085 H 
ATOM     16  H9  J20 d   1     -28.906   7.418  30.950  0.00  0.00     0.088 H 
ATOM     17  H11 J20 d   1     -30.616  10.598  28.617  0.00  0.00     0.087 H 
ATOM     18  H12 J20 d   1     -29.479   9.725  26.575  0.00  0.00     0.085 H 
ENDROOT
BRANCH   7  19
ATOM     19  C14 J20 d   1     -28.142   4.958  29.132  0.00  0.00    -0.035 A 
ATOM     20  C29 J20 d   1     -28.931   4.257  28.226  0.00  0.00    -0.072 A 
ATOM     21  C30 J20 d   1     -29.544   3.060  28.574  0.00  0.00    -0.050 A 
ATOM     22  H13 J20 d   1     -29.071   4.653  27.227  0.00  0.00     0.084 H 
ATOM     23  C31 J20 d   1     -29.389   2.539  29.857  0.00  0.00     0.068 A 
ATOM     24  H14 J20 d   1     -30.145   2.529  27.845  0.00  0.00     0.087 H 
ATOM     25  C32 J20 d   1     -28.608   3.234  30.775  0.00  0.00    -0.050 A 
ATOM     26  C33 J20 d   1     -27.992   4.433  30.423  0.00  0.00    -0.072 A 
ATOM     27  H18 J20 d   1     -28.477   2.838  31.776  0.00  0.00     0.087 H 
ATOM     28  H19 J20 d   1     -27.392   4.964  31.153  0.00  0.00     0.084 H 
BRANCH  23  29
ATOM     29  O34 J20 d   1     -29.968   1.360  30.257  0.00  0.00    -0.356 OA
BRANCH  29  30
ATOM     30  C38 J20 d   1     -31.017   0.688  29.555  0.00  0.00     0.010 C 
ATOM     31  H15 J20 d   1     -31.291  -0.230  30.096  0.00  0.00     0.066 H 
ATOM     32  H16 J20 d   1     -30.673   0.429  28.543  0.00  0.00     0.066 H 
ATOM     33  H17 J20 d   1     -31.894   1.348  29.486  0.00  0.00     0.066 H 
ENDBRANCH  29  30
ENDBRANCH  23  29
ENDBRANCH   7  19
BRANCH   7  34
ATOM     34  C15 J20 d   1     -26.196   6.596  29.443  0.00  0.00    -0.035 A 
ATOM     35  C24 J20 d   1     -25.312   5.610  29.878  0.00  0.00    -0.072 A 
ATOM     36  C25 J20 d   1     -24.143   5.937  30.549  0.00  0.00    -0.050 A 
ATOM     37  H20 J20 d   1     -25.543   4.568  29.688  0.00  0.00     0.084 H 
ATOM     38  C26 J20 d   1     -23.812   7.261  30.792  0.00  0.00     0.068 A 
ATOM     39  H21 J20 d   1     -23.481   5.148  30.887  0.00  0.00     0.087 H 
ATOM     40  C27 J20 d   1     -24.677   8.256  30.375  0.00  0.00    -0.050 A 
ATOM     41  C28 J20 d   1     -25.852   7.929  29.701  0.00  0.00    -0.072 A 
ATOM     42  H25 J20 d   1     -24.440   9.295  30.573  0.00  0.00     0.087 H 
ATOM     43  H26 J20 d   1     -26.513   8.722  29.370  0.00  0.00     0.084 H 
BRANCH  38  44
ATOM     44  O35 J20 d   1     -22.676   7.599  31.473  0.00  0.00    -0.356 OA
BRANCH  44  45
ATOM     45  C36 J20 d   1     -21.364   7.528  30.942  0.00  0.00     0.010 C 
ATOM     46  H22 J20 d   1     -20.642   7.858  31.703  0.00  0.00     0.066 H 
ATOM     47  H23 J20 d   1     -21.290   8.180  30.059  0.00  0.00     0.066 H 
ATOM     48  H24 J20 d   1     -21.142   6.491  30.651  0.00  0.00     0.066 H 
ENDBRANCH  44  45
ENDBRANCH  38  44
ENDBRANCH   7  34
BRANCH   2  49
ATOM     49  C16 J20 d   1     -25.815   4.489  26.874  0.00  0.00    -0.060 C 
ATOM     50  C17 J20 d   1     -25.272   3.524  27.300  0.00  0.00    -0.061 C 
BRANCH  50  51
ATOM     51  C18 J20 d   1     -24.705   2.454  27.748  0.00  0.00     0.018 A 
ATOM     52  C19 J20 d   1     -25.168   1.779  28.873  0.00  0.00    -0.062 A 
ATOM     53  C20 J20 d   1     -24.514   0.627  29.319  0.00  0.00    -0.050 A 
ATOM     54  H2  J20 d   1     -26.038   2.147  29.405  0.00  0.00     0.085 H 
ATOM     55  C21 J20 d   1     -23.409   0.142  28.630  0.00  0.00     0.065 A 
ATOM     56  H3  J20 d   1     -24.869   0.111  30.204  0.00  0.00     0.087 H 
ATOM     57  C22 J20 d   1     -22.954   0.810  27.502  0.00  0.00    -0.050 A 
ATOM     58  C23 J20 d   1     -23.599   1.959  27.065  0.00  0.00    -0.062 A 
ATOM     59  H5  J20 d   1     -22.093   0.434  26.961  0.00  0.00     0.087 H 
ATOM     60  H6  J20 d   1     -23.237   2.475  26.183  0.00  0.00     0.085 H 
BRANCH  55  61
ATOM     61  O39 J20 d   1     -22.771  -0.988  29.035  0.00  0.00    -0.361 OA
ATOM     62  H4  J20 d   1     -23.380  -1.717  29.018  0.00  0.00     0.217 HD
ENDBRANCH  55  61
ENDBRANCH  50  51
ENDBRANCH   2  49
BRANCH   1  63
ATOM     63  C40 J20 d   1     -25.482   5.037  24.086  0.00  0.00     0.120 C 
ATOM     64  O41 J20 d   1     -25.366   5.372  22.913  0.00  0.00    -0.301 OA
ATOM     65  H1  J20 d   1     -24.977   4.143  24.449  0.00  0.00     0.151 H 
ENDBRANCH   1  63
BRANCH  10  66
ATOM     66  O37 J20 d   1     -30.442   9.517  31.031  0.00  0.00    -0.361 OA
ATOM     67  H10 J20 d   1     -30.947  10.294  30.822  0.00  0.00     0.217 HD
ENDBRANCH  10  66
TORSDOF 11
