REMARK WARNING: 32 MAX_TORS EXCEEDED!!!
REMARK  56 active torsions:
REMARK  status: ('A' for Active; 'I' for Inactive)
REMARK    1  A    between atoms: N_1  and  CA_2 
REMARK    2  A    between atoms: CA_2  and  C_3 
REMARK    3  A    between atoms: CA_2  and  CB_5 
REMARK       I    between atoms: C_3  and  N_12 
REMARK    4  A    between atoms: CB_5  and  CG_6 
REMARK    5  A    between atoms: CG_6  and  CD_7 
REMARK    6  A    between atoms: CD_7  and  NE_8 
REMARK       I    between atoms: NE_8  and  CZ_9 
REMARK       I    between atoms: CZ_9  and  NH1_10 
REMARK    7  A    between atoms: N_12  and  CA_13 
REMARK    8  A    between atoms: CA_13  and  C_14 
REMARK    9  A    between atoms: CA_13  and  CB_16 
REMARK       I    between atoms: C_14  and  N_20 
REMARK   10  A    between atoms: CB_16  and  CG1_17 
REMARK   11  A    between atoms: CB_16  and  CG2_18 
REMARK   12  A    between atoms: CG1_17  and  CD1_19 
REMARK   13  A    between atoms: CA_21  and  C_22 
REMARK       I    between atoms: C_22  and  N_27 
REMARK   14  A    between atoms: N_27  and  CA_28 
REMARK   15  A    between atoms: CA_28  and  C_29 
REMARK   16  A    between atoms: CA_28  and  CB_31 
REMARK       I    between atoms: C_29  and  N_35 
REMARK   17  A    between atoms: CB_31  and  CG_32 
REMARK       I    between atoms: CG_32  and  ND2_34 
REMARK   18  A    between atoms: N_35  and  CA_36 
REMARK   19  A    between atoms: CA_36  and  C_37 
REMARK   20  A    between atoms: CA_36  and  CB_39 
REMARK       I    between atoms: C_37  and  N_47 
REMARK   21  A    between atoms: CB_39  and  CG_40 
REMARK   22  A    between atoms: CZ_45  and  OH_46 
REMARK   23  A    between atoms: N_47  and  CA_48 
REMARK   24  A    between atoms: CA_48  and  C_49 
REMARK   25  A    between atoms: CA_48  and  CB_51 
REMARK       I    between atoms: C_49  and  N_56 
REMARK   26  A    between atoms: CB_51  and  CG_52 
REMARK   27  A    between atoms: CG_52  and  CD_53 
REMARK       I    between atoms: CD_53  and  NE2_55 
REMARK   28  A    between atoms: N_56  and  CA_57 
REMARK   29  A    between atoms: CA_57  and  C_58 
REMARK   30  A    between atoms: CA_57  and  CB_60 
REMARK       I    between atoms: C_58  and  N_64 
REMARK   31  A    between atoms: CB_60  and  CG_61 
REMARK   32  A    between atoms: CG_61  and  CD1_62 
REMARK   33  A    between atoms: CG_61  and  CD2_63 
REMARK   34  A    between atoms: N_64  and  CA_65 
REMARK   35  A    between atoms: CA_65  and  C_66 
REMARK   36  A    between atoms: CA_65  and  CB_68 
REMARK       I    between atoms: C_66  and  N_70 
REMARK   37  A    between atoms: CB_68  and  OG_69 
REMARK   38  A    between atoms: CA_71  and  C_72 
REMARK       I    between atoms: C_72  and  N_77 
REMARK   39  A    between atoms: N_77  and  CA_78 
REMARK   40  A    between atoms: CA_78  and  C_79 
REMARK   41  A    between atoms: CA_78  and  CB_81 
REMARK       I    between atoms: C_79  and  N_84 
REMARK   42  A    between atoms: CB_81  and  OG1_82 
REMARK   43  A    between atoms: CB_81  and  CG2_83 
REMARK   44  A    between atoms: N_84  and  CA_85 
REMARK   45  A    between atoms: CA_85  and  C_86 
REMARK   46  A    between atoms: CA_85  and  CB_88 
REMARK       I    between atoms: C_86  and  N_93 
REMARK   47  A    between atoms: CB_88  and  CG_89 
REMARK   48  A    between atoms: CG_89  and  CD_90 
REMARK   49  A    between atoms: CD_90  and  CE_91 
REMARK   50  A    between atoms: CE_91  and  NZ_92 
REMARK   51  A    between atoms: N_93  and  CA_94 
REMARK   52  A    between atoms: CA_94  and  C_95 
REMARK   53  A    between atoms: CA_94  and  CB_97 
REMARK   54  A    between atoms: CB_97  and  CG_98 
REMARK   55  A    between atoms: CG_98  and  CD1_99 
REMARK   56  A    between atoms: CG_98  and  CD2_100 
ROOT
ATOM      1  CA  GLN d   1      21.334  33.949 152.826  0.00  0.00     0.090 C 
ATOM      2  H50 GLN d   1      20.884  33.085 153.337  0.00  0.00     0.087 H 
ENDROOT
BRANCH   1   3
ATOM      3  N   GLN d   1      22.450  33.475 152.015  0.00  0.00    -0.346 N 
ATOM      4  C   TYR d   1      22.281  32.650 150.980  0.00  0.00     0.241 C 
ATOM      5  O   TYR d   1      21.168  32.309 150.566  0.00  0.00    -0.271 OA
ATOM      6  H49 GLN d   1      23.375  33.779 152.243  0.00  0.00     0.163 HD
BRANCH   4   7
ATOM      7  CA  TYR d   1      23.545  32.137 150.302  0.00  0.00     0.093 C 
ATOM      8  H41 TYR d   1      24.003  32.966 149.742  0.00  0.00     0.088 H 
BRANCH   7   9
ATOM      9  N   TYR d   1      24.497  31.673 151.302  0.00  0.00    -0.346 N 
ATOM     10  C   ASN d   1      25.732  32.166 151.383  0.00  0.00     0.241 C 
ATOM     11  O   ASN d   1      26.159  33.009 150.585  0.00  0.00    -0.271 OA
ATOM     12  H40 TYR d   1      24.215  30.963 151.947  0.00  0.00     0.163 HD
BRANCH  10  13
ATOM     13  CA  ASN d   1      26.613  31.655 152.516  0.00  0.00     0.097 C 
ATOM     14  H35 ASN d   1      27.450  32.357 152.646  0.00  0.00     0.088 H 
BRANCH  13  15
ATOM     15  N   ASN d   1      25.867  31.587 153.767  0.00  0.00    -0.346 N 
ATOM     16  C   PRO d   1      25.417  32.695 154.362  0.00  0.00     0.241 C 
ATOM     17  O   PRO d   1      25.629  33.832 153.927  0.00  0.00    -0.271 OA
ATOM     18  H34 ASN d   1      25.689  30.697 154.186  0.00  0.00     0.163 HD
BRANCH  16  19
ATOM     19  CA  PRO d   1      24.612  32.550 155.648  0.00  0.00     0.091 C 
ATOM     20  N   PRO d   1      24.500  31.159 156.132  0.00  0.00    -0.337 N 
ATOM     21  C   ILE d   1      23.393  30.458 155.879  0.00  0.00     0.243 C 
ATOM     22  CD  PRO d   1      25.633  30.838 157.024  0.00  0.00    -0.001 C 
ATOM     23  O   ILE d   1      22.373  31.026 155.461  0.00  0.00    -0.271 OA
ATOM     24  CG  PRO d   1      26.271  32.187 157.300  0.00  0.00    -0.048 C 
ATOM     25  H32 PRO d   1      26.345  30.163 156.526  0.00  0.00     0.064 H 
ATOM     26  H33 PRO d   1      25.278  30.374 157.956  0.00  0.00     0.064 H 
ATOM     27  CB  PRO d   1      25.336  33.232 156.812  0.00  0.00    -0.036 C 
ATOM     28  H30 PRO d   1      26.439  32.309 158.380  0.00  0.00     0.035 H 
ATOM     29  H31 PRO d   1      27.231  32.264 156.768  0.00  0.00     0.035 H 
ATOM     30  H28 PRO d   1      24.626  33.523 157.600  0.00  0.00     0.036 H 
ATOM     31  H29 PRO d   1      25.885  34.120 156.467  0.00  0.00     0.036 H 
ATOM     32  H27 PRO d   1      23.613  32.984 155.492  0.00  0.00     0.087 H 
BRANCH  21  33
ATOM     33  CA  ILE d   1      23.358  28.944 156.089  0.00  0.00     0.092 C 
ATOM     34  H17 ILE d   1      22.412  28.570 155.671  0.00  0.00     0.088 H 
BRANCH  33  35
ATOM     35  N   ILE d   1      24.455  28.323 155.350  0.00  0.00    -0.346 N 
ATOM     36  C   ARG d   1      24.375  28.131 154.036  0.00  0.00     0.249 C 
ATOM     37  O   ARG d   1      23.449  28.572 153.355  0.00  0.00    -0.271 OA
ATOM     38  H16 ILE d   1      25.279  28.038 155.840  0.00  0.00     0.163 HD
BRANCH  36  39
ATOM     39  CA  ARG d   1      25.500  27.332 153.382  0.00  0.00     0.176 C 
ATOM     40  H4  ARG d   1      26.252  28.040 153.003  0.00  0.00     0.099 H 
BRANCH  39  41
ATOM     41  N   ARG d   1      26.155  26.443 154.334  0.00  0.00    -0.067 N 
ATOM     42  H1  ARG d   1      26.890  25.934 153.868  0.00  0.00     0.275 HD
ATOM     43  H2  ARG d   1      25.480  25.794 154.706  0.00  0.00     0.275 HD
ATOM     44  H3  ARG d   1      26.548  26.987 155.086  0.00  0.00     0.275 HD
ENDBRANCH  39  41
BRANCH  39  45
ATOM     45  CB  ARG d   1      24.939  26.537 152.199  0.00  0.00    -0.029 C 
ATOM     46  H5  ARG d   1      24.163  27.148 151.715  0.00  0.00     0.036 H 
ATOM     47  H6  ARG d   1      24.487  25.614 152.592  0.00  0.00     0.036 H 
BRANCH  45  48
ATOM     48  CG  ARG d   1      25.961  26.148 151.140  0.00  0.00    -0.047 C 
ATOM     49  H7  ARG d   1      26.691  25.452 151.579  0.00  0.00     0.035 H 
ATOM     50  H8  ARG d   1      26.481  27.052 150.790  0.00  0.00     0.035 H 
BRANCH  48  51
ATOM     51  CD  ARG d   1      25.274  25.475 149.958  0.00  0.00     0.009 C 
ATOM     52  H9  ARG d   1      24.409  26.085 149.659  0.00  0.00     0.064 H 
ATOM     53  H10 ARG d   1      24.929  24.479 150.272  0.00  0.00     0.064 H 
BRANCH  51  54
ATOM     54  NE  ARG d   1      26.159  25.322 148.806  0.00  0.00    -0.227 N 
ATOM     55  CZ  ARG d   1      25.779  24.820 147.635  0.00  0.00     0.665 C 
ATOM     56  NH1 ARG d   1      24.525  24.426 147.457  0.00  0.00    -0.235 N 
ATOM     57  NH2 ARG d   1      26.650  24.715 146.641  0.00  0.00    -0.235 N 
ATOM     58  H12 ARG d   1      24.231  24.037 146.550  0.00  0.00     0.174 HD
ATOM     59  H13 ARG d   1      23.845  24.509 148.226  0.00  0.00     0.174 HD
ATOM     60  H14 ARG d   1      27.625  25.020 146.776  0.00  0.00     0.174 HD
ATOM     61  H15 ARG d   1      26.352  24.328 145.734  0.00  0.00     0.174 HD
ATOM     62  H11 ARG d   1      27.139  25.622 148.907  0.00  0.00     0.177 HD
ENDBRANCH  51  54
ENDBRANCH  48  51
ENDBRANCH  45  48
ENDBRANCH  39  45
ENDBRANCH  36  39
ENDBRANCH  33  35
BRANCH  33  63
ATOM     63  CB  ILE d   1      23.390  28.551 157.577  0.00  0.00    -0.030 C 
ATOM     64  H18 ILE d   1      24.172  29.142 158.077  0.00  0.00     0.043 H 
BRANCH  63  65
ATOM     65  CG1 ILE d   1      23.735  27.067 157.725  0.00  0.00    -0.063 C 
ATOM     66  H19 ILE d   1      24.664  26.870 157.169  0.00  0.00     0.033 H 
ATOM     67  H20 ILE d   1      22.915  26.476 157.291  0.00  0.00     0.033 H 
BRANCH  65  68
ATOM     68  CD1 ILE d   1      23.934  26.625 159.157  0.00  0.00    -0.076 C 
ATOM     69  H24 ILE d   1      24.177  25.552 159.179  0.00  0.00     0.027 H 
ATOM     70  H25 ILE d   1      23.011  26.803 159.727  0.00  0.00     0.027 H 
ATOM     71  H26 ILE d   1      24.759  27.198 159.606  0.00  0.00     0.027 H 
ENDBRANCH  65  68
ENDBRANCH  63  65
BRANCH  63  72
ATOM     72  CG2 ILE d   1      22.058  28.862 158.238  0.00  0.00    -0.071 C 
ATOM     73  H21 ILE d   1      21.831  29.932 158.119  0.00  0.00     0.028 H 
ATOM     74  H22 ILE d   1      22.113  28.615 159.309  0.00  0.00     0.028 H 
ATOM     75  H23 ILE d   1      21.265  28.264 157.764  0.00  0.00     0.028 H 
ENDBRANCH  63  72
ENDBRANCH  33  63
ENDBRANCH  21  33
ENDBRANCH  16  19
ENDBRANCH  13  15
BRANCH  13  76
ATOM     76  CB  ASN d   1      27.183  30.274 152.183  0.00  0.00     0.036 C 
ATOM     77  H36 ASN d   1      26.381  29.660 151.747  0.00  0.00     0.051 H 
ATOM     78  H37 ASN d   1      27.538  29.807 153.114  0.00  0.00     0.051 H 
BRANCH  76  79
ATOM     79  CG  ASN d   1      28.336  30.331 151.201  0.00  0.00     0.217 C 
ATOM     80  OD1 ASN d   1      28.423  31.237 150.372  0.00  0.00    -0.274 OA
ATOM     81  ND2 ASN d   1      29.230  29.352 151.287  0.00  0.00    -0.370 N 
ATOM     82  H38 ASN d   1      30.014  29.335 150.666  0.00  0.00     0.159 HD
ATOM     83  H39 ASN d   1      29.119  28.633 151.973  0.00  0.00     0.159 HD
ENDBRANCH  76  79
ENDBRANCH  13  76
ENDBRANCH  10  13
ENDBRANCH   7   9
BRANCH   7  84
ATOM     84  CB  TYR d   1      23.205  31.015 149.316  0.00  0.00    -0.014 C 
ATOM     85  H42 TYR d   1      22.483  31.406 148.584  0.00  0.00     0.043 H 
ATOM     86  H43 TYR d   1      22.746  30.189 149.878  0.00  0.00     0.043 H 
BRANCH  84  87
ATOM     87  CG  TYR d   1      24.399  30.471 148.562  0.00  0.00    -0.056 A 
ATOM     88  CD1 TYR d   1      25.159  29.430 149.083  0.00  0.00    -0.074 A 
ATOM     89  CE1 TYR d   1      26.251  28.930 148.398  0.00  0.00    -0.051 A 
ATOM     90  H44 TYR d   1      24.891  29.003 150.043  0.00  0.00     0.084 H 
ATOM     91  CZ  TYR d   1      26.597  29.472 147.179  0.00  0.00     0.065 A 
ATOM     92  H46 TYR d   1      26.832  28.116 148.817  0.00  0.00     0.087 H 
ATOM     93  CE2 TYR d   1      25.860  30.507 146.642  0.00  0.00    -0.051 A 
ATOM     94  CD2 TYR d   1      24.769  31.000 147.333  0.00  0.00    -0.074 A 
ATOM     95  H47 TYR d   1      26.135  30.931 145.683  0.00  0.00     0.087 H 
ATOM     96  H45 TYR d   1      24.192  31.814 146.908  0.00  0.00     0.084 H 
BRANCH  91  97
ATOM     97  OH  TYR d   1      27.684  28.978 146.495  0.00  0.00    -0.361 OA
ATOM     98  H48 TYR d   1      27.402  28.647 145.650  0.00  0.00     0.217 HD
ENDBRANCH  91  97
ENDBRANCH  84  87
ENDBRANCH   7  84
ENDBRANCH   4   7
ENDBRANCH   1   3
BRANCH   1  99
ATOM     99  C   GLN d   1      20.263  34.608 151.968  0.00  0.00     0.241 C 
ATOM    100  O   GLN d   1      20.534  35.571 151.246  0.00  0.00    -0.271 OA
ATOM    101  N   LEU d   1      19.043  34.079 152.055  0.00  0.00    -0.346 N 
ATOM    102  H57 LEU d   1      18.898  33.303 152.669  0.00  0.00     0.163 HD
BRANCH 101 103
ATOM    103  CA  LEU d   1      17.911  34.588 151.290  0.00  0.00     0.089 C 
ATOM    104  H58 LEU d   1      18.309  35.204 150.471  0.00  0.00     0.087 H 
BRANCH 103 105
ATOM    105  C   LEU d   1      16.969  35.451 152.114  0.00  0.00     0.241 C 
ATOM    106  O   LEU d   1      16.376  36.390 151.574  0.00  0.00    -0.271 OA
ATOM    107  N   SER d   1      16.816  35.156 153.408  0.00  0.00    -0.344 N 
ATOM    108  H68 SER d   1      17.372  34.426 153.805  0.00  0.00     0.163 HD
BRANCH 107 109
ATOM    109  CA  SER d   1      15.870  35.858 154.260  0.00  0.00     0.109 C 
ATOM    110  H69 SER d   1      15.042  36.224 153.635  0.00  0.00     0.090 H 
BRANCH 109 111
ATOM    111  C   SER d   1      16.530  37.051 154.944  0.00  0.00     0.245 C 
ATOM    112  O   SER d   1      17.724  37.016 155.256  0.00  0.00    -0.271 OA
ATOM    113  N   PRO d   1      15.776  38.116 155.186  0.00  0.00    -0.337 N 
ATOM    114  CA  PRO d   1      16.306  39.263 155.923  0.00  0.00     0.091 C 
ATOM    115  CD  PRO d   1      14.359  38.307 154.846  0.00  0.00    -0.001 C 
ATOM    116  CB  PRO d   1      15.406  40.423 155.476  0.00  0.00    -0.036 C 
ATOM    117  H73 PRO d   1      17.355  39.457 155.656  0.00  0.00     0.087 H 
ATOM    118  CG  PRO d   1      14.262  39.790 154.680  0.00  0.00    -0.048 C 
ATOM    119  H74 PRO d   1      15.971  41.122 154.842  0.00  0.00     0.036 H 
ATOM    120  H75 PRO d   1      15.011  40.959 156.351  0.00  0.00     0.036 H 
ATOM    121  H76 PRO d   1      14.354  40.055 153.616  0.00  0.00     0.035 H 
ATOM    122  H77 PRO d   1      13.295  40.148 155.064  0.00  0.00     0.035 H 
ATOM    123  H78 PRO d   1      13.705  37.954 155.657  0.00  0.00     0.064 H 
ATOM    124  H79 PRO d   1      14.100  37.785 153.913  0.00  0.00     0.064 H 
BRANCH 114 125
ATOM    125  C   PRO d   1      16.199  39.014 157.424  0.00  0.00     0.241 C 
ATOM    126  O   PRO d   1      15.799  37.943 157.876  0.00  0.00    -0.271 OA
ATOM    127  N   THR d   1      16.568  40.034 158.196  0.00  0.00    -0.344 N 
ATOM    128  H80 THR d   1      16.939  40.857 157.765  0.00  0.00     0.163 HD
BRANCH 127 129
ATOM    129  CA  THR d   1      16.450  39.992 159.651  0.00  0.00     0.113 C 
ATOM    130  H81 THR d   1      15.738  39.201 159.929  0.00  0.00     0.091 H 
BRANCH 129 131
ATOM    131  C   THR d   1      15.905  41.337 160.112  0.00  0.00     0.243 C 
ATOM    132  O   THR d   1      16.573  42.365 159.958  0.00  0.00    -0.271 OA
ATOM    133  N   LYS d   1      14.695  41.328 160.666  0.00  0.00    -0.346 N 
ATOM    134  H87 LYS d   1      14.210  40.459 160.764  0.00  0.00     0.163 HD
BRANCH 133 135
ATOM    135  CA  LYS d   1      14.060  42.553 161.133  0.00  0.00     0.089 C 
ATOM    136  H88 LYS d   1      13.984  43.255 160.290  0.00  0.00     0.087 H 
BRANCH 135 137
ATOM    137  C   LYS d   1      14.897  43.200 162.229  0.00  0.00     0.241 C 
ATOM    138  O   LYS d   1      15.225  42.559 163.233  0.00  0.00    -0.271 OA
ATOM    139  N   LEU d   1      15.248  44.467 162.029  0.00  0.00    -0.345 N 
ATOM    140 0H10 LEU d   1      14.946  44.927 161.194  0.00  0.00     0.163 HD
BRANCH 139 141
ATOM    141  CA  LEU d   1      16.059  45.207 162.989  0.00  0.00     0.096 C 
ATOM    142 1H10 LEU d   1      16.981  44.636 163.173  0.00  0.00     0.089 H 
BRANCH 141 143
ATOM    143  C   LEU d   1      15.323  45.374 164.315  0.00  0.00     0.196 C 
ATOM    144  O   LEU d   1      14.091  45.368 164.357  0.00  0.00    -0.646 OA
ATOM    145  OXT LEU d   1      15.947  45.518 165.368  0.00  0.00    -0.646 OA
ENDBRANCH 141 143
BRANCH 141 146
ATOM    146  CB  LEU d   1      16.442  46.580 162.427  0.00  0.00    -0.034 C 
ATOM    147 2H10 LEU d   1      17.276  46.962 163.033  0.00  0.00     0.037 H 
ATOM    148 3H10 LEU d   1      15.570  47.239 162.547  0.00  0.00     0.037 H 
BRANCH 146 149
ATOM    149  CG  LEU d   1      16.872  46.653 160.960  0.00  0.00    -0.059 C 
ATOM    150 4H10 LEU d   1      16.061  46.239 160.343  0.00  0.00     0.038 H 
BRANCH 149 151
ATOM    151  CD1 LEU d   1      17.095  48.100 160.545  0.00  0.00    -0.073 C 
ATOM    152 5H10 LEU d   1      17.403  48.135 159.490  0.00  0.00     0.028 H 
ATOM    153 6H10 LEU d   1      17.882  48.544 161.172  0.00  0.00     0.028 H 
ATOM    154 7H10 LEU d   1      16.161  48.666 160.673  0.00  0.00     0.028 H 
ENDBRANCH 149 151
BRANCH 149 155
ATOM    155  CD2 LEU d   1      18.124  45.822 160.715  0.00  0.00    -0.073 C 
ATOM    156 8H10 LEU d   1      17.939  44.782 161.022  0.00  0.00     0.028 H 
ATOM    157 9H10 LEU d   1      18.959  46.235 161.301  0.00  0.00     0.028 H 
ATOM    158 0H11 LEU d   1      18.378  45.849 159.645  0.00  0.00     0.028 H 
ENDBRANCH 149 155
ENDBRANCH 146 149
ENDBRANCH 141 146
ENDBRANCH 139 141
ENDBRANCH 135 137
BRANCH 135 159
ATOM    159  CB  LYS d   1      12.652  42.246 161.642  0.00  0.00    -0.038 C 
ATOM    160  H89 LYS d   1      12.707  41.360 162.292  0.00  0.00     0.036 H 
ATOM    161  H90 LYS d   1      12.014  42.025 160.774  0.00  0.00     0.036 H 
BRANCH 159 162
ATOM    162  CG  LYS d   1      12.006  43.372 162.430  0.00  0.00    -0.061 C 
ATOM    163  H91 LYS d   1      12.743  43.783 163.135  0.00  0.00     0.033 H 
ATOM    164  H92 LYS d   1      11.148  42.970 162.989  0.00  0.00     0.033 H 
BRANCH 162 165
ATOM    165  CD  LYS d   1      11.522  44.485 161.517  0.00  0.00    -0.043 C 
ATOM    166  H93 LYS d   1      10.685  44.112 160.909  0.00  0.00     0.035 H 
ATOM    167  H94 LYS d   1      12.347  44.792 160.857  0.00  0.00     0.035 H 
BRANCH 165 168
ATOM    168  CE  LYS d   1      11.055  45.688 162.319  0.00  0.00     0.080 C 
ATOM    169  H95 LYS d   1      10.247  45.373 162.996  0.00  0.00     0.075 H 
ATOM    170  H96 LYS d   1      10.675  46.453 161.625  0.00  0.00     0.075 H 
BRANCH 168 171
ATOM    171  NZ  LYS d   1      12.160  46.276 163.128  0.00  0.00    -0.079 N 
ATOM    172  H97 LYS d   1      11.813  47.069 163.644  0.00  0.00     0.274 HD
ATOM    173  H98 LYS d   1      12.903  46.573 162.516  0.00  0.00     0.274 HD
ATOM    174  H99 LYS d   1      12.511  45.584 163.771  0.00  0.00     0.274 HD
ENDBRANCH 168 171
ENDBRANCH 165 168
ENDBRANCH 162 165
ENDBRANCH 159 162
ENDBRANCH 135 159
ENDBRANCH 133 135
ENDBRANCH 129 131
BRANCH 129 175
ATOM    175  CB  THR d   1      17.791  39.686 160.319  0.00  0.00     0.060 C 
ATOM    176  H82 THR d   1      18.507  40.486 160.080  0.00  0.00     0.086 H 
BRANCH 175 177
ATOM    177  OG1 THR d   1      18.291  38.433 159.836  0.00  0.00    -0.393 OA
ATOM    178  H83 THR d   1      19.124  38.244 160.252  0.00  0.00     0.210 HD
ENDBRANCH 175 177
BRANCH 175 179
ATOM    179  CG2 THR d   1      17.618  39.595 161.823  0.00  0.00    -0.050 C 
ATOM    180  H84 THR d   1      18.589  39.375 162.291  0.00  0.00     0.031 H 
ATOM    181  H85 THR d   1      16.905  38.792 162.062  0.00  0.00     0.031 H 
ATOM    182  H86 THR d   1      17.235  40.552 162.207  0.00  0.00     0.031 H 
ENDBRANCH 175 179
ENDBRANCH 129 175
ENDBRANCH 127 129
ENDBRANCH 114 125
ENDBRANCH 109 111
BRANCH 109 183
ATOM    183  CB  SER d   1      15.307  34.913 155.318  0.00  0.00     0.044 C 
ATOM    184  H70 SER d   1      14.709  35.493 156.036  0.00  0.00     0.077 H 
ATOM    185  H71 SER d   1      16.141  34.426 155.845  0.00  0.00     0.077 H 
BRANCH 183 186
ATOM    186  OG  SER d   1      14.487  33.918 154.729  0.00  0.00    -0.398 OA
ATOM    187  H72 SER d   1      14.150  33.344 155.407  0.00  0.00     0.209 HD
ENDBRANCH 183 186
ENDBRANCH 109 183
ENDBRANCH 107 109
ENDBRANCH 103 105
BRANCH 103 188
ATOM    188  CB  LEU d   1      17.114  33.426 150.687  0.00  0.00    -0.035 C 
ATOM    189  H59 LEU d   1      16.297  33.859 150.092  0.00  0.00     0.037 H 
ATOM    190  H60 LEU d   1      16.693  32.846 151.521  0.00  0.00     0.037 H 
BRANCH 188 191
ATOM    191  CG  LEU d   1      17.871  32.450 149.785  0.00  0.00    -0.059 C 
ATOM    192  H61 LEU d   1      18.700  32.017 150.364  0.00  0.00     0.038 H 
BRANCH 191 193
ATOM    193  CD1 LEU d   1      16.958  31.318 149.342  0.00  0.00    -0.073 C 
ATOM    194  H62 LEU d   1      17.518  30.627 148.695  0.00  0.00     0.028 H 
ATOM    195  H63 LEU d   1      16.105  31.732 148.784  0.00  0.00     0.028 H 
ATOM    196  H64 LEU d   1      16.590  30.776 150.226  0.00  0.00     0.028 H 
ENDBRANCH 191 193
BRANCH 191 197
ATOM    197  CD2 LEU d   1      18.457  33.173 148.584  0.00  0.00    -0.073 C 
ATOM    198  H65 LEU d   1      19.113  33.986 148.929  0.00  0.00     0.028 H 
ATOM    199  H66 LEU d   1      17.642  33.593 147.975  0.00  0.00     0.028 H 
ATOM    200  H67 LEU d   1      19.040  32.464 147.978  0.00  0.00     0.028 H 
ENDBRANCH 191 197
ENDBRANCH 188 191
ENDBRANCH 103 188
ENDBRANCH 101 103
ENDBRANCH   1  99
BRANCH   1 201
ATOM    201  CB  GLN d   1      21.844  34.932 153.883  0.00  0.00    -0.030 C 
ATOM    202  H51 GLN d   1      22.476  35.680 153.382  0.00  0.00     0.037 H 
ATOM    203  H52 GLN d   1      22.447  34.372 154.612  0.00  0.00     0.037 H 
BRANCH 201 204
ATOM    204  CG  GLN d   1      20.743  35.665 154.637  0.00  0.00     0.011 C 
ATOM    205  H53 GLN d   1      19.908  35.852 153.946  0.00  0.00     0.047 H 
ATOM    206  H54 GLN d   1      21.142  36.625 154.997  0.00  0.00     0.047 H 
BRANCH 204 207
ATOM    207  CD  GLN d   1      20.223  34.880 155.825  0.00  0.00     0.215 C 
ATOM    208  OE1 GLN d   1      20.818  33.882 156.233  0.00  0.00    -0.274 OA
ATOM    209  NE2 GLN d   1      19.106  35.327 156.386  0.00  0.00    -0.370 N 
ATOM    210  H55 GLN d   1      18.716  34.849 157.173  0.00  0.00     0.159 HD
ATOM    211  H56 GLN d   1      18.654  36.141 156.021  0.00  0.00     0.159 HD
ENDBRANCH 204 207
ENDBRANCH 201 204
ENDBRANCH   1 201
TORSDOF 56
