REMARK  5 active torsions:
REMARK  status: ('A' for Active; 'I' for Inactive)
REMARK    1  A    between atoms: C3_10  and  S_12 
REMARK    2  A    between atoms: S_12  and  C8_13 
REMARK    3  A    between atoms: C8_13  and  C9_14 
REMARK       I    between atoms: C9_14  and  N2_16 
REMARK    4  A    between atoms: N2_16  and  C10_17 
REMARK    5  A    between atoms: C13_21  and  C14_22 
REMARK       I    between atoms: C14_22  and  N3_24 
ROOT
ATOM      1  C8  7N3 d   1      10.938   6.425  27.238  0.00  0.00     0.058 C 
ATOM      2  H6  7N3 d   1      10.810   7.373  27.780  0.00  0.00     0.064 H 
ATOM      3  H7  7N3 d   1      10.157   6.334  26.469  0.00  0.00     0.064 H 
ENDROOT
BRANCH   1   4
ATOM      4  S   7N3 d   1      10.754   5.100  28.380  0.00  0.00    -0.083 SA
BRANCH   4   5
ATOM      5  C3  7N3 d   1      10.257   3.797  27.342  0.00  0.00     0.171 A 
ATOM      6  N1  7N3 d   1      10.293   2.582  27.880  0.00  0.00    -0.185 NA
ATOM      7  C2  7N3 d   1       9.894   1.494  27.255  0.00  0.00     0.281 A 
ATOM      8  O2  7N3 d   1       9.971   0.359  27.720  0.00  0.00    -0.265 OA
ATOM      9  C1  7N3 d   1       9.297   1.655  25.925  0.00  0.00     0.061 A 
ATOM     10  C6  7N3 d   1       8.813   0.639  25.080  0.00  0.00    -0.065 A 
ATOM     11  C   7N3 d   1       9.269   3.029  25.403  0.00  0.00     0.050 A 
ATOM     12  C7  7N3 d   1       8.291   0.935  23.829  0.00  0.00    -0.082 A 
ATOM     13  H1  7N3 d   1       8.849  -0.392  25.412  0.00  0.00     0.085 H 
ATOM     14  C5  7N3 d   1       8.303   2.238  23.399  0.00  0.00    -0.081 A 
ATOM     15  H2  7N3 d   1       7.881   0.151  23.203  0.00  0.00     0.083 H 
ATOM     16  C4  7N3 d   1       8.733   3.277  24.168  0.00  0.00    -0.056 A 
ATOM     17  H3  7N3 d   1       7.952   2.452  22.396  0.00  0.00     0.083 H 
ATOM     18  H4  7N3 d   1       8.651   4.295  23.804  0.00  0.00     0.086 H 
ATOM     19  N   7N3 d   1       9.716   4.075  26.146  0.00  0.00    -0.334 N 
ATOM     20  H5  7N3 d   1       9.642   5.044  25.804  0.00  0.00     0.168 HD
ENDBRANCH   4   5
ENDBRANCH   1   4
BRANCH   1  21
ATOM     21  C9  7N3 d   1      12.294   6.443  26.549  0.00  0.00     0.232 C 
ATOM     22  O   7N3 d   1      13.326   6.079  27.075  0.00  0.00    -0.272 OA
ATOM     23  N2  7N3 d   1      12.289   6.913  25.311  0.00  0.00    -0.320 N 
ATOM     24  H8  7N3 d   1      11.425   7.139  24.862  0.00  0.00     0.169 HD
BRANCH  23  25
ATOM     25  C10 7N3 d   1      13.461   7.085  24.658  0.00  0.00     0.092 A 
ATOM     26  S1  7N3 d   1      15.070   6.718  25.146  0.00  0.00    -0.083 SA
ATOM     27  C12 7N3 d   1      15.728   7.391  23.679  0.00  0.00    -0.042 A 
ATOM     28  C11 7N3 d   1      14.775   7.916  22.817  0.00  0.00    -0.059 A 
ATOM     29  H9  7N3 d   1      16.794   7.399  23.458  0.00  0.00     0.095 H 
ATOM     30  C13 7N3 d   1      13.495   7.781  23.355  0.00  0.00     0.066 A 
ATOM     31  H10 7N3 d   1      14.996   8.371  21.853  0.00  0.00     0.086 H 
BRANCH  30  32
ATOM     32  C14 7N3 d   1      12.247   8.250  22.728  0.00  0.00     0.252 C 
ATOM     33  O1  7N3 d   1      11.183   8.165  23.307  0.00  0.00    -0.268 OA
ATOM     34  N3  7N3 d   1      12.318   8.893  21.559  0.00  0.00    -0.366 N 
ATOM     35  H11 7N3 d   1      11.483   9.220  21.116  0.00  0.00     0.159 HD
ATOM     36  H12 7N3 d   1      13.206   9.048  21.127  0.00  0.00     0.159 HD
ENDBRANCH  30  32
ENDBRANCH  23  25
ENDBRANCH   1  21
TORSDOF 5
