REMARK  5 active torsions:
REMARK  status: ('A' for Active; 'I' for Inactive)
REMARK    1  A    between atoms: C2_2  and  C3_3 
REMARK    2  A    between atoms: C2_2  and  C1_13 
REMARK    3  A    between atoms: C3_3  and  S_4 
REMARK    4  A    between atoms: S_4  and  C4_5 
REMARK    5  A    between atoms: C5_11  and  C8_12 
ROOT
ATOM      1  O1  7NC d   1     -12.951  -5.747  14.689  0.00  0.00    -0.291 OA
ATOM      2  C2  7NC d   1     -12.036  -6.457  14.222  0.00  0.00     0.170 C 
ENDROOT
BRANCH   2   3
ATOM      3  C3  7NC d   1     -10.733  -6.581  14.966  0.00  0.00     0.043 C 
ATOM      4  H1  7NC d   1      -9.896  -6.410  14.273  0.00  0.00     0.061 H 
ATOM      5  H2  7NC d   1     -10.651  -7.590  15.398  0.00  0.00     0.061 H 
BRANCH   3   6
ATOM      6  S   7NC d   1     -10.683  -5.389  16.250  0.00  0.00    -0.084 SA
BRANCH   6   7
ATOM      7  C4  7NC d   1     -10.147  -3.967  15.428  0.00  0.00     0.170 A 
ATOM      8  N1  7NC d   1     -10.268  -2.750  15.969  0.00  0.00    -0.186 NA
ATOM      9  C7  7NC d   1      -9.876  -1.646  15.373  0.00  0.00     0.271 A 
ATOM     10  O   7NC d   1     -10.093  -0.516  15.894  0.00  0.00    -0.266 OA
ATOM     11  C6  7NC d   1      -9.289  -1.760  14.133  0.00  0.00     0.006 A 
ATOM     12  C5  7NC d   1      -9.142  -2.998  13.598  0.00  0.00     0.013 A 
ATOM     13  H3  7NC d   1      -8.950  -0.876  13.594  0.00  0.00     0.095 H 
ATOM     14  N   7NC d   1      -9.553  -4.107  14.230  0.00  0.00    -0.339 N 
ATOM     15  H4  7NC d   1      -9.418  -5.038  13.810  0.00  0.00     0.168 HD
BRANCH  12  16
ATOM     16  C8  7NC d   1      -8.422  -3.124  12.300  0.00  0.00    -0.037 C 
ATOM     17  H5  7NC d   1      -8.161  -2.123  11.927  0.00  0.00     0.035 H 
ATOM     18  H6  7NC d   1      -9.069  -3.631  11.569  0.00  0.00     0.035 H 
ATOM     19  H7  7NC d   1      -7.504  -3.712  12.446  0.00  0.00     0.035 H 
ENDBRANCH  12  16
ENDBRANCH   6   7
ENDBRANCH   3   6
ENDBRANCH   2   3
BRANCH   2  20
ATOM     20  C1  7NC d   1     -12.221  -7.124  12.895  0.00  0.00     0.021 A 
ATOM     21  C11 7NC d   1     -11.119  -7.510  12.139  0.00  0.00    -0.069 A 
ATOM     22  C12 7NC d   1     -11.238  -8.205  10.939  0.00  0.00    -0.081 A 
ATOM     23  H8  7NC d   1     -10.128  -7.259  12.499  0.00  0.00     0.085 H 
ATOM     24  C10 7NC d   1     -12.485  -8.477  10.388  0.00  0.00    -0.072 A 
ATOM     25  H9  7NC d   1     -10.344  -8.540  10.426  0.00  0.00     0.083 H 
ATOM     26  C9  7NC d   1     -13.653  -8.160  11.065  0.00  0.00    -0.025 A 
ATOM     27  H10 7NC d   1     -12.545  -8.945   9.412  0.00  0.00     0.084 H 
ATOM     28  C16 7NC d   1     -14.885  -8.487  10.505  0.00  0.00    -0.072 A 
ATOM     29  C   7NC d   1     -13.592  -7.440  12.373  0.00  0.00    -0.012 A 
ATOM     30  C15 7NC d   1     -16.011  -8.155  11.254  0.00  0.00    -0.082 A 
ATOM     31  H11 7NC d   1     -14.963  -8.973   9.539  0.00  0.00     0.084 H 
ATOM     32  C14 7NC d   1     -15.980  -7.451  12.445  0.00  0.00    -0.082 A 
ATOM     33  H12 7NC d   1     -16.978  -8.470  10.878  0.00  0.00     0.083 H 
ATOM     34  C13 7NC d   1     -14.780  -7.138  13.059  0.00  0.00    -0.071 A 
ATOM     35  H13 7NC d   1     -16.911  -7.140  12.905  0.00  0.00     0.083 H 
ATOM     36  H14 7NC d   1     -14.758  -6.674  14.039  0.00  0.00     0.084 H 
ENDBRANCH   2  20
TORSDOF 5
