REMARK  13 active torsions:
REMARK  status: ('A' for Active; 'I' for Inactive)
REMARK    1  A    between atoms: C2_2  and  C1_1 
REMARK    2  A    between atoms: C2_2  and  C3_3 
REMARK    3  A    between atoms: C2_2  and  C4_4 
REMARK    4  A    between atoms: N5_24  and  C2_2 
REMARK    5  A    between atoms: C8_6  and  C6_5 
REMARK       I    between atoms: C6_5  and  N5_24 
REMARK    6  A    between atoms: C12_7  and  C13_29 
REMARK    7  A    between atoms: C15_8  and  C10_27 
REMARK    8  A    between atoms: C17_10  and  C16_9 
REMARK    9  A    between atoms: N32_37  and  C31_18 
REMARK   10  A    between atoms: S33_38  and  C34_19 
REMARK   11  A    between atoms: C39_22  and  C40_23 
REMARK   12  A    between atoms: C39_22  and  C41_41 
REMARK   13  A    between atoms: N32_37  and  S33_38 
ROOT
ATOM      1  C17 RCH d   1      -8.656 -22.633  17.876  0.00  0.00     0.020 A 
ATOM      2  C18 RCH d   1      -7.470 -22.476  18.588  0.00  0.00    -0.031 A 
ATOM      3  C19 RCH d   1      -7.499 -22.705  19.942  0.00  0.00     0.088 A 
ATOM      4  O20 RCH d   1      -6.520 -22.646  20.822  0.00  0.00    -0.312 OA
ATOM      5  C21 RCH d   1      -6.923 -22.961  22.036  0.00  0.00     0.081 A 
ATOM      6  C23 RCH d   1      -8.693 -23.064  20.610  0.00  0.00     0.015 A 
ATOM      7  C24 RCH d   1      -9.892 -23.192  19.888  0.00  0.00    -0.068 A 
ATOM      8  C30 RCH d   1      -8.045 -24.432  26.781  0.00  0.00    -0.056 A 
ATOM      9  C31 RCH d   1      -6.674 -24.151  26.809  0.00  0.00     0.043 A 
ATOM     10  C37 RCH d   1      -6.069 -23.696  25.642  0.00  0.00    -0.049 A 
ATOM     11  C38 RCH d   1      -6.780 -23.513  24.460  0.00  0.00    -0.027 A 
ATOM     12  C39 RCH d   1      -6.031 -23.026  23.244  0.00  0.00     0.031 A 
ATOM     13  C22 RCH d   1      -8.278 -23.208  22.000  0.00  0.00     0.059 A 
ATOM     14  C25 RCH d   1      -9.851 -22.985  18.517  0.00  0.00    -0.064 A 
ATOM     15  C26 RCH d   1      -8.992 -23.636  23.214  0.00  0.00     0.196 A 
ATOM     16  O27 RCH d   1     -10.183 -23.885  23.181  0.00  0.00    -0.287 OA
ATOM     17  C28 RCH d   1      -8.155 -23.804  24.447  0.00  0.00     0.022 A 
ATOM     18  C29 RCH d   1      -8.761 -24.261  25.627  0.00  0.00    -0.066 A 
ATOM     19  H10 RCH d   1      -6.553 -22.183  18.090  0.00  0.00     0.090 H 
ATOM     20  H11 RCH d   1     -10.820 -23.445  20.387  0.00  0.00     0.085 H 
ATOM     21  H12 RCH d   1      -8.542 -24.787  27.677  0.00  0.00     0.087 H 
ATOM     22  H16 RCH d   1      -5.008 -23.477  25.654  0.00  0.00     0.087 H 
ATOM     23  H26 RCH d   1     -10.757 -23.097  17.933  0.00  0.00     0.085 H 
ATOM     24  H27 RCH d   1      -9.822 -24.484  25.625  0.00  0.00     0.085 H 
ENDROOT
BRANCH   1  25
ATOM     25  C16 RCH d   1      -8.456 -22.397  16.487  0.00  0.00    -0.060 C 
ATOM     26  C15 RCH d   1      -8.279 -22.203  15.353  0.00  0.00    -0.041 C 
BRANCH  26  27
ATOM     27  C10 RCH d   1      -8.066 -21.978  13.969  0.00  0.00     0.111 A 
ATOM     28  C9  RCH d   1      -8.407 -23.056  13.142  0.00  0.00    -0.031 A 
ATOM     29  C8  RCH d   1      -8.245 -22.968  11.758  0.00  0.00     0.036 A 
ATOM     30  H21 RCH d   1      -8.800 -23.966  13.580  0.00  0.00     0.089 H 
ATOM     31  C14 RCH d   1      -7.701 -21.763  11.272  0.00  0.00    -0.044 A 
ATOM     32  C12 RCH d   1      -7.371 -20.744  12.162  0.00  0.00     0.033 A 
ATOM     33  H25 RCH d   1      -7.540 -21.629  10.208  0.00  0.00     0.088 H 
ATOM     34  N11 RCH d   1      -7.547 -20.865  13.468  0.00  0.00    -0.245 NA
BRANCH  29  35
ATOM     35  C6  RCH d   1      -8.621 -24.136  10.903  0.00  0.00     0.252 C 
ATOM     36  N5  RCH d   1      -7.870 -24.426   9.799  0.00  0.00    -0.349 N 
ATOM     37  H20 RCH d   1      -7.102 -23.819   9.594  0.00  0.00     0.163 HD
ATOM     38  O7  RCH d   1      -9.577 -24.832  11.221  0.00  0.00    -0.268 OA
BRANCH  36  39
ATOM     39  C2  RCH d   1      -8.102 -25.574   8.874  0.00  0.00     0.022 C 
BRANCH  39  40
ATOM     40  C1  RCH d   1      -7.070 -25.476   7.726  0.00  0.00    -0.054 C 
ATOM     41  H1  RCH d   1      -7.218 -26.312   7.027  0.00  0.00     0.030 H 
ATOM     42  H2  RCH d   1      -6.053 -25.522   8.142  0.00  0.00     0.030 H 
ATOM     43  H3  RCH d   1      -7.205 -24.524   7.192  0.00  0.00     0.030 H 
ENDBRANCH  39  40
BRANCH  39  44
ATOM     44  C3  RCH d   1      -7.866 -26.884   9.671  0.00  0.00    -0.054 C 
ATOM     45  H4  RCH d   1      -8.600 -26.954  10.487  0.00  0.00     0.030 H 
ATOM     46  H5  RCH d   1      -6.849 -26.880  10.091  0.00  0.00     0.030 H 
ATOM     47  H6  RCH d   1      -7.981 -27.748   8.999  0.00  0.00     0.030 H 
ENDBRANCH  39  44
BRANCH  39  48
ATOM     48  C4  RCH d   1      -9.535 -25.553   8.282  0.00  0.00    -0.054 C 
ATOM     49  H7  RCH d   1      -9.686 -24.619   7.721  0.00  0.00     0.030 H 
ATOM     50  H8  RCH d   1     -10.270 -25.613   9.098  0.00  0.00     0.030 H 
ATOM     51  H9  RCH d   1      -9.665 -26.412   7.607  0.00  0.00     0.030 H 
ENDBRANCH  39  48
ENDBRANCH  36  39
ENDBRANCH  29  35
BRANCH  32  52
ATOM     52  C13 RCH d   1      -6.803 -19.459  11.634  0.00  0.00    -0.035 C 
ATOM     53  H22 RCH d   1      -6.720 -19.518  10.539  0.00  0.00     0.035 H 
ATOM     54  H23 RCH d   1      -5.806 -19.292  12.069  0.00  0.00     0.035 H 
ATOM     55  H24 RCH d   1      -7.466 -18.625  11.907  0.00  0.00     0.035 H 
ENDBRANCH  32  52
ENDBRANCH  26  27
ENDBRANCH   1  25
BRANCH  12  56
ATOM     56  C40 RCH d   1      -4.949 -24.057  22.886  0.00  0.00    -0.059 C 
ATOM     57  H17 RCH d   1      -4.395 -23.714  22.000  0.00  0.00     0.029 H 
ATOM     58  H18 RCH d   1      -5.423 -25.026  22.670  0.00  0.00     0.029 H 
ATOM     59  H19 RCH d   1      -4.255 -24.169  23.732  0.00  0.00     0.029 H 
ENDBRANCH  12  56
BRANCH  12  60
ATOM     60  C41 RCH d   1      -5.360 -21.667  23.467  0.00  0.00    -0.059 C 
ATOM     61  H29 RCH d   1      -6.124 -20.919  23.724  0.00  0.00     0.029 H 
ATOM     62  H30 RCH d   1      -4.840 -21.359  22.548  0.00  0.00     0.029 H 
ATOM     63  H31 RCH d   1      -4.634 -21.747  24.289  0.00  0.00     0.029 H 
ENDBRANCH  12  60
BRANCH   9  64
ATOM     64  N32 RCH d   1      -5.839 -24.275  27.932  0.00  0.00    -0.285 N 
ATOM     65  H28 RCH d   1      -4.909 -23.918  27.845  0.00  0.00     0.178 HD
BRANCH  64  66
ATOM     66  S33 RCH d   1      -6.247 -24.956  29.387  0.00  0.00     0.227 S 
ATOM     67  O35 RCH d   1      -5.092 -24.698  30.175  0.00  0.00    -0.206 OA
ATOM     68  O36 RCH d   1      -7.492 -24.391  29.775  0.00  0.00    -0.206 OA
BRANCH  66  69
ATOM     69  C34 RCH d   1      -6.404 -26.727  29.048  0.00  0.00     0.033 C 
ATOM     70  H13 RCH d   1      -6.676 -27.255  29.974  0.00  0.00     0.051 H 
ATOM     71  H14 RCH d   1      -5.446 -27.115  28.673  0.00  0.00     0.051 H 
ATOM     72  H15 RCH d   1      -7.186 -26.888  28.291  0.00  0.00     0.051 H 
ENDBRANCH  66  69
ENDBRANCH  64  66
ENDBRANCH   9  64
TORSDOF 13
