REMARK  8 active torsions:
REMARK  status: ('A' for Active; 'I' for Inactive)
REMARK    1  A    between atoms: C01_1  and  O02_2 
REMARK    2  A    between atoms: O02_2  and  C03_3 
REMARK    3  A    between atoms: C03_3  and  C05_5 
REMARK    4  A    between atoms: C06_6  and  C24_24 
REMARK    5  A    between atoms: C08_8  and  C19_19 
REMARK    6  A    between atoms: C10_10  and  C11_11 
REMARK    7  A    between atoms: C24_24  and  N25_25 
REMARK    8  A    between atoms: C29_29  and  C30_30 
ROOT
ATOM      1  C05 7TL d   1     -43.588   9.995  27.764  0.00  0.00     0.070 C 
ATOM      2  C06 7TL d   1     -44.022  10.246  29.047  0.00  0.00     0.051 C 
ATOM      3  N07 7TL d   1     -44.244   9.188  29.973  0.00  0.00    -0.340 N 
ATOM      4  C08 7TL d   1     -44.173   7.866  29.531  0.00  0.00     0.160 C 
ATOM      5  N09 7TL d   1     -43.927   7.562  28.296  0.00  0.00    -0.255 NA
ATOM      6  C10 7TL d   1     -43.717   8.558  27.198  0.00  0.00     0.095 C 
ATOM      7  H4  7TL d   1     -44.455   9.396  30.959  0.00  0.00     0.167 HD
ATOM      8  H5  7TL d   1     -42.808   8.319  26.626  0.00  0.00     0.091 H 
ENDROOT
BRANCH   2   9
ATOM      9  C24 7TL d   1     -44.234  11.600  29.768  0.00  0.00     0.123 C 
ATOM     10  H11 7TL d   1     -44.799  12.261  29.094  0.00  0.00     0.085 H 
ATOM     11  H12 7TL d   1     -43.245  12.038  29.968  0.00  0.00     0.085 H 
BRANCH   9  12
ATOM     12  N25 7TL d   1     -44.975  11.518  31.064  0.00  0.00    -0.046 N 
ATOM     13  C26 7TL d   1     -46.393  11.202  30.812  0.00  0.00     0.144 C 
ATOM     14  C27 7TL d   1     -46.954  11.350  32.204  0.00  0.00     0.270 C 
ATOM     15  H14 7TL d   1     -46.520  10.179  30.429  0.00  0.00     0.085 H 
ATOM     16  H15 7TL d   1     -46.851  11.915  30.111  0.00  0.00     0.085 H 
ATOM     17  C28 7TL d   1     -46.029  12.324  32.956  0.00  0.00     0.034 C 
ATOM     18  F33 7TL d   1     -47.050  10.147  32.854  0.00  0.00    -0.204 F 
ATOM     19  F34 7TL d   1     -48.255  11.712  32.157  0.00  0.00    -0.204 F 
ATOM     20  C29 7TL d   1     -44.916  12.659  31.964  0.00  0.00     0.192 C 
ATOM     21  H16 7TL d   1     -45.614  11.846  33.856  0.00  0.00     0.045 H 
ATOM     22  H17 7TL d   1     -46.577  13.233  33.243  0.00  0.00     0.045 H 
ATOM     23  H18 7TL d   1     -45.206  13.553  31.393  0.00  0.00     0.102 H 
ATOM     24  H13 7TL d   1     -44.569  10.743  31.565  0.00  0.00     0.281 HD
BRANCH  20  25
ATOM     25  C30 7TL d   1     -43.550  13.020  32.641  0.00  0.00     0.205 C 
ATOM     26  O31 7TL d   1     -43.327  14.150  33.163  0.00  0.00    -0.646 OA
ATOM     27  O32 7TL d   1     -42.699  12.089  32.594  0.00  0.00    -0.646 OA
ENDBRANCH  20  25
ENDBRANCH   9  12
ENDBRANCH   2   9
BRANCH   1  28
ATOM     28  C03 7TL d   1     -43.285  11.036  26.793  0.00  0.00     0.293 C 
ATOM     29  O04 7TL d   1     -43.110  12.226  27.127  0.00  0.00    -0.259 OA
BRANCH  28  30
ATOM     30  O02 7TL d   1     -43.141  10.872  25.438  0.00  0.00    -0.323 OA
BRANCH  30  31
ATOM     31  C01 7TL d   1     -42.945  12.000  24.577  0.00  0.00     0.013 C 
ATOM     32  H1  7TL d   1     -42.853  11.655  23.536  0.00  0.00     0.067 H 
ATOM     33  H2  7TL d   1     -42.027  12.530  24.870  0.00  0.00     0.067 H 
ATOM     34  H3  7TL d   1     -43.805  12.681  24.663  0.00  0.00     0.067 H 
ENDBRANCH  30  31
ENDBRANCH  28  30
ENDBRANCH   1  28
BRANCH   6  35
ATOM     35  C11 7TL d   1     -45.022   8.371  26.279  0.00  0.00    -0.007 A 
ATOM     36  C12 7TL d   1     -46.313   8.491  26.810  0.00  0.00    -0.070 A 
ATOM     37  C13 7TL d   1     -47.506   8.355  26.070  0.00  0.00    -0.045 A 
ATOM     38  H6  7TL d   1     -46.402   8.704  27.869  0.00  0.00     0.084 H 
ATOM     39  C14 7TL d   1     -47.400   8.071  24.718  0.00  0.00     0.118 A 
ATOM     40  H7  7TL d   1     -48.474   8.469  26.544  0.00  0.00     0.088 H 
ATOM     41  C15 7TL d   1     -46.166   7.920  24.108  0.00  0.00    -0.024 A 
ATOM     42  F18 7TL d   1     -48.551   7.943  24.051  0.00  0.00    -0.206 F 
ATOM     43  C16 7TL d   1     -45.029   8.078  24.933  0.00  0.00     0.045 A 
ATOM     44  H8  7TL d   1     -46.077   7.692  23.052  0.00  0.00     0.090 H 
ATOM     45 CL1  7TL d   1     -43.426   7.878  24.187  0.00  0.00    -0.084 Cl
ENDBRANCH   6  35
BRANCH   4  46
ATOM     46  C19 7TL d   1     -44.459   6.731  30.567  0.00  0.00     0.142 A 
ATOM     47  N20 7TL d   1     -44.535   6.747  31.888  0.00  0.00    -0.249 NA
ATOM     48  C21 7TL d   1     -44.886   5.484  32.497  0.00  0.00     0.010 A 
ATOM     49  C22 7TL d   1     -45.115   4.474  31.574  0.00  0.00    -0.026 A 
ATOM     50  H9  7TL d   1     -44.963   5.340  33.574  0.00  0.00     0.115 H 
ATOM     51  S23 7TL d   1     -44.886   5.117  29.967  0.00  0.00    -0.077 SA
ATOM     52  H10 7TL d   1     -45.392   3.448  31.813  0.00  0.00     0.097 H 
ENDBRANCH   4  46
TORSDOF 8
