REMARK  10 active torsions:
REMARK  status: ('A' for Active; 'I' for Inactive)
REMARK    1  A    between atoms: O3B_8  and  PG_1 
REMARK    2  A    between atoms: PB_5  and  O3B_8 
REMARK    3  A    between atoms: O3A_12  and  PB_5 
REMARK    4  A    between atoms: PA_9  and  O3A_12 
REMARK    5  A    between atoms: PA_9  and  O5'_13 
REMARK    6  A    between atoms: O5'_13  and  C5'_14 
REMARK    7  A    between atoms: C5'_14  and  C4'_15 
REMARK    8  A    between atoms: C3'_17  and  O3'_18 
REMARK    9  A    between atoms: C2'_19  and  O2'_20 
REMARK   10  A    between atoms: C1'_21  and  N9_22 
ROOT
ATOM      1  C4' ATP d   1     -36.090  62.041  13.091  0.00  0.00     0.089 C 
ATOM      2  O4' ATP d   1     -36.661  62.942  14.039  0.00  0.00    -0.353 OA
ATOM      3  C3' ATP d   1     -35.951  60.698  13.789  0.00  0.00     0.091 C 
ATOM      4  C2' ATP d   1     -35.955  61.029  15.267  0.00  0.00     0.105 C 
ATOM      5  C1' ATP d   1     -36.514  62.438  15.367  0.00  0.00     0.139 C 
ATOM      6  H3  ATP d   1     -35.097  62.401  12.784  0.00  0.00     0.090 H 
ATOM      7  H4  ATP d   1     -36.801  60.047  13.539  0.00  0.00     0.091 H 
ATOM      8  H6  ATP d   1     -36.580  60.317  15.826  0.00  0.00     0.093 H 
ATOM      9  H8  ATP d   1     -35.842  63.083  15.952  0.00  0.00     0.122 H 
ENDROOT
BRANCH   1  10
ATOM     10  C5' ATP d   1     -36.981  61.947  11.862  0.00  0.00     0.058 C 
ATOM     11  H1  ATP d   1     -37.985  61.606  12.153  0.00  0.00     0.079 H 
ATOM     12  H2  ATP d   1     -37.055  62.932  11.377  0.00  0.00     0.079 H 
BRANCH  10  13
ATOM     13  O5' ATP d   1     -36.393  61.011  10.968  0.00  0.00    -0.287 OA
BRANCH  13  14
ATOM     14  PA  ATP d   1     -37.008  60.767   9.504  0.00  0.00     0.417 P 
ATOM     15  O1A ATP d   1     -37.085  62.092   8.784  0.00  0.00    -0.624 OA
ATOM     16  O2A ATP d   1     -36.242  59.621   8.886  0.00  0.00    -0.624 OA
BRANCH  14  17
ATOM     17  O3A ATP d   1     -38.514  60.281   9.802  0.00  0.00    -0.180 OA
BRANCH  17  18
ATOM     18  PB  ATP d   1     -39.154  59.136   8.871  0.00  0.00     0.428 P 
ATOM     19  O1B ATP d   1     -40.658  59.266   8.910  0.00  0.00    -0.624 OA
ATOM     20  O2B ATP d   1     -38.496  57.829   9.243  0.00  0.00    -0.624 OA
BRANCH  18  21
ATOM     21  O3B ATP d   1     -38.623  59.599   7.422  0.00  0.00    -0.173 OA
BRANCH  21  22
ATOM     22  PG  ATP d   1     -38.772  58.688   6.103  0.00  0.00     0.431 P 
ATOM     23  O1G ATP d   1     -39.920  59.315   5.354  0.00  0.00    -0.616 OA
ATOM     24  O2G ATP d   1     -39.069  57.301   6.617  0.00  0.00    -0.616 OA
ATOM     25  O3G ATP d   1     -37.428  58.829   5.427  0.00  0.00    -0.616 OA
ENDBRANCH  21  22
ENDBRANCH  18  21
ENDBRANCH  17  18
ENDBRANCH  14  17
ENDBRANCH  13  14
ENDBRANCH  10  13
ENDBRANCH   1  10
BRANCH   3  26
ATOM     26  O3' ATP d   1     -34.734  60.045  13.417  0.00  0.00    -0.390 OA
ATOM     27  H5  ATP d   1     -33.996  60.591  13.660  0.00  0.00     0.210 HD
ENDBRANCH   3  26
BRANCH   5  28
ATOM     28  N9  ATP d   1     -37.846  62.362  16.011  0.00  0.00    -0.294 N 
ATOM     29  C8  ATP d   1     -39.022  62.230  15.367  0.00  0.00     0.071 A 
ATOM     30  N7  ATP d   1     -40.056  62.188  16.245  0.00  0.00    -0.236 NA
ATOM     31  H9  ATP d   1     -39.129  62.166  14.285  0.00  0.00     0.144 H 
ATOM     32  C5  ATP d   1     -39.538  62.294  17.483  0.00  0.00     0.149 A 
ATOM     33  C6  ATP d   1     -40.067  62.320  18.866  0.00  0.00     0.155 A 
ATOM     34  C4  ATP d   1     -38.080  62.408  17.323  0.00  0.00     0.167 A 
ATOM     35  N6  ATP d   1     -41.395  62.220  19.106  0.00  0.00    -0.382 N 
ATOM     36  N1  ATP d   1     -39.183  62.447  19.880  0.00  0.00    -0.222 NA
ATOM     37  H10 ATP d   1     -41.746  62.240  20.074  0.00  0.00     0.157 HD
ATOM     38  H11 ATP d   1     -42.054  62.124  18.321  0.00  0.00     0.157 HD
ATOM     39  C2  ATP d   1     -37.860  62.547  19.657  0.00  0.00     0.091 A 
ATOM     40  N3  ATP d   1     -37.309  62.530  18.430  0.00  0.00    -0.222 NA
ATOM     41  H12 ATP d   1     -37.202  62.647  20.513  0.00  0.00     0.146 H 
ENDBRANCH   5  28
BRANCH   4  42
ATOM     42  O2' ATP d   1     -34.617  61.010  15.773  0.00  0.00    -0.388 OA
ATOM     43  H7  ATP d   1     -34.244  60.146  15.646  0.00  0.00     0.210 HD
ENDBRANCH   4  42
TORSDOF 10
