REMARK  12 active torsions:
REMARK  status: ('A' for Active; 'I' for Inactive)
REMARK    1  A    between atoms: C13_2  and  N14_16 
REMARK    2  A    between atoms: C11_22  and  C13_2 
REMARK    3  A    between atoms: N14_16  and  C15_3 
REMARK    4  A    between atoms: O21_21  and  C22_5 
REMARK    5  A    between atoms: S23_13  and  C26_6 
REMARK    6  A    between atoms: C31_9  and  C32_8 
REMARK    7  A    between atoms: N14_16  and  S23_13 
REMARK    8  A    between atoms: C18_20  and  O21_21 
REMARK       I    between atoms: N03_24  and  C11_22 
REMARK    9  A    between atoms: N03_24  and  C02_25 
REMARK   10  A    between atoms: C04_27  and  N03_24 
REMARK   11  A    between atoms: C02_25  and  C01_26 
REMARK   12  A    between atoms: C04_27  and  C05_28 
ROOT
ATOM      1  N14 7MA d   1      43.223  39.557 -54.121  0.00  0.00    -0.162 NA
ENDROOT
BRANCH   1   2
ATOM      2  C13 7MA d   1      42.156  39.359 -55.101  0.00  0.00     0.072 C 
ATOM      3  H2  7MA d   1      42.246  38.368 -55.569  0.00  0.00     0.072 H 
ATOM      4  H3  7MA d   1      42.201  40.137 -55.878  0.00  0.00     0.072 H 
BRANCH   2   5
ATOM      5  C11 7MA d   1      40.840  39.462 -54.319  0.00  0.00     0.234 C 
ATOM      6  O12 7MA d   1      40.122  40.444 -54.436  0.00  0.00    -0.272 OA
ATOM      7  N03 7MA d   1      40.519  38.450 -53.467  0.00  0.00    -0.347 N 
BRANCH   7   8
ATOM      8  C02 7MA d   1      41.328  37.214 -53.307  0.00  0.00    -0.005 C 
ATOM      9  H17 7MA d   1      41.355  36.915 -52.249  0.00  0.00     0.063 H 
ATOM     10  H18 7MA d   1      42.353  37.385 -53.666  0.00  0.00     0.063 H 
BRANCH   8  11
ATOM     11  C01 7MA d   1      40.658  36.128 -54.139  0.00  0.00    -0.061 C 
ATOM     12  H19 7MA d   1      41.228  35.192 -54.048  0.00  0.00     0.029 H 
ATOM     13  H20 7MA d   1      40.630  36.439 -55.194  0.00  0.00     0.029 H 
ATOM     14  H21 7MA d   1      39.632  35.969 -53.776  0.00  0.00     0.029 H 
ENDBRANCH   8  11
ENDBRANCH   7   8
BRANCH   7  15
ATOM     15  C04 7MA d   1      39.254  38.532 -52.721  0.00  0.00     0.023 C 
ATOM     16  H22 7MA d   1      38.731  37.567 -52.795  0.00  0.00     0.071 H 
ATOM     17  H23 7MA d   1      38.629  39.323 -53.161  0.00  0.00     0.071 H 
BRANCH  15  18
ATOM     18  C05 7MA d   1      39.481  38.828 -51.363  0.00  0.00    -0.023 A 
ATOM     19  C10 7MA d   1      38.452  38.649 -50.444  0.00  0.00    -0.072 A 
ATOM     20  C09 7MA d   1      38.641  38.923 -49.102  0.00  0.00    -0.065 A 
ATOM     21  H1  7MA d   1      37.488  38.289 -50.785  0.00  0.00     0.084 H 
ATOM     22  C08 7MA d   1      39.864  39.400 -48.649  0.00  0.00     0.002 A 
ATOM     23  H24 7MA d   1      37.830  38.765 -48.400  0.00  0.00     0.085 H 
ATOM     24  N07 7MA d   1      40.905  39.580 -49.549  0.00  0.00    -0.273 NA
ATOM     25  H25 7MA d   1      40.005  39.630 -47.599  0.00  0.00     0.114 H 
ATOM     26  C06 7MA d   1      40.709  39.296 -50.902  0.00  0.00     0.009 A 
ATOM     27  H26 7MA d   1      41.523  39.442 -51.603  0.00  0.00     0.115 H 
ENDBRANCH  15  18
ENDBRANCH   7  15
ENDBRANCH   2   5
ENDBRANCH   1   2
BRANCH   1  28
ATOM     28  C15 7MA d   1      43.350  40.823 -53.668  0.00  0.00     0.043 A 
ATOM     29  C20 7MA d   1      43.311  41.968 -54.476  0.00  0.00    -0.056 A 
ATOM     30  C19 7MA d   1      43.459  43.212 -53.861  0.00  0.00    -0.030 A 
ATOM     31  H4  7MA d   1      43.170  41.889 -55.548  0.00  0.00     0.086 H 
ATOM     32  C18 7MA d   1      43.650  43.303 -52.468  0.00  0.00     0.163 A 
ATOM     33  H16 7MA d   1      43.427  44.115 -54.460  0.00  0.00     0.090 H 
ATOM     34  N17 7MA d   1      43.700  42.194 -51.703  0.00  0.00    -0.235 NA
ATOM     35  C16 7MA d   1      43.546  40.944 -52.294  0.00  0.00     0.026 A 
ATOM     36  H15 7MA d   1      43.579  40.053 -51.678  0.00  0.00     0.117 H 
BRANCH  32  37
ATOM     37  O21 7MA d   1      43.798  44.513 -51.882  0.00  0.00    -0.339 OA
BRANCH  37  38
ATOM     38  C22 7MA d   1      44.008  44.368 -50.474  0.00  0.00     0.012 C 
ATOM     39  H5  7MA d   1      44.126  45.361 -50.017  0.00  0.00     0.067 H 
ATOM     40  H6  7MA d   1      44.916  43.773 -50.298  0.00  0.00     0.067 H 
ATOM     41  H7  7MA d   1      43.143  43.858 -50.025  0.00  0.00     0.067 H 
ENDBRANCH  37  38
ENDBRANCH  32  37
ENDBRANCH   1  28
BRANCH   1  42
ATOM     42  S23 7MA d   1      44.614  38.912 -54.618  0.00  0.00     0.249 S 
ATOM     43  O24 7MA d   1      44.252  37.539 -55.187  0.00  0.00    -0.205 OA
ATOM     44  O25 7MA d   1      45.572  38.728 -53.461  0.00  0.00    -0.205 OA
BRANCH  42  45
ATOM     45  C26 7MA d   1      45.441  39.864 -55.880  0.00  0.00     0.081 A 
ATOM     46  C31 7MA d   1      46.370  40.885 -55.600  0.00  0.00    -0.039 A 
ATOM     47  C30 7MA d   1      46.978  41.558 -56.655  0.00  0.00    -0.076 A 
ATOM     48  C29 7MA d   1      46.679  41.224 -57.962  0.00  0.00    -0.082 A 
ATOM     49  H12 7MA d   1      47.690  42.349 -56.450  0.00  0.00     0.084 H 
ATOM     50  C28 7MA d   1      45.766  40.221 -58.238  0.00  0.00    -0.082 A 
ATOM     51  H13 7MA d   1      47.163  41.751 -58.776  0.00  0.00     0.083 H 
ATOM     52  C27 7MA d   1      45.157  39.539 -57.200  0.00  0.00    -0.060 A 
ATOM     53  H8  7MA d   1      45.529  39.970 -59.266  0.00  0.00     0.083 H 
ATOM     54  H14 7MA d   1      44.453  38.745 -57.419  0.00  0.00     0.085 H 
BRANCH  46  55
ATOM     55  C32 7MA d   1      46.741  41.289 -54.314  0.00  0.00    -0.050 C 
ATOM     56  H9  7MA d   1      47.479  42.101 -54.384  0.00  0.00     0.033 H 
ATOM     57  H10 7MA d   1      47.182  40.438 -53.775  0.00  0.00     0.033 H 
ATOM     58  H11 7MA d   1      45.853  41.646 -53.771  0.00  0.00     0.033 H 
ENDBRANCH  46  55
ENDBRANCH  42  45
ENDBRANCH   1  42
TORSDOF 12
