REMARK  19 active torsions:
REMARK  status: ('A' for Active; 'I' for Inactive)
REMARK    1  A    between atoms: N_1  and  CA_2 
REMARK    2  A    between atoms: CA_12  and  CB_15 
REMARK    3  A    between atoms: CB_15  and  CG_16 
REMARK    4  A    between atoms: CG_16  and  CD1_17 
REMARK    5  A    between atoms: CG_16  and  CD2_18 
REMARK    6  A    between atoms: CA_20  and  CB_23 
REMARK    7  A    between atoms: CB_23  and  CG_24 
REMARK    8  A    between atoms: CG_24  and  CD_25 
REMARK    9  A    between atoms: CA_29  and  C_30 
REMARK       I    between atoms: C_30  and  N_34 
REMARK   10  A    between atoms: N_34  and  CA_35 
REMARK   11  A    between atoms: CA_35  and  C_36 
REMARK   12  A    between atoms: CA_35  and  CB_38 
REMARK       I    between atoms: C_36  and  N_42 
REMARK   13  A    between atoms: CB_38  and  CG_39 
REMARK       I    between atoms: CG_39  and  ND2_41 
REMARK   14  A    between atoms: N_42  and  CA_43 
REMARK   15  A    between atoms: CA_43  and  C_44 
REMARK   16  A    between atoms: CA_43  and  CB_46 
REMARK       I    between atoms: C_44  and  N_53 
REMARK   17  A    between atoms: CB_46  and  CG_47 
REMARK   18  A    between atoms: N_53  and  CA_54 
REMARK   19  A    between atoms: CA_54  and  C_55 
ROOT
ATOM      1  CA  CYS d   1       0.637  -3.655   0.863  0.00  0.00     0.184 C 
ATOM      2  C   CYS d   1      -0.826  -4.079   0.967  0.00  0.00     0.249 C 
ATOM      3  O   CYS d   1      -1.149  -4.938   1.786  0.00  0.00    -0.271 OA
ATOM      4  CB  CYS d   1       0.907  -2.359   1.641  0.00  0.00     0.021 C 
ATOM      5  SG  CYS d   1      -0.074  -2.184   3.160  0.00  0.00    -0.095 SA
ATOM      6  N   CYS d   1      -2.964  -1.080   4.402  0.00  0.00    -0.345 N 
ATOM      7  CA  CYS d   1      -2.695   0.304   4.052  0.00  0.00     0.098 C 
ATOM      8  CB  CYS d   1      -1.604   0.382   2.979  0.00  0.00     0.013 C 
ATOM      9  SG  CYS d   1      -0.006  -0.191   3.554  0.00  0.00    -0.095 SA
ATOM     10  H4  CYS d   1       1.235  -4.450   1.332  0.00  0.00     0.100 H 
ATOM     11  H5  CYS d   1       0.679  -1.508   0.983  0.00  0.00     0.054 H 
ATOM     12  H6  CYS d   1       1.972  -2.336   1.914  0.00  0.00     0.054 H 
ATOM     13  H27 CYS d   1      -2.716  -1.803   3.758  0.00  0.00     0.163 HD
ATOM     14  H28 CYS d   1      -2.324   0.815   4.953  0.00  0.00     0.088 H 
ATOM     15  H29 CYS d   1      -1.505   1.429   2.657  0.00  0.00     0.053 H 
ATOM     16  H30 CYS d   1      -1.910  -0.237   2.123  0.00  0.00     0.053 H 
ATOM     17  N   GLY d   1      -1.700  -3.478   0.160  0.00  0.00    -0.351 N 
ATOM     18  CA  GLY d   1      -3.105  -3.861   0.125  0.00  0.00     0.069 C 
ATOM     19  C   GLY d   1      -3.929  -3.447   1.340  0.00  0.00     0.236 C 
ATOM     20  O   GLY d   1      -3.751  -2.369   1.882  0.00  0.00    -0.272 OA
ATOM     21  H7  GLY d   1      -1.382  -2.743  -0.439  0.00  0.00     0.163 HD
ATOM     22  H8  GLY d   1      -3.156  -4.956   0.039  0.00  0.00     0.078 H 
ATOM     23  H9  GLY d   1      -3.559  -3.401  -0.765  0.00  0.00     0.078 H 
ATOM     24  N   LEU d   1      -4.809  -4.346   1.778  0.00  0.00    -0.346 N 
ATOM     25  CA  LEU d   1      -5.875  -4.083   2.759  0.00  0.00     0.089 C 
ATOM     26  C   LEU d   1      -5.480  -3.297   4.016  0.00  0.00     0.241 C 
ATOM     27  O   LEU d   1      -6.256  -2.453   4.481  0.00  0.00    -0.271 OA
ATOM     28  H10 LEU d   1      -4.740  -5.274   1.411  0.00  0.00     0.163 HD
ATOM     29  H11 LEU d   1      -6.637  -3.486   2.237  0.00  0.00     0.087 H 
ATOM     30  N   GLU d   1      -4.291  -3.577   4.568  0.00  0.00    -0.346 N 
ATOM     31  CA  GLU d   1      -3.830  -2.899   5.782  0.00  0.00     0.090 C 
ATOM     32  C   GLU d   1      -3.533  -1.409   5.560  0.00  0.00     0.241 C 
ATOM     33  O   GLU d   1      -3.815  -0.573   6.418  0.00  0.00    -0.271 OA
ATOM     34  H21 GLU d   1      -3.705  -4.265   4.141  0.00  0.00     0.163 HD
ATOM     35  H22 GLU d   1      -4.640  -2.973   6.523  0.00  0.00     0.087 H 
ENDROOT
BRANCH   7  36
ATOM     36  C   CYS d   1      -3.953   1.017   3.599  0.00  0.00     0.242 C 
ATOM     37  O   CYS d   1      -3.927   2.212   3.303  0.00  0.00    -0.271 OA
ATOM     38  N   ASN d   1      -5.046   0.266   3.548  0.00  0.00    -0.346 N 
ATOM     39  H31 ASN d   1      -4.968  -0.709   3.758  0.00  0.00     0.163 HD
BRANCH  38  40
ATOM     40  CA  ASN d   1      -6.361   0.806   3.197  0.00  0.00     0.097 C 
ATOM     41  H32 ASN d   1      -6.201   1.769   2.690  0.00  0.00     0.088 H 
BRANCH  40  42
ATOM     42  C   ASN d   1      -7.236   1.059   4.406  0.00  0.00     0.241 C 
ATOM     43  O   ASN d   1      -8.045   1.970   4.371  0.00  0.00    -0.271 OA
ATOM     44  N   PHE d   1      -7.090   0.238   5.442  0.00  0.00    -0.346 N 
ATOM     45  H37 PHE d   1      -6.377  -0.462   5.410  0.00  0.00     0.163 HD
BRANCH  44  46
ATOM     46  CA  PHE d   1      -7.945   0.330   6.631  0.00  0.00     0.093 C 
ATOM     47  H38 PHE d   1      -8.367   1.345   6.651  0.00  0.00     0.088 H 
BRANCH  46  48
ATOM     48  C   PHE d   1      -7.210   0.113   7.954  0.00  0.00     0.241 C 
ATOM     49  O   PHE d   1      -7.674   0.544   9.007  0.00  0.00    -0.271 OA
ATOM     50  N   GLY d   1      -6.072  -0.572   7.905  0.00  0.00    -0.349 N 
ATOM     51  H46 GLY d   1      -5.718  -0.857   7.014  0.00  0.00     0.163 HD
BRANCH  50  52
ATOM     52  CA  GLY d   1      -5.316  -0.925   9.112  0.00  0.00     0.075 C 
ATOM     53  H47 GLY d   1      -4.580  -1.699   8.848  0.00  0.00     0.080 H 
ATOM     54  H48 GLY d   1      -6.018  -1.326   9.858  0.00  0.00     0.080 H 
BRANCH  52  55
ATOM     55  C   GLY d   1      -4.583   0.239   9.725  0.00  0.00     0.191 C 
ATOM     56  O   GLY d   1      -4.048   0.116  10.825  0.00  0.00    -0.647 OA
ATOM     57  OXT GLY d   1      -4.521   1.310   9.124  0.00  0.00    -0.647 OA
ENDBRANCH  52  55
ENDBRANCH  50  52
ENDBRANCH  46  48
BRANCH  46  58
ATOM     58  CB  PHE d   1      -9.102  -0.670   6.529  0.00  0.00    -0.014 C 
ATOM     59  H39 PHE d   1      -9.704  -0.595   7.446  0.00  0.00     0.043 H 
ATOM     60  H40 PHE d   1      -8.677  -1.682   6.451  0.00  0.00     0.043 H 
BRANCH  58  61
ATOM     61  CG  PHE d   1     -10.008  -0.447   5.351  0.00  0.00    -0.056 A 
ATOM     62  CD1 PHE d   1     -11.013   0.510   5.400  0.00  0.00    -0.077 A 
ATOM     63  CE1 PHE d   1     -11.854   0.702   4.311  0.00  0.00    -0.082 A 
ATOM     64  H41 PHE d   1     -11.142   1.111   6.293  0.00  0.00     0.084 H 
ATOM     65  CZ  PHE d   1     -11.699  -0.062   3.167  0.00  0.00    -0.083 A 
ATOM     66  H43 PHE d   1     -12.634   1.453   4.357  0.00  0.00     0.083 H 
ATOM     67  CE2 PHE d   1     -10.692  -1.015   3.108  0.00  0.00    -0.082 A 
ATOM     68  H45 PHE d   1     -12.361   0.084   2.321  0.00  0.00     0.083 H 
ATOM     69  CD2 PHE d   1      -9.868  -1.206   4.197  0.00  0.00    -0.077 A 
ATOM     70  H44 PHE d   1     -10.554  -1.606   2.210  0.00  0.00     0.083 H 
ATOM     71  H42 PHE d   1      -9.095  -1.964   4.151  0.00  0.00     0.084 H 
ENDBRANCH  58  61
ENDBRANCH  46  58
ENDBRANCH  44  46
ENDBRANCH  40  42
BRANCH  40  72
ATOM     72  CB  ASN d   1      -7.079  -0.128   2.232  0.00  0.00     0.036 C 
ATOM     73  H33 ASN d   1      -8.163  -0.028   2.390  0.00  0.00     0.051 H 
ATOM     74  H34 ASN d   1      -6.770  -1.161   2.450  0.00  0.00     0.051 H 
BRANCH  72  75
ATOM     75  CG  ASN d   1      -6.774   0.170   0.779  0.00  0.00     0.217 C 
ATOM     76  OD1 ASN d   1      -6.178   1.203   0.445  0.00  0.00    -0.274 OA
ATOM     77  ND2 ASN d   1      -7.215  -0.732  -0.096  0.00  0.00    -0.370 N 
ATOM     78  H35 ASN d   1      -7.051  -0.602  -1.074  0.00  0.00     0.159 HD
ATOM     79  H36 ASN d   1      -7.711  -1.539   0.225  0.00  0.00     0.159 HD
ENDBRANCH  72  75
ENDBRANCH  40  72
ENDBRANCH  38  40
ENDBRANCH   7  36
BRANCH  31  80
ATOM     80  CB  GLU d   1      -2.601  -3.561   6.366  0.00  0.00    -0.029 C 
ATOM     81  H23 GLU d   1      -2.282  -2.971   7.238  0.00  0.00     0.037 H 
ATOM     82  H24 GLU d   1      -1.811  -3.540   5.601  0.00  0.00     0.037 H 
BRANCH  80  83
ATOM     83  CG  GLU d   1      -2.775  -4.999   6.816  0.00  0.00     0.018 C 
ATOM     84  H25 GLU d   1      -3.069  -5.610   5.950  0.00  0.00     0.049 H 
ATOM     85  H26 GLU d   1      -3.566  -5.040   7.580  0.00  0.00     0.049 H 
BRANCH  83  86
ATOM     86  CD  GLU d   1      -1.483  -5.568   7.409  0.00  0.00     0.172 C 
ATOM     87  OE1 GLU d   1      -0.396  -5.348   6.802  0.00  0.00    -0.648 OA
ATOM     88  OE2 GLU d   1      -1.542  -6.225   8.483  0.00  0.00    -0.648 OA
ENDBRANCH  83  86
ENDBRANCH  80  83
ENDBRANCH  31  80
BRANCH   1  89
ATOM     89  N   CYS d   1       1.103  -3.528  -0.543  0.00  0.00    -0.066 N 
ATOM     90  H1  CYS d   1       2.071  -3.247  -0.552  0.00  0.00     0.275 HD
ATOM     91  H2  CYS d   1       0.548  -2.835  -1.020  0.00  0.00     0.275 HD
ATOM     92  H3  CYS d   1       1.006  -4.416  -1.010  0.00  0.00     0.275 HD
ENDBRANCH   1  89
BRANCH  25  93
ATOM     93  CB  LEU d   1      -6.519  -5.395   3.198  0.00  0.00    -0.035 C 
ATOM     94  H12 LEU d   1      -5.779  -5.909   3.829  0.00  0.00     0.037 H 
ATOM     95  H13 LEU d   1      -6.689  -5.979   2.282  0.00  0.00     0.037 H 
BRANCH  93  96
ATOM     96  CG  LEU d   1      -7.846  -5.416   3.980  0.00  0.00    -0.059 C 
ATOM     97  H14 LEU d   1      -7.774  -4.676   4.790  0.00  0.00     0.038 H 
BRANCH  96  98
ATOM     98  CD1 LEU d   1      -9.038  -5.039   3.106  0.00  0.00    -0.073 C 
ATOM     99  H15 LEU d   1      -9.958  -5.069   3.708  0.00  0.00     0.028 H 
ATOM    100  H16 LEU d   1      -9.122  -5.752   2.273  0.00  0.00     0.028 H 
ATOM    101  H17 LEU d   1      -8.894  -4.024   2.707  0.00  0.00     0.028 H 
ENDBRANCH  96  98
BRANCH  96 102
ATOM    102  CD2 LEU d   1      -8.058  -6.793   4.605  0.00  0.00    -0.073 C 
ATOM    103  H18 LEU d   1      -7.191  -7.049   5.231  0.00  0.00     0.028 H 
ATOM    104  H19 LEU d   1      -8.170  -7.544   3.809  0.00  0.00     0.028 H 
ATOM    105  H20 LEU d   1      -8.966  -6.778   5.225  0.00  0.00     0.028 H 
ENDBRANCH  96 102
ENDBRANCH  93  96
ENDBRANCH  25  93
TORSDOF 19
