REMARK  7 active torsions:
REMARK  status: ('A' for Active; 'I' for Inactive)
REMARK    1  A    between atoms: C10_10  and  N12_12 
REMARK    2  A    between atoms: N12_12  and  C13_13 
REMARK    3  A    between atoms: C13_13  and  C14_14 
REMARK    4  A    between atoms: C14_14  and  C15_15 
REMARK    5  A    between atoms: C15_15  and  N16_16 
REMARK       I    between atoms: N16_16  and  C17_17 
REMARK    6  A    between atoms: N16_16  and  C24_24 
REMARK    7  A    between atoms: C17_17  and  C18_18 
ROOT
ATOM      1  C14 7UU d   1     -12.161  -8.656   3.561  0.00  0.00    -0.035 C 
ATOM      2  H9  7UU d   1     -13.114  -9.051   3.944  0.00  0.00     0.037 H 
ATOM      3  H10 7UU d   1     -12.284  -7.595   3.296  0.00  0.00     0.037 H 
ENDROOT
BRANCH   1   4
ATOM      4  C13 7UU d   1     -11.759  -9.439   2.317  0.00  0.00    -0.006 C 
ATOM      5  H7  7UU d   1     -11.627 -10.499   2.579  0.00  0.00     0.064 H 
ATOM      6  H8  7UU d   1     -12.547  -9.345   1.556  0.00  0.00     0.064 H 
BRANCH   4   7
ATOM      7  N12 7UU d   1     -10.515  -8.916   1.789  0.00  0.00    -0.389 N 
ATOM      8  H6  7UU d   1      -9.609  -9.277   2.120  0.00  0.00     0.159 HD
BRANCH   7   9
ATOM      9  C10 7UU d   1     -10.575  -7.874   0.784  0.00  0.00     0.045 A 
ATOM     10  C5  7UU d   1      -9.392  -7.524   0.049  0.00  0.00     0.024 A 
ATOM     11  C4  7UU d   1      -8.177  -8.130   0.270  0.00  0.00    -0.068 A 
ATOM     12  C6  7UU d   1      -9.512  -6.512  -0.955  0.00  0.00     0.090 A 
ATOM     13  C3  7UU d   1      -7.070  -7.739  -0.480  0.00  0.00    -0.082 A 
ATOM     14  H4  7UU d   1      -8.082  -8.905   1.022  0.00  0.00     0.085 H 
ATOM     15  C2  7UU d   1      -7.189  -6.742  -1.456  0.00  0.00    -0.080 A 
ATOM     16  H3  7UU d   1      -6.109  -8.210  -0.307  0.00  0.00     0.083 H 
ATOM     17  C1  7UU d   1      -8.415  -6.124  -1.685  0.00  0.00    -0.049 A 
ATOM     18  H2  7UU d   1      -6.321  -6.450  -2.037  0.00  0.00     0.083 H 
ATOM     19  H1  7UU d   1      -8.503  -5.344  -2.432  0.00  0.00     0.087 H 
ATOM     20  O7  7UU d   1     -10.739  -5.870  -1.199  0.00  0.00    -0.285 OA
ATOM     21  C8  7UU d   1     -11.826  -6.204  -0.498  0.00  0.00     0.223 A 
ATOM     22  C9  7UU d   1     -11.758  -7.237   0.524  0.00  0.00     0.002 A 
ATOM     23  O11 7UU d   1     -13.026  -5.545  -0.744  0.00  0.00    -0.164 OA
ATOM     24  H5  7UU d   1     -12.652  -7.505   1.085  0.00  0.00     0.094 H 
ENDBRANCH   7   9
ENDBRANCH   4   7
ENDBRANCH   1   4
BRANCH   1  25
ATOM     25  C15 7UU d   1     -11.094  -8.782   4.645  0.00  0.00    -0.001 C 
ATOM     26  H11 7UU d   1     -10.092  -8.706   4.198  0.00  0.00     0.064 H 
ATOM     27  H12 7UU d   1     -11.193  -9.748   5.162  0.00  0.00     0.064 H 
BRANCH  25  28
ATOM     28  N16 7UU d   1     -11.306  -7.691   5.583  0.00  0.00    -0.352 N 
ATOM     29  C17 7UU d   1     -10.389  -6.577   5.741  0.00  0.00     0.259 C 
ATOM     30  O23 7UU d   1     -10.706  -5.765   6.542  0.00  0.00    -0.267 OA
BRANCH  29  31
ATOM     31  C18 7UU d   1      -9.070  -6.417   4.968  0.00  0.00     0.064 C 
ATOM     32  S19 7UU d   1      -7.726  -5.321   5.537  0.00  0.00    -0.124 SA
ATOM     33  C20 7UU d   1      -6.963  -5.246   4.087  0.00  0.00    -0.016 C 
ATOM     34  C21 7UU d   1      -7.564  -6.293   3.169  0.00  0.00    -0.040 C 
ATOM     35  H13 7UU d   1      -5.889  -5.444   4.222  0.00  0.00     0.049 H 
ATOM     36  H14 7UU d   1      -7.099  -4.247   3.648  0.00  0.00     0.049 H 
ATOM     37  C22 7UU d   1      -8.883  -6.715   3.663  0.00  0.00    -0.081 C 
ATOM     38  H15 7UU d   1      -6.896  -7.166   3.129  0.00  0.00     0.040 H 
ATOM     39  H16 7UU d   1      -7.674  -5.869   2.160  0.00  0.00     0.040 H 
ATOM     40  H17 7UU d   1      -9.628  -7.213   3.045  0.00  0.00     0.079 H 
ENDBRANCH  29  31
BRANCH  28  41
ATOM     41  C24 7UU d   1     -12.508  -7.681   6.399  0.00  0.00    -0.016 C 
ATOM     42  H18 7UU d   1     -12.505  -6.791   7.046  0.00  0.00     0.056 H 
ATOM     43  H19 7UU d   1     -12.536  -8.587   7.022  0.00  0.00     0.056 H 
ATOM     44  H20 7UU d   1     -13.394  -7.657   5.747  0.00  0.00     0.056 H 
ENDBRANCH  28  41
ENDBRANCH  25  28
ENDBRANCH   1  25
TORSDOF 7
