REMARK  24 active torsions:
REMARK  status: ('A' for Active; 'I' for Inactive)
REMARK    1  A    between atoms: N_1  and  CA_2 
REMARK    2  A    between atoms: CA_8  and  CB_11 
REMARK    3  A    between atoms: CB_11  and  OG_12 
REMARK    4  A    between atoms: CA_14  and  CB_17 
REMARK    5  A    between atoms: CB_17  and  CG_18 
REMARK    6  A    between atoms: CA_28  and  CB_29 
REMARK    7  A    between atoms: CB_29  and  CG'_31 
REMARK    8  A    between atoms: CG'_31  and  CG_30 
REMARK    9  A    between atoms: CG_30  and  CD_32 
REMARK   10  A    between atoms: CD_32  and  NE_33 
REMARK       I    between atoms: NE_33  and  CZ_34 
REMARK       I    between atoms: CZ_34  and  NH1_35 
REMARK   11  A    between atoms: CA_44  and  CB_47 
REMARK   12  A    between atoms: CB_47  and  CG_48 
REMARK   13  A    between atoms: CG_48  and  CD1_49 
REMARK   14  A    between atoms: CG_48  and  CD2_50 
REMARK   15  A    between atoms: CA_52  and  CB_55 
REMARK   16  A    between atoms: CB_55  and  CG_56 
REMARK   17  A    between atoms: CG_56  and  CD_57 
REMARK   18  A    between atoms: CA_61  and  CB_64 
REMARK   19  A    between atoms: CB_64  and  CG_65 
REMARK       I    between atoms: CG_65  and  ND2_67 
REMARK   20  A    between atoms: CA_69  and  CB_72 
REMARK   21  A    between atoms: CB_72  and  CG_73 
REMARK   22  A    between atoms: CA_79  and  CB_82 
REMARK   23  A    between atoms: CA_84  and  CB_87 
REMARK   24  A    between atoms: CA_89  and  C_90 
ROOT
ATOM      1  CA  CYS d   1       0.512 -25.479 -15.796  0.00  0.00     0.184 C 
ATOM      2  C   CYS d   1      -0.823 -26.058 -15.693  0.00  0.00     0.249 C 
ATOM      3  O   CYS d   1      -1.584 -25.632 -14.914  0.00  0.00    -0.271 OA
ATOM      4  CB  CYS d   1       0.267 -24.179 -16.508  0.00  0.00     0.021 C 
ATOM      5  SG  CYS d   1       1.742 -23.220 -16.595  0.00  0.00    -0.095 SA
ATOM      6  N   CYS d   1       2.289 -19.805 -15.422  0.00  0.00    -0.344 N 
ATOM      7  CA  CYS d   1       1.018 -20.529 -15.426  0.00  0.00     0.105 C 
ATOM      8  CB  CYS d   1       1.016 -21.647 -14.405  0.00  0.00     0.015 C 
ATOM      9  SG  CYS d   1       2.181 -22.878 -14.800  0.00  0.00    -0.095 SA
ATOM     10  H4  CYS d   1       0.928 -25.296 -14.794  0.00  0.00     0.100 H 
ATOM     11  H5  CYS d   1      -0.501 -23.610 -15.964  0.00  0.00     0.054 H 
ATOM     12  H6  CYS d   1      -0.087 -24.389 -17.528  0.00  0.00     0.054 H 
ATOM     13  H80 CYS d   1       3.085 -20.276 -15.802  0.00  0.00     0.163 HD
ATOM     14  H81 CYS d   1       0.877 -20.971 -16.423  0.00  0.00     0.090 H 
ATOM     15  H82 CYS d   1       0.014 -22.100 -14.374  0.00  0.00     0.054 H 
ATOM     16  H83 CYS d   1       1.260 -21.229 -13.417  0.00  0.00     0.054 H 
ATOM     17  N   SER d   1      -1.197 -27.116 -16.242  0.00  0.00    -0.344 N 
ATOM     18  CA  SER d   1      -2.511 -27.434 -15.777  0.00  0.00     0.109 C 
ATOM     19  C   SER d   1      -2.328 -28.578 -14.808  0.00  0.00     0.243 C 
ATOM     20  O   SER d   1      -3.244 -29.237 -14.456  0.00  0.00    -0.271 OA
ATOM     21  H7  SER d   1      -0.665 -27.652 -16.898  0.00  0.00     0.163 HD
ATOM     22  H8  SER d   1      -2.981 -26.572 -15.281  0.00  0.00     0.090 H 
ATOM     23  N   TRP d   1      -1.076 -28.783 -14.431  0.00  0.00    -0.346 N 
ATOM     24  CA  TRP d   1      -0.626 -29.939 -13.775  0.00  0.00     0.093 C 
ATOM     25  C   TRP d   1      -0.346 -29.550 -12.370  0.00  0.00     0.241 C 
ATOM     26  O   TRP d   1       0.005 -28.439 -12.060  0.00  0.00    -0.271 OA
ATOM     27  H12 TRP d   1      -0.406 -28.067 -14.627  0.00  0.00     0.163 HD
ATOM     28  H13 TRP d   1      -1.413 -30.706 -13.806  0.00  0.00     0.088 H 
ATOM     29  N   HRG d   1      -0.443 -30.559 -11.510  0.00  0.00    -0.346 N 
ATOM     30  CA  HRG d   1       0.103 -30.409 -10.224  0.00  0.00     0.089 C 
ATOM     31  C   HRG d   1       1.571 -30.145 -10.383  0.00  0.00     0.240 C 
ATOM     32  O   HRG d   1       2.200 -30.777 -11.184  0.00  0.00    -0.271 OA
ATOM     33  H22 HRG d   1      -0.897 -31.410 -11.774  0.00  0.00     0.163 HD
ATOM     34  H23 HRG d   1      -0.412 -29.629  -9.645  0.00  0.00     0.087 H 
ATOM     35  N   GLY d   1       2.066 -29.212  -9.588  0.00  0.00    -0.351 N 
ATOM     36  CA  GLY d   1       3.407 -28.755  -9.633  0.00  0.00     0.069 C 
ATOM     37  C   GLY d   1       3.491 -27.329 -10.040  0.00  0.00     0.236 C 
ATOM     38  O   GLY d   1       4.409 -26.673  -9.650  0.00  0.00    -0.272 OA
ATOM     39  H37 GLY d   1       1.455 -28.802  -8.911  0.00  0.00     0.163 HD
ATOM     40  H38 GLY d   1       3.967 -29.365 -10.357  0.00  0.00     0.078 H 
ATOM     41  H39 GLY d   1       3.855 -28.867  -8.635  0.00  0.00     0.078 H 
ATOM     42  N   LEU d   1       2.507 -26.837 -10.750  0.00  0.00    -0.346 N 
ATOM     43  CA  LEU d   1       2.526 -25.467 -11.149  0.00  0.00     0.089 C 
ATOM     44  C   LEU d   1       1.470 -24.606 -10.542  0.00  0.00     0.241 C 
ATOM     45  O   LEU d   1       1.175 -23.606 -11.058  0.00  0.00    -0.271 OA
ATOM     46  H40 LEU d   1       1.740 -27.423 -11.013  0.00  0.00     0.163 HD
ATOM     47  H41 LEU d   1       3.487 -25.065 -10.796  0.00  0.00     0.087 H 
ATOM     48  N   GLU d   1       0.916 -25.032  -9.427  0.00  0.00    -0.346 N 
ATOM     49  CA  GLU d   1      -0.072 -24.251  -8.760  0.00  0.00     0.090 C 
ATOM     50  C   GLU d   1       0.646 -23.075  -8.295  0.00  0.00     0.241 C 
ATOM     51  O   GLU d   1       1.764 -23.183  -7.885  0.00  0.00    -0.271 OA
ATOM     52  H51 GLU d   1       1.191 -25.913  -9.043  0.00  0.00     0.163 HD
ATOM     53  H52 GLU d   1      -0.913 -23.998  -9.422  0.00  0.00     0.087 H 
ATOM     54  N   ASN d   1      -0.007 -21.953  -8.409  0.00  0.00    -0.346 N 
ATOM     55  CA  ASN d   1       0.546 -20.772  -7.864  0.00  0.00     0.097 C 
ATOM     56  C   ASN d   1       1.948 -20.545  -8.420  0.00  0.00     0.241 C 
ATOM     57  O   ASN d   1       2.875 -20.340  -7.713  0.00  0.00    -0.271 OA
ATOM     58  H57 ASN d   1      -0.890 -21.928  -8.877  0.00  0.00     0.163 HD
ATOM     59  H58 ASN d   1      -0.092 -19.910  -8.108  0.00  0.00     0.088 H 
ATOM     60  N   HIS d   1       2.028 -20.667  -9.705  0.00  0.00    -0.346 N 
ATOM     61  CA  HIS d   1       3.265 -20.368 -10.378  0.00  0.00     0.094 C 
ATOM     62  C   HIS d   1       3.133 -19.123 -11.225  0.00  0.00     0.241 C 
ATOM     63  O   HIS d   1       2.116 -18.834 -11.720  0.00  0.00    -0.271 OA
ATOM     64  H63 HIS d   1       1.232 -20.968 -10.230  0.00  0.00     0.163 HD
ATOM     65  H64 HIS d   1       4.012 -20.156  -9.599  0.00  0.00     0.088 H 
ATOM     66  N   ALA d   1       4.227 -18.405 -11.330  0.00  0.00    -0.346 N 
ATOM     67  CA  ALA d   1       4.207 -17.065 -11.919  0.00  0.00     0.086 C 
ATOM     68  C   ALA d   1       3.736 -17.120 -13.343  0.00  0.00     0.240 C 
ATOM     69  O   ALA d   1       2.932 -16.377 -13.791  0.00  0.00    -0.271 OA
ATOM     70  N   ALA d   1       4.267 -18.067 -13.996  0.00  0.00    -0.346 N 
ATOM     71  CA  ALA d   1       3.878 -18.195 -15.285  0.00  0.00     0.086 C 
ATOM     72  C   ALA d   1       2.464 -18.645 -14.983  0.00  0.00     0.240 C 
ATOM     73  O   ALA d   1       1.626 -18.063 -14.323  0.00  0.00    -0.271 OA
ATOM     74  H70 ALA d   1       5.093 -18.782 -11.001  0.00  0.00     0.163 HD
ATOM     75  H71 ALA d   1       3.534 -16.418 -11.337  0.00  0.00     0.086 H 
ATOM     76  H75 ALA d   1       4.936 -18.685 -13.582  0.00  0.00     0.163 HD
ATOM     77  H76 ALA d   1       3.935 -17.272 -15.881  0.00  0.00     0.086 H 
ENDROOT
BRANCH  30  78
ATOM     78  CB  HRG d   1       0.067 -31.720  -9.573  0.00  0.00    -0.038 C 
ATOM     79  H24 HRG d   1       0.545 -31.649  -8.585  0.00  0.00     0.036 H 
ATOM     80  H25 HRG d   1       0.611 -32.449 -10.192  0.00  0.00     0.036 H 
BRANCH  78  81
ATOM     81  CG' HRG d   1      -1.363 -32.177  -9.405  0.00  0.00    -0.061 C 
ATOM     82  H28 HRG d   1      -1.721 -32.599 -10.355  0.00  0.00     0.033 H 
ATOM     83  H29 HRG d   1      -1.988 -31.315  -9.128  0.00  0.00     0.033 H 
BRANCH  81  84
ATOM     84  CG  HRG d   1      -1.461 -33.207  -8.348  0.00  0.00    -0.050 C 
ATOM     85  H26 HRG d   1      -2.505 -33.539  -8.245  0.00  0.00     0.035 H 
ATOM     86  H27 HRG d   1      -1.111 -32.795  -7.390  0.00  0.00     0.035 H 
BRANCH  84  87
ATOM     87  CD  HRG d   1      -0.588 -34.372  -8.757  0.00  0.00     0.009 C 
ATOM     88  H30 HRG d   1      -0.679 -35.174  -8.010  0.00  0.00     0.064 H 
ATOM     89  H31 HRG d   1       0.459 -34.039  -8.812  0.00  0.00     0.064 H 
BRANCH  87  90
ATOM     90  NE  HRG d   1      -0.988 -34.862 -10.017  0.00  0.00    -0.227 N 
ATOM     91  CZ  HRG d   1      -1.518 -35.990 -10.238  0.00  0.00     0.665 C 
ATOM     92  NH1 HRG d   1      -1.654 -36.339 -11.399  0.00  0.00    -0.235 N 
ATOM     93  NH2 HRG d   1      -1.822 -36.743  -9.284  0.00  0.00    -0.235 N 
ATOM     94  H33 HRG d   1      -2.081 -37.251 -11.616  0.00  0.00     0.174 HD
ATOM     95  H34 HRG d   1      -1.341 -35.722 -12.162  0.00  0.00     0.174 HD
ATOM     96  H35 HRG d   1      -1.696 -36.421  -8.314  0.00  0.00     0.174 HD
ATOM     97  H36 HRG d   1      -2.198 -37.684  -9.470  0.00  0.00     0.174 HD
ATOM     98  H32 HRG d   1      -0.835 -34.248 -10.830  0.00  0.00     0.177 HD
ENDBRANCH  87  90
ENDBRANCH  84  87
ENDBRANCH  81  84
ENDBRANCH  78  81
ENDBRANCH  30  78
BRANCH  24  99
ATOM     99  CB  TRP d   1       0.649 -30.511 -14.395  0.00  0.00    -0.012 C 
ATOM    100  H14 TRP d   1       1.050 -31.276 -13.714  0.00  0.00     0.044 H 
ATOM    101  H15 TRP d   1       1.378 -29.694 -14.498  0.00  0.00     0.044 H 
BRANCH  99 102
ATOM    102  CG  TRP d   1       0.458 -31.124 -15.713  0.00  0.00    -0.028 A 
ATOM    103  CD1 TRP d   1      -0.678 -31.320 -16.334  0.00  0.00    -0.015 A 
ATOM    104  NE1 TRP d   1      -0.469 -31.892 -17.548  0.00  0.00    -0.365 N 
ATOM    105  H16 TRP d   1      -1.656 -31.060 -15.932  0.00  0.00     0.112 H 
ATOM    106  CE2 TRP d   1       0.865 -32.092 -17.697  0.00  0.00     0.042 A 
ATOM    107  H17 TRP d   1      -1.197 -32.132 -18.236  0.00  0.00     0.165 HD
ATOM    108  CD2 TRP d   1       1.476 -31.632 -16.546  0.00  0.00    -0.002 A 
ATOM    109  CZ2 TRP d   1       1.582 -32.622 -18.758  0.00  0.00    -0.056 A 
ATOM    110  CE3 TRP d   1       2.873 -31.673 -16.456  0.00  0.00    -0.070 A 
ATOM    111  CZ3 TRP d   1       3.590 -32.233 -17.505  0.00  0.00    -0.082 A 
ATOM    112  H18 TRP d   1       3.384 -31.276 -15.586  0.00  0.00     0.084 H 
ATOM    113  CH2 TRP d   1       2.932 -32.706 -18.639  0.00  0.00    -0.081 A 
ATOM    114  H20 TRP d   1       4.670 -32.303 -17.442  0.00  0.00     0.083 H 
ATOM    115  H21 TRP d   1       3.510 -33.150 -19.442  0.00  0.00     0.083 H 
ATOM    116  H19 TRP d   1       1.079 -32.960 -19.657  0.00  0.00     0.086 H 
ENDBRANCH  99 102
ENDBRANCH  24  99
BRANCH  18 117
ATOM    117  CB  SER d   1      -3.325 -27.863 -16.953  0.00  0.00     0.044 C 
ATOM    118  H9  SER d   1      -4.305 -28.238 -16.623  0.00  0.00     0.077 H 
ATOM    119  H10 SER d   1      -2.800 -28.651 -17.513  0.00  0.00     0.077 H 
BRANCH 117 120
ATOM    120  OG  SER d   1      -3.483 -26.737 -17.742  0.00  0.00    -0.398 OA
ATOM    121  H11 SER d   1      -3.998 -26.959 -18.509  0.00  0.00     0.209 HD
ENDBRANCH 117 120
ENDBRANCH  18 117
BRANCH  43 122
ATOM    122  CB  LEU d   1       2.518 -25.326 -12.645  0.00  0.00    -0.035 C 
ATOM    123  H42 LEU d   1       2.438 -24.254 -12.880  0.00  0.00     0.037 H 
ATOM    124  H43 LEU d   1       1.630 -25.852 -13.026  0.00  0.00     0.037 H 
BRANCH 122 125
ATOM    125  CG  LEU d   1       3.735 -25.873 -13.386  0.00  0.00    -0.059 C 
ATOM    126  H44 LEU d   1       3.645 -26.969 -13.397  0.00  0.00     0.038 H 
BRANCH 125 127
ATOM    127  CD1 LEU d   1       3.691 -25.395 -14.801  0.00  0.00    -0.073 C 
ATOM    128  H45 LEU d   1       4.564 -25.783 -15.346  0.00  0.00     0.028 H 
ATOM    129  H46 LEU d   1       3.708 -24.295 -14.817  0.00  0.00     0.028 H 
ATOM    130  H47 LEU d   1       2.769 -25.755 -15.281  0.00  0.00     0.028 H 
ENDBRANCH 125 127
BRANCH 125 131
ATOM    131  CD2 LEU d   1       5.042 -25.556 -12.747  0.00  0.00    -0.073 C 
ATOM    132  H48 LEU d   1       5.041 -25.921 -11.709  0.00  0.00     0.028 H 
ATOM    133  H49 LEU d   1       5.199 -24.467 -12.753  0.00  0.00     0.028 H 
ATOM    134  H50 LEU d   1       5.852 -26.046 -13.307  0.00  0.00     0.028 H 
ENDBRANCH 125 131
ENDBRANCH 122 125
ENDBRANCH  43 122
BRANCH   1 135
ATOM    135  N   CYS d   1       1.426 -26.333 -16.529  0.00  0.00    -0.066 N 
ATOM    136  H1  CYS d   1       2.332 -25.894 -16.575  0.00  0.00     0.275 HD
ATOM    137  H2  CYS d   1       1.075 -26.477 -17.463  0.00  0.00     0.275 HD
ATOM    138  H3  CYS d   1       1.506 -27.221 -16.059  0.00  0.00     0.275 HD
ENDBRANCH   1 135
BRANCH  49 139
ATOM    139  CB  GLU d   1      -0.530 -24.973  -7.544  0.00  0.00    -0.029 C 
ATOM    140  H53 GLU d   1      -1.070 -24.272  -6.890  0.00  0.00     0.037 H 
ATOM    141  H54 GLU d   1       0.345 -25.372  -7.011  0.00  0.00     0.037 H 
BRANCH 139 142
ATOM    142  CG  GLU d   1      -1.452 -26.119  -7.912  0.00  0.00     0.018 C 
ATOM    143  H55 GLU d   1      -1.995 -25.845  -8.829  0.00  0.00     0.049 H 
ATOM    144  H56 GLU d   1      -2.169 -26.264  -7.090  0.00  0.00     0.049 H 
BRANCH 142 145
ATOM    145  CD  GLU d   1      -0.756 -27.397  -8.150  0.00  0.00     0.172 C 
ATOM    146  OE1 GLU d   1       0.427 -27.403  -8.237  0.00  0.00    -0.648 OA
ATOM    147  OE2 GLU d   1      -1.408 -28.394  -8.063  0.00  0.00    -0.648 OA
ENDBRANCH 142 145
ENDBRANCH 139 142
ENDBRANCH  49 139
BRANCH  55 148
ATOM    148  CB  ASN d   1       0.618 -20.956  -6.379  0.00  0.00     0.036 C 
ATOM    149  H59 ASN d   1       1.390 -21.706  -6.152  0.00  0.00     0.051 H 
ATOM    150  H60 ASN d   1      -0.358 -21.314  -6.019  0.00  0.00     0.051 H 
BRANCH 148 151
ATOM    151  CG  ASN d   1       0.949 -19.716  -5.684  0.00  0.00     0.217 C 
ATOM    152  OD1 ASN d   1       0.498 -18.703  -6.096  0.00  0.00    -0.274 OA
ATOM    153  ND2 ASN d   1       1.713 -19.798  -4.607  0.00  0.00    -0.370 N 
ATOM    154  H61 ASN d   1       1.960 -18.969  -4.105  0.00  0.00     0.159 HD
ATOM    155  H62 ASN d   1       2.043 -20.689  -4.295  0.00  0.00     0.159 HD
ENDBRANCH 148 151
ENDBRANCH  55 148
BRANCH   7 156
ATOM    156  C   CYS d   1      -0.115 -19.590 -15.158  0.00  0.00     0.197 C 
ATOM    157  O   CYS d   1      -0.298 -18.673 -16.007  0.00  0.00    -0.646 OA
ATOM    158  OXT CYS d   1      -0.711 -19.778 -14.065  0.00  0.00    -0.646 OA
ENDBRANCH   7 156
BRANCH  61 159
ATOM    159  CB  HIS d   1       3.780 -21.510 -11.169  0.00  0.00     0.002 C 
ATOM    160  H65 HIS d   1       4.462 -21.123 -11.941  0.00  0.00     0.046 H 
ATOM    161  H66 HIS d   1       2.930 -22.015 -11.650  0.00  0.00     0.046 H 
BRANCH 159 162
ATOM    162  CG  HIS d   1       4.513 -22.500 -10.343  0.00  0.00     0.030 A 
ATOM    163  ND1 HIS d   1       5.756 -22.971 -10.674  0.00  0.00    -0.353 N 
ATOM    164  CE1 HIS d   1       6.153 -23.809  -9.737  0.00  0.00     0.063 A 
ATOM    165  H67 HIS d   1       6.292 -22.713 -11.515  0.00  0.00     0.166 HD
ATOM    166  NE2 HIS d   1       5.194 -23.945  -8.860  0.00  0.00    -0.254 NA
ATOM    167  H69 HIS d   1       7.121 -24.306  -9.700  0.00  0.00     0.143 H 
ATOM    168  CD2 HIS d   1       4.163 -23.128  -9.206  0.00  0.00     0.025 A 
ATOM    169  H68 HIS d   1       3.227 -23.005  -8.663  0.00  0.00     0.117 H 
ENDBRANCH 159 162
ENDBRANCH  61 159
BRANCH  71 170
ATOM    170  CB  ALA d   1       4.698 -19.303 -15.892  0.00  0.00    -0.049 C 
ATOM    171  H77 ALA d   1       4.410 -19.438 -16.945  0.00  0.00     0.030 H 
ATOM    172  H78 ALA d   1       4.518 -20.237 -15.340  0.00  0.00     0.030 H 
ATOM    173  H79 ALA d   1       5.765 -19.043 -15.835  0.00  0.00     0.030 H 
ENDBRANCH  71 170
BRANCH  67 174
ATOM    174  CB  ALA d   1       5.598 -16.511 -11.887  0.00  0.00    -0.049 C 
ATOM    175  H72 ALA d   1       5.601 -15.503 -12.327  0.00  0.00     0.030 H 
ATOM    176  H73 ALA d   1       6.267 -17.165 -12.466  0.00  0.00     0.030 H 
ATOM    177  H74 ALA d   1       5.948 -16.458 -10.845  0.00  0.00     0.030 H 
ENDBRANCH  67 174
TORSDOF 24
