REMARK WARNING: 32 MAX_TORS EXCEEDED!!!
REMARK  35 active torsions:
REMARK  status: ('A' for Active; 'I' for Inactive)
REMARK    1  A    between atoms: CA_2  and  N_1 
REMARK    2  A    between atoms: C_3  and  CA_2 
REMARK    3  A    between atoms: CA_2  and  CB_5 
REMARK       I    between atoms: N_6  and  C_3 
REMARK    4  A    between atoms: CA_7  and  N_6 
REMARK    5  A    between atoms: C_8  and  CA_7 
REMARK    6  A    between atoms: CA_7  and  CB_10 
REMARK       I    between atoms: N_17  and  C_8 
REMARK    7  A    between atoms: CB_10  and  CG_11 
REMARK    8  A    between atoms: CG_11  and  CD_12 
REMARK    9  A    between atoms: CD_12  and  NE_13 
REMARK       I    between atoms: NE_13  and  CZ_14 
REMARK       I    between atoms: CZ_14  and  NH1_15 
REMARK   10  A    between atoms: CA_18  and  N_17 
REMARK   11  A    between atoms: C_19  and  CA_18 
REMARK   12  A    between atoms: CA_18  and  CB_21 
REMARK       I    between atoms: N_33  and  C_19 
REMARK   13  A    between atoms: CB_21  and  OG1_22 
REMARK   14  A    between atoms: CB_21  and  CG2_23 
REMARK   15  A    between atoms: CH_25  and  CH3_26 
REMARK       I    between atoms: NZ_27  and  CH_25 
REMARK   16  A    between atoms: CE_28  and  NZ_27 
REMARK   17  A    between atoms: CD_29  and  CE_28 
REMARK   18  A    between atoms: CG_30  and  CD_29 
REMARK   19  A    between atoms: CB_31  and  CG_30 
REMARK   20  A    between atoms: CA_32  and  CB_31 
REMARK   21  A    between atoms: CA_32  and  N_33 
REMARK   22  A    between atoms: CA_32  and  C_34 
REMARK       I    between atoms: C_34  and  N_36 
REMARK   23  A    between atoms: N_36  and  CA_37 
REMARK   24  A    between atoms: CA_37  and  C_38 
REMARK   25  A    between atoms: CA_37  and  CB_40 
REMARK       I    between atoms: C_38  and  N_45 
REMARK   26  A    between atoms: CB_40  and  CG_41 
REMARK   27  A    between atoms: CG_41  and  CD_42 
REMARK       I    between atoms: CD_42  and  NE2_44 
REMARK   28  A    between atoms: N_45  and  CA_46 
REMARK   29  A    between atoms: CA_46  and  C_47 
REMARK   30  A    between atoms: CA_46  and  CB_49 
REMARK       I    between atoms: C_47  and  N_52 
REMARK   31  A    between atoms: CB_49  and  OG1_50 
REMARK   32  A    between atoms: CB_49  and  CG2_51 
REMARK   33  A    between atoms: N_52  and  CA_53 
REMARK   34  A    between atoms: CA_53  and  C_54 
REMARK   35  A    between atoms: CA_53  and  CB_56 
ROOT
ATOM      1  CA  ALY d   1      13.135  15.404 -11.374  0.00  0.00     0.089 C 
ATOM      2  H40 ALY d   1      13.564  15.148 -12.354  0.00  0.00     0.087 H 
ENDROOT
BRANCH   1   3
ATOM      3  CB  ALY d   1      11.855  14.574 -11.194  0.00  0.00    -0.038 C 
ATOM      4  H38 ALY d   1      11.422  14.802 -10.209  0.00  0.00     0.036 H 
ATOM      5  H39 ALY d   1      11.140  14.853 -11.982  0.00  0.00     0.036 H 
BRANCH   3   6
ATOM      6  CG  ALY d   1      12.114  13.082 -11.278  0.00  0.00    -0.061 C 
ATOM      7  H36 ALY d   1      12.450  12.821 -12.292  0.00  0.00     0.033 H 
ATOM      8  H37 ALY d   1      12.889  12.799 -10.550  0.00  0.00     0.033 H 
BRANCH   6   9
ATOM      9  CD  ALY d   1      10.822  12.347 -10.962  0.00  0.00    -0.050 C 
ATOM     10  H34 ALY d   1      10.489  12.624  -9.951  0.00  0.00     0.035 H 
ATOM     11  H35 ALY d   1      10.054  12.639 -11.694  0.00  0.00     0.035 H 
BRANCH   9  12
ATOM     12  CE  ALY d   1      11.021  10.827 -11.025  0.00  0.00    -0.005 C 
ATOM     13  H32 ALY d   1      10.935  10.499 -12.071  0.00  0.00     0.064 H 
ATOM     14  H33 ALY d   1      12.024  10.582 -10.645  0.00  0.00     0.064 H 
BRANCH  12  15
ATOM     15  NZ  ALY d   1      10.040  10.132 -10.236  0.00  0.00    -0.361 N 
ATOM     16  CH  ALY d   1      10.072   8.796  -9.845  0.00  0.00     0.213 C 
ATOM     17  OH  ALY d   1       9.159   8.302  -9.146  0.00  0.00    -0.274 OA
ATOM     18  H31 ALY d   1       9.249  10.666  -9.936  0.00  0.00     0.162 HD
BRANCH  16  19
ATOM     19  CH3 ALY d   1      11.240   7.943 -10.269  0.00  0.00    -0.003 C 
ATOM     20  H28 ALY d   1      11.934   8.546 -10.873  0.00  0.00     0.040 H 
ATOM     21  H29 ALY d   1      10.876   7.094 -10.867  0.00  0.00     0.040 H 
ATOM     22  H30 ALY d   1      11.762   7.566  -9.377  0.00  0.00     0.040 H 
ENDBRANCH  16  19
ENDBRANCH  12  15
ENDBRANCH   9  12
ENDBRANCH   6   9
ENDBRANCH   3   6
ENDBRANCH   1   3
BRANCH   1  23
ATOM     23  N   ALY d   1      14.164  15.197 -10.376  0.00  0.00    -0.346 N 
ATOM     24  C   THR d   1      15.205  14.409 -10.605  0.00  0.00     0.243 C 
ATOM     25  O   THR d   1      15.369  13.780 -11.664  0.00  0.00    -0.271 OA
ATOM     26  H41 ALY d   1      14.087  15.660  -9.493  0.00  0.00     0.163 HD
BRANCH  24  27
ATOM     27  CA  THR d   1      16.202  14.313  -9.461  0.00  0.00     0.113 C 
ATOM     28  H22 THR d   1      15.644  14.329  -8.513  0.00  0.00     0.091 H 
BRANCH  27  29
ATOM     29  N   THR d   1      16.935  13.059  -9.529  0.00  0.00    -0.344 N 
ATOM     30  C   ARG d   1      16.999  12.226  -8.496  0.00  0.00     0.241 C 
ATOM     31  O   ARG d   1      16.429  12.434  -7.416  0.00  0.00    -0.271 OA
ATOM     32  H21 THR d   1      17.405  12.817 -10.378  0.00  0.00     0.163 HD
BRANCH  30  33
ATOM     33  CA  ARG d   1      17.836  10.971  -8.700  0.00  0.00     0.089 C 
ATOM     34  H9  ARG d   1      18.192  10.947  -9.740  0.00  0.00     0.087 H 
BRANCH  33  35
ATOM     35  N   ARG d   1      18.985  11.029  -7.805  0.00  0.00    -0.346 N 
ATOM     36  C   ALA d   1      20.186  11.442  -8.191  0.00  0.00     0.248 C 
ATOM     37  O   ALA d   1      20.455  11.767  -9.346  0.00  0.00    -0.271 OA
ATOM     38  H8  ARG d   1      18.863  10.744  -6.854  0.00  0.00     0.163 HD
BRANCH  36  39
ATOM     39  CA  ALA d   1      21.240  11.497  -7.103  0.00  0.00     0.172 C 
ATOM     40  H4  ALA d   1      21.127  10.610  -6.462  0.00  0.00     0.098 H 
BRANCH  39  41
ATOM     41  N   ALA d   1      22.576  11.478  -7.686  0.00  0.00    -0.067 N 
ATOM     42  H1  ALA d   1      23.264  11.515  -6.950  0.00  0.00     0.275 HD
ATOM     43  H2  ALA d   1      22.689  12.275  -8.293  0.00  0.00     0.275 HD
ATOM     44  H3  ALA d   1      22.698  10.631  -8.218  0.00  0.00     0.275 HD
ENDBRANCH  39  41
BRANCH  39  45
ATOM     45  CB  ALA d   1      21.051  12.736  -6.247  0.00  0.00    -0.042 C 
ATOM     46  H5  ALA d   1      20.039  12.733  -5.816  0.00  0.00     0.030 H 
ATOM     47  H6  ALA d   1      21.183  13.634  -6.868  0.00  0.00     0.030 H 
ATOM     48  H7  ALA d   1      21.794  12.739  -5.436  0.00  0.00     0.030 H 
ENDBRANCH  39  45
ENDBRANCH  36  39
ENDBRANCH  33  35
BRANCH  33  49
ATOM     49  CB  ARG d   1      17.021   9.711  -8.439  0.00  0.00    -0.036 C 
ATOM     50  H10 ARG d   1      16.103   9.752  -9.043  0.00  0.00     0.036 H 
ATOM     51  H11 ARG d   1      16.757   9.675  -7.372  0.00  0.00     0.036 H 
BRANCH  49  52
ATOM     52  CG  ARG d   1      17.783   8.453  -8.795  0.00  0.00    -0.048 C 
ATOM     53  H12 ARG d   1      18.752   8.463  -8.275  0.00  0.00     0.035 H 
ATOM     54  H13 ARG d   1      17.950   8.432  -9.882  0.00  0.00     0.035 H 
BRANCH  52  55
ATOM     55  CD  ARG d   1      17.021   7.207  -8.391  0.00  0.00     0.009 C 
ATOM     56  H14 ARG d   1      17.635   6.322  -8.614  0.00  0.00     0.064 H 
ATOM     57  H15 ARG d   1      16.083   7.157  -8.964  0.00  0.00     0.064 H 
BRANCH  55  58
ATOM     58  NE  ARG d   1      16.710   7.225  -6.969  0.00  0.00    -0.227 N 
ATOM     59  CZ  ARG d   1      15.483   7.150  -6.470  0.00  0.00     0.665 C 
ATOM     60  NH1 ARG d   1      14.431   7.026  -7.274  0.00  0.00    -0.235 N 
ATOM     61  NH2 ARG d   1      15.309   7.185  -5.157  0.00  0.00    -0.235 N 
ATOM     62  H17 ARG d   1      13.483   6.969  -6.876  0.00  0.00     0.174 HD
ATOM     63  H18 ARG d   1      14.565   6.987  -8.295  0.00  0.00     0.174 HD
ATOM     64  H19 ARG d   1      16.122   7.281  -4.532  0.00  0.00     0.174 HD
ATOM     65  H20 ARG d   1      14.361   7.116  -4.761  0.00  0.00     0.174 HD
ATOM     66  H16 ARG d   1      17.495   7.301  -6.306  0.00  0.00     0.177 HD
ENDBRANCH  55  58
ENDBRANCH  52  55
ENDBRANCH  49  52
ENDBRANCH  33  49
ENDBRANCH  30  33
ENDBRANCH  27  29
BRANCH  27  67
ATOM     67  CB  THR d   1      17.147  15.539  -9.482  0.00  0.00     0.060 C 
ATOM     68  H23 THR d   1      16.551  16.455  -9.353  0.00  0.00     0.086 H 
BRANCH  67  69
ATOM     69  OG1 THR d   1      17.860  15.605 -10.730  0.00  0.00    -0.393 OA
ATOM     70  H24 THR d   1      18.376  14.815 -10.841  0.00  0.00     0.210 HD
ENDBRANCH  67  69
BRANCH  67  71
ATOM     71  CG2 THR d   1      18.160  15.431  -8.355  0.00  0.00    -0.050 C 
ATOM     72  H25 THR d   1      18.827  16.305  -8.377  0.00  0.00     0.031 H 
ATOM     73  H26 THR d   1      18.753  14.514  -8.482  0.00  0.00     0.031 H 
ATOM     74  H27 THR d   1      17.633  15.396  -7.390  0.00  0.00     0.031 H 
ENDBRANCH  67  71
ENDBRANCH  27  67
ENDBRANCH  24  27
ENDBRANCH   1  23
BRANCH   1  75
ATOM     75  C   ALY d   1      12.755  16.876 -11.365  0.00  0.00     0.241 C 
ATOM     76  O   ALY d   1      12.913  17.608 -10.394  0.00  0.00    -0.271 OA
ATOM     77  N   GLN d   1      12.260  17.325 -12.522  0.00  0.00    -0.346 N 
ATOM     78  H42 GLN d   1      12.253  16.706 -13.307  0.00  0.00     0.163 HD
BRANCH  77  79
ATOM     79  CA  GLN d   1      11.728  18.674 -12.698  0.00  0.00     0.090 C 
ATOM     80  H43 GLN d   1      11.352  18.747 -13.729  0.00  0.00     0.087 H 
BRANCH  79  81
ATOM     81  C   GLN d   1      12.776  19.767 -12.524  0.00  0.00     0.241 C 
ATOM     82  O   GLN d   1      12.496  20.852 -12.009  0.00  0.00    -0.271 OA
ATOM     83  N   THR d   1      13.986  19.481 -12.985  0.00  0.00    -0.344 N 
ATOM     84  H50 THR d   1      14.162  18.584 -13.391  0.00  0.00     0.163 HD
BRANCH  83  85
ATOM     85  CA  THR d   1      15.058  20.457 -12.906  0.00  0.00     0.113 C 
ATOM     86  H51 THR d   1      14.952  21.020 -11.967  0.00  0.00     0.091 H 
BRANCH  85  87
ATOM     87  C   THR d   1      14.972  21.440 -14.072  0.00  0.00     0.243 C 
ATOM     88  O   THR d   1      14.371  21.160 -15.111  0.00  0.00    -0.271 OA
ATOM     89  N   ALA d   1      15.574  22.610 -13.881  0.00  0.00    -0.345 N 
ATOM     90  H57 ALA d   1      16.004  22.796 -12.998  0.00  0.00     0.163 HD
BRANCH  89  91
ATOM     91  CA  ALA d   1      15.626  23.632 -14.923  0.00  0.00     0.093 C 
ATOM     92  H58 ALA d   1      14.595  23.863 -15.230  0.00  0.00     0.089 H 
BRANCH  91  93
ATOM     93  C   ALA d   1      16.390  23.138 -16.147  0.00  0.00     0.196 C 
ATOM     94  O   ALA d   1      16.117  23.560 -17.273  0.00  0.00    -0.646 OA
ATOM     95  OXT ALA d   1      17.294  22.308 -16.033  0.00  0.00    -0.646 OA
ENDBRANCH  91  93
BRANCH  91  96
ATOM     96  CB  ALA d   1      16.264  24.903 -14.386  0.00  0.00    -0.048 C 
ATOM     97  H59 ALA d   1      16.296  25.662 -15.182  0.00  0.00     0.030 H 
ATOM     98  H60 ALA d   1      17.287  24.685 -14.047  0.00  0.00     0.030 H 
ATOM     99  H61 ALA d   1      15.671  25.282 -13.541  0.00  0.00     0.030 H 
ENDBRANCH  91  96
ENDBRANCH  89  91
ENDBRANCH  85  87
BRANCH  85 100
ATOM    100  CB  THR d   1      16.409  19.752 -12.899  0.00  0.00     0.060 C 
ATOM    101  H52 THR d   1      17.216  20.499 -12.896  0.00  0.00     0.086 H 
BRANCH 100 102
ATOM    102  OG1 THR d   1      16.513  18.925 -14.052  0.00  0.00    -0.393 OA
ATOM    103  H53 THR d   1      17.355  18.485 -14.050  0.00  0.00     0.210 HD
ENDBRANCH 100 102
BRANCH 100 104
ATOM    104  CG2 THR d   1      16.522  18.865 -11.675  0.00  0.00    -0.050 C 
ATOM    105  H54 THR d   1      17.499  18.360 -11.677  0.00  0.00     0.031 H 
ATOM    106  H55 THR d   1      15.720  18.112 -11.692  0.00  0.00     0.031 H 
ATOM    107  H56 THR d   1      16.429  19.479 -10.767  0.00  0.00     0.031 H 
ENDBRANCH 100 104
ENDBRANCH  85 100
ENDBRANCH  83  85
ENDBRANCH  79  81
BRANCH  79 108
ATOM    108  CB  GLN d   1      10.544  18.889 -11.751  0.00  0.00    -0.030 C 
ATOM    109  H44 GLN d   1      10.199  19.931 -11.826  0.00  0.00     0.037 H 
ATOM    110  H45 GLN d   1      10.858  18.680 -10.718  0.00  0.00     0.037 H 
BRANCH 108 111
ATOM    111  CG  GLN d   1       9.417  17.956 -12.133  0.00  0.00     0.011 C 
ATOM    112  H46 GLN d   1       9.797  16.925 -12.078  0.00  0.00     0.047 H 
ATOM    113  H47 GLN d   1       9.125  18.184 -13.168  0.00  0.00     0.047 H 
BRANCH 111 114
ATOM    114  CD  GLN d   1       8.171  18.042 -11.265  0.00  0.00     0.215 C 
ATOM    115  OE1 GLN d   1       8.166  18.623 -10.169  0.00  0.00    -0.274 OA
ATOM    116  NE2 GLN d   1       7.111  17.442 -11.753  0.00  0.00    -0.370 N 
ATOM    117  H48 GLN d   1       6.251  17.453 -11.243  0.00  0.00     0.159 HD
ATOM    118  H49 GLN d   1       7.163  16.974 -12.635  0.00  0.00     0.159 HD
ENDBRANCH 111 114
ENDBRANCH 108 111
ENDBRANCH  79 108
ENDBRANCH  77  79
ENDBRANCH   1  75
TORSDOF 35
