REMARK  23 active torsions:
REMARK  status: ('A' for Active; 'I' for Inactive)
REMARK    1  A    between atoms: N_1  and  CA_2 
REMARK    2  A    between atoms: CA_8  and  CB_11 
REMARK    3  A    between atoms: CB_11  and  OG_12 
REMARK    4  A    between atoms: CA_14  and  CB_17 
REMARK    5  A    between atoms: CA_19  and  CB_20 
REMARK    6  A    between atoms: CB_20  and  CG'_22 
REMARK    7  A    between atoms: CG'_22  and  CG_21 
REMARK    8  A    between atoms: CG_21  and  CD_23 
REMARK    9  A    between atoms: CD_23  and  NE_24 
REMARK       I    between atoms: NE_24  and  CZ_25 
REMARK       I    between atoms: CZ_25  and  NH1_26 
REMARK   10  A    between atoms: CA_35  and  CB_38 
REMARK   11  A    between atoms: CB_38  and  CG_39 
REMARK   12  A    between atoms: CG_39  and  CD1_40 
REMARK   13  A    between atoms: CG_39  and  CD2_41 
REMARK   14  A    between atoms: CA_43  and  CB_46 
REMARK   15  A    between atoms: CB_46  and  CG_47 
REMARK   16  A    between atoms: CG_47  and  CD_48 
REMARK   17  A    between atoms: CA_52  and  CB_55 
REMARK   18  A    between atoms: CB_55  and  CG_56 
REMARK       I    between atoms: CG_56  and  ND2_58 
REMARK   19  A    between atoms: CA_60  and  CB_63 
REMARK   20  A    between atoms: CB_63  and  CG_64 
REMARK   21  A    between atoms: CA_70  and  CB_73 
REMARK   22  A    between atoms: CA_75  and  CB_78 
REMARK   23  A    between atoms: CA_80  and  C_81 
ROOT
ATOM      1  CA  CYS d   1       0.295 -26.794 -16.145  0.00  0.00     0.184 C 
ATOM      2  C   CYS d   1      -1.122 -27.301 -15.887  0.00  0.00     0.249 C 
ATOM      3  O   CYS d   1      -1.756 -26.891 -14.922  0.00  0.00    -0.271 OA
ATOM      4  CB  CYS d   1       0.212 -25.466 -16.916  0.00  0.00     0.021 C 
ATOM      5  SG  CYS d   1       1.707 -24.432 -16.850  0.00  0.00    -0.095 SA
ATOM      6  N   CYS d   1       2.346 -20.570 -15.410  0.00  0.00    -0.344 N 
ATOM      7  CA  CYS d   1       1.089 -21.279 -15.733  0.00  0.00     0.105 C 
ATOM      8  CB  CYS d   1       0.823 -22.415 -14.733  0.00  0.00     0.015 C 
ATOM      9  SG  CYS d   1       1.908 -23.858 -14.900  0.00  0.00    -0.095 SA
ATOM     10  H4  CYS d   1       0.759 -26.592 -15.168  0.00  0.00     0.100 H 
ATOM     11  H5  CYS d   1      -0.623 -24.883 -16.499  0.00  0.00     0.054 H 
ATOM     12  H6  CYS d   1       0.006 -25.698 -17.971  0.00  0.00     0.054 H 
ATOM     13  H75 CYS d   1       2.438 -20.143 -14.510  0.00  0.00     0.163 HD
ATOM     14  H76 CYS d   1       1.199 -21.717 -16.736  0.00  0.00     0.090 H 
ATOM     15  H77 CYS d   1      -0.215 -22.752 -14.869  0.00  0.00     0.054 H 
ATOM     16  H78 CYS d   1       0.948 -22.011 -13.717  0.00  0.00     0.054 H 
ATOM     17  N   SER d   1      -1.602 -28.189 -16.754  0.00  0.00    -0.344 N 
ATOM     18  CA  SER d   1      -2.946 -28.771 -16.649  0.00  0.00     0.109 C 
ATOM     19  C   SER d   1      -3.039 -29.882 -15.590  0.00  0.00     0.243 C 
ATOM     20  O   SER d   1      -4.138 -30.384 -15.278  0.00  0.00    -0.271 OA
ATOM     21  H7  SER d   1      -1.019 -28.474 -17.515  0.00  0.00     0.163 HD
ATOM     22  H8  SER d   1      -3.648 -27.971 -16.372  0.00  0.00     0.090 H 
ATOM     23  N   ALA d   1      -1.876 -30.229 -15.017  0.00  0.00    -0.346 N 
ATOM     24  CA  ALA d   1      -1.688 -31.350 -14.082  0.00  0.00     0.086 C 
ATOM     25  C   ALA d   1      -0.933 -30.994 -12.783  0.00  0.00     0.240 C 
ATOM     26  O   ALA d   1      -0.466 -29.879 -12.604  0.00  0.00    -0.271 OA
ATOM     27  N   ALA d   1       4.233 -19.181 -11.676  0.00  0.00    -0.346 N 
ATOM     28  CA  ALA d   1       4.056 -17.949 -12.439  0.00  0.00     0.086 C 
ATOM     29  C   ALA d   1       3.910 -18.218 -13.942  0.00  0.00     0.240 C 
ATOM     30  O   ALA d   1       3.143 -17.538 -14.624  0.00  0.00    -0.271 OA
ATOM     31  N   ALA d   1       4.615 -19.237 -14.435  0.00  0.00    -0.346 N 
ATOM     32  CA  ALA d   1       4.579 -19.618 -15.855  0.00  0.00     0.086 C 
ATOM     33  C   ALA d   1       3.366 -20.475 -16.271  0.00  0.00     0.240 C 
ATOM     34  O   ALA d   1       3.368 -21.049 -17.369  0.00  0.00    -0.271 OA
ATOM     35  H12 ALA d   1      -1.071 -29.681 -15.244  0.00  0.00     0.163 HD
ATOM     36  H13 ALA d   1      -2.692 -31.689 -13.788  0.00  0.00     0.086 H 
ATOM     37  H65 ALA d   1       5.065 -19.301 -11.134  0.00  0.00     0.163 HD
ATOM     38  H66 ALA d   1       3.128 -17.469 -12.095  0.00  0.00     0.086 H 
ATOM     39  H70 ALA d   1       5.193 -19.765 -13.812  0.00  0.00     0.163 HD
ATOM     40  H71 ALA d   1       4.530 -18.686 -16.437  0.00  0.00     0.086 H 
ATOM     41  N   HRG d   1      -0.601 -32.052 -12.021  0.00  0.00    -0.346 N 
ATOM     42  CA  HRG d   1       0.202 -31.969 -10.806  0.00  0.00     0.089 C 
ATOM     43  C   HRG d   1       1.707 -31.721 -10.924  0.00  0.00     0.240 C 
ATOM     44  O   HRG d   1       2.387 -32.409 -11.702  0.00  0.00    -0.271 OA
ATOM     45  H17 HRG d   1      -0.926 -32.954 -12.306  0.00  0.00     0.163 HD
ATOM     46  H18 HRG d   1      -0.232 -31.161 -10.199  0.00  0.00     0.087 H 
ATOM     47  N   GLY d   1       2.179 -30.764 -10.110  0.00  0.00    -0.351 N 
ATOM     48  CA  GLY d   1       3.494 -30.249  -9.880  0.00  0.00     0.069 C 
ATOM     49  C   GLY d   1       3.757 -28.795 -10.214  0.00  0.00     0.236 C 
ATOM     50  O   GLY d   1       4.727 -28.235  -9.795  0.00  0.00    -0.272 OA
ATOM     51  H32 GLY d   1       1.473 -30.324  -9.555  0.00  0.00     0.163 HD
ATOM     52  H33 GLY d   1       4.191 -30.853 -10.479  0.00  0.00     0.078 H 
ATOM     53  H34 GLY d   1       3.716 -30.384  -8.811  0.00  0.00     0.078 H 
ATOM     54  N   LEU d   1       2.908 -28.184 -10.919  0.00  0.00    -0.346 N 
ATOM     55  CA  LEU d   1       3.012 -26.775 -11.296  0.00  0.00     0.089 C 
ATOM     56  C   LEU d   1       1.918 -25.899 -10.693  0.00  0.00     0.241 C 
ATOM     57  O   LEU d   1       1.790 -24.731 -11.117  0.00  0.00    -0.271 OA
ATOM     58  H35 LEU d   1       2.112 -28.697 -11.241  0.00  0.00     0.163 HD
ATOM     59  H36 LEU d   1       3.975 -26.407 -10.913  0.00  0.00     0.087 H 
ATOM     60  N   GLU d   1       1.156 -26.410  -9.700  0.00  0.00    -0.346 N 
ATOM     61  CA  GLU d   1       0.154 -25.547  -9.057  0.00  0.00     0.090 C 
ATOM     62  C   GLU d   1       0.852 -24.260  -8.550  0.00  0.00     0.241 C 
ATOM     63  O   GLU d   1       1.984 -24.334  -8.078  0.00  0.00    -0.271 OA
ATOM     64  H46 GLU d   1       1.272 -27.359  -9.408  0.00  0.00     0.163 HD
ATOM     65  H47 GLU d   1      -0.571 -25.262  -9.833  0.00  0.00     0.087 H 
ATOM     66  N   ASN d   1       0.179 -23.109  -8.654  0.00  0.00    -0.346 N 
ATOM     67  CA  ASN d   1       0.725 -21.837  -8.139  0.00  0.00     0.097 C 
ATOM     68  C   ASN d   1       2.110 -21.463  -8.746  0.00  0.00     0.241 C 
ATOM     69  O   ASN d   1       3.002 -21.006  -8.009  0.00  0.00    -0.271 OA
ATOM     70  H52 ASN d   1      -0.720 -23.110  -9.093  0.00  0.00     0.163 HD
ATOM     71  H53 ASN d   1       0.019 -21.037  -8.408  0.00  0.00     0.088 H 
ATOM     72  N   HIS d   1       2.294 -21.657 -10.064  0.00  0.00    -0.346 N 
ATOM     73  CA  HIS d   1       3.572 -21.304 -10.709  0.00  0.00     0.094 C 
ATOM     74  C   HIS d   1       3.319 -20.150 -11.680  0.00  0.00     0.241 C 
ATOM     75  O   HIS d   1       2.319 -20.150 -12.426  0.00  0.00    -0.271 OA
ATOM     76  H58 HIS d   1       1.554 -22.046 -10.614  0.00  0.00     0.163 HD
ATOM     77  H59 HIS d   1       4.285 -20.983  -9.935  0.00  0.00     0.088 H 
ENDROOT
BRANCH  42  78
ATOM     78  CB  HRG d   1       0.156 -33.272 -10.036  0.00  0.00    -0.038 C 
ATOM     79  H19 HRG d   1       0.718 -33.146  -9.099  0.00  0.00     0.036 H 
ATOM     80  H20 HRG d   1       0.629 -34.056 -10.645  0.00  0.00     0.036 H 
BRANCH  78  81
ATOM     81  CG' HRG d   1      -1.235 -33.701  -9.703  0.00  0.00    -0.061 C 
ATOM     82  H23 HRG d   1      -1.740 -34.052 -10.615  0.00  0.00     0.033 H 
ATOM     83  H24 HRG d   1      -1.790 -32.851  -9.281  0.00  0.00     0.033 H 
BRANCH  81  84
ATOM     84  CG  HRG d   1      -1.184 -34.823  -8.691  0.00  0.00    -0.050 C 
ATOM     85  H21 HRG d   1      -2.212 -35.001  -8.342  0.00  0.00     0.035 H 
ATOM     86  H22 HRG d   1      -0.564 -34.482  -7.849  0.00  0.00     0.035 H 
BRANCH  84  87
ATOM     87  CD  HRG d   1      -0.628 -36.143  -9.158  0.00  0.00     0.009 C 
ATOM     88  H25 HRG d   1      -0.822 -36.885  -8.370  0.00  0.00     0.064 H 
ATOM     89  H26 HRG d   1       0.458 -36.021  -9.288  0.00  0.00     0.064 H 
BRANCH  87  90
ATOM     90  NE  HRG d   1      -1.151 -36.654 -10.367  0.00  0.00    -0.227 N 
ATOM     91  CZ  HRG d   1      -1.500 -37.896 -10.503  0.00  0.00     0.665 C 
ATOM     92  NH1 HRG d   1      -1.463 -38.447 -11.619  0.00  0.00    -0.235 N 
ATOM     93  NH2 HRG d   1      -1.899 -38.541  -9.440  0.00  0.00    -0.235 N 
ATOM     94  H28 HRG d   1      -1.742 -39.434 -11.716  0.00  0.00     0.174 HD
ATOM     95  H29 HRG d   1      -1.153 -37.916 -12.445  0.00  0.00     0.174 HD
ATOM     96  H30 HRG d   1      -1.921 -38.065  -8.527  0.00  0.00     0.174 HD
ATOM     97  H31 HRG d   1      -2.191 -39.526  -9.515  0.00  0.00     0.174 HD
ATOM     98  H27 HRG d   1      -1.259 -36.017 -11.169  0.00  0.00     0.177 HD
ENDBRANCH  87  90
ENDBRANCH  84  87
ENDBRANCH  81  84
ENDBRANCH  78  81
ENDBRANCH  42  78
BRANCH  24  99
ATOM     99  CB  ALA d   1      -0.983 -32.517 -14.769  0.00  0.00    -0.049 C 
ATOM    100  H14 ALA d   1      -0.854 -33.341 -14.052  0.00  0.00     0.030 H 
ATOM    101  H15 ALA d   1       0.002 -32.188 -15.131  0.00  0.00     0.030 H 
ATOM    102  H16 ALA d   1      -1.589 -32.863 -15.619  0.00  0.00     0.030 H 
ENDBRANCH  24  99
BRANCH  18 103
ATOM    103  CB  SER d   1      -3.346 -29.336 -18.004  0.00  0.00     0.044 C 
ATOM    104  H9  SER d   1      -3.314 -28.534 -18.756  0.00  0.00     0.077 H 
ATOM    105  H10 SER d   1      -4.367 -29.741 -17.943  0.00  0.00     0.077 H 
BRANCH 103 106
ATOM    106  OG  SER d   1      -2.454 -30.370 -18.382  0.00  0.00    -0.398 OA
ATOM    107  H11 SER d   1      -2.712 -30.716 -19.228  0.00  0.00     0.209 HD
ENDBRANCH 103 106
ENDBRANCH  18 103
BRANCH  55 108
ATOM    108  CB  LEU d   1       3.020 -26.615 -12.839  0.00  0.00    -0.035 C 
ATOM    109  H37 LEU d   1       3.182 -25.552 -13.072  0.00  0.00     0.037 H 
ATOM    110  H38 LEU d   1       2.037 -26.928 -13.220  0.00  0.00     0.037 H 
BRANCH 108 111
ATOM    111  CG  LEU d   1       4.094 -27.430 -13.566  0.00  0.00    -0.059 C 
ATOM    112  H39 LEU d   1       3.884 -28.497 -13.403  0.00  0.00     0.038 H 
BRANCH 111 113
ATOM    113  CD1 LEU d   1       4.016 -27.136 -15.066  0.00  0.00    -0.073 C 
ATOM    114  H40 LEU d   1       4.785 -27.718 -15.594  0.00  0.00     0.028 H 
ATOM    115  H41 LEU d   1       4.186 -26.063 -15.239  0.00  0.00     0.028 H 
ATOM    116  H42 LEU d   1       3.021 -27.415 -15.443  0.00  0.00     0.028 H 
ENDBRANCH 111 113
BRANCH 111 117
ATOM    117  CD2 LEU d   1       5.495 -27.142 -13.053  0.00  0.00    -0.073 C 
ATOM    118  H43 LEU d   1       5.542 -27.356 -11.975  0.00  0.00     0.028 H 
ATOM    119  H44 LEU d   1       5.739 -26.084 -13.228  0.00  0.00     0.028 H 
ATOM    120  H45 LEU d   1       6.218 -27.778 -13.585  0.00  0.00     0.028 H 
ENDBRANCH 111 117
ENDBRANCH 108 111
ENDBRANCH  55 108
BRANCH   1 121
ATOM    121  N   CYS d   1       1.178 -27.794 -16.858  0.00  0.00    -0.066 N 
ATOM    122  H1  CYS d   1       2.094 -27.396 -16.995  0.00  0.00     0.275 HD
ATOM    123  H2  CYS d   1       0.773 -28.022 -17.753  0.00  0.00     0.275 HD
ATOM    124  H3  CYS d   1       1.255 -28.631 -16.301  0.00  0.00     0.275 HD
ENDBRANCH   1 121
BRANCH  61 125
ATOM    125  CB  GLU d   1      -0.655 -26.195  -7.902  0.00  0.00    -0.029 C 
ATOM    126  H48 GLU d   1      -1.701 -26.210  -8.243  0.00  0.00     0.037 H 
ATOM    127  H49 GLU d   1      -0.557 -25.508  -7.049  0.00  0.00     0.037 H 
BRANCH 125 128
ATOM    128  CG  GLU d   1      -0.381 -27.605  -7.336  0.00  0.00     0.018 C 
ATOM    129  H50 GLU d   1      -0.991 -27.722  -6.428  0.00  0.00     0.049 H 
ATOM    130  H51 GLU d   1       0.685 -27.654  -7.070  0.00  0.00     0.049 H 
BRANCH 128 131
ATOM    131  CD  GLU d   1      -0.680 -28.782  -8.243  0.00  0.00     0.172 C 
ATOM    132  OE1 GLU d   1      -1.616 -29.696  -8.023  0.00  0.00    -0.648 OA
ATOM    133  OE2 GLU d   1       0.171 -28.885  -9.076  0.00  0.00    -0.648 OA
ENDBRANCH 128 131
ENDBRANCH 125 128
ENDBRANCH  61 125
BRANCH  67 134
ATOM    134  CB  ASN d   1       0.816 -21.906  -6.592  0.00  0.00     0.036 C 
ATOM    135  H54 ASN d   1       1.646 -22.576  -6.322  0.00  0.00     0.051 H 
ATOM    136  H55 ASN d   1      -0.128 -22.319  -6.207  0.00  0.00     0.051 H 
BRANCH 134 137
ATOM    137  CG  ASN d   1       1.057 -20.542  -5.926  0.00  0.00     0.217 C 
ATOM    138  OD1 ASN d   1       0.511 -19.535  -6.367  0.00  0.00    -0.274 OA
ATOM    139  ND2 ASN d   1       1.795 -20.531  -4.784  0.00  0.00    -0.370 N 
ATOM    140  H56 ASN d   1       1.978 -19.667  -4.315  0.00  0.00     0.159 HD
ATOM    141  H57 ASN d   1       2.155 -21.387  -4.413  0.00  0.00     0.159 HD
ENDBRANCH 134 137
ENDBRANCH  67 134
BRANCH   7 142
ATOM    142  C   CYS d   1      -0.115 -20.342 -15.752  0.00  0.00     0.197 C 
ATOM    143  O   CYS d   1      -0.082 -19.219 -15.242  0.00  0.00    -0.646 OA
ATOM    144  OXT CYS d   1      -1.162 -20.710 -16.281  0.00  0.00    -0.646 OA
ENDBRANCH   7 142
BRANCH  73 145
ATOM    145  CB  HIS d   1       4.180 -22.493 -11.482  0.00  0.00     0.004 C 
ATOM    146  H60 HIS d   1       4.888 -22.095 -12.223  0.00  0.00     0.046 H 
ATOM    147  H61 HIS d   1       3.365 -23.020 -11.999  0.00  0.00     0.046 H 
BRANCH 145 148
ATOM    148  CG  HIS d   1       4.909 -23.486 -10.623  0.00  0.00     0.053 A 
ATOM    149  ND1 HIS d   1       6.219 -23.855 -10.858  0.00  0.00    -0.247 NA
ATOM    150  CE1 HIS d   1       6.602 -24.735  -9.949  0.00  0.00     0.064 A 
ATOM    151  NE2 HIS d   1       5.588 -24.968  -9.138  0.00  0.00    -0.359 N 
ATOM    152  H63 HIS d   1       7.589 -25.191  -9.881  0.00  0.00     0.143 H 
ATOM    153  CD2 HIS d   1       4.517 -24.189  -9.530  0.00  0.00     0.002 A 
ATOM    154  H64 HIS d   1       5.594 -25.623  -8.343  0.00  0.00     0.166 HD
ATOM    155  H62 HIS d   1       3.540 -24.147  -9.051  0.00  0.00     0.114 H 
ENDBRANCH 145 148
ENDBRANCH  73 145
BRANCH  32 156
ATOM    156  CB  ALA d   1       5.866 -20.340 -16.225  0.00  0.00    -0.049 C 
ATOM    157  H72 ALA d   1       5.835 -20.623 -17.288  0.00  0.00     0.030 H 
ATOM    158  H73 ALA d   1       5.970 -21.244 -15.607  0.00  0.00     0.030 H 
ATOM    159  H74 ALA d   1       6.724 -19.675 -16.048  0.00  0.00     0.030 H 
ENDBRANCH  32 156
BRANCH  28 160
ATOM    160  CB  ALA d   1       5.217 -16.992 -12.161  0.00  0.00    -0.049 C 
ATOM    161  H67 ALA d   1       5.076 -16.067 -12.739  0.00  0.00     0.030 H 
ATOM    162  H68 ALA d   1       6.164 -17.468 -12.456  0.00  0.00     0.030 H 
ATOM    163  H69 ALA d   1       5.246 -16.753 -11.088  0.00  0.00     0.030 H 
ENDBRANCH  28 160
TORSDOF 23
