REMARK  24 active torsions:
REMARK  status: ('A' for Active; 'I' for Inactive)
REMARK    1  A    between atoms: CA_2  and  N_1 
REMARK    2  A    between atoms: CA_2  and  C_3 
REMARK    3  A    between atoms: CB_5  and  CA_2 
REMARK       I    between atoms: C_3  and  N_7 
REMARK    4  A    between atoms: SG_6  and  CB_5 
REMARK    5  A    between atoms: SG_44  and  SG_6 
REMARK    6  A    between atoms: N_7  and  CA_8 
REMARK    7  A    between atoms: CA_8  and  C_9 
REMARK    8  A    between atoms: CA_8  and  CB_11 
REMARK       I    between atoms: C_9  and  N_13 
REMARK    9  A    between atoms: CB_11  and  OG_12 
REMARK   10  A    between atoms: N_13  and  CA_14 
REMARK   11  A    between atoms: CA_14  and  C_15 
REMARK   12  A    between atoms: CA_14  and  CB_17 
REMARK       I    between atoms: C_15  and  N_26 
REMARK       I    between atoms: C10_24  and  N3_19 
REMARK   13  A    between atoms: CB_21  and  CG_20 
REMARK   14  A    between atoms: CA_22  and  CB_21 
REMARK   15  A    between atoms: CA_22  and  C_23 
REMARK   16  A    between atoms: N_26  and  CA_22 
REMARK       I    between atoms: N2_31  and  C10_24 
REMARK   17  A    between atoms: CZ_29  and  N2_31 
REMARK   18  A    between atoms: CA_35  and  N_34 
REMARK   19  A    between atoms: C_36  and  CA_35 
REMARK   20  A    between atoms: CA_35  and  CB_38 
REMARK       I    between atoms: N_39  and  C_36 
REMARK   21  A    between atoms: CA_40  and  N_39 
REMARK   22  A    between atoms: CA_40  and  C_41 
REMARK   23  A    between atoms: CB_43  and  CA_40 
REMARK   24  A    between atoms: CB_43  and  SG_44 
ROOT
ATOM      1  CA  SER d   1     -31.198 -11.237  -0.287  0.00  0.00     0.109 C 
ATOM      2  H8  SER d   1     -31.244 -12.089   0.407  0.00  0.00     0.090 H 
ENDROOT
BRANCH   1   3
ATOM      3  N   SER d   1     -30.405 -10.200   0.299  0.00  0.00    -0.344 N 
ATOM      4  C   CYS d   1     -29.536 -10.434   1.274  0.00  0.00     0.249 C 
ATOM      5  O   CYS d   1     -29.361 -11.559   1.743  0.00  0.00    -0.271 OA
ATOM      6  H7  SER d   1     -30.510  -9.265  -0.039  0.00  0.00     0.163 HD
BRANCH   4   7
ATOM      7  CA  CYS d   1     -28.757  -9.236   1.805  0.00  0.00     0.184 C 
ATOM      8  H4  CYS d   1     -29.279  -8.319   1.495  0.00  0.00     0.100 H 
BRANCH   7   9
ATOM      9  N   CYS d   1     -28.692  -9.254   3.262  0.00  0.00    -0.066 N 
ATOM     10  H1  CYS d   1     -28.173  -8.453   3.585  0.00  0.00     0.275 HD
ATOM     11  H2  CYS d   1     -28.233 -10.098   3.567  0.00  0.00     0.275 HD
ATOM     12  H3  CYS d   1     -29.626  -9.224   3.640  0.00  0.00     0.275 HD
ENDBRANCH   7   9
BRANCH   7  13
ATOM     13  CB  CYS d   1     -27.349  -9.217   1.206  0.00  0.00     0.021 C 
ATOM     14  H5  CYS d   1     -27.444  -9.301   0.113  0.00  0.00     0.054 H 
ATOM     15  H6  CYS d   1     -26.803 -10.089   1.595  0.00  0.00     0.054 H 
BRANCH  13  16
ATOM     16  SG  CYS d   1     -26.375  -7.745   1.568  0.00  0.00    -0.095 SA
BRANCH  16  17
ATOM     17  SG  CYS d   1     -26.907  -5.843   2.136  0.00  0.00    -0.095 SA
BRANCH  17  18
ATOM     18  CB  CYS d   1     -27.445  -4.805   0.756  0.00  0.00     0.015 C 
ATOM     19  H39 CYS d   1     -28.043  -3.976   1.162  0.00  0.00     0.054 H 
ATOM     20  H40 CYS d   1     -26.550  -4.402   0.259  0.00  0.00     0.054 H 
BRANCH  18  21
ATOM     21  CA  CYS d   1     -28.287  -5.535  -0.292  0.00  0.00     0.105 C 
ATOM     22  H38 CYS d   1     -28.403  -6.582   0.023  0.00  0.00     0.090 H 
BRANCH  21  23
ATOM     23  N   CYS d   1     -27.617  -5.521  -1.587  0.00  0.00    -0.344 N 
ATOM     24  C   CYS d   1     -27.325  -6.544  -2.357  0.00  0.00     0.248 C 
ATOM     25  O   CYS d   1     -27.464  -7.694  -2.001  0.00  0.00    -0.271 OA
ATOM     26  H37 CYS d   1     -27.347  -4.622  -1.931  0.00  0.00     0.163 HD
BRANCH  24  27
ATOM     27  CA  CYS d   1     -26.715  -6.165  -3.726  0.00  0.00     0.172 C 
ATOM     28  H33 CYS d   1     -25.835  -5.546  -3.496  0.00  0.00     0.098 H 
BRANCH  27  29
ATOM     29  N   CYS d   1     -26.225  -7.264  -4.536  0.00  0.00    -0.067 N 
ATOM     30  H30 CYS d   1     -25.852  -6.904  -5.400  0.00  0.00     0.275 HD
ATOM     31  H31 CYS d   1     -26.983  -7.898  -4.736  0.00  0.00     0.275 HD
ATOM     32  H32 CYS d   1     -25.500  -7.754  -4.035  0.00  0.00     0.275 HD
ENDBRANCH  27  29
BRANCH  27  33
ATOM     33  CB  CYS d   1     -27.661  -5.296  -4.537  0.00  0.00    -0.042 C 
ATOM     34  H34 CYS d   1     -28.025  -4.467  -3.912  0.00  0.00     0.030 H 
ATOM     35  H35 CYS d   1     -28.515  -5.901  -4.877  0.00  0.00     0.030 H 
ATOM     36  H36 CYS d   1     -27.129  -4.890  -5.410  0.00  0.00     0.030 H 
ENDBRANCH  27  33
ENDBRANCH  24  27
ENDBRANCH  21  23
BRANCH  21  37
ATOM     37  C   CYS d   1     -29.674  -4.905  -0.381  0.00  0.00     0.197 C 
ATOM     38  O   CYS d   1     -30.134  -4.676  -1.551  0.00  0.00    -0.646 OA
ATOM     39  OXT CYS d   1     -30.269  -4.652   0.719  0.00  0.00    -0.646 OA
ENDBRANCH  21  37
ENDBRANCH  18  21
ENDBRANCH  17  18
ENDBRANCH  16  17
ENDBRANCH  13  16
ENDBRANCH   7  13
ENDBRANCH   4   7
ENDBRANCH   1   3
BRANCH   1  40
ATOM     40  C   SER d   1     -30.568 -11.695  -1.591  0.00  0.00     0.243 C 
ATOM     41  O   SER d   1     -30.904 -12.715  -2.084  0.00  0.00    -0.271 OA
ATOM     42  N   ALA d   1     -29.647 -10.919  -2.115  0.00  0.00    -0.346 N 
ATOM     43  H12 ALA d   1     -29.338 -10.134  -1.577  0.00  0.00     0.163 HD
BRANCH  42  44
ATOM     44  CA  ALA d   1     -29.041 -11.125  -3.436  0.00  0.00     0.086 C 
ATOM     45  H13 ALA d   1     -29.853 -11.272  -4.164  0.00  0.00     0.086 H 
BRANCH  44  46
ATOM     46  C   ALA d   1     -28.141 -12.332  -3.478  0.00  0.00     0.240 C 
ATOM     47  O   ALA d   1     -27.408 -12.623  -2.537  0.00  0.00    -0.271 OA
ATOM     48  N   7XC d   1     -28.320 -13.807  -3.847  0.00  0.00    -0.344 N 
ATOM     49  H23 7XC d   1     -28.855 -14.334  -3.186  0.00  0.00     0.163 HD
BRANCH  48  50
ATOM     50  CA  7XC d   1     -27.861 -14.562  -4.962  0.00  0.00     0.100 C 
ATOM     51  H22 7XC d   1     -28.415 -14.039  -5.755  0.00  0.00     0.090 H 
BRANCH  50  52
ATOM     52  CB  7XC d   1     -28.355 -15.980  -5.225  0.00  0.00    -0.013 C 
ATOM     53  H20 7XC d   1     -28.805 -16.009  -6.228  0.00  0.00     0.043 H 
ATOM     54  H21 7XC d   1     -27.490 -16.659  -5.191  0.00  0.00     0.043 H 
BRANCH  52  55
ATOM     55  CG  7XC d   1     -29.388 -16.472  -4.224  0.00  0.00    -0.056 A 
ATOM     56  CD1 7XC d   1     -29.040 -16.697  -2.892  0.00  0.00    -0.075 A 
ATOM     57  CE1 7XC d   1     -29.979 -17.164  -1.986  0.00  0.00    -0.056 A 
ATOM     58  H17 7XC d   1     -28.025 -16.505  -2.562  0.00  0.00     0.084 H 
ATOM     59  CZ  7XC d   1     -31.275 -17.430  -2.390  0.00  0.00     0.049 A 
ATOM     60  H26 7XC d   1     -29.695 -17.322  -0.952  0.00  0.00     0.086 H 
ATOM     61  CE2 7XC d   1     -31.630 -17.221  -3.725  0.00  0.00    -0.056 A 
ATOM     62  CD2 7XC d   1     -30.687 -16.735  -4.626  0.00  0.00    -0.075 A 
ATOM     63  H25 7XC d   1     -32.639 -17.437  -4.059  0.00  0.00     0.086 H 
ATOM     64  H24 7XC d   1     -30.973 -16.560  -5.657  0.00  0.00     0.084 H 
BRANCH  59  65
ATOM     65  N2  7XC d   1     -32.184 -17.921  -1.432  0.00  0.00    -0.193 N 
ATOM     66  C10 7XC d   1     -33.054 -18.908  -1.674  0.00  0.00     0.669 C 
ATOM     67  N3  7XC d   1     -33.160 -19.482  -2.878  0.00  0.00    -0.235 N 
ATOM     68  N4  7XC d   1     -33.864 -19.310  -0.700  0.00  0.00    -0.235 N 
ATOM     69  H18 7XC d   1     -33.841 -20.240  -3.029  0.00  0.00     0.174 HD
ATOM     70  H19 7XC d   1     -32.561 -19.166  -3.654  0.00  0.00     0.174 HD
ATOM     71  H28 7XC d   1     -34.539 -20.069  -0.872  0.00  0.00     0.174 HD
ATOM     72  H29 7XC d   1     -33.817 -18.863   0.227  0.00  0.00     0.174 HD
ATOM     73  H27 7XC d   1     -32.178 -17.497  -0.493  0.00  0.00     0.184 HD
ENDBRANCH  59  65
ENDBRANCH  52  55
ENDBRANCH  50  52
BRANCH  50  74
ATOM     74  C   7XC d   1     -26.434 -14.291  -5.415  0.00  0.00     0.197 C 
ATOM     75  O   7XC d   1     -25.627 -15.225  -5.642  0.00  0.00    -0.646 OA
ATOM     76  OXT 7XC d   1     -26.007 -13.123  -5.580  0.00  0.00    -0.646 OA
ENDBRANCH  50  74
ENDBRANCH  48  50
ENDBRANCH  44  46
BRANCH  44  77
ATOM     77  CB  ALA d   1     -28.232  -9.904  -3.843  0.00  0.00    -0.049 C 
ATOM     78  H14 ALA d   1     -27.785 -10.074  -4.834  0.00  0.00     0.030 H 
ATOM     79  H15 ALA d   1     -27.434  -9.730  -3.106  0.00  0.00     0.030 H 
ATOM     80  H16 ALA d   1     -28.891  -9.024  -3.884  0.00  0.00     0.030 H 
ENDBRANCH  44  77
ENDBRANCH  42  44
ENDBRANCH   1  40
BRANCH   1  81
ATOM     81  CB  SER d   1     -32.599 -10.734  -0.541  0.00  0.00     0.044 C 
ATOM     82  H9  SER d   1     -33.072 -10.493   0.422  0.00  0.00     0.077 H 
ATOM     83  H10 SER d   1     -33.176 -11.523  -1.046  0.00  0.00     0.077 H 
BRANCH  81  84
ATOM     84  OG  SER d   1     -32.595  -9.595  -1.340  0.00  0.00    -0.398 OA
ATOM     85  H11 SER d   1     -33.489  -9.305  -1.480  0.00  0.00     0.209 HD
ENDBRANCH  81  84
ENDBRANCH   1  81
TORSDOF 24
