REMARK  12 active torsions:
REMARK  status: ('A' for Active; 'I' for Inactive)
REMARK    1  A    between atoms: N_1  and  CA_2 
REMARK    2  A    between atoms: CA_2  and  C_3 
REMARK    3  A    between atoms: CA_2  and  CB_6 
REMARK    4  A    between atoms: CB_6  and  CG_7 
REMARK    5  A    between atoms: CG_7  and  SD_8 
REMARK    6  A    between atoms: SD_8  and  CE_9 
REMARK    7  A    between atoms: SD_8  and  C5'_10 
REMARK    8  A    between atoms: C5'_10  and  C4'_11 
REMARK    9  A    between atoms: C3'_13  and  O3'_14 
REMARK   10  A    between atoms: C2'_15  and  O2'_16 
REMARK   11  A    between atoms: C1'_17  and  N9_18 
REMARK   12  A    between atoms: C6_22  and  N6_23 
ROOT
ATOM      1  C4' SAM d   1     -33.762  11.052 -27.496  0.00  0.00     0.076 C 
ATOM      2  O4' SAM d   1     -33.514  11.831 -26.310  0.00  0.00    -0.355 OA
ATOM      3  C3' SAM d   1     -34.107  12.106 -28.523  0.00  0.00     0.090 C 
ATOM      4  C2' SAM d   1     -35.022  12.986 -27.688  0.00  0.00     0.105 C 
ATOM      5  C1' SAM d   1     -34.426  12.930 -26.292  0.00  0.00     0.139 C 
ATOM      6  H14 SAM d   1     -34.623  10.384 -27.345  0.00  0.00     0.088 H 
ATOM      7  H15 SAM d   1     -33.223  12.648 -28.891  0.00  0.00     0.091 H 
ATOM      8  H17 SAM d   1     -35.045  14.016 -28.074  0.00  0.00     0.093 H 
ATOM      9  H19 SAM d   1     -35.232  12.763 -25.563  0.00  0.00     0.122 H 
ENDROOT
BRANCH   1  10
ATOM     10  C5' SAM d   1     -32.539  10.186 -27.853  0.00  0.00    -0.005 C 
ATOM     11  H12 SAM d   1     -32.380   9.456 -27.046  0.00  0.00     0.051 H 
ATOM     12  H13 SAM d   1     -32.750   9.654 -28.792  0.00  0.00     0.051 H 
BRANCH  10  13
ATOM     13  SD  SAM d   1     -30.993  11.167 -28.069  0.00  0.00    -0.221 SA
BRANCH  13  14
ATOM     14  CG  SAM d   1     -30.888  11.602 -29.844  0.00  0.00    -0.029 C 
ATOM     15  H7  SAM d   1     -30.490  10.740 -30.400  0.00  0.00     0.047 H 
ATOM     16  H8  SAM d   1     -31.896  11.843 -30.213  0.00  0.00     0.047 H 
BRANCH  14  17
ATOM     17  CB  SAM d   1     -29.978  12.800 -30.071  0.00  0.00    -0.022 C 
ATOM     18  H5  SAM d   1     -30.480  13.718 -29.732  0.00  0.00     0.037 H 
ATOM     19  H6  SAM d   1     -29.041  12.667 -29.511  0.00  0.00     0.037 H 
BRANCH  17  20
ATOM     20  CA  SAM d   1     -29.676  12.897 -31.576  0.00  0.00     0.183 C 
ATOM     21  H4  SAM d   1     -29.529  11.869 -31.939  0.00  0.00     0.101 H 
BRANCH  20  22
ATOM     22  N   SAM d   1     -28.431  13.636 -31.811  0.00  0.00    -0.065 N 
ATOM     23  H1  SAM d   1     -27.690  13.229 -31.262  0.00  0.00     0.275 HD
ATOM     24  H2  SAM d   1     -28.557  14.600 -31.544  0.00  0.00     0.275 HD
ATOM     25  H3  SAM d   1     -28.190  13.586 -32.789  0.00  0.00     0.275 HD
ENDBRANCH  20  22
BRANCH  20  26
ATOM     26  C   SAM d   1     -30.828  13.519 -32.422  0.00  0.00     0.204 C 
ATOM     27  O   SAM d   1     -30.639  13.535 -33.659  0.00  0.00    -0.646 OA
ATOM     28  OXT SAM d   1     -31.858  13.966 -31.847  0.00  0.00    -0.646 OA
ENDBRANCH  20  26
ENDBRANCH  17  20
ENDBRANCH  14  17
ENDBRANCH  13  14
BRANCH  13  29
ATOM     29  CE  SAM d   1     -29.605  10.091 -27.736  0.00  0.00    -0.042 C 
ATOM     30  H9  SAM d   1     -29.616   9.795 -26.677  0.00  0.00     0.040 H 
ATOM     31  H10 SAM d   1     -28.668  10.622 -27.958  0.00  0.00     0.040 H 
ATOM     32  H11 SAM d   1     -29.677   9.194 -28.368  0.00  0.00     0.040 H 
ENDBRANCH  13  29
ENDBRANCH  10  13
ENDBRANCH   1  10
BRANCH   3  33
ATOM     33  O3' SAM d   1     -34.821  11.504 -29.618  0.00  0.00    -0.390 OA
ATOM     34  H16 SAM d   1     -35.035  12.171 -30.260  0.00  0.00     0.210 HD
ENDBRANCH   3  33
BRANCH   5  35
ATOM     35  N9  SAM d   1     -33.632  14.125 -25.874  0.00  0.00    -0.294 N 
ATOM     36  C8  SAM d   1     -32.302  14.068 -25.690  0.00  0.00     0.071 A 
ATOM     37  N7  SAM d   1     -31.874  15.264 -25.269  0.00  0.00    -0.236 NA
ATOM     38  H20 SAM d   1     -31.676  13.193 -25.856  0.00  0.00     0.144 H 
ATOM     39  C5  SAM d   1     -32.945  16.068 -25.155  0.00  0.00     0.149 A 
ATOM     40  C6  SAM d   1     -33.066  17.359 -24.835  0.00  0.00     0.155 A 
ATOM     41  C4  SAM d   1     -34.029  15.369 -25.540  0.00  0.00     0.167 A 
ATOM     42  N1  SAM d   1     -34.248  17.993 -24.887  0.00  0.00    -0.222 NA
ATOM     43  C2  SAM d   1     -35.401  17.290 -25.200  0.00  0.00     0.091 A 
ATOM     44  N3  SAM d   1     -35.241  15.946 -25.539  0.00  0.00    -0.222 NA
ATOM     45  H23 SAM d   1     -36.377  17.761 -25.182  0.00  0.00     0.146 H 
BRANCH  40  46
ATOM     46  N6  SAM d   1     -31.955  18.004 -24.458  0.00  0.00    -0.382 N 
ATOM     47  H21 SAM d   1     -32.000  19.001 -24.202  0.00  0.00     0.157 HD
ATOM     48  H22 SAM d   1     -31.055  17.504 -24.424  0.00  0.00     0.157 HD
ENDBRANCH  40  46
ENDBRANCH   5  35
BRANCH   4  49
ATOM     49  O2' SAM d   1     -36.406  12.413 -27.659  0.00  0.00    -0.388 OA
ATOM     50  H18 SAM d   1     -36.968  12.971 -27.135  0.00  0.00     0.210 HD
ENDBRANCH   4  49
TORSDOF 12
