REMARK  12 active torsions:
REMARK  status: ('A' for Active; 'I' for Inactive)
REMARK    1  A    between atoms: N_1  and  CA_2 
REMARK    2  A    between atoms: CA_2  and  C_3 
REMARK    3  A    between atoms: CA_2  and  CB_6 
REMARK    4  A    between atoms: CB_6  and  CG_7 
REMARK    5  A    between atoms: CG_7  and  CD_8 
REMARK    6  A    between atoms: CD_8  and  NE_9 
REMARK    7  A    between atoms: CD_8  and  C5'_10 
REMARK    8  A    between atoms: C5'_10  and  C4'_11 
REMARK    9  A    between atoms: C3'_13  and  O3'_14 
REMARK   10  A    between atoms: C2'_15  and  O2'_16 
REMARK   11  A    between atoms: C1'_17  and  N9_18 
REMARK   12  A    between atoms: C6_22  and  N6_23 
ROOT
ATOM      1  C4' SFG d   1     -33.449  10.906 -27.596  0.00  0.00     0.070 C 
ATOM      2  O4' SFG d   1     -33.382  11.627 -26.321  0.00  0.00    -0.355 OA
ATOM      3  C3' SFG d   1     -33.810  11.945 -28.606  0.00  0.00     0.089 C 
ATOM      4  C2' SFG d   1     -34.716  12.895 -27.807  0.00  0.00     0.105 C 
ATOM      5  C1' SFG d   1     -34.169  12.810 -26.388  0.00  0.00     0.139 C 
ATOM      6  H15 SFG d   1     -34.268  10.174 -27.538  0.00  0.00     0.087 H 
ATOM      7  H16 SFG d   1     -32.920  12.478 -28.971  0.00  0.00     0.091 H 
ATOM      8  H18 SFG d   1     -34.671  13.921 -28.201  0.00  0.00     0.093 H 
ATOM      9  H20 SFG d   1     -35.015  12.749 -25.688  0.00  0.00     0.122 H 
ENDROOT
BRANCH   1  10
ATOM     10  C5' SFG d   1     -32.159  10.108 -27.955  0.00  0.00    -0.012 C 
ATOM     11  H13 SFG d   1     -31.940   9.419 -27.126  0.00  0.00     0.040 H 
ATOM     12  H14 SFG d   1     -32.357   9.530 -28.869  0.00  0.00     0.040 H 
BRANCH  10  13
ATOM     13  CD  SFG d   1     -30.909  10.979 -28.199  0.00  0.00     0.102 C 
ATOM     14  H9  SFG d   1     -31.004  11.916 -27.631  0.00  0.00     0.084 H 
BRANCH  13  15
ATOM     15  CG  SFG d   1     -30.730  11.299 -29.694  0.00  0.00    -0.036 C 
ATOM     16  H7  SFG d   1     -30.043  10.569 -30.146  0.00  0.00     0.036 H 
ATOM     17  H8  SFG d   1     -31.705  11.247 -30.200  0.00  0.00     0.036 H 
BRANCH  15  18
ATOM     18  CB  SFG d   1     -30.149  12.712 -29.844  0.00  0.00    -0.027 C 
ATOM     19  H5  SFG d   1     -30.910  13.437 -29.521  0.00  0.00     0.036 H 
ATOM     20  H6  SFG d   1     -29.265  12.795 -29.195  0.00  0.00     0.036 H 
BRANCH  18  21
ATOM     21  CA  SFG d   1     -29.728  13.056 -31.292  0.00  0.00     0.182 C 
ATOM     22  H4  SFG d   1     -30.636  13.149 -31.907  0.00  0.00     0.101 H 
BRANCH  21  23
ATOM     23  N   SFG d   1     -28.850  12.059 -31.910  0.00  0.00    -0.065 N 
ATOM     24  H1  SFG d   1     -29.321  11.168 -31.939  0.00  0.00     0.275 HD
ATOM     25  H2  SFG d   1     -28.004  11.974 -31.368  0.00  0.00     0.275 HD
ATOM     26  H3  SFG d   1     -28.620  12.349 -32.848  0.00  0.00     0.275 HD
ENDBRANCH  21  23
BRANCH  21  27
ATOM     27  C   SFG d   1     -28.982  14.404 -31.261  0.00  0.00     0.204 C 
ATOM     28  O   SFG d   1     -27.754  14.402 -31.009  0.00  0.00    -0.646 OA
ATOM     29  OXT SFG d   1     -29.678  15.422 -31.456  0.00  0.00    -0.646 OA
ENDBRANCH  21  27
ENDBRANCH  18  21
ENDBRANCH  15  18
ENDBRANCH  13  15
BRANCH  13  30
ATOM     30  NE  SFG d   1     -29.734  10.255 -27.766  0.00  0.00    -0.075 N 
ATOM     31  H10 SFG d   1     -29.820  10.030 -26.787  0.00  0.00     0.274 HD
ATOM     32  H11 SFG d   1     -28.916  10.826 -27.909  0.00  0.00     0.274 HD
ATOM     33  H12 SFG d   1     -29.647   9.405 -28.300  0.00  0.00     0.274 HD
ENDBRANCH  13  30
ENDBRANCH  10  13
ENDBRANCH   1  10
BRANCH   3  34
ATOM     34  O3' SFG d   1     -34.458  11.324 -29.693  0.00  0.00    -0.390 OA
ATOM     35  H17 SFG d   1     -34.690  11.981 -30.339  0.00  0.00     0.210 HD
ENDBRANCH   3  34
BRANCH   5  36
ATOM     36  N9  SFG d   1     -33.294  13.926 -25.977  0.00  0.00    -0.294 N 
ATOM     37  C8  SFG d   1     -31.992  13.800 -25.685  0.00  0.00     0.071 A 
ATOM     38  N7  SFG d   1     -31.543  14.968 -25.236  0.00  0.00    -0.236 NA
ATOM     39  H21 SFG d   1     -31.401  12.892 -25.797  0.00  0.00     0.144 H 
ATOM     40  C5  SFG d   1     -32.589  15.819 -25.186  0.00  0.00     0.149 A 
ATOM     41  C6  SFG d   1     -32.717  17.070 -24.708  0.00  0.00     0.155 C 
ATOM     42  C4  SFG d   1     -33.681  15.147 -25.582  0.00  0.00     0.167 A 
ATOM     43  N1  SFG d   1     -33.837  17.761 -24.841  0.00  0.00    -0.222 NA
ATOM     44  C2  SFG d   1     -35.103  17.152 -25.249  0.00  0.00     0.091 C 
ATOM     45  N3  SFG d   1     -34.885  15.734 -25.606  0.00  0.00    -0.222 NA
ATOM     46  H24 SFG d   1     -36.058  17.664 -25.284  0.00  0.00     0.146 H 
BRANCH  41  47
ATOM     47  N6  SFG d   1     -31.607  17.718 -24.331  0.00  0.00    -0.382 N 
ATOM     48  H22 SFG d   1     -31.671  18.677 -23.961  0.00  0.00     0.157 HD
ATOM     49  H23 SFG d   1     -30.689  17.257 -24.411  0.00  0.00     0.157 HD
ENDBRANCH  41  47
ENDBRANCH   5  36
BRANCH   4  50
ATOM     50  O2' SFG d   1     -36.098  12.405 -27.809  0.00  0.00    -0.388 OA
ATOM     51  H19 SFG d   1     -36.645  13.002 -27.312  0.00  0.00     0.210 HD
ENDBRANCH   4  50
TORSDOF 12
