REMARK  7 active torsions:
REMARK  status: ('A' for Active; 'I' for Inactive)
REMARK    1  A    between atoms: C09_13  and  C10_1 
REMARK    2  A    between atoms: C13_2  and  O02_17 
REMARK    3  A    between atoms: C07_10  and  C04_7 
REMARK    4  A    between atoms: C08_11  and  C07_10 
REMARK    5  A    between atoms: C07_10  and  O01_12 
REMARK    6  A    between atoms: C08_11  and  C09_13 
REMARK    7  A    between atoms: C14_16  and  C16_18 
ROOT
ATOM      1  C08 7V6 d   1     -14.126  34.026  -0.759  0.00  0.00    -0.034 C 
ATOM      2  H   7V6 d   1     -13.385  34.818  -0.870  0.00  0.00     0.037 H 
ATOM      3  H   7V6 d   1     -14.146  33.674   0.272  0.00  0.00     0.037 H 
ENDROOT
BRANCH   1   4
ATOM      4  C07 7V6 d   1     -13.757  32.860  -1.681  0.00  0.00     0.061 C 
ATOM      5  H   7V6 d   1     -14.515  32.103  -1.481  0.00  0.00     0.090 H 
BRANCH   4   6
ATOM      6  C04 7V6 d   1     -12.449  32.074  -1.399  0.00  0.00    -0.030 A 
ATOM      7  C03 7V6 d   1     -12.264  30.859  -2.048  0.00  0.00    -0.075 A 
ATOM      8  C02 7V6 d   1     -11.147  30.055  -1.894  0.00  0.00    -0.088 A 
ATOM      9  H   7V6 d   1     -13.049  30.517  -2.722  0.00  0.00     0.084 H 
ATOM     10  C01 7V6 d   1     -10.147  30.483  -1.044  0.00  0.00    -0.119 A 
ATOM     11  H   7V6 d   1     -11.060  29.110  -2.429  0.00  0.00     0.082 H 
ATOM     12  C06 7V6 d   1     -10.290  31.702  -0.370  0.00  0.00    -0.088 A 
ATOM     13  B   7V6 d   1      -8.870  29.586  -0.852  0.00  0.00     0.133 B 
ATOM     14  C05 7V6 d   1     -11.432  32.493  -0.548  0.00  0.00    -0.075 A 
ATOM     15  H   7V6 d   1      -9.502  32.040   0.302  0.00  0.00     0.082 H 
ATOM     16  H   7V6 d   1     -11.524  33.441  -0.018  0.00  0.00     0.084 H 
ENDBRANCH   4   6
BRANCH   4  17
ATOM     17  O01 7V6 d   1     -13.767  33.336  -3.003  0.00  0.00    -0.391 OA
ATOM     18  H   7V6 d   1     -13.538  32.621  -3.601  0.00  0.00     0.210 HD
ENDBRANCH   4  17
ENDBRANCH   1   4
BRANCH   1  19
ATOM     19  C09 7V6 d   1     -15.510  34.575  -1.131  0.00  0.00    -0.038 C 
ATOM     20  H   7V6 d   1     -15.428  34.925  -2.160  0.00  0.00     0.040 H 
ATOM     21  H   7V6 d   1     -16.215  33.765  -0.945  0.00  0.00     0.040 H 
BRANCH  19  22
ATOM     22  C10 7V6 d   1     -16.018  35.774  -0.315  0.00  0.00    -0.057 A 
ATOM     23  C15 7V6 d   1     -16.634  36.836  -0.976  0.00  0.00    -0.058 A 
ATOM     24  C14 7V6 d   1     -17.110  37.938  -0.272  0.00  0.00     0.074 A 
ATOM     25  H   7V6 d   1     -16.744  36.803  -2.060  0.00  0.00     0.086 H 
ATOM     26  C13 7V6 d   1     -16.990  37.985   1.100  0.00  0.00     0.082 A 
ATOM     27  C12 7V6 d   1     -16.385  36.928   1.779  0.00  0.00    -0.049 A 
ATOM     28  C11 7V6 d   1     -15.906  35.826   1.072  0.00  0.00    -0.074 A 
ATOM     29  H   7V6 d   1     -16.286  36.963   2.864  0.00  0.00     0.087 H 
ATOM     30  H   7V6 d   1     -15.441  34.999   1.609  0.00  0.00     0.084 H 
BRANCH  24  31
ATOM     31  C16 7V6 d   1     -17.787  39.108  -0.974  0.00  0.00     0.212 C 
ATOM     32  O03 7V6 d   1     -17.405  40.290  -0.771  0.00  0.00    -0.644 OA
ATOM     33  O04 7V6 d   1     -18.743  38.881  -1.749  0.00  0.00    -0.644 OA
ENDBRANCH  24  31
BRANCH  26  34
ATOM     34  O02 7V6 d   1     -17.485  39.119   1.758  0.00  0.00    -0.360 OA
ATOM     35  H   7V6 d   1     -17.027  39.899   1.437  0.00  0.00     0.217 HD
ENDBRANCH  26  34
ENDBRANCH  19  22
ENDBRANCH   1  19
TORSDOF 7
