REMARK  8 active torsions:
REMARK  status: ('A' for Active; 'I' for Inactive)
REMARK    1  A    between atoms: CAL_2  and  CAK_4 
REMARK    2  A    between atoms: CAK_4  and  OAJ_5 
REMARK    3  A    between atoms: OAJ_5  and  CAA_6 
REMARK    4  A    between atoms: CAI_12  and  CAO_13 
REMARK    5  A    between atoms: CAO_13  and  CAP_15 
REMARK       I    between atoms: CAP_15  and  NAR_17 
REMARK    6  A    between atoms: CAH_18  and  CBE_19 
REMARK    7  A    between atoms: NAG_20  and  CAT_21 
REMARK    8  A    between atoms: CAT_21  and  CAU_22 
ROOT
ATOM      1  CAA 7W9 d   1     -16.091 -18.142  12.218  0.00  0.00     0.083 A 
ATOM      2  CAB 7W9 d   1     -16.798 -18.845  11.226  0.00  0.00    -0.050 A 
ATOM      3  CAC 7W9 d   1     -16.408 -20.130  10.908  0.00  0.00    -0.078 A 
ATOM      4  CAD 7W9 d   1     -15.334 -20.677  11.599  0.00  0.00    -0.056 A 
ATOM      5  CAE 7W9 d   1     -14.676 -19.985  12.547  0.00  0.00     0.049 A 
ATOM      6  CAF 7W9 d   1     -15.034 -18.715  12.874  0.00  0.00     0.041 A 
ATOM      7  CAI 7W9 d   1     -14.181 -18.324  13.859  0.00  0.00     0.057 A 
ATOM      8  CAH 7W9 d   1     -13.338 -19.333  14.090  0.00  0.00     0.024 A 
ATOM      9  NAG 7W9 d   1     -13.624 -20.368  13.283  0.00  0.00    -0.345 N 
ATOM     10  H3  7W9 d   1     -17.637 -18.384  10.718  0.00  0.00     0.087 H 
ATOM     11  H4  7W9 d   1     -16.925 -20.696  10.141  0.00  0.00     0.083 H 
ATOM     12  H5  7W9 d   1     -15.018 -21.688  11.368  0.00  0.00     0.087 H 
ENDROOT
BRANCH   9  13
ATOM     13  CAT 7W9 d   1     -12.964 -21.743  13.159  0.00  0.00     0.025 C 
ATOM     14  H11 7W9 d   1     -13.745 -22.515  13.103  0.00  0.00     0.072 H 
ATOM     15  H12 7W9 d   1     -12.334 -21.922  14.043  0.00  0.00     0.072 H 
BRANCH  13  16
ATOM     16  CAU 7W9 d   1     -12.138 -21.811  11.961  0.00  0.00    -0.029 A 
ATOM     17  CAZ 7W9 d   1     -12.096 -22.880  10.995  0.00  0.00    -0.018 A 
ATOM     18  CBD 7W9 d   1     -12.896 -24.040  11.054  0.00  0.00    -0.072 A 
ATOM     19  CAY 7W9 d   1     -11.217 -22.803   9.876  0.00  0.00    -0.025 A 
ATOM     20  CBC 7W9 d   1     -12.826 -25.046  10.075  0.00  0.00    -0.082 A 
ATOM     21  H13 7W9 d   1     -13.587 -24.160  11.881  0.00  0.00     0.084 H 
ATOM     22  CBB 7W9 d   1     -11.950 -24.936   8.994  0.00  0.00    -0.082 A 
ATOM     23  H14 7W9 d   1     -13.461 -25.920  10.161  0.00  0.00     0.083 H 
ATOM     24  CBA 7W9 d   1     -11.143 -23.808   8.897  0.00  0.00    -0.072 A 
ATOM     25  H15 7W9 d   1     -11.900 -25.716   8.243  0.00  0.00     0.083 H 
ATOM     26  H16 7W9 d   1     -10.456 -23.704   8.065  0.00  0.00     0.084 H 
ATOM     27  CAX 7W9 d   1     -10.389 -21.711   9.706  0.00  0.00    -0.072 A 
ATOM     28  CAW 7W9 d   1     -10.416 -20.685  10.634  0.00  0.00    -0.082 A 
ATOM     29  H17 7W9 d   1      -9.723 -21.658   8.852  0.00  0.00     0.084 H 
ATOM     30  CAV 7W9 d   1     -11.264 -20.734  11.737  0.00  0.00    -0.074 A 
ATOM     31  H18 7W9 d   1      -9.766 -19.828  10.500  0.00  0.00     0.083 H 
ATOM     32  H19 7W9 d   1     -11.249 -19.914  12.446  0.00  0.00     0.084 H 
ENDBRANCH  13  16
ENDBRANCH   9  13
BRANCH   8  33
ATOM     33  CBE 7W9 d   1     -12.197 -19.317  15.125  0.00  0.00    -0.036 C 
ATOM     34  H8  7W9 d   1     -12.189 -18.349  15.647  0.00  0.00     0.035 H 
ATOM     35  H9  7W9 d   1     -11.235 -19.466  14.613  0.00  0.00     0.035 H 
ATOM     36  H10 7W9 d   1     -12.352 -20.125  15.855  0.00  0.00     0.035 H 
ENDBRANCH   8  33
BRANCH   7  37
ATOM     37  CAO 7W9 d   1     -14.162 -17.128  14.510  0.00  0.00     0.252 C 
ATOM     38  OAQ 7W9 d   1     -13.174 -16.395  14.573  0.00  0.00    -0.281 OA
BRANCH  37  39
ATOM     39  CAP 7W9 d   1     -15.436 -16.665  15.231  0.00  0.00     0.290 C 
ATOM     40  OAS 7W9 d   1     -16.465 -17.333  15.244  0.00  0.00    -0.264 OA
ATOM     41  NAR 7W9 d   1     -15.362 -15.468  15.771  0.00  0.00    -0.363 N 
ATOM     42  H6  7W9 d   1     -16.148 -15.091  16.260  0.00  0.00     0.159 HD
ATOM     43  H7  7W9 d   1     -14.519 -14.935  15.693  0.00  0.00     0.159 HD
ENDBRANCH  37  39
ENDBRANCH   7  37
BRANCH   1  44
ATOM     44  OAJ 7W9 d   1     -16.443 -16.859  12.573  0.00  0.00    -0.340 OA
BRANCH  44  45
ATOM     45  CAK 7W9 d   1     -17.255 -15.995  11.737  0.00  0.00     0.105 C 
ATOM     46  H1  7W9 d   1     -16.922 -14.954  11.861  0.00  0.00     0.091 H 
ATOM     47  H2  7W9 d   1     -17.139 -16.295  10.685  0.00  0.00     0.091 H 
BRANCH  45  48
ATOM     48  CAL 7W9 d   1     -18.746 -16.104  12.136  0.00  0.00     0.198 C 
ATOM     49  OAM 7W9 d   1     -19.609 -15.971  11.238  0.00  0.00    -0.646 OA
ATOM     50  OAN 7W9 d   1     -18.996 -16.280  13.346  0.00  0.00    -0.646 OA
ENDBRANCH  45  48
ENDBRANCH  44  45
ENDBRANCH   1  44
TORSDOF 8
