REMARK  8 active torsions:
REMARK  status: ('A' for Active; 'I' for Inactive)
REMARK    1  A    between atoms: CAL_2  and  CAK_4 
REMARK    2  A    between atoms: CAK_4  and  OAJ_5 
REMARK    3  A    between atoms: OAJ_5  and  CAA_6 
REMARK    4  A    between atoms: CAI_12  and  CAO_13 
REMARK    5  A    between atoms: CAO_13  and  CAP_15 
REMARK       I    between atoms: CAP_15  and  NAR_17 
REMARK    6  A    between atoms: CAH_18  and  CAT_19 
REMARK    7  A    between atoms: NAG_20  and  CAU_21 
REMARK    8  A    between atoms: CAU_21  and  CAV_22 
ROOT
ATOM      1  CAA 7W6 d   1     -16.141 -12.199 -12.340  0.00  0.00     0.083 A 
ATOM      2  CAB 7W6 d   1     -16.822 -11.374 -11.430  0.00  0.00    -0.050 A 
ATOM      3  CAC 7W6 d   1     -16.357 -10.096 -11.209  0.00  0.00    -0.078 A 
ATOM      4  CAD 7W6 d   1     -15.236  -9.682 -11.917  0.00  0.00    -0.056 A 
ATOM      5  CAE 7W6 d   1     -14.608 -10.489 -12.784  0.00  0.00     0.049 A 
ATOM      6  CAF 7W6 d   1     -15.037 -11.750 -13.013  0.00  0.00     0.041 A 
ATOM      7  CAI 7W6 d   1     -14.188 -12.262 -13.948  0.00  0.00     0.057 A 
ATOM      8  CAH 7W6 d   1     -13.285 -11.341 -14.246  0.00  0.00     0.024 A 
ATOM      9  NAG 7W6 d   1     -13.531 -10.235 -13.537  0.00  0.00    -0.345 N 
ATOM     10  H3  7W6 d   1     -17.701 -11.737 -10.909  0.00  0.00     0.087 H 
ATOM     11  H4  7W6 d   1     -16.850  -9.435 -10.505  0.00  0.00     0.083 H 
ATOM     12  H5  7W6 d   1     -14.858  -8.678 -11.764  0.00  0.00     0.087 H 
ENDROOT
BRANCH   9  13
ATOM     13  CAU 7W6 d   1     -12.759  -8.907 -13.508  0.00  0.00     0.024 C 
ATOM     14  H11 7W6 d   1     -13.473  -8.074 -13.582  0.00  0.00     0.072 H 
ATOM     15  H12 7W6 d   1     -12.067  -8.874 -14.363  0.00  0.00     0.072 H 
BRANCH  13  16
ATOM     16  CAV 7W6 d   1     -12.014  -8.776 -12.300  0.00  0.00    -0.039 A 
ATOM     17  CBA 7W6 d   1     -11.835  -7.516 -11.694  0.00  0.00    -0.059 A 
ATOM     18  CAZ 7W6 d   1     -11.102  -7.388 -10.501  0.00  0.00     0.011 A 
ATOM     19  H13 7W6 d   1     -12.268  -6.635 -12.153  0.00  0.00     0.086 H 
ATOM     20 BRB  7W6 d   1     -10.842  -5.698  -9.650  0.00  0.00    -0.051 Br
ATOM     21  CAY 7W6 d   1     -10.546  -8.510  -9.898  0.00  0.00    -0.066 A 
ATOM     22  CAX 7W6 d   1     -10.719  -9.757 -10.479  0.00  0.00    -0.081 A 
ATOM     23  H14 7W6 d   1      -9.980  -8.411  -8.979  0.00  0.00     0.085 H 
ATOM     24  CAW 7W6 d   1     -11.439  -9.897 -11.668  0.00  0.00    -0.075 A 
ATOM     25  H15 7W6 d   1     -10.291 -10.633 -10.005  0.00  0.00     0.083 H 
ATOM     26  H16 7W6 d   1     -11.557 -10.880 -12.110  0.00  0.00     0.084 H 
ENDBRANCH  13  16
ENDBRANCH   9  13
BRANCH   8  27
ATOM     27  CAT 7W6 d   1     -12.139 -11.540 -15.246  0.00  0.00    -0.036 C 
ATOM     28  H8  7W6 d   1     -12.196 -12.553 -15.672  0.00  0.00     0.035 H 
ATOM     29  H9  7W6 d   1     -11.176 -11.413 -14.730  0.00  0.00     0.035 H 
ATOM     30  H10 7W6 d   1     -12.224 -10.797 -16.053  0.00  0.00     0.035 H 
ENDBRANCH   8  27
BRANCH   7  31
ATOM     31  CAO 7W6 d   1     -14.222 -13.492 -14.511  0.00  0.00     0.252 C 
ATOM     32  OAQ 7W6 d   1     -13.279 -14.285 -14.507  0.00  0.00    -0.281 OA
BRANCH  31  33
ATOM     33  CAP 7W6 d   1     -15.503 -13.882 -15.235  0.00  0.00     0.290 C 
ATOM     34  OAS 7W6 d   1     -16.454 -13.117 -15.317  0.00  0.00    -0.264 OA
ATOM     35  NAR 7W6 d   1     -15.541 -15.112 -15.684  0.00  0.00    -0.363 N 
ATOM     36  H6  7W6 d   1     -16.350 -15.442 -16.171  0.00  0.00     0.159 HD
ATOM     37  H7  7W6 d   1     -14.761 -15.721 -15.540  0.00  0.00     0.159 HD
ENDBRANCH  31  33
ENDBRANCH   7  31
BRANCH   1  38
ATOM     38  OAJ 7W6 d   1     -16.603 -13.481 -12.579  0.00  0.00    -0.340 OA
BRANCH  38  39
ATOM     39  CAK 7W6 d   1     -17.061 -14.318 -11.475  0.00  0.00     0.105 C 
ATOM     40  H1  7W6 d   1     -16.455 -15.236 -11.450  0.00  0.00     0.091 H 
ATOM     41  H2  7W6 d   1     -16.929 -13.766 -10.533  0.00  0.00     0.091 H 
BRANCH  39  42
ATOM     42  CAL 7W6 d   1     -18.556 -14.709 -11.622  0.00  0.00     0.198 C 
ATOM     43  OAM 7W6 d   1     -19.278 -14.023 -12.382  0.00  0.00    -0.646 OA
ATOM     44  OAN 7W6 d   1     -18.943 -15.724 -10.990  0.00  0.00    -0.646 OA
ENDBRANCH  39  42
ENDBRANCH  38  39
ENDBRANCH   1  38
TORSDOF 8
