REMARK  9 active torsions:
REMARK  status: ('A' for Active; 'I' for Inactive)
REMARK    1  A    between atoms: CAN_2  and  CAM_4 
REMARK    2  A    between atoms: CAM_4  and  OAL_5 
REMARK    3  A    between atoms: OAL_5  and  CAF_6 
REMARK    4  A    between atoms: CAI_12  and  CAK_13 
REMARK    5  A    between atoms: CAK_13  and  CAQ_15 
REMARK       I    between atoms: CAQ_15  and  NAR_17 
REMARK    6  A    between atoms: CAH_18  and  CAJ_19 
REMARK    7  A    between atoms: NAG_20  and  CAU_21 
REMARK    8  A    between atoms: CAU_21  and  CAV_22 
REMARK    9  A    between atoms: CAW_27  and  CBB_28 
ROOT
ATOM      1  CAF 7W3 d   1      16.132  17.948  12.244  0.00  0.00     0.083 A 
ATOM      2  CAA 7W3 d   1      16.833  18.695  11.279  0.00  0.00    -0.050 A 
ATOM      3  CAB 7W3 d   1      16.410  19.975  10.976  0.00  0.00    -0.078 A 
ATOM      4  CAC 7W3 d   1      15.316  20.476  11.676  0.00  0.00    -0.056 A 
ATOM      5  CAD 7W3 d   1      14.655  19.751  12.608  0.00  0.00     0.049 A 
ATOM      6  CAE 7W3 d   1      15.039  18.475  12.918  0.00  0.00     0.041 A 
ATOM      7  CAI 7W3 d   1      14.170  18.073  13.905  0.00  0.00     0.057 A 
ATOM      8  CAH 7W3 d   1      13.308  19.059  14.130  0.00  0.00     0.024 A 
ATOM      9  NAG 7W3 d   1      13.586  20.105  13.339  0.00  0.00    -0.345 N 
ATOM     10  H3  7W3 d   1      17.696  18.271  10.779  0.00  0.00     0.087 H 
ATOM     11  H4  7W3 d   1      16.912  20.568  10.220  0.00  0.00     0.083 H 
ATOM     12  H5  7W3 d   1      14.981  21.485  11.466  0.00  0.00     0.087 H 
ENDROOT
BRANCH   9  13
ATOM     13  CAU 7W3 d   1      12.890  21.488  13.209  0.00  0.00     0.025 C 
ATOM     14  H11 7W3 d   1      13.662  22.271  13.198  0.00  0.00     0.072 H 
ATOM     15  H12 7W3 d   1      12.231  21.634  14.078  0.00  0.00     0.072 H 
BRANCH  13  16
ATOM     16  CAV 7W3 d   1      12.098  21.602  12.003  0.00  0.00    -0.025 A 
ATOM     17  CBA 7W3 d   1      11.341  20.467  11.656  0.00  0.00    -0.074 A 
ATOM     18  CAZ 7W3 d   1      10.541  20.427  10.521  0.00  0.00    -0.082 A 
ATOM     19  H13 7W3 d   1      11.384  19.594  12.297  0.00  0.00     0.084 H 
ATOM     20  CAY 7W3 d   1      10.453  21.526   9.687  0.00  0.00    -0.082 A 
ATOM     21  H14 7W3 d   1       9.982  19.528  10.288  0.00  0.00     0.083 H 
ATOM     22  CAX 7W3 d   1      11.174  22.665   9.986  0.00  0.00    -0.068 A 
ATOM     23  H15 7W3 d   1       9.823  21.494   8.805  0.00  0.00     0.083 H 
ATOM     24  CAW 7W3 d   1      12.007  22.746  11.126  0.00  0.00     0.055 A 
ATOM     25  H16 7W3 d   1      11.099  23.523   9.327  0.00  0.00     0.084 H 
BRANCH  24  26
ATOM     26  CBB 7W3 d   1      12.700  23.984  11.311  0.00  0.00     0.418 C 
ATOM     27  FBD 7W3 d   1      12.597  24.888  10.189  0.00  0.00    -0.166 F 
ATOM     28  FBE 7W3 d   1      14.016  23.781  11.465  0.00  0.00    -0.166 F 
ATOM     29  FBC 7W3 d   1      12.140  24.623  12.438  0.00  0.00    -0.166 F 
ENDBRANCH  24  26
ENDBRANCH  13  16
ENDBRANCH   9  13
BRANCH   8  30
ATOM     30  CAJ 7W3 d   1      12.168  18.984  15.156  0.00  0.00    -0.036 C 
ATOM     31  H8  7W3 d   1      12.188  18.004  15.655  0.00  0.00     0.035 H 
ATOM     32  H9  7W3 d   1      11.204  19.115  14.643  0.00  0.00     0.035 H 
ATOM     33  H10 7W3 d   1      12.296  19.779  15.905  0.00  0.00     0.035 H 
ENDBRANCH   8  30
BRANCH   7  34
ATOM     34  CAK 7W3 d   1      14.133  16.889  14.572  0.00  0.00     0.252 C 
ATOM     35  OAS 7W3 d   1      13.122  16.192  14.680  0.00  0.00    -0.281 OA
BRANCH  34  36
ATOM     36  CAQ 7W3 d   1      15.424  16.410  15.256  0.00  0.00     0.290 C 
ATOM     37  OAT 7W3 d   1      16.448  17.080  15.243  0.00  0.00    -0.264 OA
ATOM     38  NAR 7W3 d   1      15.377  15.213  15.801  0.00  0.00    -0.363 N 
ATOM     39  H6  7W3 d   1      16.183  14.841  16.262  0.00  0.00     0.159 HD
ATOM     40  H7  7W3 d   1      14.535  14.675  15.754  0.00  0.00     0.159 HD
ENDBRANCH  34  36
ENDBRANCH   7  34
BRANCH   1  41
ATOM     41  OAL 7W3 d   1      16.578  16.673  12.538  0.00  0.00    -0.340 OA
BRANCH  41  42
ATOM     42  CAM 7W3 d   1      17.055  15.716  11.536  0.00  0.00     0.105 C 
ATOM     43  H1  7W3 d   1      16.383  14.846  11.495  0.00  0.00     0.091 H 
ATOM     44  H2  7W3 d   1      17.096  16.195  10.546  0.00  0.00     0.091 H 
BRANCH  42  45
ATOM     45  CAN 7W3 d   1      18.473  15.271  11.969  0.00  0.00     0.198 C 
ATOM     46  OAO 7W3 d   1      18.833  14.110  11.616  0.00  0.00    -0.646 OA
ATOM     47  OAP 7W3 d   1      19.178  16.071  12.646  0.00  0.00    -0.646 OA
ENDBRANCH  42  45
ENDBRANCH  41  42
ENDBRANCH   1  41
TORSDOF 9
