REMARK  11 active torsions:
REMARK  status: ('A' for Active; 'I' for Inactive)
REMARK    1  A    between atoms: N1_1  and  C13_13 
REMARK    2  A    between atoms: C2_2  and  C10_10 
REMARK    3  A    between atoms: C3_3  and  C11_11 
REMARK    4  A    between atoms: O12_12  and  C6_6 
REMARK    5  A    between atoms: C10_10  and  C20_20 
REMARK    6  A    between atoms: C11_11  and  C21_21 
REMARK    7  A    between atoms: C24_24  and  O12_12 
REMARK    8  A    between atoms: C13_13  and  C17_17 
REMARK       I    between atoms: C21_21  and  N23_23 
REMARK    9  A    between atoms: C25_25  and  C24_24 
REMARK   10  A    between atoms: C30_30  and  C25_25 
REMARK   11  A    between atoms: P26_26  and  C30_30 
ROOT
ATOM      1  N1  U8D d   1      14.209  20.013  12.566  0.00  0.00    -0.345 N 
ATOM      2  C2  U8D d   1      13.859  19.228  13.594  0.00  0.00     0.019 A 
ATOM      3  C3  U8D d   1      14.435  18.051  13.437  0.00  0.00    -0.014 A 
ATOM      4  C4  U8D d   1      15.159  18.071  12.317  0.00  0.00     0.002 A 
ATOM      5  C5  U8D d   1      15.921  17.133  11.732  0.00  0.00    -0.038 A 
ATOM      6  C6  U8D d   1      16.603  17.399  10.542  0.00  0.00     0.069 A 
ATOM      7  C7  U8D d   1      16.460  18.669   9.979  0.00  0.00    -0.049 A 
ATOM      8  C8  U8D d   1      15.653  19.610  10.630  0.00  0.00    -0.053 A 
ATOM      9  C9  U8D d   1      15.025  19.298  11.778  0.00  0.00     0.046 A 
ATOM     10  H1  U8D d   1      16.008  16.154  12.190  0.00  0.00     0.089 H 
ATOM     11  H2  U8D d   1      16.965  18.922   9.054  0.00  0.00     0.087 H 
ATOM     12  H3  U8D d   1      15.533  20.600  10.205  0.00  0.00     0.087 H 
ENDROOT
BRANCH   1  13
ATOM     13  C13 U8D d   1      13.815  21.407  12.322  0.00  0.00     0.024 C 
ATOM     14  H8  U8D d   1      14.702  21.979  12.011  0.00  0.00     0.072 H 
ATOM     15  H9  U8D d   1      13.413  21.832  13.254  0.00  0.00     0.072 H 
BRANCH  13  16
ATOM     16  C17 U8D d   1      12.824  21.505  11.305  0.00  0.00    -0.040 A 
ATOM     17  C16 U8D d   1      12.606  22.776  10.750  0.00  0.00    -0.075 A 
ATOM     18  C15 U8D d   1      11.656  22.980   9.750  0.00  0.00    -0.082 A 
ATOM     19  H12 U8D d   1      13.189  23.617  11.107  0.00  0.00     0.084 H 
ATOM     20  C14 U8D d   1      10.899  21.915   9.289  0.00  0.00    -0.083 A 
ATOM     21  H11 U8D d   1      11.510  23.970   9.334  0.00  0.00     0.083 H 
ATOM     22  C19 U8D d   1      11.095  20.643   9.823  0.00  0.00    -0.082 A 
ATOM     23  H10 U8D d   1      10.156  22.071   8.515  0.00  0.00     0.083 H 
ATOM     24  C18 U8D d   1      12.041  20.434  10.828  0.00  0.00    -0.075 A 
ATOM     25  H14 U8D d   1      10.508  19.809   9.455  0.00  0.00     0.083 H 
ATOM     26  H13 U8D d   1      12.174  19.442  11.244  0.00  0.00     0.084 H 
ENDBRANCH  13  16
ENDBRANCH   1  13
BRANCH   2  27
ATOM     27  C10 U8D d   1      12.954  19.601  14.754  0.00  0.00    -0.029 C 
ATOM     28  H4  U8D d   1      12.841  20.693  14.822  0.00  0.00     0.041 H 
ATOM     29  H5  U8D d   1      13.359  19.215  15.701  0.00  0.00     0.041 H 
BRANCH  27  30
ATOM     30  C20 U8D d   1      11.615  18.941  14.433  0.00  0.00    -0.071 C 
ATOM     31  H15 U8D d   1      10.895  19.165  15.234  0.00  0.00     0.028 H 
ATOM     32  H16 U8D d   1      11.752  17.852  14.357  0.00  0.00     0.028 H 
ATOM     33  H17 U8D d   1      11.234  19.331  13.477  0.00  0.00     0.028 H 
ENDBRANCH  27  30
ENDBRANCH   2  27
BRANCH   3  34
ATOM     34  C11 U8D d   1      14.301  16.845  14.388  0.00  0.00     0.035 C 
ATOM     35  H6  U8D d   1      13.915  15.982  13.825  0.00  0.00     0.054 H 
ATOM     36  H7  U8D d   1      13.600  17.099  15.197  0.00  0.00     0.054 H 
BRANCH  34  37
ATOM     37  C21 U8D d   1      15.659  16.482  14.996  0.00  0.00     0.219 C 
ATOM     38  O22 U8D d   1      16.615  17.245  14.939  0.00  0.00    -0.273 OA
ATOM     39  N23 U8D d   1      15.714  15.307  15.574  0.00  0.00    -0.370 N 
ATOM     40  H18 U8D d   1      16.566  14.996  15.995  0.00  0.00     0.159 HD
ATOM     41  H19 U8D d   1      14.904  14.721  15.594  0.00  0.00     0.159 HD
ENDBRANCH  34  37
ENDBRANCH   3  34
BRANCH   6  42
ATOM     42  O12 U8D d   1      17.381  16.441   9.937  0.00  0.00    -0.351 OA
BRANCH  42  43
ATOM     43  C24 U8D d   1      18.594  16.086  10.651  0.00  0.00     0.027 C 
ATOM     44  H20 U8D d   1      18.360  15.802  11.687  0.00  0.00     0.075 H 
ATOM     45  H21 U8D d   1      19.299  16.930  10.653  0.00  0.00     0.075 H 
BRANCH  43  46
ATOM     46  C25 U8D d   1      19.184  14.906   9.899  0.00  0.00    -0.033 C 
ATOM     47  H22 U8D d   1      19.951  15.257   9.193  0.00  0.00     0.037 H 
ATOM     48  H23 U8D d   1      18.392  14.378   9.348  0.00  0.00     0.037 H 
BRANCH  46  49
ATOM     49  C30 U8D d   1      19.812  13.972  10.929  0.00  0.00     0.041 C 
ATOM     50  H24 U8D d   1      20.128  13.053  10.415  0.00  0.00     0.053 H 
ATOM     51  H25 U8D d   1      19.050  13.727  11.683  0.00  0.00     0.053 H 
BRANCH  49  52
ATOM     52  P26 U8D d   1      21.294  14.693  11.805  0.00  0.00     0.259 P 
ATOM     53  O27 U8D d   1      21.884  13.399  12.178  0.00  0.00    -0.640 OA
ATOM     54  O28 U8D d   1      21.902  15.445  10.691  0.00  0.00    -0.640 OA
ATOM     55  O29 U8D d   1      20.576  15.447  12.848  0.00  0.00    -0.640 OA
ENDBRANCH  49  52
ENDBRANCH  46  49
ENDBRANCH  43  46
ENDBRANCH  42  43
ENDBRANCH   6  42
TORSDOF 11
