REMARK  20 active torsions:
REMARK  status: ('A' for Active; 'I' for Inactive)
REMARK    1  A    between atoms: C5_8  and  N2_9 
REMARK    2  A    between atoms: N2_9  and  C4_10 
REMARK    3  A    between atoms: N8_13  and  C2_14 
REMARK    4  A    between atoms: C2_14  and  C1_15 
REMARK    5  A    between atoms: C1_15  and  C31_16 
REMARK    6  A    between atoms: C13_19  and  C14_20 
REMARK    7  A    between atoms: C15_21  and  C16_22 
REMARK    8  A    between atoms: C16_22  and  C17_23 
REMARK    9  A    between atoms: C17_23  and  C18_24 
REMARK   10  A    between atoms: C18_24  and  N5_25 
REMARK       I    between atoms: N5_25  and  C19_26 
REMARK   11  A    between atoms: C19_26  and  C20_28 
REMARK   12  A    between atoms: C20_28  and  C28_29 
REMARK   13  A    between atoms: C20_28  and  N6_30 
REMARK   14  A    between atoms: N6_30  and  C27_31 
REMARK       I    between atoms: N6_30  and  C21_32 
REMARK   15  A    between atoms: C21_32  and  C22_34 
REMARK   16  A    between atoms: C22_34  and  C23_35 
REMARK   17  A    between atoms: C23_35  and  C24_36 
REMARK   18  A    between atoms: C24_36  and  N7_37 
REMARK   19  A    between atoms: N7_37  and  C25_38 
REMARK   20  A    between atoms: N7_37  and  C26_39 
ROOT
ATOM      1  N3  F6M d   1     -28.826  -1.492  -9.685  0.00  0.00    -0.191 NA
ATOM      2  C11 F6M d   1     -28.729  -0.560  -9.003  0.00  0.00     0.099 C 
ATOM      3  C8  F6M d   1     -28.673   0.458  -8.221  0.00  0.00     0.044 A 
ATOM      4  C9  F6M d   1     -28.793   1.754  -8.752  0.00  0.00    -0.061 A 
ATOM      5  C10 F6M d   1     -28.671   2.841  -7.907  0.00  0.00    -0.055 A 
ATOM      6  C7  F6M d   1     -28.403   0.297  -6.889  0.00  0.00    -0.061 A 
ATOM      7  C6  F6M d   1     -28.281   1.397  -6.043  0.00  0.00    -0.055 A 
ATOM      8  C5  F6M d   1     -28.417   2.688  -6.548  0.00  0.00     0.049 A 
ATOM      9  H1  F6M d   1     -28.979   1.899  -9.810  0.00  0.00     0.085 H 
ATOM     10  H2  F6M d   1     -28.776   3.840  -8.315  0.00  0.00     0.087 H 
ATOM     11  H3  F6M d   1     -28.282  -0.702  -6.486  0.00  0.00     0.085 H 
ATOM     12  H4  F6M d   1     -28.080   1.248  -4.988  0.00  0.00     0.087 H 
ENDROOT
BRANCH   8  13
ATOM     13  N2  F6M d   1     -28.287   3.734  -5.681  0.00  0.00    -0.188 N 
ATOM     14  H5  F6M d   1     -28.031   3.484  -4.715  0.00  0.00     0.184 HD
BRANCH  13  15
ATOM     15  C4  F6M d   1     -28.451   5.062  -5.923  0.00  0.00     0.728 A 
ATOM     16  N1  F6M d   1     -28.768   5.547  -7.152  0.00  0.00    -0.044 NA
ATOM     17  C3  F6M d   1     -28.925   6.870  -7.364  0.00  0.00     0.163 A 
ATOM     18  N8  F6M d   1     -29.244   7.339  -8.593  0.00  0.00    -0.373 N 
ATOM     19  C13 F6M d   1     -28.733   7.791  -6.205  0.00  0.00     0.082 A 
ATOM     20  H6  F6M d   1     -29.343   8.351  -8.755  0.00  0.00     0.161 HD
ATOM     21  C12 F6M d   1     -28.424   7.226  -5.003  0.00  0.00     0.043 A 
ATOM     22  N4  F6M d   1     -28.287   5.907  -4.879  0.00  0.00    -0.073 NA
ATOM     23  H14 F6M d   1     -28.288   7.860  -4.135  0.00  0.00     0.118 H 
BRANCH  18  24
ATOM     24  C2  F6M d   1     -29.444   6.402  -9.676  0.00  0.00    -0.006 C 
ATOM     25  H7  F6M d   1     -30.504   6.415  -9.970  0.00  0.00     0.064 H 
ATOM     26  H8  F6M d   1     -29.172   5.393  -9.332  0.00  0.00     0.064 H 
BRANCH  24  27
ATOM     27  C1  F6M d   1     -28.590   6.762 -10.882  0.00  0.00    -0.054 C 
ATOM     28  H9  F6M d   1     -29.007   7.658 -11.365  0.00  0.00     0.034 H 
ATOM     29  H10 F6M d   1     -28.599   5.924 -11.594  0.00  0.00     0.034 H 
BRANCH  27  30
ATOM     30  C31 F6M d   1     -27.164   7.042 -10.462  0.00  0.00    -0.075 C 
ATOM     31  H11 F6M d   1     -26.565   7.300 -11.348  0.00  0.00     0.027 H 
ATOM     32  H12 F6M d   1     -26.741   6.148  -9.981  0.00  0.00     0.027 H 
ATOM     33  H13 F6M d   1     -27.149   7.882  -9.752  0.00  0.00     0.027 H 
ENDBRANCH  27  30
ENDBRANCH  24  27
ENDBRANCH  18  24
BRANCH  19  34
ATOM     34  C14 F6M d   1     -28.899   9.051  -6.387  0.00  0.00    -0.062 C 
ATOM     35  C15 F6M d   1     -28.972  10.216  -6.548  0.00  0.00    -0.101 C 
BRANCH  35  36
ATOM     36  C16 F6M d   1     -29.235  11.646  -6.764  0.00  0.00    -0.007 C 
ATOM     37  H15 F6M d   1     -30.093  11.768  -7.442  0.00  0.00     0.051 H 
ATOM     38  H16 F6M d   1     -28.348  12.125  -7.205  0.00  0.00     0.051 H 
BRANCH  36  39
ATOM     39  C17 F6M d   1     -29.547  12.280  -5.424  0.00  0.00    -0.041 C 
ATOM     40  H17 F6M d   1     -29.737  11.487  -4.686  0.00  0.00     0.036 H 
ATOM     41  H18 F6M d   1     -30.443  12.910  -5.524  0.00  0.00     0.036 H 
BRANCH  39  42
ATOM     42  C18 F6M d   1     -28.384  13.139  -4.944  0.00  0.00    -0.004 C 
ATOM     43  H19 F6M d   1     -28.384  14.087  -5.501  0.00  0.00     0.064 H 
ATOM     44  H20 F6M d   1     -27.442  12.604  -5.132  0.00  0.00     0.064 H 
BRANCH  42  45
ATOM     45  N5  F6M d   1     -28.492  13.425  -3.521  0.00  0.00    -0.359 N 
ATOM     46  C19 F6M d   1     -29.242  14.433  -3.056  0.00  0.00     0.240 C 
ATOM     47  O1  F6M d   1     -30.130  14.951  -3.743  0.00  0.00    -0.271 OA
ATOM     48  H21 F6M d   1     -27.992  12.852  -2.872  0.00  0.00     0.162 HD
BRANCH  46  49
ATOM     49  C20 F6M d   1     -28.960  14.936  -1.662  0.00  0.00     0.087 C 
ATOM     50  H22 F6M d   1     -29.600  14.382  -0.960  0.00  0.00     0.087 H 
BRANCH  49  51
ATOM     51  C28 F6M d   1     -29.327  16.417  -1.614  0.00  0.00    -0.049 C 
ATOM     52  H23 F6M d   1     -30.372  16.547  -1.934  0.00  0.00     0.030 H 
ATOM     53  H24 F6M d   1     -28.665  16.981  -2.287  0.00  0.00     0.030 H 
ATOM     54  H25 F6M d   1     -29.209  16.791  -0.586  0.00  0.00     0.030 H 
ENDBRANCH  49  51
BRANCH  49  55
ATOM     55  N6  F6M d   1     -27.593  14.769  -1.243  0.00  0.00    -0.343 N 
ATOM     56  C21 F6M d   1     -27.348  13.980  -0.202  0.00  0.00     0.220 C 
ATOM     57  O2  F6M d   1     -28.242  13.409   0.427  0.00  0.00    -0.273 OA
BRANCH  55  58
ATOM     58  C27 F6M d   1     -26.571  15.497  -1.936  0.00  0.00    -0.015 C 
ATOM     59  H26 F6M d   1     -25.590  15.260  -1.497  0.00  0.00     0.056 H 
ATOM     60  H27 F6M d   1     -26.763  16.576  -1.844  0.00  0.00     0.056 H 
ATOM     61  H28 F6M d   1     -26.575  15.213  -2.999  0.00  0.00     0.056 H 
ENDBRANCH  55  58
BRANCH  56  62
ATOM     62  C22 F6M d   1     -25.888  13.819   0.209  0.00  0.00     0.011 C 
ATOM     63  H29 F6M d   1     -25.556  14.742   0.707  0.00  0.00     0.047 H 
ATOM     64  H30 F6M d   1     -25.282  13.650  -0.694  0.00  0.00     0.047 H 
BRANCH  62  65
ATOM     65  C23 F6M d   1     -25.683  12.630   1.176  0.00  0.00    -0.035 C 
ATOM     66  H31 F6M d   1     -25.344  11.752   0.606  0.00  0.00     0.036 H 
ATOM     67  H32 F6M d   1     -26.636  12.398   1.674  0.00  0.00     0.036 H 
BRANCH  65  68
ATOM     68  C24 F6M d   1     -24.627  12.986   2.239  0.00  0.00     0.083 C 
ATOM     69  H33 F6M d   1     -24.019  13.839   1.904  0.00  0.00     0.075 H 
ATOM     70  H34 F6M d   1     -23.973  12.123   2.433  0.00  0.00     0.075 H 
BRANCH  68  71
ATOM     71  N7  F6M d   1     -25.375  13.336   3.442  0.00  0.00    -0.079 N 
ATOM     72  H35 F6M d   1     -26.180  13.590   2.891  0.00  0.00     0.278 HD
BRANCH  71  73
ATOM     73  C25 F6M d   1     -26.133  12.301   4.125  0.00  0.00     0.066 C 
ATOM     74  H36 F6M d   1     -26.633  12.733   5.005  0.00  0.00     0.068 H 
ATOM     75  H37 F6M d   1     -25.452  11.499   4.447  0.00  0.00     0.068 H 
ATOM     76  H38 F6M d   1     -26.888  11.888   3.441  0.00  0.00     0.068 H 
ENDBRANCH  71  73
BRANCH  71  77
ATOM     77  C26 F6M d   1     -25.305  14.677   3.993  0.00  0.00     0.066 C 
ATOM     78  H39 F6M d   1     -24.690  15.311   3.337  0.00  0.00     0.068 H 
ATOM     79  H40 F6M d   1     -24.853  14.639   4.995  0.00  0.00     0.068 H 
ATOM     80  H41 F6M d   1     -26.319  15.098   4.064  0.00  0.00     0.068 H 
ENDBRANCH  71  77
ENDBRANCH  68  71
ENDBRANCH  65  68
ENDBRANCH  62  65
ENDBRANCH  56  62
ENDBRANCH  49  55
ENDBRANCH  46  49
ENDBRANCH  42  45
ENDBRANCH  39  42
ENDBRANCH  36  39
ENDBRANCH  35  36
ENDBRANCH  19  34
ENDBRANCH  13  15
ENDBRANCH   8  13
TORSDOF 20
