REMARK  9 active torsions:
REMARK  status: ('A' for Active; 'I' for Inactive)
REMARK    1  A    between atoms: C8_4  and  NAV_27 
REMARK    2  A    between atoms: CAX_20  and  N2_6 
REMARK    3  A    between atoms: N2_6  and  C2_21 
REMARK    4  A    between atoms: NBE_10  and  CAC_11 
REMARK    5  A    between atoms: CAY_15  and  NBF_14 
REMARK    6  A    between atoms: N9_23  and  CBD_24 
REMARK    7  A    between atoms: CBD_24  and  CAB_25 
REMARK    8  A    between atoms: CBD_24  and  CAA_26 
REMARK    9  A    between atoms: NAV_27  and  CAW_28 
ROOT
ATOM      1  C4  7XO d   1     -52.515   0.077 -21.777  0.00  0.00     0.195 A 
ATOM      2  C5  7XO d   1     -53.424   0.737 -22.567  0.00  0.00     0.141 A 
ATOM      3  C6  7XO d   1     -54.373   1.528 -21.973  0.00  0.00     0.053 A 
ATOM      4  C8  7XO d   1     -52.143  -0.369 -23.838  0.00  0.00     0.710 A 
ATOM      5  N1  7XO d   1     -54.386   1.636 -20.677  0.00  0.00    -0.072 NA
ATOM      6  N3  7XO d   1     -52.565   0.210 -20.454  0.00  0.00    -0.042 NA
ATOM      7  C2  7XO d   1     -53.504   0.992 -19.929  0.00  0.00     0.728 A 
ATOM      8  N7  7XO d   1     -53.174   0.442 -23.833  0.00  0.00    -0.059 NA
ATOM      9  N9  7XO d   1     -51.751  -0.591 -22.609  0.00  0.00    -0.157 N 
ATOM     10  H1  7XO d   1     -55.103   2.057 -22.576  0.00  0.00     0.119 H 
ENDROOT
BRANCH   7  11
ATOM     11  N2  7XO d   1     -53.602   1.166 -18.640  0.00  0.00    -0.188 N 
ATOM     12  H2  7XO d   1     -54.414   1.687 -18.279  0.00  0.00     0.184 HD
BRANCH  11  13
ATOM     13  CAX 7XO d   1     -52.724   0.715 -17.780  0.00  0.00     0.049 A 
ATOM     14  CAJ 7XO d   1     -52.830   1.148 -16.477  0.00  0.00    -0.054 A 
ATOM     15  CAL 7XO d   1     -51.941   0.706 -15.524  0.00  0.00    -0.055 A 
ATOM     16  H16 7XO d   1     -53.617   1.840 -16.201  0.00  0.00     0.087 H 
ATOM     17  CAY 7XO d   1     -50.944  -0.172 -15.882  0.00  0.00     0.030 A 
ATOM     18  H15 7XO d   1     -52.026   1.047 -14.499  0.00  0.00     0.087 H 
ATOM     19  CAK 7XO d   1     -50.838  -0.613 -17.189  0.00  0.00    -0.055 A 
ATOM     20  CAI 7XO d   1     -51.733  -0.168 -18.149  0.00  0.00    -0.054 A 
ATOM     21  H17 7XO d   1     -50.053  -1.308 -17.463  0.00  0.00     0.087 H 
ATOM     22  H18 7XO d   1     -51.654  -0.510 -19.175  0.00  0.00     0.087 H 
BRANCH  17  23
ATOM     23  NBF 7XO d   1     -50.082  -0.598 -14.884  0.00  0.00    -0.378 N 
ATOM     24  CAP 7XO d   1     -50.333  -0.134 -13.518  0.00  0.00     0.018 C 
ATOM     25  CAN 7XO d   1     -50.310  -1.331 -12.592  0.00  0.00     0.098 C 
ATOM     26  H3  7XO d   1     -49.552   0.581 -13.220  0.00  0.00     0.066 H 
ATOM     27  H4  7XO d   1     -51.317   0.355 -13.467  0.00  0.00     0.066 H 
ATOM     28  NBE 7XO d   1     -49.015  -1.971 -12.757  0.00  0.00    -0.072 N 
ATOM     29  H5  7XO d   1     -51.114  -2.032 -12.860  0.00  0.00     0.078 H 
ATOM     30  H6  7XO d   1     -50.440  -1.005 -11.550  0.00  0.00     0.078 H 
ATOM     31  CAO 7XO d   1     -48.963  -2.607 -14.072  0.00  0.00     0.098 C 
ATOM     32  H7  7XO d   1     -48.281  -1.284 -12.683  0.00  0.00     0.279 HD
ATOM     33  CAQ 7XO d   1     -48.981  -1.534 -15.153  0.00  0.00     0.018 C 
ATOM     34  H11 7XO d   1     -49.834  -3.267 -14.195  0.00  0.00     0.078 H 
ATOM     35  H12 7XO d   1     -48.040  -3.199 -14.157  0.00  0.00     0.078 H 
ATOM     36  H13 7XO d   1     -49.129  -2.004 -16.136  0.00  0.00     0.066 H 
ATOM     37  H14 7XO d   1     -48.025  -0.990 -15.147  0.00  0.00     0.066 H 
BRANCH  28  38
ATOM     38  CAC 7XO d   1     -48.853  -2.978 -11.713  0.00  0.00     0.066 C 
ATOM     39  H8  7XO d   1     -47.876  -3.470 -11.827  0.00  0.00     0.068 H 
ATOM     40  H9  7XO d   1     -49.653  -3.728 -11.799  0.00  0.00     0.068 H 
ATOM     41  H10 7XO d   1     -48.908  -2.495 -10.726  0.00  0.00     0.068 H 
ENDBRANCH  28  38
ENDBRANCH  17  23
ENDBRANCH  11  13
ENDBRANCH   7  11
BRANCH   9  42
ATOM     42  CBD 7XO d   1     -50.636  -1.431 -22.235  0.00  0.00     0.029 C 
ATOM     43  H19 7XO d   1     -49.922  -1.498 -23.069  0.00  0.00     0.073 H 
BRANCH  42  44
ATOM     44  CAB 7XO d   1     -49.954  -0.789 -21.042  0.00  0.00    -0.057 C 
ATOM     45  H20 7XO d   1     -49.098  -1.407 -20.733  0.00  0.00     0.030 H 
ATOM     46  H21 7XO d   1     -50.669  -0.710 -20.210  0.00  0.00     0.030 H 
ATOM     47  H22 7XO d   1     -49.600   0.215 -21.318  0.00  0.00     0.030 H 
ENDBRANCH  42  44
BRANCH  42  48
ATOM     48  CAA 7XO d   1     -51.154  -2.822 -21.913  0.00  0.00    -0.057 C 
ATOM     49  H23 7XO d   1     -50.312  -3.470 -21.627  0.00  0.00     0.030 H 
ATOM     50  H24 7XO d   1     -51.654  -3.241 -22.798  0.00  0.00     0.030 H 
ATOM     51  H25 7XO d   1     -51.870  -2.763 -21.081  0.00  0.00     0.030 H 
ENDBRANCH  42  48
ENDBRANCH   9  42
BRANCH   4  52
ATOM     52  NAV 7XO d   1     -51.596  -0.886 -24.917  0.00  0.00    -0.190 N 
ATOM     53  H26 7XO d   1     -50.915  -1.654 -24.830  0.00  0.00     0.184 HD
BRANCH  52  54
ATOM     54  CAW 7XO d   1     -51.917  -0.424 -26.111  0.00  0.00     0.049 A 
ATOM     55  CAG 7XO d   1     -52.263   0.901 -26.281  0.00  0.00    -0.057 A 
ATOM     56  CAE 7XO d   1     -52.592   1.374 -27.541  0.00  0.00    -0.081 A 
ATOM     57  H27 7XO d   1     -52.277   1.571 -25.429  0.00  0.00     0.086 H 
ATOM     58  CAD 7XO d   1     -52.580   0.523 -28.628  0.00  0.00    -0.083 A 
ATOM     59  H28 7XO d   1     -52.860   2.416 -27.674  0.00  0.00     0.083 H 
ATOM     60  CAF 7XO d   1     -52.241  -0.802 -28.451  0.00  0.00    -0.081 A 
ATOM     61  H29 7XO d   1     -52.835   0.894 -29.614  0.00  0.00     0.083 H 
ATOM     62  CAH 7XO d   1     -51.907  -1.274 -27.196  0.00  0.00    -0.057 A 
ATOM     63  H30 7XO d   1     -52.236  -1.476 -29.300  0.00  0.00     0.083 H 
ATOM     64  H31 7XO d   1     -51.636  -2.315 -27.064  0.00  0.00     0.086 H 
ENDBRANCH  52  54
ENDBRANCH   4  52
TORSDOF 9
