REMARK  7 active torsions:
REMARK  status: ('A' for Active; 'I' for Inactive)
REMARK    1  A    between atoms: C8_4  and  NAX_29 
REMARK    2  A    between atoms: CAZ_20  and  N2_6 
REMARK    3  A    between atoms: N2_6  and  C2_21 
REMARK    4  A    between atoms: NBG_10  and  CAA_11 
REMARK    5  A    between atoms: CBA_15  and  NBH_14 
REMARK    6  A    between atoms: N9_23  and  CBF_24 
REMARK    7  A    between atoms: NAX_29  and  CAY_30 
ROOT
ATOM      1  C4  7XR d   1     -52.495  -0.193 -21.720  0.00  0.00     0.196 A 
ATOM      2  C5  7XR d   1     -53.326   0.476 -22.579  0.00  0.00     0.141 A 
ATOM      3  C6  7XR d   1     -54.249   1.352 -22.077  0.00  0.00     0.053 A 
ATOM      4  C8  7XR d   1     -52.067  -0.766 -23.735  0.00  0.00     0.710 A 
ATOM      5  N1  7XR d   1     -54.313   1.524 -20.790  0.00  0.00    -0.072 NA
ATOM      6  N3  7XR d   1     -52.599   0.009 -20.410  0.00  0.00    -0.042 NA
ATOM      7  C2  7XR d   1     -53.508   0.871 -19.969  0.00  0.00     0.728 A 
ATOM      8  N7  7XR d   1     -53.041   0.108 -23.812  0.00  0.00    -0.059 NA
ATOM      9  N9  7XR d   1     -51.740  -0.956 -22.479  0.00  0.00    -0.157 N 
ATOM     10  H1  7XR d   1     -54.915   1.893 -22.740  0.00  0.00     0.119 H 
ENDROOT
BRANCH   7  11
ATOM     11  N2  7XR d   1     -53.651   1.115 -18.696  0.00  0.00    -0.188 N 
ATOM     12  H2  7XR d   1     -54.467   1.665 -18.392  0.00  0.00     0.184 HD
BRANCH  11  13
ATOM     13  CAZ 7XR d   1     -52.810   0.697 -17.785  0.00  0.00     0.049 A 
ATOM     14  CAH 7XR d   1     -53.011   1.122 -16.492  0.00  0.00    -0.054 A 
ATOM     15  CAJ 7XR d   1     -52.167   0.712 -15.488  0.00  0.00    -0.055 A 
ATOM     16  H16 7XR d   1     -53.839   1.783 -16.264  0.00  0.00     0.087 H 
ATOM     17  CBA 7XR d   1     -51.119  -0.123 -15.790  0.00  0.00     0.030 A 
ATOM     18  H15 7XR d   1     -52.327   1.044 -14.469  0.00  0.00     0.087 H 
ATOM     19  CAI 7XR d   1     -50.909  -0.554 -17.087  0.00  0.00    -0.055 A 
ATOM     20  CAG 7XR d   1     -51.762  -0.139 -18.096  0.00  0.00    -0.054 A 
ATOM     21  H17 7XR d   1     -50.080  -1.214 -17.313  0.00  0.00     0.087 H 
ATOM     22  H18 7XR d   1     -51.606  -0.468 -19.117  0.00  0.00     0.087 H 
BRANCH  17  23
ATOM     23  NBH 7XR d   1     -50.304  -0.510 -14.747  0.00  0.00    -0.378 N 
ATOM     24  CAR 7XR d   1     -49.088  -1.295 -14.970  0.00  0.00     0.018 C 
ATOM     25  CAP 7XR d   1     -49.038  -2.420 -13.955  0.00  0.00     0.098 C 
ATOM     26  H3  7XR d   1     -49.101  -1.715 -15.987  0.00  0.00     0.066 H 
ATOM     27  H4  7XR d   1     -48.205  -0.650 -14.851  0.00  0.00     0.066 H 
ATOM     28  NBG 7XR d   1     -49.223  -1.859 -12.621  0.00  0.00    -0.072 N 
ATOM     29  H5  7XR d   1     -48.063  -2.925 -14.011  0.00  0.00     0.078 H 
ATOM     30  H6  7XR d   1     -49.839  -3.144 -14.166  0.00  0.00     0.078 H 
ATOM     31  CAQ 7XR d   1     -50.581  -1.351 -12.503  0.00  0.00     0.098 C 
ATOM     32  H7  7XR d   1     -48.560  -1.116 -12.464  0.00  0.00     0.279 HD
ATOM     33  CAS 7XR d   1     -50.709  -0.137 -13.396  0.00  0.00     0.018 C 
ATOM     34  H11 7XR d   1     -50.784  -1.069 -11.459  0.00  0.00     0.078 H 
ATOM     35  H12 7XR d   1     -51.297  -2.124 -12.820  0.00  0.00     0.078 H 
ATOM     36  H13 7XR d   1     -50.059   0.668 -13.023  0.00  0.00     0.066 H 
ATOM     37  H14 7XR d   1     -51.753   0.209 -13.404  0.00  0.00     0.066 H 
BRANCH  28  38
ATOM     38  CAA 7XR d   1     -49.035  -2.917 -11.632  0.00  0.00     0.066 C 
ATOM     39  H8  7XR d   1     -49.173  -2.503 -10.622  0.00  0.00     0.068 H 
ATOM     40  H9  7XR d   1     -48.019  -3.329 -11.724  0.00  0.00     0.068 H 
ATOM     41  H10 7XR d   1     -49.772  -3.716 -11.805  0.00  0.00     0.068 H 
ENDBRANCH  28  38
ENDBRANCH  17  23
ENDBRANCH  11  13
ENDBRANCH   7  11
BRANCH   9  42
ATOM     42  CBF 7XR d   1     -50.688  -1.838 -22.006  0.00  0.00     0.036 C 
ATOM     43  CAN 7XR d   1     -51.234  -2.835 -21.009  0.00  0.00    -0.045 C 
ATOM     44  CAL 7XR d   1     -50.075  -3.107 -20.056  0.00  0.00    -0.063 C 
ATOM     45  H20 7XR d   1     -51.544  -3.760 -21.516  0.00  0.00     0.036 H 
ATOM     46  H21 7XR d   1     -52.091  -2.410 -20.466  0.00  0.00     0.036 H 
ATOM     47  CAM 7XR d   1     -49.008  -2.074 -20.393  0.00  0.00    -0.063 C 
ATOM     48  H22 7XR d   1     -49.685  -4.124 -20.208  0.00  0.00     0.033 H 
ATOM     49  H23 7XR d   1     -50.403  -2.992 -19.012  0.00  0.00     0.033 H 
ATOM     50  CAO 7XR d   1     -49.766  -1.007 -21.146  0.00  0.00    -0.045 C 
ATOM     51  H24 7XR d   1     -48.221  -2.514 -21.023  0.00  0.00     0.033 H 
ATOM     52  H25 7XR d   1     -48.557  -1.663 -19.478  0.00  0.00     0.033 H 
ATOM     53  H26 7XR d   1     -50.332  -0.358 -20.461  0.00  0.00     0.036 H 
ATOM     54  H27 7XR d   1     -49.091  -0.392 -21.759  0.00  0.00     0.036 H 
ATOM     55  H19 7XR d   1     -50.170  -2.327 -22.844  0.00  0.00     0.074 H 
ENDBRANCH   9  42
BRANCH   4  56
ATOM     56  NAX 7XR d   1     -51.544  -1.338 -24.795  0.00  0.00    -0.190 N 
ATOM     57  H28 7XR d   1     -50.868  -2.111 -24.714  0.00  0.00     0.184 HD
BRANCH  56  58
ATOM     58  CAY 7XR d   1     -51.927  -0.873 -25.971  0.00  0.00     0.049 A 
ATOM     59  CAE 7XR d   1     -52.128   0.482 -26.124  0.00  0.00    -0.057 A 
ATOM     60  CAC 7XR d   1     -52.531   0.998 -27.342  0.00  0.00    -0.081 A 
ATOM     61  H29 7XR d   1     -51.969   1.148 -25.284  0.00  0.00     0.086 H 
ATOM     62  CAB 7XR d   1     -52.739   0.150 -28.409  0.00  0.00    -0.083 A 
ATOM     63  H30 7XR d   1     -52.683   2.065 -27.457  0.00  0.00     0.083 H 
ATOM     64  CAD 7XR d   1     -52.545  -1.208 -28.252  0.00  0.00    -0.081 A 
ATOM     65  H31 7XR d   1     -53.053   0.548 -29.367  0.00  0.00     0.083 H 
ATOM     66  CAF 7XR d   1     -52.137  -1.723 -27.035  0.00  0.00    -0.057 A 
ATOM     67  H32 7XR d   1     -52.714  -1.876 -29.089  0.00  0.00     0.083 H 
ATOM     68  H33 7XR d   1     -51.983  -2.790 -26.919  0.00  0.00     0.086 H 
ENDBRANCH  56  58
ENDBRANCH   4  56
TORSDOF 7
