REMARK  7 active torsions:
REMARK  status: ('A' for Active; 'I' for Inactive)
REMARK    1  A    between atoms: C8_4  and  NAY_30 
REMARK    2  A    between atoms: CBA_20  and  N2_6 
REMARK    3  A    between atoms: N2_6  and  C2_21 
REMARK    4  A    between atoms: NBH_10  and  CAA_11 
REMARK    5  A    between atoms: CBB_15  and  NBI_14 
REMARK    6  A    between atoms: N9_23  and  CBG_24 
REMARK    7  A    between atoms: NAY_30  and  CAZ_31 
ROOT
ATOM      1  C4  7XU d   1     -52.661   0.144 -21.893  0.00  0.00     0.196 A 
ATOM      2  C5  7XU d   1     -53.614   0.789 -22.647  0.00  0.00     0.141 A 
ATOM      3  C6  7XU d   1     -54.585   1.515 -22.009  0.00  0.00     0.053 A 
ATOM      4  C8  7XU d   1     -52.303  -0.209 -23.971  0.00  0.00     0.710 A 
ATOM      5  N1  7XU d   1     -54.572   1.571 -20.707  0.00  0.00    -0.072 NA
ATOM      6  N3  7XU d   1     -52.689   0.228 -20.565  0.00  0.00    -0.042 NA
ATOM      7  C2  7XU d   1     -53.647   0.945 -19.991  0.00  0.00     0.728 A 
ATOM      8  N7  7XU d   1     -53.373   0.552 -23.928  0.00  0.00    -0.059 NA
ATOM      9  N9  7XU d   1     -51.886  -0.462 -22.760  0.00  0.00    -0.157 N 
ATOM     10  H1  7XU d   1     -55.350   2.033 -22.576  0.00  0.00     0.119 H 
ENDROOT
BRANCH   7  11
ATOM     11  N2  7XU d   1     -53.737   1.065 -18.690  0.00  0.00    -0.188 N 
ATOM     12  H2  7XU d   1     -54.586   1.508 -18.310  0.00  0.00     0.184 HD
BRANCH  11  13
ATOM     13  CBA 7XU d   1     -52.827   0.663 -17.834  0.00  0.00     0.049 A 
ATOM     14  CAH 7XU d   1     -52.894   1.163 -16.551  0.00  0.00    -0.054 A 
ATOM     15  CAJ 7XU d   1     -51.974   0.777 -15.602  0.00  0.00    -0.055 A 
ATOM     16  H16 7XU d   1     -53.677   1.865 -16.287  0.00  0.00     0.087 H 
ATOM     17  CBB 7XU d   1     -50.981  -0.116 -15.940  0.00  0.00     0.030 A 
ATOM     18  H15 7XU d   1     -52.031   1.173 -14.595  0.00  0.00     0.087 H 
ATOM     19  CAI 7XU d   1     -50.913  -0.624 -17.226  0.00  0.00    -0.055 A 
ATOM     20  CAG 7XU d   1     -51.840  -0.232 -18.182  0.00  0.00    -0.054 A 
ATOM     21  H17 7XU d   1     -50.133  -1.330 -17.487  0.00  0.00     0.087 H 
ATOM     22  H18 7XU d   1     -51.788  -0.626 -19.191  0.00  0.00     0.087 H 
BRANCH  17  23
ATOM     23  NBI 7XU d   1     -50.074  -0.485 -14.955  0.00  0.00    -0.378 N 
ATOM     24  CAS 7XU d   1     -49.191  -1.644 -15.092  0.00  0.00     0.018 C 
ATOM     25  CAQ 7XU d   1     -49.439  -2.567 -13.908  0.00  0.00     0.098 C 
ATOM     26  H3  7XU d   1     -49.413  -2.173 -16.031  0.00  0.00     0.066 H 
ATOM     27  H4  7XU d   1     -48.141  -1.315 -15.095  0.00  0.00     0.066 H 
ATOM     28  NBH 7XU d   1     -49.394  -1.818 -12.649  0.00  0.00    -0.072 N 
ATOM     29  H5  7XU d   1     -48.665  -3.349 -13.891  0.00  0.00     0.078 H 
ATOM     30  H6  7XU d   1     -50.429  -3.034 -14.015  0.00  0.00     0.078 H 
ATOM     31  CAR 7XU d   1     -50.395  -0.754 -12.621  0.00  0.00     0.098 C 
ATOM     32  H7  7XU d   1     -48.475  -1.423 -12.527  0.00  0.00     0.279 HD
ATOM     33  CAT 7XU d   1     -50.050   0.249 -13.699  0.00  0.00     0.018 C 
ATOM     34  H11 7XU d   1     -50.387  -0.261 -11.638  0.00  0.00     0.078 H 
ATOM     35  H12 7XU d   1     -51.393  -1.176 -12.811  0.00  0.00     0.078 H 
ATOM     36  H13 7XU d   1     -49.050   0.671 -13.522  0.00  0.00     0.066 H 
ATOM     37  H14 7XU d   1     -50.792   1.061 -13.717  0.00  0.00     0.066 H 
BRANCH  28  38
ATOM     38  CAA 7XU d   1     -49.705  -2.731 -11.549  0.00  0.00     0.066 C 
ATOM     39  H8  7XU d   1     -49.675  -2.181 -10.597  0.00  0.00     0.068 H 
ATOM     40  H9  7XU d   1     -48.964  -3.544 -11.527  0.00  0.00     0.068 H 
ATOM     41  H10 7XU d   1     -50.710  -3.154 -11.696  0.00  0.00     0.068 H 
ENDBRANCH  28  38
ENDBRANCH  17  23
ENDBRANCH  11  13
ENDBRANCH   7  11
BRANCH   9  42
ATOM     42  CBG 7XU d   1     -50.708  -1.259 -22.476  0.00  0.00     0.036 C 
ATOM     43  CAO 7XU d   1     -51.029  -2.735 -22.431  0.00  0.00    -0.045 C 
ATOM     44  CAM 7XU d   1     -49.724  -3.496 -22.253  0.00  0.00    -0.063 C 
ATOM     45  H20 7XU d   1     -51.514  -3.040 -23.370  0.00  0.00     0.036 H 
ATOM     46  H21 7XU d   1     -51.702  -2.945 -21.586  0.00  0.00     0.036 H 
ATOM     47  CAL 7XU d   1     -49.013  -3.049 -20.980  0.00  0.00    -0.065 C 
ATOM     48  H22 7XU d   1     -49.072  -3.304 -23.118  0.00  0.00     0.033 H 
ATOM     49  H23 7XU d   1     -49.939  -4.573 -22.188  0.00  0.00     0.033 H 
ATOM     50  CAN 7XU d   1     -48.803  -1.546 -20.962  0.00  0.00    -0.063 C 
ATOM     51  H24 7XU d   1     -48.034  -3.548 -20.923  0.00  0.00     0.033 H 
ATOM     52  H25 7XU d   1     -49.622  -3.336 -20.110  0.00  0.00     0.033 H 
ATOM     53  CAP 7XU d   1     -50.123  -0.836 -21.146  0.00  0.00    -0.045 C 
ATOM     54  H26 7XU d   1     -48.121  -1.264 -21.778  0.00  0.00     0.033 H 
ATOM     55  H27 7XU d   1     -48.363  -1.252 -19.998  0.00  0.00     0.033 H 
ATOM     56  H28 7XU d   1     -50.810  -1.112 -20.333  0.00  0.00     0.036 H 
ATOM     57  H29 7XU d   1     -49.964   0.252 -21.139  0.00  0.00     0.036 H 
ATOM     58  H19 7XU d   1     -49.966  -1.084 -23.269  0.00  0.00     0.074 H 
ENDBRANCH   9  42
BRANCH   4  59
ATOM     59  NAY 7XU d   1     -51.725  -0.682 -25.050  0.00  0.00    -0.190 N 
ATOM     60  H30 7XU d   1     -51.004  -1.412 -24.957  0.00  0.00     0.184 HD
BRANCH  59  61
ATOM     61  CAZ 7XU d   1     -52.046  -0.244 -26.249  0.00  0.00     0.049 A 
ATOM     62  CAE 7XU d   1     -52.214   1.103 -26.478  0.00  0.00    -0.057 A 
ATOM     63  CAC 7XU d   1     -52.542   1.554 -27.744  0.00  0.00    -0.081 A 
ATOM     64  H31 7XU d   1     -52.089   1.810 -25.666  0.00  0.00     0.086 H 
ATOM     65  CAB 7XU d   1     -52.703   0.655 -28.779  0.00  0.00    -0.083 A 
ATOM     66  H32 7XU d   1     -52.673   2.615 -27.924  0.00  0.00     0.083 H 
ATOM     67  CAD 7XU d   1     -52.537  -0.695 -28.542  0.00  0.00    -0.081 A 
ATOM     68  H33 7XU d   1     -52.958   1.007 -29.772  0.00  0.00     0.083 H 
ATOM     69  CAF 7XU d   1     -52.205  -1.144 -27.279  0.00  0.00    -0.057 A 
ATOM     70  H34 7XU d   1     -52.668  -1.405 -29.350  0.00  0.00     0.083 H 
ATOM     71  H35 7XU d   1     -52.070  -2.204 -27.099  0.00  0.00     0.086 H 
ENDBRANCH  59  61
ENDBRANCH   4  59
TORSDOF 7
