REMARK  13 active torsions:
REMARK  status: ('A' for Active; 'I' for Inactive)
REMARK    1  A    between atoms: C06_16  and  C10_1 
REMARK    2  A    between atoms: O01_11  and  C17_4 
REMARK    3  A    between atoms: C20_5  and  O02_12 
REMARK    4  A    between atoms: C22_7  and  C21_6 
REMARK    5  A    between atoms: C21_6  and  O01_11 
REMARK    6  A    between atoms: C26_9  and  C24_8 
REMARK    7  A    between atoms: O03_13  and  C26_9 
REMARK    8  A    between atoms: C29_29  and  O03_13 
REMARK    9  A    between atoms: C35_35  and  N04_14 
REMARK   10  A    between atoms: C07_17  and  C06_16 
REMARK   11  A    between atoms: C06_16  and  C08_18 
REMARK   12  A    between atoms: C06_16  and  C09_19 
REMARK   13  A    between atoms: C32_32  and  C35_35 
ROOT
ATOM      1  C21 7Y9 d   1     115.457 181.430 283.666  0.00  0.00     0.050 C 
ATOM      2  H6  7Y9 d   1     115.468 182.511 283.872  0.00  0.00     0.082 H 
ATOM      3  H7  7Y9 d   1     115.118 181.257 282.634  0.00  0.00     0.082 H 
ENDROOT
BRANCH   1   4
ATOM      4  C22 7Y9 d   1     114.432 180.789 284.605  0.00  0.00    -0.034 A 
ATOM      5  C23 7Y9 d   1     113.125 181.194 284.448  0.00  0.00    -0.067 A 
ATOM      6  C24 7Y9 d   1     112.123 180.678 285.243  0.00  0.00    -0.034 A 
ATOM      7  H25 7Y9 d   1     112.880 181.928 283.689  0.00  0.00     0.085 H 
ATOM      8  C27 7Y9 d   1     112.433 179.734 286.208  0.00  0.00    -0.075 A 
ATOM      9  C28 7Y9 d   1     113.745 179.317 286.368  0.00  0.00    -0.082 A 
ATOM     10  H27 7Y9 d   1     111.651 179.322 286.836  0.00  0.00     0.084 H 
ATOM     11  C25 7Y9 d   1     114.748 179.847 285.574  0.00  0.00    -0.075 A 
ATOM     12  H10 7Y9 d   1     113.987 178.573 287.118  0.00  0.00     0.083 H 
ATOM     13  H26 7Y9 d   1     115.775 179.528 285.709  0.00  0.00     0.084 H 
BRANCH   6  14
ATOM     14  C26 7Y9 d   1     110.686 181.157 285.049  0.00  0.00     0.050 C 
ATOM     15  H8  7Y9 d   1     110.601 181.702 284.097  0.00  0.00     0.082 H 
ATOM     16  H9  7Y9 d   1     110.400 181.820 285.878  0.00  0.00     0.082 H 
BRANCH  14  17
ATOM     17  O03 7Y9 d   1     109.852 180.041 285.029  0.00  0.00    -0.347 OA
BRANCH  17  18
ATOM     18  C29 7Y9 d   1     108.489 180.313 285.119  0.00  0.00     0.069 A 
ATOM     19  C30 7Y9 d   1     107.597 179.288 284.846  0.00  0.00    -0.050 A 
ATOM     20  C33 7Y9 d   1     106.239 179.520 284.934  0.00  0.00    -0.067 A 
ATOM     21  H28 7Y9 d   1     107.964 178.308 284.564  0.00  0.00     0.087 H 
ATOM     22  C32 7Y9 d   1     105.799 180.779 285.299  0.00  0.00     0.007 A 
ATOM     23  H30 7Y9 d   1     105.530 178.729 284.721  0.00  0.00     0.085 H 
ATOM     24  C34 7Y9 d   1     106.684 181.804 285.578  0.00  0.00    -0.067 A 
ATOM     25  C31 7Y9 d   1     108.042 181.574 285.483  0.00  0.00    -0.050 A 
ATOM     26  H31 7Y9 d   1     106.314 182.781 285.869  0.00  0.00     0.085 H 
ATOM     27  H29 7Y9 d   1     108.749 182.369 285.690  0.00  0.00     0.087 H 
BRANCH  22  28
ATOM     28  C35 7Y9 d   1     104.317 181.049 285.409  0.00  0.00     0.102 C 
ATOM     29  N05 7Y9 d   1     103.566 180.147 285.844  0.00  0.00    -0.385 N 
ATOM     30  H14 7Y9 d   1     103.960 179.233 286.110  0.00  0.00     0.157 HD
ATOM     31  H15 7Y9 d   1     102.555 180.319 285.936  0.00  0.00     0.157 HD
BRANCH  28  32
ATOM     32  N04 7Y9 d   1     103.811 182.349 285.022  0.00  0.00    -0.385 N 
ATOM     33  H12 7Y9 d   1     104.457 183.069 284.668  0.00  0.00     0.157 HD
ATOM     34  H13 7Y9 d   1     102.805 182.554 285.101  0.00  0.00     0.157 HD
ENDBRANCH  28  32
ENDBRANCH  22  28
ENDBRANCH  17  18
ENDBRANCH  14  17
ENDBRANCH   6  14
ENDBRANCH   1   4
BRANCH   1  35
ATOM     35  O01 7Y9 d   1     116.773 180.967 283.763  0.00  0.00    -0.347 OA
BRANCH  35  36
ATOM     36  C17 7Y9 d   1     117.081 179.806 283.042  0.00  0.00     0.069 A 
ATOM     37  C15 7Y9 d   1     118.258 179.706 282.323  0.00  0.00    -0.050 A 
ATOM     38  C11 7Y9 d   1     118.522 178.535 281.634  0.00  0.00    -0.073 A 
ATOM     39  H5  7Y9 d   1     118.962 180.530 282.299  0.00  0.00     0.087 H 
ATOM     40  C07 7Y9 d   1     117.632 177.468 281.669  0.00  0.00    -0.045 A 
ATOM     41  H19 7Y9 d   1     119.437 178.449 281.058  0.00  0.00     0.084 H 
ATOM     42  C12 7Y9 d   1     116.467 177.582 282.378  0.00  0.00    -0.073 A 
ATOM     43  C16 7Y9 d   1     116.204 178.743 283.056  0.00  0.00    -0.050 A 
ATOM     44  H20 7Y9 d   1     115.759 176.762 282.403  0.00  0.00     0.084 H 
ATOM     45  H22 7Y9 d   1     115.281 178.828 283.619  0.00  0.00     0.087 H 
BRANCH  40  46
ATOM     46  C06 7Y9 d   1     117.841 176.141 280.948  0.00  0.00     0.007 C 
BRANCH  46  47
ATOM     47  C10 7Y9 d   1     117.021 175.089 281.698  0.00  0.00    -0.061 C 
ATOM     48  H1  7Y9 d   1     115.964 175.394 281.719  0.00  0.00     0.029 H 
ATOM     49  H2  7Y9 d   1     117.397 174.997 282.728  0.00  0.00     0.029 H 
ATOM     50  H3  7Y9 d   1     117.112 174.119 281.186  0.00  0.00     0.029 H 
ENDBRANCH  46  47
BRANCH  46  51
ATOM     51  C08 7Y9 d   1     119.312 175.700 280.928  0.00  0.00    -0.045 A 
ATOM     52  C13 7Y9 d   1     119.673 174.528 281.574  0.00  0.00    -0.073 A 
ATOM     53  C18 7Y9 d   1     120.992 174.101 281.567  0.00  0.00    -0.051 A 
ATOM     54  H4  7Y9 d   1     118.920 173.942 282.088  0.00  0.00     0.084 H 
ATOM     55  C20 7Y9 d   1     121.963 174.839 280.912  0.00  0.00     0.065 A 
ATOM     56  H23 7Y9 d   1     121.264 173.184 282.077  0.00  0.00     0.087 H 
ATOM     57  C19 7Y9 d   1     121.614 176.008 280.259  0.00  0.00    -0.051 A 
ATOM     58  C14 7Y9 d   1     120.294 176.427 280.262  0.00  0.00    -0.073 A 
ATOM     59  H24 7Y9 d   1     122.370 176.593 279.748  0.00  0.00     0.087 H 
ATOM     60  H21 7Y9 d   1     120.022 177.336 279.737  0.00  0.00     0.084 H 
BRANCH  55  61
ATOM     61  O02 7Y9 d   1     123.293 174.404 280.907  0.00  0.00    -0.361 OA
ATOM     62  H11 7Y9 d   1     123.825 175.020 280.417  0.00  0.00     0.217 HD
ENDBRANCH  55  61
ENDBRANCH  46  51
BRANCH  46  63
ATOM     63  C09 7Y9 d   1     117.281 176.250 279.538  0.00  0.00    -0.061 C 
ATOM     64  H16 7Y9 d   1     117.853 177.001 278.974  0.00  0.00     0.029 H 
ATOM     65  H17 7Y9 d   1     116.225 176.553 279.585  0.00  0.00     0.029 H 
ATOM     66  H18 7Y9 d   1     117.361 175.275 279.035  0.00  0.00     0.029 H 
ENDBRANCH  46  63
ENDBRANCH  40  46
ENDBRANCH  35  36
ENDBRANCH   1  35
TORSDOF 13
