REMARK  3 active torsions:
REMARK  status: ('A' for Active; 'I' for Inactive)
REMARK    1  A    between atoms: N14_14  and  C7_4 
REMARK    2  A    between atoms: C8_5  and  N13_13 
REMARK    3  A    between atoms: C9_10  and  N14_14 
ROOT
ATOM      1  N14 7ZF d   1      37.845  -8.219 -13.337  0.00  0.00    -0.188 N 
ATOM      2  H9  7ZF d   1      37.089  -8.754 -13.788  0.00  0.00     0.184 HD
ENDROOT
BRANCH   1   3
ATOM      3  C7  7ZF d   1      38.793  -7.565 -14.146  0.00  0.00     0.049 A 
ATOM      4  C4  7ZF d   1      39.413  -8.311 -15.121  0.00  0.00    -0.057 A 
ATOM      5  C2  7ZF d   1      40.352  -7.732 -15.941  0.00  0.00    -0.081 A 
ATOM      6  H1  7ZF d   1      39.160  -9.358 -15.243  0.00  0.00     0.086 H 
ATOM      7  C1  7ZF d   1      40.665  -6.398 -15.784  0.00  0.00    -0.083 A 
ATOM      8  H5  7ZF d   1      40.844  -8.321 -16.707  0.00  0.00     0.083 H 
ATOM      9  C3  7ZF d   1      40.043  -5.641 -14.810  0.00  0.00    -0.081 A 
ATOM     10  H4  7ZF d   1      41.405  -5.940 -16.430  0.00  0.00     0.083 H 
ATOM     11  C5  7ZF d   1      39.106  -6.225 -13.991  0.00  0.00    -0.057 A 
ATOM     12  H6  7ZF d   1      40.292  -4.593 -14.692  0.00  0.00     0.083 H 
ATOM     13  H2  7ZF d   1      38.613  -5.638 -13.225  0.00  0.00     0.086 H 
ENDBRANCH   1   3
BRANCH   1  14
ATOM     14  C9  7ZF d   1      37.897  -8.166 -11.939  0.00  0.00     0.744 A 
ATOM     15  N12 7ZF d   1      36.947  -8.807 -11.266  0.00  0.00     0.130 NA
ATOM     16  C8  7ZF d   1      37.045  -8.688  -9.932  0.00  0.00     0.737 A 
ATOM     17  N10 7ZF d   1      37.990  -8.027  -9.256  0.00  0.00    -0.055 NA
ATOM     18  C6  7ZF d   1      38.888  -7.440 -10.040  0.00  0.00     0.124 A 
ATOM     19  N11 7ZF d   1      38.886  -7.465 -11.366  0.00  0.00    -0.055 NA
ATOM     20  H3  7ZF d   1      39.690  -6.895  -9.555  0.00  0.00     0.148 H 
BRANCH  16  21
ATOM     21  N13 7ZF d   1      36.084  -9.313  -9.196  0.00  0.00    -0.230 N 
ATOM     22  H7  7ZF d   1      35.333  -9.836  -9.668  0.00  0.00     0.174 HD
ATOM     23  H8  7ZF d   1      36.109  -9.262  -8.168  0.00  0.00     0.174 HD
ENDBRANCH  16  21
ENDBRANCH   1  14
TORSDOF 3
