REMARK  3 active torsions:
REMARK  status: ('A' for Active; 'I' for Inactive)
REMARK    1  A    between atoms: N14_14  and  C7_4 
REMARK    2  A    between atoms: C10_6  and  N13_13 
REMARK    3  A    between atoms: C9_11  and  N14_14 
ROOT
ATOM      1  N14 7ZL d   1      38.288  -8.557 -13.491  0.00  0.00    -0.339 N 
ATOM      2  H9  7ZL d   1      37.457  -9.004 -13.904  0.00  0.00     0.167 HD
ENDROOT
BRANCH   1   3
ATOM      3  C7  7ZL d   1      39.259  -8.064 -14.384  0.00  0.00     0.033 A 
ATOM      4  C4  7ZL d   1      39.776  -6.779 -14.244  0.00  0.00    -0.057 A 
ATOM      5  C2  7ZL d   1      40.728  -6.301 -15.121  0.00  0.00    -0.081 A 
ATOM      6  H1  7ZL d   1      39.426  -6.146 -13.436  0.00  0.00     0.086 H 
ATOM      7  C1  7ZL d   1      41.182  -7.085 -16.157  0.00  0.00    -0.083 A 
ATOM      8  H5  7ZL d   1      41.122  -5.299 -14.993  0.00  0.00     0.083 H 
ATOM      9  C3  7ZL d   1      40.667  -8.361 -16.283  0.00  0.00    -0.081 A 
ATOM     10  H4  7ZL d   1      41.923  -6.712 -16.855  0.00  0.00     0.083 H 
ATOM     11  C5  7ZL d   1      39.718  -8.850 -15.408  0.00  0.00    -0.057 A 
ATOM     12  H6  7ZL d   1      41.017  -8.994 -17.090  0.00  0.00     0.083 H 
ATOM     13  H2  7ZL d   1      39.336  -9.857 -15.531  0.00  0.00     0.086 H 
ENDBRANCH   1   3
BRANCH   1  14
ATOM     14  C9  7ZL d   1      38.347  -8.496 -12.095  0.00  0.00     0.170 A 
ATOM     15  C8  7ZL d   1      37.308  -8.978 -11.325  0.00  0.00     0.098 A 
ATOM     16  C6  7ZL d   1      37.407  -8.873  -9.959  0.00  0.00     0.046 A 
ATOM     17 CL1  7ZL d   1      35.894  -9.694 -11.984  0.00  0.00    -0.079 Cl
ATOM     18  N11 7ZL d   1      38.470  -8.336  -9.353  0.00  0.00    -0.074 NA
ATOM     19  H3  7ZL d   1      36.590  -9.240  -9.348  0.00  0.00     0.118 H 
ATOM     20  C10 7ZL d   1      39.438  -7.912 -10.178  0.00  0.00     0.722 A 
ATOM     21  N12 7ZL d   1      39.431  -7.962 -11.516  0.00  0.00    -0.044 NA
BRANCH  20  22
ATOM     22  N13 7ZL d   1      40.562  -7.362  -9.600  0.00  0.00    -0.231 N 
ATOM     23  H7  7ZL d   1      41.332  -7.022 -10.193  0.00  0.00     0.174 HD
ATOM     24  H8  7ZL d   1      40.632  -7.291  -8.575  0.00  0.00     0.174 HD
ENDBRANCH  20  22
ENDBRANCH   1  14
TORSDOF 3
