REMARK  10 active torsions:
REMARK  status: ('A' for Active; 'I' for Inactive)
REMARK    1  A    between atoms: N30_16  and  C35_1 
REMARK    2  A    between atoms: S31_14  and  C34_2 
REMARK    3  A    between atoms: C6_5  and  C8_9 
REMARK    4  A    between atoms: C12_19  and  C13_6 
REMARK    5  A    between atoms: C20_7  and  N30_16 
REMARK    6  A    between atoms: N30_16  and  S31_14 
REMARK    7  A    between atoms: N10_20  and  C12_19 
REMARK    8  A    between atoms: C5_21  and  N10_20 
REMARK    9  A    between atoms: N9_27  and  C3_26 
REMARK   10  A    between atoms: N9_27  and  C11_28 
ROOT
ATOM      1  N2  YAM d   1      36.972  -8.708 -11.548  0.00  0.00    -0.074 NA
ATOM      2  C7  YAM d   1      36.810  -8.434 -10.243  0.00  0.00     0.039 A 
ATOM      3  C6  YAM d   1      37.688  -7.678  -9.489  0.00  0.00     0.112 A 
ATOM      4  C5  YAM d   1      38.807  -7.199 -10.150  0.00  0.00     0.159 A 
ATOM      5  N4  YAM d   1      38.984  -7.456 -11.457  0.00  0.00    -0.044 NA
ATOM      6  C3  YAM d   1      38.065  -8.181 -12.121  0.00  0.00     0.728 A 
ATOM      7  H7  YAM d   1      35.932  -8.832  -9.748  0.00  0.00     0.117 H 
ENDROOT
BRANCH   4   8
ATOM      8  N10 YAM d   1      39.758  -6.418  -9.450  0.00  0.00    -0.369 N 
ATOM      9  H14 YAM d   1      39.588  -6.156  -8.469  0.00  0.00     0.161 HD
BRANCH   8  10
ATOM     10  C12 YAM d   1      40.970  -5.988 -10.115  0.00  0.00     0.021 C 
ATOM     11  H12 YAM d   1      41.679  -5.684  -9.331  0.00  0.00     0.071 H 
ATOM     12  H13 YAM d   1      41.370  -6.860 -10.653  0.00  0.00     0.071 H 
BRANCH  10  13
ATOM     13  C13 YAM d   1      40.893  -4.866 -11.094  0.00  0.00     0.006 A 
ATOM     14  C20 YAM d   1      41.920  -4.695 -12.016  0.00  0.00     0.146 A 
ATOM     15  N1  YAM d   1      41.942  -3.707 -12.926  0.00  0.00    -0.242 NA
ATOM     16  C19 YAM d   1      40.897  -2.867 -12.906  0.00  0.00     0.004 A 
ATOM     17  C18 YAM d   1      39.837  -2.959 -12.027  0.00  0.00    -0.065 A 
ATOM     18  H10 YAM d   1      40.884  -2.060 -13.630  0.00  0.00     0.114 H 
ATOM     19  C17 YAM d   1      39.834  -3.979 -11.100  0.00  0.00    -0.070 A 
ATOM     20  H8  YAM d   1      39.023  -2.244 -12.065  0.00  0.00     0.085 H 
ATOM     21  H11 YAM d   1      39.020  -4.083 -10.392  0.00  0.00     0.084 H 
BRANCH  14  22
ATOM     22  N30 YAM d   1      43.044  -5.633 -12.009  0.00  0.00    -0.264 N 
BRANCH  22  23
ATOM     23  C35 YAM d   1      43.472  -6.212 -13.314  0.00  0.00    -0.002 C 
ATOM     24  H1  YAM d   1      42.584  -6.449 -13.919  0.00  0.00     0.058 H 
ATOM     25  H2  YAM d   1      44.050  -7.131 -13.136  0.00  0.00     0.058 H 
ATOM     26  H3  YAM d   1      44.098  -5.484 -13.851  0.00  0.00     0.058 H 
ENDBRANCH  22  23
BRANCH  22  27
ATOM     27  S31 YAM d   1      44.317  -5.200 -10.927  0.00  0.00     0.230 S 
ATOM     28  O33 YAM d   1      45.564  -5.076 -11.657  0.00  0.00    -0.206 OA
ATOM     29  O32 YAM d   1      43.859  -4.144 -10.038  0.00  0.00    -0.206 OA
BRANCH  27  30
ATOM     30  C34 YAM d   1      44.439  -6.711  -9.988  0.00  0.00     0.033 C 
ATOM     31  H4  YAM d   1      44.785  -7.524 -10.644  0.00  0.00     0.051 H 
ATOM     32  H5  YAM d   1      43.452  -6.967  -9.576  0.00  0.00     0.051 H 
ATOM     33  H6  YAM d   1      45.156  -6.574  -9.165  0.00  0.00     0.051 H 
ENDBRANCH  27  30
ENDBRANCH  22  27
ENDBRANCH  14  22
ENDBRANCH  10  13
ENDBRANCH   8  10
ENDBRANCH   4   8
BRANCH   3  34
ATOM     34  C8  YAM d   1      37.433  -7.393  -8.034  0.00  0.00     0.422 C 
ATOM     35  F29 YAM d   1      36.253  -7.853  -7.542  0.00  0.00    -0.166 F 
ATOM     36  F28 YAM d   1      38.448  -7.681  -7.188  0.00  0.00    -0.166 F 
ATOM     37  F27 YAM d   1      37.289  -6.054  -7.837  0.00  0.00    -0.166 F 
ENDBRANCH   3  34
BRANCH   6  38
ATOM     38  N9  YAM d   1      38.248  -8.411 -13.496  0.00  0.00    -0.188 N 
ATOM     39  H15 YAM d   1      37.556  -9.022 -13.952  0.00  0.00     0.184 HD
BRANCH  38  40
ATOM     40  C11 YAM d   1      39.259  -7.907 -14.313  0.00  0.00     0.050 A 
ATOM     41  C16 YAM d   1      39.560  -6.554 -14.236  0.00  0.00    -0.054 A 
ATOM     42  C15 YAM d   1      40.556  -6.010 -15.020  0.00  0.00    -0.054 A 
ATOM     43  H9  YAM d   1      39.007  -5.919 -13.553  0.00  0.00     0.087 H 
ATOM     44  C21 YAM d   1      41.227  -6.848 -15.878  0.00  0.00     0.041 A 
ATOM     45  H19 YAM d   1      40.801  -4.956 -14.961  0.00  0.00     0.087 H 
ATOM     46  C22 YAM d   1      40.936  -8.182 -15.969  0.00  0.00    -0.021 A 
ATOM     47  N25 YAM d   1      42.245  -6.533 -16.760  0.00  0.00    -0.326 N 
ATOM     48  C14 YAM d   1      39.945  -8.731 -15.187  0.00  0.00    -0.048 A 
ATOM     49  C23 YAM d   1      41.824  -8.825 -16.987  0.00  0.00     0.035 A 
ATOM     50  H16 YAM d   1      39.707  -9.787 -15.255  0.00  0.00     0.087 H 
ATOM     51  C24 YAM d   1      42.715  -7.666 -17.394  0.00  0.00     0.226 A 
ATOM     52  H17 YAM d   1      41.245  -9.205 -17.842  0.00  0.00     0.054 H 
ATOM     53  H18 YAM d   1      42.410  -9.646 -16.547  0.00  0.00     0.054 H 
ATOM     54  O26 YAM d   1      43.685  -7.746 -18.133  0.00  0.00    -0.273 OA
ATOM     55  H20 YAM d   1      42.594  -5.609 -16.917  0.00  0.00     0.169 HD
ENDBRANCH  38  40
ENDBRANCH   6  38
TORSDOF 10
