REMARK  2 active torsions:
REMARK  status: ('A' for Active; 'I' for Inactive)
REMARK    1  A    between atoms: N16_16  and  C8_5 
REMARK    2  A    between atoms: C10_6  and  N16_16 
ROOT
ATOM      1  C6  7ZO d   1      41.129  -8.630 -16.241  0.00  0.00    -0.021 A 
ATOM      2  C7  7ZO d   1      41.529  -7.326 -16.177  0.00  0.00     0.041 A 
ATOM      3  C8  7ZO d   1      39.506  -8.215 -14.582  0.00  0.00     0.034 A 
ATOM      4  C1  7ZO d   1      40.941  -6.425 -15.327  0.00  0.00    -0.054 A 
ATOM      5  C2  7ZO d   1      39.915  -6.894 -14.515  0.00  0.00    -0.055 A 
ATOM      6  C3  7ZO d   1      40.116  -9.102 -15.442  0.00  0.00    -0.049 A 
ATOM      7  C11 7ZO d   1      42.903  -8.293 -17.731  0.00  0.00     0.226 A 
ATOM      8  C12 7ZO d   1      41.955  -9.361 -17.251  0.00  0.00     0.035 A 
ATOM      9  N15 7ZO d   1      42.556  -7.135 -17.079  0.00  0.00    -0.326 N 
ATOM     10  O17 7ZO d   1      43.812  -8.458 -18.538  0.00  0.00    -0.273 OA
ATOM     11  H3  7ZO d   1      41.263  -5.391 -15.290  0.00  0.00     0.087 H 
ATOM     12  H4  7ZO d   1      39.429  -6.218 -13.821  0.00  0.00     0.087 H 
ATOM     13  H5  7ZO d   1      39.806 -10.140 -15.487  0.00  0.00     0.087 H 
ATOM     14  H6  7ZO d   1      41.332  -9.739 -18.075  0.00  0.00     0.054 H 
ATOM     15  H7  7ZO d   1      42.500 -10.197 -16.789  0.00  0.00     0.054 H 
ATOM     16  H8  7ZO d   1      42.998  -6.253 -17.240  0.00  0.00     0.169 HD
ENDROOT
BRANCH   3  17
ATOM     17  N16 7ZO d   1      38.492  -8.678 -13.748  0.00  0.00    -0.340 N 
ATOM     18  H9  7ZO d   1      37.666  -9.118 -14.179  0.00  0.00     0.167 HD
BRANCH  17  19
ATOM     19  C10 7ZO d   1      38.540  -8.575 -12.354  0.00  0.00     0.152 A 
ATOM     20  C9  7ZO d   1      37.513  -9.038 -11.549  0.00  0.00     0.097 A 
ATOM     21  C4  7ZO d   1      37.643  -8.876 -10.186  0.00  0.00     0.028 A 
ATOM     22 CL1  7ZO d   1      36.084  -9.817 -12.137  0.00  0.00    -0.079 Cl
ATOM     23  N13 7ZO d   1      38.701  -8.292  -9.617  0.00  0.00    -0.252 NA
ATOM     24  H1  7ZO d   1      36.848  -9.240  -9.545  0.00  0.00     0.117 H 
ATOM     25  C5  7ZO d   1      39.635  -7.889 -10.481  0.00  0.00     0.088 A 
ATOM     26  N14 7ZO d   1      39.614  -8.000 -11.813  0.00  0.00    -0.223 NA
ATOM     27  H2  7ZO d   1      40.512  -7.417 -10.053  0.00  0.00     0.146 H 
ENDBRANCH  17  19
ENDBRANCH   3  17
TORSDOF 2
