REMARK  5 active torsions:
REMARK  status: ('A' for Active; 'I' for Inactive)
REMARK    1  A    between atoms: C18_18  and  C10_6 
REMARK    2  A    between atoms: N24_24  and  C15_8 
REMARK    3  A    between atoms: N23_23  and  C12_15 
REMARK    4  A    between atoms: C14_16  and  N23_23 
REMARK    5  A    between atoms: C18_18  and  N24_24 
ROOT
ATOM      1  C8  7Z6 d   1      37.655  -9.007  -9.979  0.00  0.00     0.046 A 
ATOM      2  C13 7Z6 d   1      37.541  -9.113 -11.353  0.00  0.00     0.098 A 
ATOM      3  C15 7Z6 d   1      39.692  -7.984 -10.217  0.00  0.00     0.724 A 
ATOM      4  C14 7Z6 d   1      38.571  -8.614 -12.134  0.00  0.00     0.170 A 
ATOM      5  N20 7Z6 d   1      38.722  -8.440  -9.397  0.00  0.00    -0.073 NA
ATOM      6  N21 7Z6 d   1      39.646  -8.052 -11.560  0.00  0.00    -0.043 NA
ATOM      7 CL1  7Z6 d   1      36.135  -9.842 -12.044  0.00  0.00    -0.079 Cl
ATOM      8  H5  7Z6 d   1      36.858  -9.394  -9.354  0.00  0.00     0.118 H 
ENDROOT
BRANCH   4   9
ATOM      9  N23 7Z6 d   1      38.512  -8.683 -13.540  0.00  0.00    -0.339 N 
ATOM     10  H14 7Z6 d   1      37.675  -9.107 -13.964  0.00  0.00     0.167 HD
BRANCH   9  11
ATOM     11  C12 7Z6 d   1      39.517  -8.213 -14.405  0.00  0.00     0.034 A 
ATOM     12  C4  7Z6 d   1      39.875  -6.875 -14.345  0.00  0.00    -0.055 A 
ATOM     13  C3  7Z6 d   1      40.869  -6.371 -15.154  0.00  0.00    -0.054 A 
ATOM     14  H1  7Z6 d   1      39.365  -6.216 -13.651  0.00  0.00     0.087 H 
ATOM     15  C11 7Z6 d   1      41.485  -7.243 -16.019  0.00  0.00     0.041 A 
ATOM     16  H10 7Z6 d   1      41.155  -5.326 -15.110  0.00  0.00     0.087 H 
ATOM     17  C9  7Z6 d   1      41.147  -8.565 -16.094  0.00  0.00    -0.021 A 
ATOM     18  N22 7Z6 d   1      42.500  -6.976 -16.928  0.00  0.00    -0.326 N 
ATOM     19  C5  7Z6 d   1      40.159  -9.074 -15.283  0.00  0.00    -0.049 A 
ATOM     20  C17 7Z6 d   1      41.994  -9.239 -17.122  0.00  0.00     0.035 A 
ATOM     21  H2  7Z6 d   1      39.889 -10.123 -15.329  0.00  0.00     0.087 H 
ATOM     22  C16 7Z6 d   1      42.884  -8.115 -17.609  0.00  0.00     0.226 A 
ATOM     23  H6  7Z6 d   1      41.379  -9.641 -17.941  0.00  0.00     0.054 H 
ATOM     24  H7  7Z6 d   1      42.588 -10.051 -16.677  0.00  0.00     0.054 H 
ATOM     25  O25 7Z6 d   1      43.777  -8.213 -18.441  0.00  0.00    -0.273 OA
ATOM     26  H13 7Z6 d   1      42.903  -6.072 -17.072  0.00  0.00     0.169 HD
ENDBRANCH   9  11
ENDBRANCH   4   9
BRANCH   3  27
ATOM     27  N24 7Z6 d   1      40.818  -7.402  -9.605  0.00  0.00    -0.218 N 
ATOM     28  H15 7Z6 d   1      40.849  -7.339  -8.577  0.00  0.00     0.178 HD
BRANCH  27  29
ATOM     29  C18 7Z6 d   1      41.941  -6.886 -10.377  0.00  0.00     0.034 C 
ATOM     30  H11 7Z6 d   1      42.815  -6.801  -9.714  0.00  0.00     0.072 H 
ATOM     31  H12 7Z6 d   1      42.164  -7.593 -11.189  0.00  0.00     0.072 H 
BRANCH  29  32
ATOM     32  C10 7Z6 d   1      41.663  -5.546 -10.974  0.00  0.00    -0.022 A 
ATOM     33  C7  7Z6 d   1      42.402  -5.142 -12.066  0.00  0.00     0.009 A 
ATOM     34  N19 7Z6 d   1      42.255  -3.969 -12.697  0.00  0.00    -0.273 NA
ATOM     35  H4  7Z6 d   1      43.157  -5.823 -12.441  0.00  0.00     0.115 H 
ATOM     36  C6  7Z6 d   1      41.311  -3.164 -12.190  0.00  0.00     0.002 A 
ATOM     37  C1  7Z6 d   1      40.519  -3.469 -11.102  0.00  0.00    -0.065 A 
ATOM     38  H3  7Z6 d   1      41.159  -2.204 -12.669  0.00  0.00     0.114 H 
ATOM     39  C2  7Z6 d   1      40.698  -4.687 -10.479  0.00  0.00    -0.072 A 
ATOM     40  H8  7Z6 d   1      39.773  -2.768 -10.745  0.00  0.00     0.085 H 
ATOM     41  H9  7Z6 d   1      40.096  -4.965  -9.621  0.00  0.00     0.084 H 
ENDBRANCH  29  32
ENDBRANCH  27  29
ENDBRANCH   3  27
TORSDOF 5
