REMARK  8 active torsions:
REMARK  status: ('A' for Active; 'I' for Inactive)
REMARK       I    between atoms: N14_3  and  C1_1 
REMARK    1  A    between atoms: C3_5  and  C2_4 
REMARK       I    between atoms: N15_6  and  C3_5 
REMARK    2  A    between atoms: O24_21  and  N15_6 
REMARK    3  A    between atoms: C6_9  and  N16_12 
REMARK    4  A    between atoms: N16_12  and  O10_14 
REMARK    5  A    between atoms: O10_14  and  S17_13 
REMARK    6  A    between atoms: C22_19  and  N21_18 
REMARK    7  A    between atoms: C23_20  and  C22_19 
REMARK    8  A    between atoms: C23_20  and  O24_21 
ROOT
ATOM      1  C1  OP0 d   1       7.115  -1.889  21.351  0.00  0.00     0.171 C 
ATOM      2  O8  OP0 d   1       7.893  -2.632  21.954  0.00  0.00    -0.284 OA
ATOM      3  N14 OP0 d   1       5.876  -1.916  21.521  0.00  0.00    -0.344 N 
ATOM      4  C2  OP0 d   1       5.216  -2.872  22.391  0.00  0.00     0.093 C 
ATOM      5  C7  OP0 d   1       5.046  -0.859  21.032  0.00  0.00     0.027 C 
ATOM      6  C6  OP0 d   1       4.724   0.006  22.222  0.00  0.00     0.147 C 
ATOM      7  C5  OP0 d   1       3.926  -0.836  23.216  0.00  0.00    -0.032 C 
ATOM      8  C4  OP0 d   1       4.681  -2.113  23.604  0.00  0.00    -0.036 C 
ATOM      9  H1  OP0 d   1       7.526  -1.176  20.637  0.00  0.00     0.180 H 
ATOM     10  H2  OP0 d   1       5.946  -3.616  22.742  0.00  0.00     0.087 H 
ATOM     11  H4  OP0 d   1       4.122  -1.269  20.598  0.00  0.00     0.067 H 
ATOM     12  H5  OP0 d   1       5.582  -0.275  20.270  0.00  0.00     0.067 H 
ATOM     13  H6  OP0 d   1       4.059   0.813  21.882  0.00  0.00     0.091 H 
ATOM     14  H7  OP0 d   1       2.965  -1.114  22.759  0.00  0.00     0.036 H 
ATOM     15  H8  OP0 d   1       3.742  -0.240  24.122  0.00  0.00     0.036 H 
ATOM     16  H9  OP0 d   1       5.528  -1.839  24.250  0.00  0.00     0.036 H 
ATOM     17  H10 OP0 d   1       3.996  -2.772  24.158  0.00  0.00     0.036 H 
ENDROOT
BRANCH   4  18
ATOM     18  C3  OP0 d   1       4.172  -3.578  21.603  0.00  0.00     0.264 C 
ATOM     19  N15 OP0 d   1       3.117  -3.992  22.288  0.00  0.00    -0.233 N 
ATOM     20  H3  OP0 d   1       2.966  -3.681  23.226  0.00  0.00     0.197 HD
ATOM     21  O9  OP0 d   1       4.386  -3.788  20.393  0.00  0.00    -0.269 OA
BRANCH  19  22
ATOM     22  O24 OP0 d   1       2.260  -4.830  21.706  0.00  0.00    -0.276 OA
BRANCH  22  23
ATOM     23  C23 OP0 d   1       2.161  -6.158  22.222  0.00  0.00     0.068 C 
ATOM     24  H18 OP0 d   1       2.521  -6.163  23.261  0.00  0.00     0.080 H 
ATOM     25  H19 OP0 d   1       1.107  -6.471  22.198  0.00  0.00     0.080 H 
BRANCH  23  26
ATOM     26  C22 OP0 d   1       2.990  -7.153  21.408  0.00  0.00     0.101 C 
ATOM     27  H16 OP0 d   1       3.718  -6.588  20.808  0.00  0.00     0.078 H 
ATOM     28  H17 OP0 d   1       3.524  -7.813  22.108  0.00  0.00     0.078 H 
BRANCH  26  29
ATOM     29  N21 OP0 d   1       2.183  -7.999  20.490  0.00  0.00    -0.077 N 
ATOM     30  H13 OP0 d   1       2.792  -8.627  19.989  0.00  0.00     0.274 HD
ATOM     31  H14 OP0 d   1       1.694  -7.411  19.834  0.00  0.00     0.274 HD
ATOM     32  H15 OP0 d   1       1.516  -8.533  21.024  0.00  0.00     0.274 HD
ENDBRANCH  26  29
ENDBRANCH  23  26
ENDBRANCH  22  23
ENDBRANCH  19  22
ENDBRANCH   4  18
BRANCH   6  33
ATOM     33  N16 OP0 d   1       5.952   0.674  22.756  0.00  0.00     0.061 N 
ATOM     34  H11 OP0 d   1       5.716   1.620  23.011  0.00  0.00     0.316 HD
ATOM     35  H12 OP0 d   1       6.651   0.686  22.030  0.00  0.00     0.316 HD
BRANCH  33  36
ATOM     36  O10 OP0 d   1       6.463   0.062  23.825  0.00  0.00    -0.054 OA
BRANCH  36  37
ATOM     37  S17 OP0 d   1       7.893   0.411  24.120  0.00  0.00     0.279 S 
ATOM     38  O13 OP0 d   1       8.549  -0.456  25.039  0.00  0.00    -0.571 OA
ATOM     39  O12 OP0 d   1       7.804   1.675  24.778  0.00  0.00    -0.571 OA
ATOM     40  O11 OP0 d   1       8.667   0.440  22.712  0.00  0.00    -0.571 OA
ENDBRANCH  36  37
ENDBRANCH  33  36
ENDBRANCH   6  33
TORSDOF 8
