REMARK  2 active torsions:
REMARK  status: ('A' for Active; 'I' for Inactive)
REMARK    1  A    between atoms: CAL_7  and  CAH_8 
REMARK    2  A    between atoms: NAI_18  and  CAK_19 
ROOT
ATOM      1  CAH P59 d   1     -19.097  17.872 128.953  0.00  0.00     0.114 C 
ATOM      2  NAG P59 d   1     -20.025  19.036 128.928  0.00  0.00    -0.363 N 
ATOM      3  CAE P59 d   1     -20.945  19.131 127.899  0.00  0.00     0.045 A 
ATOM      4  CAD P59 d   1     -22.041  19.951 128.048  0.00  0.00    -0.056 A 
ATOM      5  CAC P59 d   1     -22.985  20.074 127.024  0.00  0.00    -0.081 A 
ATOM      6  CAB P59 d   1     -22.777  19.369 125.863  0.00  0.00    -0.082 A 
ATOM      7  CAA P59 d   1     -21.659  18.529 125.705  0.00  0.00    -0.065 A 
ATOM      8  CAF P59 d   1     -20.758  18.379 126.740  0.00  0.00     0.059 A 
ATOM      9  CAJ P59 d   1     -19.579  17.649 126.567  0.00  0.00     0.262 C 
ATOM     10  OAM P59 d   1     -19.175  17.344 125.429  0.00  0.00    -0.267 OA
ATOM     11  NAI P59 d   1     -18.713  17.495 127.578  0.00  0.00    -0.288 N 
ATOM     12  H5  P59 d   1     -18.196  18.154 129.517  0.00  0.00     0.116 H 
ATOM     13  H6  P59 d   1     -19.983  19.757 129.663  0.00  0.00     0.162 HD
ATOM     14  H7  P59 d   1     -22.173  20.507 128.969  0.00  0.00     0.086 H 
ATOM     15  H8  P59 d   1     -23.857  20.708 127.143  0.00  0.00     0.083 H 
ATOM     16  H9  P59 d   1     -23.489  19.462 125.051  0.00  0.00     0.083 H 
ATOM     17  H10 P59 d   1     -21.506  18.000 124.771  0.00  0.00     0.085 H 
ENDROOT
BRANCH   1  18
ATOM     18  CAL P59 d   1     -19.691  16.745 129.568  0.00  0.00     0.023 A 
ATOM     19  CAS P59 d   1     -19.752  16.729 130.955  0.00  0.00     0.126 A 
ATOM     20  FAX P59 d   1     -19.277  17.726 131.586  0.00  0.00    -0.205 F 
ATOM     21  CAT P59 d   1     -20.305  15.662 131.653  0.00  0.00    -0.045 A 
ATOM     22  CAU P59 d   1     -20.805  14.551 130.997  0.00  0.00    -0.080 A 
ATOM     23  H1  P59 d   1     -20.346  15.701 132.736  0.00  0.00     0.088 H 
ATOM     24  CAV P59 d   1     -20.772  14.540 129.603  0.00  0.00    -0.082 A 
ATOM     25  H2  P59 d   1     -21.211  13.713 131.551  0.00  0.00     0.083 H 
ATOM     26  CAW P59 d   1     -20.188  15.611 128.891  0.00  0.00    -0.070 A 
ATOM     27  H3  P59 d   1     -21.198  13.703 129.062  0.00  0.00     0.083 H 
ATOM     28  H4  P59 d   1     -20.121  15.561 127.810  0.00  0.00     0.084 H 
ENDBRANCH   1  18
BRANCH  11  29
ATOM     29  CAK P59 d   1     -17.467  17.059 127.333  0.00  0.00     0.040 A 
ATOM     30  CAN P59 d   1     -16.514  18.057 127.055  0.00  0.00    -0.057 A 
ATOM     31  CAO P59 d   1     -15.185  17.761 126.816  0.00  0.00    -0.081 A 
ATOM     32  H11 P59 d   1     -16.833  19.093 127.027  0.00  0.00     0.086 H 
ATOM     33  CAP P59 d   1     -14.785  16.441 126.795  0.00  0.00    -0.083 A 
ATOM     34  H12 P59 d   1     -14.467  18.555 126.647  0.00  0.00     0.083 H 
ATOM     35  CAQ P59 d   1     -15.720  15.425 127.030  0.00  0.00    -0.081 A 
ATOM     36  H13 P59 d   1     -13.749  16.191 126.597  0.00  0.00     0.083 H 
ATOM     37  CAR P59 d   1     -17.073  15.733 127.305  0.00  0.00    -0.057 A 
ATOM     38  H14 P59 d   1     -15.403  14.389 127.001  0.00  0.00     0.083 H 
ATOM     39  H15 P59 d   1     -17.790  14.942 127.491  0.00  0.00     0.086 H 
ENDBRANCH  11  29
TORSDOF 2
