REMARK  2 active torsions:
REMARK  status: ('A' for Active; 'I' for Inactive)
REMARK    1  A    between atoms: CAL_7  and  CAH_8 
REMARK    2  A    between atoms: NAI_18  and  CAK_19 
ROOT
ATOM      1  CAH P59 d   1      18.896 -17.789  13.436  0.00  0.00     0.114 C 
ATOM      2  NAG P59 d   1      19.833 -18.904  13.387  0.00  0.00    -0.363 N 
ATOM      3  CAE P59 d   1      20.707 -18.978  12.331  0.00  0.00     0.045 A 
ATOM      4  CAD P59 d   1      21.841 -19.717  12.480  0.00  0.00    -0.056 A 
ATOM      5  CAC P59 d   1      22.751 -19.814  11.462  0.00  0.00    -0.081 A 
ATOM      6  CAB P59 d   1      22.475 -19.176  10.282  0.00  0.00    -0.082 A 
ATOM      7  CAA P59 d   1      21.303 -18.458  10.138  0.00  0.00    -0.065 A 
ATOM      8  CAF P59 d   1      20.429 -18.311  11.182  0.00  0.00     0.059 A 
ATOM      9  CAJ P59 d   1      19.201 -17.661  11.048  0.00  0.00     0.262 C 
ATOM     10  OAM P59 d   1      18.717 -17.440   9.953  0.00  0.00    -0.267 OA
ATOM     11  NAI P59 d   1      18.385 -17.516  12.090  0.00  0.00    -0.288 N 
ATOM     12  H5  P59 d   1      18.050 -18.055  14.087  0.00  0.00     0.116 H 
ATOM     13  H6  P59 d   1      19.839 -19.620  14.127  0.00  0.00     0.162 HD
ATOM     14  H7  P59 d   1      22.025 -20.234  13.415  0.00  0.00     0.086 H 
ATOM     15  H8  P59 d   1      23.666 -20.381  11.587  0.00  0.00     0.083 H 
ATOM     16  H9  P59 d   1      23.178 -19.234   9.459  0.00  0.00     0.083 H 
ATOM     17  H10 P59 d   1      21.071 -18.003   9.182  0.00  0.00     0.085 H 
ENDROOT
BRANCH   1  18
ATOM     18  CAL P59 d   1      19.553 -16.660  13.979  0.00  0.00     0.023 A 
ATOM     19  CAS P59 d   1      19.704 -16.634  15.350  0.00  0.00     0.126 A 
ATOM     20  FAX P59 d   1      19.231 -17.713  16.075  0.00  0.00    -0.205 F 
ATOM     21  CAT P59 d   1      20.342 -15.552  15.989  0.00  0.00    -0.045 A 
ATOM     22  CAU P59 d   1      20.823 -14.449  15.278  0.00  0.00    -0.080 A 
ATOM     23  H1  P59 d   1      20.463 -15.576  17.066  0.00  0.00     0.088 H 
ATOM     24  CAV P59 d   1      20.669 -14.459  13.890  0.00  0.00    -0.082 A 
ATOM     25  H2  P59 d   1      21.298 -13.617  15.785  0.00  0.00     0.083 H 
ATOM     26  CAW P59 d   1      20.025 -15.547  13.250  0.00  0.00    -0.070 A 
ATOM     27  H3  P59 d   1      21.044 -13.631  13.300  0.00  0.00     0.083 H 
ATOM     28  H4  P59 d   1      19.892 -15.524  12.175  0.00  0.00     0.084 H 
ENDBRANCH   1  18
BRANCH  11  29
ATOM     29  CAK P59 d   1      17.120 -17.138  11.954  0.00  0.00     0.040 A 
ATOM     30  CAN P59 d   1      16.212 -18.165  11.781  0.00  0.00    -0.057 A 
ATOM     31  CAO P59 d   1      14.863 -17.931  11.635  0.00  0.00    -0.081 A 
ATOM     32  H11 P59 d   1      16.573 -19.187  11.759  0.00  0.00     0.086 H 
ATOM     33  CAP P59 d   1      14.421 -16.626  11.647  0.00  0.00    -0.083 A 
ATOM     34  H12 P59 d   1      14.166 -18.753  11.514  0.00  0.00     0.083 H 
ATOM     35  CAQ P59 d   1      15.327 -15.577  11.791  0.00  0.00    -0.081 A 
ATOM     36  H13 P59 d   1      13.363 -16.414  11.544  0.00  0.00     0.083 H 
ATOM     37  CAR P59 d   1      16.693 -15.830  11.954  0.00  0.00    -0.057 A 
ATOM     38  H14 P59 d   1      14.969 -14.554  11.777  0.00  0.00     0.083 H 
ATOM     39  H15 P59 d   1      17.398 -15.016  12.077  0.00  0.00     0.086 H 
ENDBRANCH  11  29
TORSDOF 2
