REMARK  18 active torsions:
REMARK  status: ('A' for Active; 'I' for Inactive)
REMARK    1  A    between atoms: C02_2  and  C01_1 
REMARK    2  A    between atoms: C01_1  and  C12_12 
REMARK    3  A    between atoms: C01_1  and  N01_13 
REMARK    4  A    between atoms: C03_3  and  C02_2 
REMARK    5  A    between atoms: C04_4  and  C03_3 
REMARK       I    between atoms: N02_14  and  C04_4 
REMARK    6  A    between atoms: C05_5  and  C06_6 
REMARK    7  A    between atoms: C09_9  and  C05_5 
REMARK    8  A    between atoms: C05_5  and  N02_14 
REMARK    9  A    between atoms: C06_6  and  S01_24 
REMARK   10  A    between atoms: C07_7  and  C08_8 
REMARK   11  A    between atoms: S01_24  and  C07_7 
REMARK   12  A    between atoms: C08_8  and  S02_25 
REMARK       I    between atoms: N03_15  and  C09_9 
REMARK   13  A    between atoms: C10_10  and  C11_11 
REMARK   14  A    between atoms: C10_10  and  N03_15 
REMARK   15  A    between atoms: C11_11  and  O05_20 
REMARK   16  A    between atoms: C11_11  and  O06_21 
REMARK   17  A    between atoms: C12_12  and  O07_22 
REMARK   18  A    between atoms: C12_12  and  O08_23 
ROOT
ATOM      1  C05 GF5 d   1       9.324   6.991  27.128  0.00  0.00     0.097 C 
ATOM      2  H6  GF5 d   1       8.680   7.292  26.288  0.00  0.00     0.088 H 
ENDROOT
BRANCH   1   3
ATOM      3  C06 GF5 d   1       9.285   5.467  27.340  0.00  0.00     0.004 C 
ATOM      4  H7  GF5 d   1       8.271   5.097  27.126  0.00  0.00     0.052 H 
ATOM      5  H8  GF5 d   1       9.546   5.239  28.384  0.00  0.00     0.052 H 
BRANCH   3   6
ATOM      6  S01 GF5 d   1      10.462   4.648  26.241  0.00  0.00    -0.166 SA
BRANCH   6   7
ATOM      7  C07 GF5 d   1       9.794   4.543  24.547  0.00  0.00    -0.011 C 
ATOM      8  H9  GF5 d   1       9.353   5.508  24.255  0.00  0.00     0.050 H 
ATOM      9  H10 GF5 d   1      10.595   4.277  23.842  0.00  0.00     0.050 H 
BRANCH   7  10
ATOM     10  C08 GF5 d   1       8.712   3.449  24.552  0.00  0.00     0.034 C 
ATOM     11  H11 GF5 d   1       8.110   3.632  23.650  0.00  0.00     0.057 H 
ATOM     12  H12 GF5 d   1       8.102   3.647  25.446  0.00  0.00     0.057 H 
BRANCH  10  13
ATOM     13  S02 GF5 d   1       8.986   1.854  24.567  0.00  0.00     0.138 S 
ATOM     14  O02 GF5 d   1       9.721   1.625  23.202  0.00  0.00    -0.231 OA
ATOM     15  O03 GF5 d   1       9.376   1.086  25.902  0.00  0.00    -0.231 OA
ATOM     16  H26 GF5 d   1       8.073   1.458  24.406  0.00  0.00     0.171 HD
ENDBRANCH  10  13
ENDBRANCH   7  10
ENDBRANCH   6   7
ENDBRANCH   3   6
ENDBRANCH   1   3
BRANCH   1  17
ATOM     17  C09 GF5 d   1       8.890   7.596  28.445  0.00  0.00     0.241 C 
ATOM     18  N03 GF5 d   1       7.475   7.753  28.679  0.00  0.00    -0.355 N 
ATOM     19  H21 GF5 d   1       6.802   7.495  27.986  0.00  0.00     0.162 HD
ATOM     20  O04 GF5 d   1       9.710   7.901  29.263  0.00  0.00    -0.271 OA
BRANCH  18  21
ATOM     21  C10 GF5 d   1       7.071   8.295  29.948  0.00  0.00     0.041 C 
ATOM     22  H13 GF5 d   1       6.609   7.501  30.553  0.00  0.00     0.071 H 
ATOM     23  H14 GF5 d   1       7.953   8.690  30.473  0.00  0.00     0.071 H 
BRANCH  21  24
ATOM     24  C11 GF5 d   1       6.069   9.413  29.738  0.00  0.00     0.141 C 
ATOM     25  H15 GF5 d   1       5.145   9.035  29.275  0.00  0.00     0.131 H 
BRANCH  24  26
ATOM     26  O05 GF5 d   1       6.672  10.344  28.883  0.00  0.00    -0.370 OA
ATOM     27  H22 GF5 d   1       6.094  11.089  28.770  0.00  0.00     0.212 HD
ENDBRANCH  24  26
BRANCH  24  28
ATOM     28  O06 GF5 d   1       5.787   9.913  31.006  0.00  0.00    -0.370 OA
ATOM     29  H23 GF5 d   1       5.194  10.651  30.929  0.00  0.00     0.212 HD
ENDBRANCH  24  28
ENDBRANCH  21  24
ENDBRANCH  18  21
ENDBRANCH   1  17
BRANCH   1  30
ATOM     30  N02 GF5 d   1      10.674   7.472  26.959  0.00  0.00    -0.347 N 
ATOM     31  C04 GF5 d   1      11.097   8.204  25.780  0.00  0.00     0.218 C 
ATOM     32  O01 GF5 d   1      10.342   8.412  24.893  0.00  0.00    -0.274 OA
ATOM     33  H20 GF5 d   1      11.342   7.294  27.681  0.00  0.00     0.163 HD
BRANCH  31  34
ATOM     34  C03 GF5 d   1      12.553   8.686  25.667  0.00  0.00     0.011 C 
ATOM     35  H4  GF5 d   1      12.742   9.428  26.457  0.00  0.00     0.047 H 
ATOM     36  H5  GF5 d   1      13.223   7.824  25.805  0.00  0.00     0.047 H 
BRANCH  34  37
ATOM     37  C02 GF5 d   1      12.850   9.328  24.305  0.00  0.00    -0.026 C 
ATOM     38  H2  GF5 d   1      12.793   8.553  23.527  0.00  0.00     0.036 H 
ATOM     39  H3  GF5 d   1      12.096  10.103  24.106  0.00  0.00     0.036 H 
BRANCH  37  40
ATOM     40  C01 GF5 d   1      14.252   9.974  24.264  0.00  0.00     0.147 C 
ATOM     41  H1  GF5 d   1      14.415  10.564  25.178  0.00  0.00     0.091 H 
BRANCH  40  42
ATOM     42  C12 GF5 d   1      15.272   8.831  24.234  0.00  0.00     0.153 C 
ATOM     43  H16 GF5 d   1      14.657   7.931  24.084  0.00  0.00     0.131 H 
BRANCH  42  44
ATOM     44  O07 GF5 d   1      16.127   8.841  23.132  0.00  0.00    -0.369 OA
ATOM     45  H24 GF5 d   1      16.565   8.001  23.065  0.00  0.00     0.212 HD
ENDBRANCH  42  44
BRANCH  42  46
ATOM     46  O08 GF5 d   1      15.916   8.602  25.457  0.00  0.00    -0.369 OA
ATOM     47  H25 GF5 d   1      15.274   8.609  26.158  0.00  0.00     0.212 HD
ENDBRANCH  42  46
ENDBRANCH  40  42
BRANCH  40  48
ATOM     48  N01 GF5 d   1      14.319  10.886  23.110  0.00  0.00    -0.070 N 
ATOM     49  H17 GF5 d   1      13.619  11.604  23.208  0.00  0.00     0.274 HD
ATOM     50  H18 GF5 d   1      14.152  10.368  22.262  0.00  0.00     0.274 HD
ATOM     51  H19 GF5 d   1      15.232  11.311  23.070  0.00  0.00     0.274 HD
ENDBRANCH  40  48
ENDBRANCH  37  40
ENDBRANCH  34  37
ENDBRANCH  31  34
ENDBRANCH   1  30
TORSDOF 18
