REMARK  4 active torsions:
REMARK  status: ('A' for Active; 'I' for Inactive)
REMARK    1  A    between atoms: C2_7  and  C1_8 
REMARK    2  A    between atoms: C1_8  and  C_9 
REMARK    3  A    between atoms: C1_8  and  N_10 
REMARK    4  A    between atoms: C12_21  and  C13_23 
ROOT
ATOM      1  N   SQZ d   1     -23.871  20.214 -18.466  0.00  0.00    -0.262 N 
ATOM      2  C9  SQZ d   1     -23.605  20.458 -19.715  0.00  0.00     0.094 A 
ATOM      3  C10 SQZ d   1     -22.501  20.261 -20.508  0.00  0.00     0.024 A 
ATOM      4  C22 SQZ d   1     -22.613  20.759 -21.884  0.00  0.00     0.069 A 
ATOM      5  N4  SQZ d   1     -23.705  21.363 -22.307  0.00  0.00    -0.258 NA
ATOM      6  C23 SQZ d   1     -24.765  21.563 -21.571  0.00  0.00     0.034 A 
ATOM      7  C8  SQZ d   1     -24.774  21.161 -20.271  0.00  0.00     0.121 A 
ATOM      8  N2  SQZ d   1     -25.653  21.220 -19.312  0.00  0.00    -0.156 NA
ATOM      9  N1  SQZ d   1     -25.139  20.646 -18.190  0.00  0.00     0.006 NA
ATOM     10  C21 SQZ d   1     -21.558  20.605 -22.734  0.00  0.00    -0.053 A 
ATOM     11  C20 SQZ d   1     -20.423  19.967 -22.339  0.00  0.00    -0.070 A 
ATOM     12  C12 SQZ d   1     -20.292  19.527 -21.035  0.00  0.00    -0.025 A 
ATOM     13  C11 SQZ d   1     -21.326  19.655 -20.140  0.00  0.00    -0.058 A 
ATOM     14  H9  SQZ d   1     -25.637  22.049 -21.995  0.00  0.00     0.118 H 
ATOM     15  H10 SQZ d   1     -21.625  20.998 -23.742  0.00  0.00     0.087 H 
ATOM     16  H11 SQZ d   1     -19.620  19.803 -23.048  0.00  0.00     0.084 H 
ATOM     17  H12 SQZ d   1     -21.213  19.273 -19.132  0.00  0.00     0.086 H 
ENDROOT
BRANCH   1  18
ATOM     18  C1  SQZ d   1     -23.141  19.615 -17.320  0.00  0.00     0.053 C 
ATOM     19  H5  SQZ d   1     -22.223  20.219 -17.276  0.00  0.00     0.082 H 
BRANCH  18  20
ATOM     20  C2  SQZ d   1     -22.653  18.276 -17.445  0.00  0.00    -0.034 A 
ATOM     21  C3  SQZ d   1     -21.470  17.958 -16.857  0.00  0.00    -0.072 A 
ATOM     22  C4  SQZ d   1     -21.020  16.689 -17.004  0.00  0.00    -0.045 A 
ATOM     23  H2  SQZ d   1     -20.908  18.692 -16.292  0.00  0.00     0.084 H 
ATOM     24  C5  SQZ d   1     -21.752  15.730 -17.669  0.00  0.00     0.116 A 
ATOM     25  H1  SQZ d   1     -20.056  16.420 -16.587  0.00  0.00     0.088 H 
ATOM     26  F   SQZ d   1     -21.295  14.519 -17.769  0.00  0.00    -0.206 F 
ATOM     27  C6  SQZ d   1     -22.943  16.070 -18.256  0.00  0.00    -0.045 A 
ATOM     28  C7  SQZ d   1     -23.383  17.353 -18.128  0.00  0.00    -0.072 A 
ATOM     29  H3  SQZ d   1     -23.520  15.337 -18.808  0.00  0.00     0.088 H 
ATOM     30  H4  SQZ d   1     -24.327  17.642 -18.576  0.00  0.00     0.084 H 
ENDBRANCH  18  20
BRANCH  18  31
ATOM     31  C   SQZ d   1     -23.788  19.829 -15.976  0.00  0.00    -0.052 C 
ATOM     32  H6  SQZ d   1     -23.178  19.352 -15.195  0.00  0.00     0.030 H 
ATOM     33  H7  SQZ d   1     -24.794  19.384 -15.978  0.00  0.00     0.030 H 
ATOM     34  H8  SQZ d   1     -23.865  20.907 -15.774  0.00  0.00     0.030 H 
ENDBRANCH  18  31
ENDBRANCH   1  18
BRANCH  12  35
ATOM     35  C13 SQZ d   1     -19.091  18.780 -20.698  0.00  0.00    -0.024 A 
ATOM     36  C19 SQZ d   1     -17.916  18.993 -21.341  0.00  0.00    -0.069 A 
ATOM     37  C18 SQZ d   1     -16.813  18.238 -21.055  0.00  0.00    -0.047 A 
ATOM     38  H13 SQZ d   1     -17.851  19.772 -22.092  0.00  0.00     0.085 H 
ATOM     39  C17 SQZ d   1     -16.890  17.236 -20.161  0.00  0.00     0.105 A 
ATOM     40  H14 SQZ d   1     -15.872  18.448 -21.551  0.00  0.00     0.087 H 
ATOM     41  C15 SQZ d   1     -18.125  16.972 -19.488  0.00  0.00     0.093 A 
ATOM     42  O   SQZ d   1     -15.962  16.444 -19.774  0.00  0.00    -0.302 OA
ATOM     43  C14 SQZ d   1     -19.218  17.733 -19.797  0.00  0.00    -0.042 A 
ATOM     44  N3  SQZ d   1     -17.807  15.964 -18.716  0.00  0.00    -0.234 NA
ATOM     45  H15 SQZ d   1     -20.178  17.520 -19.341  0.00  0.00     0.088 H 
ATOM     46  C16 SQZ d   1     -16.540  15.631 -18.889  0.00  0.00     0.104 A 
ATOM     47  H16 SQZ d   1     -16.039  14.809 -18.381  0.00  0.00     0.155 H 
ENDBRANCH  12  35
TORSDOF 4
