REMARK  10 active torsions:
REMARK  status: ('A' for Active; 'I' for Inactive)
REMARK    1  A    between atoms: O3B_8  and  PG_1 
REMARK    2  A    between atoms: PB_5  and  O3B_8 
REMARK    3  A    between atoms: O3A_12  and  PB_5 
REMARK    4  A    between atoms: PA_9  and  O3A_12 
REMARK    5  A    between atoms: PA_9  and  O5'_13 
REMARK    6  A    between atoms: O5'_13  and  C5'_14 
REMARK    7  A    between atoms: C5'_14  and  C4'_15 
REMARK    8  A    between atoms: C3'_17  and  O3'_18 
REMARK    9  A    between atoms: C2'_19  and  O2'_20 
REMARK   10  A    between atoms: C1'_21  and  N9_22 
ROOT
ATOM      1  C4' ATP d   1      11.170   5.254 158.338  0.00  0.00     0.089 C 
ATOM      2  O4' ATP d   1      11.962   4.441 159.173  0.00  0.00    -0.353 OA
ATOM      3  C3' ATP d   1      11.686   5.084 156.924  0.00  0.00     0.091 C 
ATOM      4  C2' ATP d   1      12.515   3.814 156.931  0.00  0.00     0.105 C 
ATOM      5  C1' ATP d   1      12.819   3.603 158.388  0.00  0.00     0.139 C 
ATOM      6  H3  ATP d   1      11.242   6.310 158.638  0.00  0.00     0.090 H 
ATOM      7  H4  ATP d   1      10.865   5.016 156.195  0.00  0.00     0.091 H 
ATOM      8  H6  ATP d   1      11.968   2.973 156.480  0.00  0.00     0.093 H 
ATOM      9  H8  ATP d   1      13.863   3.904 158.559  0.00  0.00     0.122 H 
ENDROOT
BRANCH   1  10
ATOM     10  C5' ATP d   1       9.743   4.777 158.475  0.00  0.00     0.058 C 
ATOM     11  H1  ATP d   1       9.620   3.750 158.101  0.00  0.00     0.079 H 
ATOM     12  H2  ATP d   1       9.394   4.832 159.517  0.00  0.00     0.079 H 
BRANCH  10  13
ATOM     13  O5' ATP d   1       9.085   5.710 157.657  0.00  0.00    -0.287 OA
BRANCH  13  14
ATOM     14  PA  ATP d   1       7.920   6.620 158.248  0.00  0.00     0.417 P 
ATOM     15  O1A ATP d   1       7.458   7.446 157.082  0.00  0.00    -0.624 OA
ATOM     16  O2A ATP d   1       6.978   5.746 159.044  0.00  0.00    -0.624 OA
BRANCH  14  17
ATOM     17  O3A ATP d   1       8.733   7.638 159.196  0.00  0.00    -0.180 OA
BRANCH  17  18
ATOM     18  PB  ATP d   1       8.121   9.082 159.580  0.00  0.00     0.428 P 
ATOM     19  O1B ATP d   1       6.613   8.927 159.476  0.00  0.00    -0.624 OA
ATOM     20  O2B ATP d   1       8.787   9.566 160.862  0.00  0.00    -0.624 OA
BRANCH  18  21
ATOM     21  O3B ATP d   1       8.608  10.050 158.370  0.00  0.00    -0.173 OA
BRANCH  21  22
ATOM     22  PG  ATP d   1      10.143  10.170 157.874  0.00  0.00     0.431 P 
ATOM     23  O1G ATP d   1      10.098  11.101 156.688  0.00  0.00    -0.616 OA
ATOM     24  O2G ATP d   1      10.867  10.684 159.100  0.00  0.00    -0.616 OA
ATOM     25  O3G ATP d   1      10.502   8.768 157.452  0.00  0.00    -0.616 OA
ENDBRANCH  21  22
ENDBRANCH  18  21
ENDBRANCH  17  18
ENDBRANCH  14  17
ENDBRANCH  13  14
ENDBRANCH  10  13
ENDBRANCH   1  10
BRANCH   3  26
ATOM     26  O3' ATP d   1      12.513   6.209 156.654  0.00  0.00    -0.390 OA
ATOM     27  H5  ATP d   1      12.859   6.142 155.772  0.00  0.00     0.210 HD
ENDBRANCH   3  26
BRANCH   5  28
ATOM     28  N9  ATP d   1      12.670   2.200 158.850  0.00  0.00    -0.294 N 
ATOM     29  C8  ATP d   1      11.535   1.534 159.182  0.00  0.00     0.071 A 
ATOM     30  N7  ATP d   1      11.803   0.277 159.629  0.00  0.00    -0.236 NA
ATOM     31  H9  ATP d   1      10.533   1.954 159.101  0.00  0.00     0.144 H 
ATOM     32  C5  ATP d   1      13.142   0.159 159.586  0.00  0.00     0.149 A 
ATOM     33  C6  ATP d   1      14.110  -0.892 159.895  0.00  0.00     0.155 A 
ATOM     34  C4  ATP d   1      13.707   1.418 159.089  0.00  0.00     0.167 A 
ATOM     35  N6  ATP d   1      13.643  -2.070 160.349  0.00  0.00    -0.382 N 
ATOM     36  N1  ATP d   1      15.424  -0.637 159.706  0.00  0.00    -0.222 NA
ATOM     37  H10 ATP d   1      14.299  -2.831 160.576  0.00  0.00     0.157 HD
ATOM     38  H11 ATP d   1      12.630  -2.210 160.470  0.00  0.00     0.157 HD
ATOM     39  C2  ATP d   1      15.860   0.553 159.261  0.00  0.00     0.091 A 
ATOM     40  N3  ATP d   1      15.042   1.567 158.957  0.00  0.00    -0.222 NA
ATOM     41  H12 ATP d   1      16.928   0.699 159.142  0.00  0.00     0.146 H 
ENDBRANCH   5  28
BRANCH   4  42
ATOM     42  O2' ATP d   1      13.785   3.994 156.310  0.00  0.00    -0.388 OA
ATOM     43  H7  ATP d   1      14.271   4.666 156.774  0.00  0.00     0.210 HD
ENDBRANCH   4  42
TORSDOF 10
