REMARK  3 active torsions:
REMARK  status: ('A' for Active; 'I' for Inactive)
REMARK    1  A    between atoms: N16_16  and  C10_6 
REMARK    2  A    between atoms: C9_11  and  N16_16 
REMARK    3  A    between atoms: C11_12  and  N17_17 
ROOT
ATOM      1  C5  80R d   1     -39.947   8.633 -14.544  0.00  0.00    -0.029 A 
ATOM      2  C7  80R d   1     -40.978   6.712 -15.518  0.00  0.00     0.063 A 
ATOM      3  C8  80R d   1     -40.851   8.065 -15.415  0.00  0.00     0.065 A 
ATOM      4  C13 80R d   1     -42.465   7.619 -16.974  0.00  0.00     0.325 A 
ATOM      5  C1  80R d   1     -40.220   5.844 -14.773  0.00  0.00    -0.053 A 
ATOM      6  C2  80R d   1     -39.310   6.402 -13.903  0.00  0.00    -0.055 A 
ATOM      7  C9  80R d   1     -39.172   7.778 -13.777  0.00  0.00     0.034 A 
ATOM      8  N14 80R d   1     -41.957   6.438 -16.466  0.00  0.00    -0.307 N 
ATOM      9  N15 80R d   1     -41.767   8.632 -16.311  0.00  0.00    -0.306 N 
ATOM     10  O19 80R d   1     -43.343   7.710 -17.825  0.00  0.00    -0.247 OA
ATOM     11  H2  80R d   1     -39.846   9.709 -14.462  0.00  0.00     0.090 H 
ATOM     12  H4  80R d   1     -40.332   4.770 -14.865  0.00  0.00     0.087 H 
ATOM     13  H5  80R d   1     -38.686   5.751 -13.302  0.00  0.00     0.087 H 
ATOM     14  H7  80R d   1     -42.250   5.522 -16.740  0.00  0.00     0.170 HD
ATOM     15  H8  80R d   1     -41.901   9.613 -16.454  0.00  0.00     0.170 HD
ENDROOT
BRANCH   7  16
ATOM     16  N16 80R d   1     -38.232   8.286 -12.861  0.00  0.00    -0.355 N 
ATOM     17  H9  80R d   1     -37.579   8.991 -13.232  0.00  0.00     0.166 HD
BRANCH  16  18
ATOM     18  C10 80R d   1     -38.069   7.950 -11.490  0.00  0.00     0.054 A 
ATOM     19  C3  80R d   1     -38.885   7.031 -10.839  0.00  0.00    -0.053 A 
ATOM     20  C4  80R d   1     -38.696   6.715  -9.512  0.00  0.00    -0.049 A 
ATOM     21  H6  80R d   1     -39.688   6.553 -11.388  0.00  0.00     0.087 H 
ATOM     22  C11 80R d   1     -37.678   7.336  -8.826  0.00  0.00     0.104 A 
ATOM     23  H1  80R d   1     -39.336   5.992  -9.018  0.00  0.00     0.087 H 
ATOM     24  C6  80R d   1     -36.850   8.258  -9.428  0.00  0.00    -0.028 A 
ATOM     25  C12 80R d   1     -37.058   8.552 -10.756  0.00  0.00     0.063 A 
ATOM     26  H3  80R d   1     -36.055   8.739  -8.870  0.00  0.00     0.090 H 
ATOM     27 CL1  80R d   1     -35.979   9.698 -11.449  0.00  0.00    -0.082 Cl
BRANCH  22  28
ATOM     28  N17 80R d   1     -37.453   7.017  -7.445  0.00  0.00    -0.116 N 
ATOM     29  O18 80R d   1     -38.428   6.807  -6.706  0.00  0.00    -0.532 OA
ATOM     30  O20 80R d   1     -36.262   6.960  -7.132  0.00  0.00    -0.532 OA
ENDBRANCH  22  28
ENDBRANCH  16  18
ENDBRANCH   7  16
TORSDOF 3
