REMARK  7 active torsions:
REMARK  status: ('A' for Active; 'I' for Inactive)
REMARK    1  A    between atoms: N19_19  and  C8_5 
REMARK    2  A    between atoms: C10_6  and  N19_19 
REMARK    3  A    between atoms: C15_8  and  C14_15 
REMARK    4  A    between atoms: C16_16  and  C15_8 
REMARK    5  A    between atoms: N20_20  and  C9_12 
REMARK    6  A    between atoms: C11_13  and  N21_21 
REMARK    7  A    between atoms: C16_16  and  N20_20 
ROOT
ATOM      1  C4  80L d   1      38.958  -7.300 -11.274  0.00  0.00    -0.028 A 
ATOM      2  C5  80L d   1      36.790  -8.238  -9.861  0.00  0.00    -0.025 A 
ATOM      3  C10 80L d   1      38.014  -8.102 -11.904  0.00  0.00     0.057 A 
ATOM      4  C9  80L d   1      38.838  -6.943  -9.940  0.00  0.00     0.063 A 
ATOM      5  C11 80L d   1      37.733  -7.431  -9.258  0.00  0.00     0.131 A 
ATOM      6  C12 80L d   1      36.935  -8.570 -11.184  0.00  0.00     0.063 A 
ATOM      7 CL1  80L d   1      35.680  -9.563 -11.836  0.00  0.00    -0.082 Cl
ATOM      8  H1  80L d   1      39.811  -6.944 -11.841  0.00  0.00     0.090 H 
ATOM      9  H2  80L d   1      35.942  -8.606  -9.294  0.00  0.00     0.090 H 
ENDROOT
BRANCH   3  10
ATOM     10  N19 80L d   1      38.110  -8.456 -13.258  0.00  0.00    -0.355 N 
ATOM     11  H12 80L d   1      37.371  -9.085 -13.602  0.00  0.00     0.166 HD
BRANCH  10  12
ATOM     12  C8  80L d   1      39.060  -8.080 -14.205  0.00  0.00     0.034 A 
ATOM     13  C2  80L d   1      39.371  -6.744 -14.422  0.00  0.00    -0.055 A 
ATOM     14  C1  80L d   1      40.314  -6.380 -15.364  0.00  0.00    -0.053 A 
ATOM     15  H6  80L d   1      38.867  -5.977 -13.845  0.00  0.00     0.087 H 
ATOM     16  C6  80L d   1      40.916  -7.391 -16.076  0.00  0.00     0.063 A 
ATOM     17  H5  80L d   1      40.569  -5.340 -15.535  0.00  0.00     0.087 H 
ATOM     18  C7  80L d   1      40.603  -8.697 -15.861  0.00  0.00     0.065 A 
ATOM     19  N17 80L d   1      41.880  -7.366 -17.082  0.00  0.00    -0.307 N 
ATOM     20  C3  80L d   1      39.676  -9.074 -14.930  0.00  0.00    -0.029 A 
ATOM     21  N18 80L d   1      41.362  -9.471 -16.721  0.00  0.00    -0.306 N 
ATOM     22  H7  80L d   1      39.435 -10.118 -14.769  0.00  0.00     0.090 H 
ATOM     23  C13 80L d   1      42.165  -8.658 -17.490  0.00  0.00     0.325 A 
ATOM     24  H11 80L d   1      41.332 -10.469 -16.776  0.00  0.00     0.170 HD
ATOM     25  O23 80L d   1      42.959  -9.023 -18.345  0.00  0.00    -0.247 OA
ATOM     26  H10 80L d   1      42.302  -6.539 -17.453  0.00  0.00     0.170 HD
ENDBRANCH  10  12
ENDBRANCH   3  10
BRANCH   4  27
ATOM     27  N20 80L d   1      39.776  -6.117  -9.269  0.00  0.00    -0.387 N 
ATOM     28  H13 80L d   1      39.608  -5.885  -8.280  0.00  0.00     0.159 HD
BRANCH  27  29
ATOM     29  C16 80L d   1      40.959  -5.585  -9.912  0.00  0.00     0.002 C 
ATOM     30  H8  80L d   1      41.683  -5.275  -9.144  0.00  0.00     0.064 H 
ATOM     31  H9  80L d   1      41.409  -6.362 -10.548  0.00  0.00     0.064 H 
BRANCH  29  32
ATOM     32  C15 80L d   1      40.590  -4.394 -10.762  0.00  0.00     0.030 C 
ATOM     33  H3  80L d   1      39.703  -4.622 -11.372  0.00  0.00     0.051 H 
ATOM     34  H4  80L d   1      40.382  -3.522 -10.125  0.00  0.00     0.051 H 
BRANCH  32  35
ATOM     35  C14 80L d   1      41.769  -4.122 -11.644  0.00  0.00     0.174 C 
ATOM     36  O24 80L d   1      41.865  -4.458 -12.817  0.00  0.00    -0.648 OA
ATOM     37  O26 80L d   1      42.727  -3.457 -10.954  0.00  0.00    -0.648 OA
ENDBRANCH  32  35
ENDBRANCH  29  32
ENDBRANCH  27  29
ENDBRANCH   4  27
BRANCH   5  38
ATOM     38  N21 80L d   1      37.468  -7.107  -7.870  0.00  0.00    -0.113 N 
ATOM     39  O22 80L d   1      38.392  -6.753  -7.117  0.00  0.00    -0.532 OA
ATOM     40  O25 80L d   1      36.271  -7.130  -7.553  0.00  0.00    -0.532 OA
ENDBRANCH   5  38
TORSDOF 7
