REMARK  12 active torsions:
REMARK  status: ('A' for Active; 'I' for Inactive)
REMARK    1  A    between atoms: N1_1  and  C6_6 
REMARK    2  A    between atoms: C2_2  and  C12_12 
REMARK    3  A    between atoms: C3_3  and  C29_27 
REMARK    4  A    between atoms: C8_8  and  O25_25 
REMARK    5  A    between atoms: C9_9  and  O21_21 
REMARK    6  A    between atoms: C10_10  and  O23_23 
REMARK    7  A    between atoms: C15_15  and  O19_19 
REMARK    8  A    between atoms: C16_16  and  O18_18 
REMARK    9  A    between atoms: O19_19  and  C20_20 
REMARK   10  A    between atoms: O21_21  and  C22_22 
REMARK   11  A    between atoms: O23_23  and  C24_24 
REMARK   12  A    between atoms: O25_25  and  C26_26 
ROOT
ATOM      1  N1  84F d   1      17.268 -66.636 -41.564  0.00  0.00    -0.307 N 
ATOM      2  C2  84F d   1      17.761 -66.940 -42.951  0.00  0.00     0.057 A 
ATOM      3  C3  84F d   1      19.043 -67.210 -42.612  0.00  0.00     0.045 A 
ATOM      4  C4  84F d   1      18.900 -67.071 -41.119  0.00  0.00     0.231 A 
ATOM      5  O5  84F d   1      19.523 -67.183 -40.119  0.00  0.00    -0.273 OA
ATOM      6  H1  84F d   1      17.264 -67.840 -43.342  0.00  0.00     0.082 H 
ATOM      7  H2  84F d   1      19.750 -66.488 -43.047  0.00  0.00     0.057 H 
ENDROOT
BRANCH   1   8
ATOM      8  C6  84F d   1      16.073 -66.313 -40.803  0.00  0.00     0.043 A 
ATOM      9  C7  84F d   1      14.857 -66.197 -41.429  0.00  0.00    -0.022 A 
ATOM     10  C8  84F d   1      13.737 -65.918 -40.666  0.00  0.00     0.106 A 
ATOM     11  H3  84F d   1      14.775 -66.322 -42.503  0.00  0.00     0.091 H 
ATOM     12  C9  84F d   1      13.821 -65.755 -39.271  0.00  0.00     0.135 A 
ATOM     13  C10 84F d   1      15.079 -65.893 -38.639  0.00  0.00     0.106 A 
ATOM     14  C11 84F d   1      16.189 -66.179 -39.422  0.00  0.00    -0.022 A 
ATOM     15  H4  84F d   1      17.159 -66.299 -38.952  0.00  0.00     0.091 H 
BRANCH  10  16
ATOM     16  O25 84F d   1      12.528 -65.789 -41.367  0.00  0.00    -0.353 OA
BRANCH  16  17
ATOM     17  C26 84F d   1      12.575 -66.272 -42.697  0.00  0.00     0.010 C 
ATOM     18  H18 84F d   1      11.593 -66.134 -43.172  0.00  0.00     0.066 H 
ATOM     19  H19 84F d   1      12.832 -67.342 -42.690  0.00  0.00     0.066 H 
ATOM     20  H20 84F d   1      13.337 -65.716 -43.262  0.00  0.00     0.066 H 
ENDBRANCH  16  17
ENDBRANCH  10  16
BRANCH  12  21
ATOM     21  O21 84F d   1      12.640 -65.462 -38.544  0.00  0.00    -0.351 OA
BRANCH  21  22
ATOM     22  C22 84F d   1      12.456 -66.214 -37.355  0.00  0.00     0.011 C 
ATOM     23  H12 84F d   1      11.516 -65.910 -36.871  0.00  0.00     0.067 H 
ATOM     24  H13 84F d   1      13.297 -66.029 -36.670  0.00  0.00     0.067 H 
ATOM     25  H14 84F d   1      12.412 -67.285 -37.602  0.00  0.00     0.067 H 
ENDBRANCH  21  22
ENDBRANCH  12  21
BRANCH  13  26
ATOM     26  O23 84F d   1      15.297 -65.765 -37.239  0.00  0.00    -0.353 OA
BRANCH  26  27
ATOM     27  C24 84F d   1      16.596 -66.048 -36.754  0.00  0.00     0.010 C 
ATOM     28  H15 84F d   1      16.618 -65.909 -35.663  0.00  0.00     0.066 H 
ATOM     29  H16 84F d   1      17.320 -65.367 -37.225  0.00  0.00     0.066 H 
ATOM     30  H17 84F d   1      16.859 -67.088 -36.996  0.00  0.00     0.066 H 
ENDBRANCH  26  27
ENDBRANCH  13  26
ENDBRANCH   1   8
BRANCH   2  31
ATOM     31  C12 84F d   1      17.591 -65.818 -44.040  0.00  0.00    -0.031 A 
ATOM     32  C13 84F d   1      17.245 -64.507 -43.696  0.00  0.00    -0.072 A 
ATOM     33  C14 84F d   1      17.120 -63.537 -44.698  0.00  0.00    -0.047 A 
ATOM     34  H5  84F d   1      17.074 -64.243 -42.658  0.00  0.00     0.084 H 
ATOM     35  C15 84F d   1      17.332 -63.891 -46.028  0.00  0.00     0.101 A 
ATOM     36  H6  84F d   1      16.860 -62.517 -44.440  0.00  0.00     0.087 H 
ATOM     37  C16 84F d   1      17.666 -65.191 -46.372  0.00  0.00     0.099 A 
ATOM     38  C17 84F d   1      17.801 -66.151 -45.377  0.00  0.00    -0.040 A 
ATOM     39  H7  84F d   1      18.072 -67.167 -45.642  0.00  0.00     0.088 H 
BRANCH  35  40
ATOM     40  O19 84F d   1      17.213 -62.936 -47.052  0.00  0.00    -0.353 OA
BRANCH  40  41
ATOM     41  C20 84F d   1      16.471 -61.783 -46.711  0.00  0.00     0.010 C 
ATOM     42  H9  84F d   1      16.436 -61.101 -47.574  0.00  0.00     0.066 H 
ATOM     43  H10 84F d   1      16.952 -61.275 -45.862  0.00  0.00     0.066 H 
ATOM     44  H11 84F d   1      15.448 -62.075 -46.432  0.00  0.00     0.066 H 
ENDBRANCH  40  41
ENDBRANCH  35  40
BRANCH  37  45
ATOM     45  O18 84F d   1      17.883 -65.534 -47.716  0.00  0.00    -0.358 OA
ATOM     46  H8  84F d   1      17.751 -64.768 -48.262  0.00  0.00     0.217 HD
ENDBRANCH  37  45
ENDBRANCH   2  31
BRANCH   3  47
ATOM     47  C29 84F d   1      19.493 -68.708 -42.974  0.00  0.00    -0.062 C 
ATOM     48  H21 84F d   1      20.540 -68.859 -42.673  0.00  0.00     0.028 H 
ATOM     49  H22 84F d   1      19.396 -68.868 -44.058  0.00  0.00     0.028 H 
ATOM     50  H23 84F d   1      18.851 -69.423 -42.439  0.00  0.00     0.028 H 
ENDBRANCH   3  47
TORSDOF 12
