REMARK  13 active torsions:
REMARK  status: ('A' for Active; 'I' for Inactive)
REMARK    1  A    between atoms: C29_1  and  O50_2 
REMARK    2  A    between atoms: C29_1  and  C3_3 
REMARK    3  A    between atoms: N1_6  and  C6_7 
REMARK    4  A    between atoms: C10_9  and  O23_10 
REMARK    5  A    between atoms: O23_10  and  C24_11 
REMARK    6  A    between atoms: C9_12  and  O21_13 
REMARK    7  A    between atoms: O21_13  and  C22_14 
REMARK    8  A    between atoms: C8_15  and  O25_16 
REMARK    9  A    between atoms: O25_16  and  C26_17 
REMARK   10  A    between atoms: C2_19  and  C12_20 
REMARK   11  A    between atoms: C16_22  and  O18_23 
REMARK   12  A    between atoms: C15_24  and  O19_25 
REMARK   13  A    between atoms: O19_25  and  C20_26 
ROOT
ATOM      1  C3  93X d   1      19.180 -66.918 -42.789  0.00  0.00     0.068 A 
ATOM      2  C4  93X d   1      19.050 -66.824 -41.289  0.00  0.00     0.233 A 
ATOM      3  O5  93X d   1      19.688 -66.897 -40.290  0.00  0.00    -0.272 OA
ATOM      4  N1  93X d   1      17.394 -66.466 -41.693  0.00  0.00    -0.307 N 
ATOM      5  C2  93X d   1      17.887 -66.710 -43.083  0.00  0.00     0.059 A 
ATOM      6  H4  93X d   1      19.829 -66.127 -43.193  0.00  0.00     0.061 H 
ATOM      7  H16 93X d   1      17.425 -67.614 -43.506  0.00  0.00     0.082 H 
ENDROOT
BRANCH   4   8
ATOM      8  C6  93X d   1      16.198 -66.188 -40.907  0.00  0.00     0.043 A 
ATOM      9  C11 93X d   1      16.345 -66.066 -39.527  0.00  0.00    -0.022 A 
ATOM     10  C10 93X d   1      15.247 -65.810 -38.708  0.00  0.00     0.106 A 
ATOM     11  H5  93X d   1      17.328 -66.172 -39.084  0.00  0.00     0.091 H 
ATOM     12  C9  93X d   1      13.969 -65.680 -39.289  0.00  0.00     0.135 A 
ATOM     13  C8  93X d   1      13.856 -65.810 -40.682  0.00  0.00     0.106 A 
ATOM     14  C7  93X d   1      14.959 -66.063 -41.491  0.00  0.00    -0.022 A 
ATOM     15  H15 93X d   1      14.844 -66.160 -42.565  0.00  0.00     0.091 H 
BRANCH  10  16
ATOM     16  O23 93X d   1      15.479 -65.701 -37.333  0.00  0.00    -0.353 OA
BRANCH  16  17
ATOM     17  C24 93X d   1      16.610 -66.415 -36.915  0.00  0.00     0.010 C 
ATOM     18  H6  93X d   1      16.741 -66.292 -35.830  0.00  0.00     0.066 H 
ATOM     19  H7  93X d   1      17.499 -66.032 -37.437  0.00  0.00     0.066 H 
ATOM     20  H8  93X d   1      16.478 -67.481 -37.150  0.00  0.00     0.066 H 
ENDBRANCH  16  17
ENDBRANCH  10  16
BRANCH  12  21
ATOM     21  O21 93X d   1      12.778 -65.406 -38.546  0.00  0.00    -0.351 OA
BRANCH  21  22
ATOM     22  C22 93X d   1      12.648 -65.967 -37.238  0.00  0.00     0.011 C 
ATOM     23  H9  93X d   1      11.684 -65.665 -36.804  0.00  0.00     0.067 H 
ATOM     24  H10 93X d   1      13.467 -65.604 -36.600  0.00  0.00     0.067 H 
ATOM     25  H11 93X d   1      12.693 -67.064 -37.303  0.00  0.00     0.067 H 
ENDBRANCH  21  22
ENDBRANCH  12  21
BRANCH  13  26
ATOM     26  O25 93X d   1      12.607 -65.683 -41.304  0.00  0.00    -0.353 OA
BRANCH  26  27
ATOM     27  C26 93X d   1      12.717 -65.999 -42.685  0.00  0.00     0.010 C 
ATOM     28  H12 93X d   1      11.732 -65.897 -43.164  0.00  0.00     0.066 H 
ATOM     29  H13 93X d   1      13.073 -67.034 -42.797  0.00  0.00     0.066 H 
ATOM     30  H14 93X d   1      13.431 -65.311 -43.163  0.00  0.00     0.066 H 
ENDBRANCH  26  27
ENDBRANCH  13  26
ENDBRANCH   4   8
BRANCH   5  31
ATOM     31  C12 93X d   1      17.662 -65.541 -44.097  0.00  0.00    -0.031 A 
ATOM     32  C17 93X d   1      17.880 -65.813 -45.454  0.00  0.00    -0.040 A 
ATOM     33  C16 93X d   1      17.698 -64.812 -46.413  0.00  0.00     0.099 A 
ATOM     34  H17 93X d   1      18.191 -66.805 -45.762  0.00  0.00     0.088 H 
ATOM     35  C15 93X d   1      17.299 -63.542 -46.003  0.00  0.00     0.101 A 
ATOM     36  C14 93X d   1      17.073 -63.262 -44.646  0.00  0.00    -0.047 A 
ATOM     37  C13 93X d   1      17.254 -64.268 -43.677  0.00  0.00    -0.072 A 
ATOM     38  H22 93X d   1      16.759 -62.270 -44.343  0.00  0.00     0.087 H 
ATOM     39  H23 93X d   1      17.081 -64.061 -42.627  0.00  0.00     0.084 H 
BRANCH  33  40
ATOM     40  O18 93X d   1      17.916 -65.065 -47.795  0.00  0.00    -0.358 OA
ATOM     41  H18 93X d   1      17.744 -64.273 -48.292  0.00  0.00     0.217 HD
ENDBRANCH  33  40
BRANCH  35  42
ATOM     42  O19 93X d   1      17.124 -62.574 -47.011  0.00  0.00    -0.353 OA
BRANCH  42  43
ATOM     43  C20 93X d   1      16.738 -61.291 -46.571  0.00  0.00     0.010 C 
ATOM     44  H19 93X d   1      16.632 -60.623 -47.438  0.00  0.00     0.066 H 
ATOM     45  H20 93X d   1      17.504 -60.891 -45.891  0.00  0.00     0.066 H 
ATOM     46  H21 93X d   1      15.777 -61.359 -46.041  0.00  0.00     0.066 H 
ENDBRANCH  42  43
ENDBRANCH  35  42
ENDBRANCH   5  31
BRANCH   1  47
ATOM     47  C29 93X d   1      19.710 -68.337 -43.310  0.00  0.00     0.030 C 
ATOM     48  H1  93X d   1      19.639 -68.376 -44.407  0.00  0.00     0.075 H 
ATOM     49  H2  93X d   1      20.758 -68.473 -43.005  0.00  0.00     0.075 H 
BRANCH  47  50
ATOM     50  O50 93X d   1      18.921 -69.356 -42.751  0.00  0.00    -0.400 OA
ATOM     51  H3  93X d   1      19.232 -70.200 -43.057  0.00  0.00     0.209 HD
ENDBRANCH  47  50
ENDBRANCH   1  47
TORSDOF 13
