REMARK  6 active torsions:
REMARK  status: ('A' for Active; 'I' for Inactive)
REMARK    1  A    between atoms: C2'_10  and  O2'_11 
REMARK    2  A    between atoms: C1'_12  and  N9_13 
REMARK    3  A    between atoms: C2_20  and  N2_21 
REMARK    4  A    between atoms: C2A_33  and  O2A_34 
REMARK    5  A    between atoms: C1A_35  and  N91_36 
REMARK    6  A    between atoms: C21_43  and  N21_44 
ROOT
ATOM      1  P1  C2E d   1      39.467 -91.870  38.939  0.00  0.00     0.408 P 
ATOM      2  O2P C2E d   1      39.231 -92.695  40.174  0.00  0.00    -0.624 OA
ATOM      3  O1P C2E d   1      38.403 -91.751  37.885  0.00  0.00    -0.624 OA
ATOM      4  O5' C2E d   1      39.857 -90.394  39.417  0.00  0.00    -0.287 OA
ATOM      5  C5' C2E d   1      40.343 -89.443  38.481  0.00  0.00     0.058 C 
ATOM      6  C4' C2E d   1      40.732 -88.183  39.232  0.00  0.00     0.090 C 
ATOM      7  O4' C2E d   1      39.732 -87.870  40.196  0.00  0.00    -0.353 OA
ATOM      8  C3' C2E d   1      42.015 -88.378  40.009  0.00  0.00     0.106 C 
ATOM      9  O3' C2E d   1      43.115 -87.848  39.290  0.00  0.00    -0.279 OA
ATOM     10  C2' C2E d   1      41.815 -87.612  41.292  0.00  0.00     0.106 C 
ATOM     11  C1' C2E d   1      40.320 -87.462  41.430  0.00  0.00     0.139 C 
ATOM     12  P11 C2E d   1      44.444 -88.726  39.171  0.00  0.00     0.408 P 
ATOM     13  O21 C2E d   1      45.216 -88.593  40.453  0.00  0.00    -0.624 OA
ATOM     14  O11 C2E d   1      45.086 -88.422  37.846  0.00  0.00    -0.624 OA
ATOM     15  O5A C2E d   1      43.833 -90.199  39.103  0.00  0.00    -0.287 OA
ATOM     16  C5A C2E d   1      43.603 -90.799  37.837  0.00  0.00     0.058 C 
ATOM     17  C4A C2E d   1      43.223 -92.257  38.039  0.00  0.00     0.090 C 
ATOM     18  O4A C2E d   1      44.272 -92.970  38.693  0.00  0.00    -0.353 OA
ATOM     19  C3A C2E d   1      42.019 -92.411  38.944  0.00  0.00     0.106 C 
ATOM     20  O3A C2E d   1      40.802 -92.378  38.215  0.00  0.00    -0.279 OA
ATOM     21  C2A C2E d   1      42.230 -93.770  39.553  0.00  0.00     0.106 C 
ATOM     22  C1A C2E d   1      43.733 -93.915  39.617  0.00  0.00     0.139 C 
ATOM     23  H1  C2E d   1      39.557 -89.210  37.747  0.00  0.00     0.079 H 
ATOM     24  H2  C2E d   1      41.222 -89.851  37.960  0.00  0.00     0.079 H 
ATOM     25  H3  C2E d   1      40.847 -87.355  38.517  0.00  0.00     0.090 H 
ATOM     26  H4  C2E d   1      42.187 -89.445  40.215  0.00  0.00     0.092 H 
ATOM     27  H5  C2E d   1      42.254 -88.139  42.152  0.00  0.00     0.093 H 
ATOM     28  H7  C2E d   1      40.062 -86.415  41.647  0.00  0.00     0.122 H 
ATOM     29  H13 C2E d   1      44.517 -90.738  37.229  0.00  0.00     0.079 H 
ATOM     30  H14 C2E d   1      42.785 -90.273  37.323  0.00  0.00     0.079 H 
ATOM     31  H15 C2E d   1      43.014 -92.707  37.057  0.00  0.00     0.090 H 
ATOM     32  H16 C2E d   1      42.005 -91.627  39.715  0.00  0.00     0.092 H 
ATOM     33  H17 C2E d   1      41.761 -93.862  40.544  0.00  0.00     0.093 H 
ATOM     34  H19 C2E d   1      44.029 -94.936  39.335  0.00  0.00     0.122 H 
ENDROOT
BRANCH  11  35
ATOM     35  N9  C2E d   1      39.830 -88.333  42.517  0.00  0.00    -0.295 N 
ATOM     36  C8  C2E d   1      38.822 -89.209  42.409  0.00  0.00     0.071 A 
ATOM     37  N7  C2E d   1      38.609 -89.849  43.581  0.00  0.00    -0.234 NA
ATOM     38  H8  C2E d   1      38.250 -89.382  41.498  0.00  0.00     0.144 H 
ATOM     39  C5  C2E d   1      39.496 -89.375  44.466  0.00  0.00     0.171 A 
ATOM     40  C6  C2E d   1      39.812 -89.624  45.885  0.00  0.00     0.292 A 
ATOM     41  C4  C2E d   1      40.300 -88.375  43.761  0.00  0.00     0.161 A 
ATOM     42  O6  C2E d   1      39.171 -90.462  46.547  0.00  0.00    -0.265 OA
ATOM     43  N1  C2E d   1      40.805 -88.926  46.437  0.00  0.00    -0.154 N 
ATOM     44  C2  C2E d   1      41.512 -88.018  45.744  0.00  0.00     0.680 A 
ATOM     45  H9  C2E d   1      41.031 -89.084  47.398  0.00  0.00     0.187 HD
ATOM     46  N3  C2E d   1      41.278 -87.739  44.439  0.00  0.00    -0.174 N 
ATOM     47  H12 C2E d   1      41.854 -87.033  43.959  0.00  0.00     0.186 HD
BRANCH  44  48
ATOM     48  N2  C2E d   1      42.503 -87.351  46.377  0.00  0.00    -0.234 N 
ATOM     49  H10 C2E d   1      43.059 -86.650  45.867  0.00  0.00     0.174 HD
ATOM     50  H11 C2E d   1      42.702 -87.544  47.369  0.00  0.00     0.174 HD
ENDBRANCH  44  48
ENDBRANCH  11  35
BRANCH  10  51
ATOM     51  O2' C2E d   1      42.380 -86.314  41.147  0.00  0.00    -0.388 OA
ATOM     52  H6  C2E d   1      43.308 -86.393  40.961  0.00  0.00     0.210 HD
ENDBRANCH  10  51
BRANCH  21  53
ATOM     53  O2A C2E d   1      41.721 -94.741  38.644  0.00  0.00    -0.388 OA
ATOM     54  H18 C2E d   1      40.795 -94.584  38.501  0.00  0.00     0.210 HD
ENDBRANCH  21  53
BRANCH  22  55
ATOM     55  N91 C2E d   1      44.217 -93.618  40.986  0.00  0.00    -0.295 N 
ATOM     56  C81 C2E d   1      45.110 -92.675  41.317  0.00  0.00     0.071 A 
ATOM     57  N71 C2E d   1      45.345 -92.664  42.649  0.00  0.00    -0.234 NA
ATOM     58  H20 C2E d   1      45.586 -92.003  40.604  0.00  0.00     0.144 H 
ATOM     59  C51 C2E d   1      44.589 -93.624  43.193  0.00  0.00     0.171 A 
ATOM     60  C61 C2E d   1      44.355 -94.150  44.552  0.00  0.00     0.292 A 
ATOM     61  C41 C2E d   1      43.849 -94.249  42.096  0.00  0.00     0.161 A 
ATOM     62  O61 C2E d   1      44.946 -93.672  45.537  0.00  0.00    -0.265 OA
ATOM     63  N11 C2E d   1      43.491 -95.154  44.697  0.00  0.00    -0.154 N 
ATOM     64  C21 C2E d   1      42.840 -95.689  43.655  0.00  0.00     0.680 A 
ATOM     65  H21 C2E d   1      43.323 -95.520  45.612  0.00  0.00     0.187 HD
ATOM     66  N31 C2E d   1      43.004 -95.260  42.384  0.00  0.00    -0.174 N 
ATOM     67  H24 C2E d   1      42.476 -95.712  41.624  0.00  0.00     0.186 HD
BRANCH  64  68
ATOM     68  N21 C2E d   1      41.981 -96.705  43.885  0.00  0.00    -0.234 N 
ATOM     69  H22 C2E d   1      41.468 -97.133  43.101  0.00  0.00     0.174 HD
ATOM     70  H23 C2E d   1      41.838 -97.052  44.844  0.00  0.00     0.174 HD
ENDBRANCH  64  68
ENDBRANCH  22  55
TORSDOF 6
