REMARK  10 active torsions:
REMARK  status: ('A' for Active; 'I' for Inactive)
REMARK    1  A    between atoms: CAK_2  and  CAP_7 
REMARK    2  A    between atoms: CAK_2  and  CAS_10 
REMARK    3  A    between atoms: OAC_23  and  CAK_2 
REMARK    4  A    between atoms: CAM_4  and  OAC_23 
REMARK    5  A    between atoms: CAT_11  and  CAN_5 
REMARK    6  A    between atoms: CAV_13  and  CAT_11 
REMARK    7  A    between atoms: CAU_12  and  CAV_13 
REMARK    8  A    between atoms: NAG_20  and  CAW_14 
REMARK    9  A    between atoms: CAW_14  and  CBB_26 
REMARK   10  A    between atoms: CBB_26  and  OAD_24 
ROOT
ATOM      1  CAJ MOL d   1     -40.701 -14.582 377.793  0.00  0.00     0.021 A 
ATOM      2  CAL MOL d   1     -40.397 -13.358 378.391  0.00  0.00     0.062 A 
ATOM      3  CAM MOL d   1     -38.551 -14.520 376.626  0.00  0.00     0.070 A 
ATOM      4  CAN MOL d   1     -42.019 -14.923 378.307  0.00  0.00     0.067 A 
ATOM      5  CAO MOL d   1     -39.765 -15.165 376.910  0.00  0.00    -0.037 A 
ATOM      6  CAQ MOL d   1     -39.173 -12.708 378.110  0.00  0.00    -0.052 A 
ATOM      7  CAR MOL d   1     -38.258 -13.286 377.235  0.00  0.00    -0.049 A 
ATOM      8  NAE MOL d   1     -41.436 -13.023 379.182  0.00  0.00    -0.277 N 
ATOM      9  NAF MOL d   1     -42.376 -13.953 379.119  0.00  0.00    -0.178 NA
ATOM     10  H2  MOL d   1     -39.986 -16.120 376.447  0.00  0.00     0.089 H 
ATOM     11  H3  MOL d   1     -38.947 -11.757 378.578  0.00  0.00     0.087 H 
ATOM     12  H4  MOL d   1     -37.320 -12.786 377.023  0.00  0.00     0.087 H 
ATOM     13  H15 MOL d   1     -41.491 -12.167 379.753  0.00  0.00     0.189 HD
ENDROOT
BRANCH   4  14
ATOM     14  CAT MOL d   1     -42.893 -16.153 378.031  0.00  0.00    -0.018 C 
ATOM     15  H8  MOL d   1     -43.941 -15.824 378.094  0.00  0.00     0.043 H 
ATOM     16  H9  MOL d   1     -42.688 -16.880 378.831  0.00  0.00     0.043 H 
BRANCH  14  17
ATOM     17  CAV MOL d   1     -42.735 -16.894 376.701  0.00  0.00    -0.033 C 
ATOM     18  H10 MOL d   1     -41.738 -17.355 376.649  0.00  0.00     0.040 H 
ATOM     19  H11 MOL d   1     -42.856 -16.188 375.866  0.00  0.00     0.040 H 
BRANCH  17  20
ATOM     20  CAU MOL d   1     -43.812 -17.981 376.619  0.00  0.00    -0.021 A 
ATOM     21  CAX MOL d   1     -43.741 -19.270 376.035  0.00  0.00     0.006 A 
ATOM     22  NAG MOL d   1     -44.908 -19.854 376.206  0.00  0.00    -0.279 N 
ATOM     23  H14 MOL d   1     -42.875 -19.701 375.534  0.00  0.00     0.115 H 
ATOM     24  NAH MOL d   1     -45.713 -19.029 376.872  0.00  0.00    -0.185 NA
ATOM     25  CBA MOL d   1     -45.118 -17.897 377.150  0.00  0.00     0.029 A 
ATOM     26  H17 MOL d   1     -45.547 -17.053 377.687  0.00  0.00     0.118 H 
BRANCH  22  27
ATOM     27  CAW MOL d   1     -45.272 -21.195 375.767  0.00  0.00     0.036 C 
ATOM     28  H12 MOL d   1     -46.336 -21.365 375.987  0.00  0.00     0.070 H 
ATOM     29  H13 MOL d   1     -44.663 -21.927 376.317  0.00  0.00     0.070 H 
BRANCH  27  30
ATOM     30  CBB MOL d   1     -45.040 -21.384 374.269  0.00  0.00     0.033 C 
ATOM     31  H18 MOL d   1     -44.136 -20.814 374.010  0.00  0.00     0.076 H 
ATOM     32  H19 MOL d   1     -45.908 -20.948 373.753  0.00  0.00     0.076 H 
BRANCH  30  33
ATOM     33  OAD MOL d   1     -44.894 -22.479 373.835  0.00  0.00    -0.399 OA
ATOM     34  H16 MOL d   1     -44.761 -22.431 372.896  0.00  0.00     0.209 HD
ENDBRANCH  30  33
ENDBRANCH  27  30
ENDBRANCH  22  27
ENDBRANCH  17  20
ENDBRANCH  14  17
ENDBRANCH   4  14
BRANCH   3  35
ATOM     35  OAC MOL d   1     -37.605 -15.073 375.746  0.00  0.00    -0.342 OA
BRANCH  35  36
ATOM     36  CAK MOL d   1     -38.004 -16.155 374.940  0.00  0.00     0.070 C 
ATOM     37  H1  MOL d   1     -38.443 -16.931 375.584  0.00  0.00     0.091 H 
BRANCH  36  38
ATOM     38  CAP MOL d   1     -39.012 -15.814 373.836  0.00  0.00     0.017 A 
ATOM     39  CAY MOL d   1     -38.920 -14.654 373.075  0.00  0.00     0.062 A 
ATOM     40  CBC MOL d   1     -39.875 -14.416 372.095  0.00  0.00     0.023 A 
ATOM     41 CL1  MOL d   1     -37.599 -13.480 373.350  0.00  0.00    -0.082 Cl
ATOM     42  NAI MOL d   1     -40.856 -15.270 371.882  0.00  0.00    -0.270 NA
ATOM     43  H20 MOL d   1     -39.813 -13.514 371.496  0.00  0.00     0.117 H 
ATOM     44  CBD MOL d   1     -40.974 -16.380 372.576  0.00  0.00     0.023 A 
ATOM     45  CAZ MOL d   1     -40.061 -16.686 373.567  0.00  0.00     0.062 A 
ATOM     46  H21 MOL d   1     -41.793 -17.060 372.370  0.00  0.00     0.117 H 
ATOM     47 CL2  MOL d   1     -40.254 -18.199 374.491  0.00  0.00    -0.082 Cl
ENDBRANCH  36  38
BRANCH  36  48
ATOM     48  CAS MOL d   1     -36.751 -16.673 374.276  0.00  0.00    -0.048 C 
ATOM     49  H5  MOL d   1     -36.007 -16.927 375.045  0.00  0.00     0.031 H 
ATOM     50  H6  MOL d   1     -36.341 -15.899 373.611  0.00  0.00     0.031 H 
ATOM     51  H7  MOL d   1     -36.992 -17.571 373.688  0.00  0.00     0.031 H 
ENDBRANCH  36  48
ENDBRANCH  35  36
ENDBRANCH   3  35
TORSDOF 10
