REMARK  6 active torsions:
REMARK  status: ('A' for Active; 'I' for Inactive)
REMARK    1  A    between atoms: N08_4  and  C15_7 
REMARK    2  A    between atoms: C19_11  and  C26_16 
REMARK    3  A    between atoms: C31_19  and  N37_23 
REMARK    4  A    between atoms: C34_21  and  O35_22 
REMARK    5  A    between atoms: N37_23  and  C39_24 
REMARK    6  A    between atoms: C39_24  and  C42_25 
ROOT
ATOM      1  C26 MOL d   1      30.181  44.655  39.504  0.00  0.00     0.017 A 
ATOM      2  C27 MOL d   1      29.143  43.714  39.689  0.00  0.00    -0.037 A 
ATOM      3  C29 MOL d   1      30.765  44.688  38.220  0.00  0.00    -0.044 A 
ATOM      4  C31 MOL d   1      30.390  43.865  37.142  0.00  0.00     0.031 A 
ATOM      5  C32 MOL d   1      29.349  42.951  37.372  0.00  0.00    -0.026 A 
ATOM      6  C34 MOL d   1      28.740  42.879  38.635  0.00  0.00     0.068 A 
ATOM      7  H11 MOL d   1      28.654  43.636  40.653  0.00  0.00     0.089 H 
ATOM      8  H12 MOL d   1      31.563  45.402  38.051  0.00  0.00     0.088 H 
ATOM      9  H13 MOL d   1      29.015  42.300  36.573  0.00  0.00     0.091 H 
ENDROOT
BRANCH   1  10
ATOM     10  C19 MOL d   1      30.669  45.586  40.551  0.00  0.00     0.162 A 
ATOM     11  N18 MOL d   1      31.728  46.360  40.269  0.00  0.00    -0.227 NA
ATOM     12  C17 MOL d   1      32.138  47.205  41.247  0.00  0.00     0.080 A 
ATOM     13  C16 MOL d   1      31.505  47.294  42.501  0.00  0.00     0.079 A 
ATOM     14  C21 MOL d   1      33.254  48.081  41.090  0.00  0.00    -0.047 A 
ATOM     15  C15 MOL d   1      30.366  46.459  42.775  0.00  0.00     0.147 A 
ATOM     16  S25 MOL d   1      32.353  48.489  43.430  0.00  0.00    -0.096 SA
ATOM     17  N20 MOL d   1      30.014  45.631  41.727  0.00  0.00    -0.210 NA
ATOM     18  C23 MOL d   1      33.480  48.837  42.207  0.00  0.00    -0.042 A 
ATOM     19  H10 MOL d   1      34.281  49.569  42.301  0.00  0.00     0.095 H 
ATOM     20  H9  MOL d   1      33.856  48.141  40.185  0.00  0.00     0.087 H 
BRANCH  15  21
ATOM     21  N08 MOL d   1      29.586  46.375  43.939  0.00  0.00    -0.361 N 
ATOM     22  C05 MOL d   1      29.575  47.362  45.021  0.00  0.00     0.016 C 
ATOM     23  C02 MOL d   1      29.455  46.625  46.351  0.00  0.00     0.034 C 
ATOM     24  H3  MOL d   1      30.509  47.943  45.002  0.00  0.00     0.067 H 
ATOM     25  H4  MOL d   1      28.718  48.041  44.895  0.00  0.00     0.067 H 
ATOM     26  O01 MOL d   1      28.250  45.858  46.381  0.00  0.00    -0.388 OA
ATOM     27  H1  MOL d   1      30.317  45.953  46.473  0.00  0.00     0.076 H 
ATOM     28  H2  MOL d   1      29.441  47.357  47.172  0.00  0.00     0.076 H 
ATOM     29  C12 MOL d   1      28.232  44.859  45.355  0.00  0.00     0.034 C 
ATOM     30  C09 MOL d   1      28.408  45.481  43.974  0.00  0.00     0.016 C 
ATOM     31  H7  MOL d   1      27.269  44.328  45.389  0.00  0.00     0.076 H 
ATOM     32  H8  MOL d   1      29.051  44.146  45.534  0.00  0.00     0.076 H 
ATOM     33  H5  MOL d   1      28.543  44.679  43.233  0.00  0.00     0.067 H 
ATOM     34  H6  MOL d   1      27.508  46.062  43.724  0.00  0.00     0.067 H 
ENDBRANCH  15  21
ENDBRANCH   1  10
BRANCH   6  35
ATOM     35  O35 MOL d   1      27.730  41.989  38.880  0.00  0.00    -0.361 OA
ATOM     36  H14 MOL d   1      28.047  41.105  38.736  0.00  0.00     0.217 HD
ENDBRANCH   6  35
BRANCH   4  37
ATOM     37  N37 MOL d   1      31.073  44.032  35.940  0.00  0.00    -0.386 N 
ATOM     38  H15 MOL d   1      31.637  43.246  35.585  0.00  0.00     0.160 HD
BRANCH  37  39
ATOM     39  C39 MOL d   1      31.032  45.255  35.162  0.00  0.00     0.016 C 
ATOM     40  H16 MOL d   1      29.995  45.620  35.181  0.00  0.00     0.071 H 
ATOM     41  H17 MOL d   1      31.311  44.996  34.130  0.00  0.00     0.071 H 
BRANCH  39  42
ATOM     42  C42 MOL d   1      31.929  46.412  35.598  0.00  0.00    -0.040 A 
ATOM     43  C43 MOL d   1      31.509  47.372  36.556  0.00  0.00    -0.072 A 
ATOM     44  C45 MOL d   1      32.339  48.430  36.953  0.00  0.00    -0.045 A 
ATOM     45  H18 MOL d   1      30.520  47.285  36.992  0.00  0.00     0.084 H 
ATOM     46  C47 MOL d   1      33.605  48.558  36.380  0.00  0.00     0.116 A 
ATOM     47  H19 MOL d   1      32.001  49.142  37.698  0.00  0.00     0.088 H 
ATOM     48  C48 MOL d   1      34.046  47.637  35.422  0.00  0.00    -0.045 A 
ATOM     49  F52 MOL d   1      34.397  49.573  36.754  0.00  0.00    -0.206 F 
ATOM     50  C50 MOL d   1      33.212  46.573  35.032  0.00  0.00    -0.072 A 
ATOM     51  H20 MOL d   1      35.030  47.744  34.981  0.00  0.00     0.088 H 
ATOM     52  H21 MOL d   1      33.560  45.867  34.286  0.00  0.00     0.084 H 
ENDBRANCH  39  42
ENDBRANCH  37  39
ENDBRANCH   4  37
TORSDOF 6
