REMARK  25 active torsions:
REMARK  status: ('A' for Active; 'I' for Inactive)
REMARK    1  A    between atoms: N_1  and  CA_2 
REMARK    2  A    between atoms: CA_2  and  C_3 
REMARK       I    between atoms: C_3  and  N_5 
REMARK    3  A    between atoms: N_5  and  CA_6 
REMARK    4  A    between atoms: CA_18  and  CB_21 
REMARK    5  A    between atoms: CB_21  and  OG_22 
REMARK    6  A    between atoms: CA_24  and  CB_27 
REMARK    7  A    between atoms: CB_27  and  CG_28 
REMARK    8  A    between atoms: CA_41  and  CB_44 
REMARK    9  A    between atoms: CA_52  and  CB_55 
REMARK   10  A    between atoms: CB_55  and  CG_56 
REMARK       I    between atoms: CG_56  and  ND2_58 
REMARK   11  A    between atoms: CA_60  and  CB_63 
REMARK   12  A    between atoms: CB_63  and  CG1_64 
REMARK   13  A    between atoms: CB_63  and  CG2_65 
REMARK   14  A    between atoms: CA_67  and  CB_70 
REMARK   15  A    between atoms: CB_70  and  CG_71 
REMARK   16  A    between atoms: CA_75  and  CB_78 
REMARK   17  A    between atoms: CB_78  and  CG_79 
REMARK   18  A    between atoms: CA_92  and  CB_95 
REMARK   19  A    between atoms: CB_95  and  CG_96 
REMARK   20  A    between atoms: CG_96  and  CD_97 
REMARK   21  A    between atoms: CA_101  and  CB_104 
REMARK   22  A    between atoms: CB_104  and  CG1_105 
REMARK   23  A    between atoms: CB_104  and  CG2_106 
REMARK   24  A    between atoms: CG1_105  and  CD1_107 
REMARK   25  A    between atoms: CA_109  and  C_110 
REMARK       I    between atoms: C_110  and  N_114 
ROOT
ATOM      1  CA  CYS d   1     -25.086 -33.341  11.690  0.00  0.00     0.098 C 
ATOM      2  C   CYS d   1     -24.447 -34.054  12.872  0.00  0.00     0.242 C 
ATOM      3  O   CYS d   1     -23.336 -33.707  13.290  0.00  0.00    -0.271 OA
ATOM      4  CB  CYS d   1     -26.160 -32.367  12.175  0.00  0.00     0.013 C 
ATOM      5  SG  CYS d   1     -25.730 -31.235  13.545  0.00  0.00    -0.095 SA
ATOM      6  N   CYS d   1     -25.130 -35.062  13.422  0.00  0.00    -0.345 N 
ATOM      7  CA  CYS d   1     -24.673 -35.687  14.657  0.00  0.00     0.098 C 
ATOM      8  C   CYS d   1     -23.310 -36.365  14.517  0.00  0.00     0.242 C 
ATOM      9  O   CYS d   1     -22.754 -36.799  15.531  0.00  0.00    -0.271 OA
ATOM     10  CB  CYS d   1     -25.727 -36.657  15.186  0.00  0.00     0.013 C 
ATOM     11  SG  CYS d   1     -27.254 -35.805  15.687  0.00  0.00    -0.095 SA
ATOM     12  N   CYS d   1     -21.040 -29.469  14.890  0.00  0.00    -0.345 N 
ATOM     13  CA  CYS d   1     -22.482 -29.441  14.668  0.00  0.00     0.098 C 
ATOM     14  C   CYS d   1     -23.230 -30.026  15.856  0.00  0.00     0.242 C 
ATOM     15  O   CYS d   1     -24.317 -29.554  16.207  0.00  0.00    -0.271 OA
ATOM     16  CB  CYS d   1     -22.844 -30.204  13.391  0.00  0.00     0.013 C 
ATOM     17  SG  CYS d   1     -24.498 -29.818  12.759  0.00  0.00    -0.095 SA
ATOM     18  N   CYS d   1     -28.829 -34.048  18.877  0.00  0.00    -0.345 N 
ATOM     19  CA  CYS d   1     -27.802 -35.074  18.993  0.00  0.00     0.098 C 
ATOM     20  CB  CYS d   1     -26.489 -34.580  18.386  0.00  0.00     0.013 C 
ATOM     21  SG  CYS d   1     -26.626 -34.118  16.642  0.00  0.00    -0.095 SA
ATOM     22  H7  CYS d   1     -24.304 -32.769  11.170  0.00  0.00     0.088 H 
ATOM     23  H8  CYS d   1     -27.022 -32.966  12.503  0.00  0.00     0.053 H 
ATOM     24  H9  CYS d   1     -26.451 -31.745  11.315  0.00  0.00     0.053 H 
ATOM     25  H10 CYS d   1     -25.965 -35.392  12.981  0.00  0.00     0.163 HD
ATOM     26  H11 CYS d   1     -24.558 -34.886  15.402  0.00  0.00     0.088 H 
ATOM     27  H12 CYS d   1     -25.315 -37.187  16.057  0.00  0.00     0.053 H 
ATOM     28  H13 CYS d   1     -25.969 -37.383  14.396  0.00  0.00     0.053 H 
ATOM     29  H38 CYS d   1     -20.468 -30.100  14.367  0.00  0.00     0.163 HD
ATOM     30  H39 CYS d   1     -22.791 -28.392  14.546  0.00  0.00     0.088 H 
ATOM     31  H40 CYS d   1     -22.796 -31.282  13.605  0.00  0.00     0.053 H 
ATOM     32  H41 CYS d   1     -22.107 -29.951  12.614  0.00  0.00     0.053 H 
ATOM     33  H92 CYS d   1     -28.673 -33.145  19.277  0.00  0.00     0.163 HD
ATOM     34  H93 CYS d   1     -28.134 -35.955  18.424  0.00  0.00     0.088 H 
ATOM     35  H94 CYS d   1     -25.741 -35.382  18.476  0.00  0.00     0.053 H 
ATOM     36  H95 CYS d   1     -26.153 -33.700  18.954  0.00  0.00     0.053 H 
ATOM     37  N   SER d   1     -22.774 -36.493  13.299  0.00  0.00    -0.344 N 
ATOM     38  CA  SER d   1     -21.413 -36.984  13.102  0.00  0.00     0.109 C 
ATOM     39  C   SER d   1     -20.362 -35.881  13.143  0.00  0.00     0.243 C 
ATOM     40  O   SER d   1     -19.174 -36.184  13.308  0.00  0.00    -0.271 OA
ATOM     41  H14 SER d   1     -23.321 -36.245  12.499  0.00  0.00     0.163 HD
ATOM     42  H15 SER d   1     -21.193 -37.693  13.914  0.00  0.00     0.090 H 
ATOM     43  N   HIS d   1     -20.765 -34.619  13.003  0.00  0.00    -0.346 N 
ATOM     44  CA  HIS d   1     -19.815 -33.511  12.965  0.00  0.00     0.095 C 
ATOM     45  C   HIS d   1     -19.647 -32.921  14.360  0.00  0.00     0.243 C 
ATOM     46  O   HIS d   1     -20.642 -32.501  14.964  0.00  0.00    -0.271 OA
ATOM     47  N   HIS d   1     -26.349 -28.061  18.658  0.00  0.00    -0.346 N 
ATOM     48  CA  HIS d   1     -27.686 -28.649  18.595  0.00  0.00     0.094 C 
ATOM     49  C   HIS d   1     -27.735 -29.866  19.515  0.00  0.00     0.243 C 
ATOM     50  O   HIS d   1     -27.869 -31.004  19.057  0.00  0.00    -0.271 OA
ATOM     51  H19 HIS d   1     -21.743 -34.426  12.922  0.00  0.00     0.163 HD
ATOM     52  H20 HIS d   1     -18.841 -33.890  12.621  0.00  0.00     0.088 H 
ATOM     53  H61 HIS d   1     -25.558 -28.673  18.673  0.00  0.00     0.163 HD
ATOM     54  H62 HIS d   1     -28.425 -27.911  18.940  0.00  0.00     0.088 H 
ATOM     55  N   PRO d   1     -18.422 -32.859  14.899  0.00  0.00    -0.337 N 
ATOM     56  CA  PRO d   1     -18.253 -32.429  16.305  0.00  0.00     0.091 C 
ATOM     57  C   PRO d   1     -18.773 -31.031  16.594  0.00  0.00     0.241 C 
ATOM     58  O   PRO d   1     -19.449 -30.818  17.610  0.00  0.00    -0.271 OA
ATOM     59  CB  PRO d   1     -16.735 -32.529  16.509  0.00  0.00    -0.036 C 
ATOM     60  CG  PRO d   1     -16.286 -33.526  15.495  0.00  0.00    -0.048 C 
ATOM     61  CD  PRO d   1     -17.148 -33.276  14.294  0.00  0.00    -0.001 C 
ATOM     62  N   PRO d   1     -27.631 -29.658  20.835  0.00  0.00    -0.337 N 
ATOM     63  CA  PRO d   1     -27.726 -30.800  21.761  0.00  0.00     0.091 C 
ATOM     64  C   PRO d   1     -29.118 -31.407  21.840  0.00  0.00     0.241 C 
ATOM     65  O   PRO d   1     -29.253 -32.542  22.316  0.00  0.00    -0.271 OA
ATOM     66  CB  PRO d   1     -27.282 -30.203  23.112  0.00  0.00    -0.036 C 
ATOM     67  CG  PRO d   1     -27.292 -28.678  22.923  0.00  0.00    -0.048 C 
ATOM     68  CD  PRO d   1     -27.804 -28.380  21.537  0.00  0.00    -0.001 C 
ATOM     69  H26 PRO d   1     -18.774 -33.130  16.974  0.00  0.00     0.087 H 
ATOM     70  H27 PRO d   1     -16.502 -32.877  17.526  0.00  0.00     0.036 H 
ATOM     71  H28 PRO d   1     -16.255 -31.555  16.335  0.00  0.00     0.036 H 
ATOM     72  H29 PRO d   1     -16.432 -34.550  15.869  0.00  0.00     0.035 H 
ATOM     73  H30 PRO d   1     -15.225 -33.374  15.247  0.00  0.00     0.035 H 
ATOM     74  H31 PRO d   1     -16.728 -32.479  13.662  0.00  0.00     0.064 H 
ATOM     75  H32 PRO d   1     -17.272 -34.191  13.696  0.00  0.00     0.064 H 
ATOM     76  H68 PRO d   1     -27.027 -31.590  21.449  0.00  0.00     0.087 H 
ATOM     77  H69 PRO d   1     -26.270 -30.550  23.369  0.00  0.00     0.036 H 
ATOM     78  H70 PRO d   1     -27.983 -30.494  23.908  0.00  0.00     0.036 H 
ATOM     79  H71 PRO d   1     -26.272 -28.282  23.037  0.00  0.00     0.035 H 
ATOM     80  H72 PRO d   1     -27.951 -28.214  23.671  0.00  0.00     0.035 H 
ATOM     81  H73 PRO d   1     -28.863 -28.084  21.563  0.00  0.00     0.064 H 
ATOM     82  H74 PRO d   1     -27.212 -27.585  21.060  0.00  0.00     0.064 H 
ATOM     83  N   ALA d   1     -18.461 -30.059  15.733  0.00  0.00    -0.346 N 
ATOM     84  CA  ALA d   1     -18.969 -28.709  15.948  0.00  0.00     0.086 C 
ATOM     85  C   ALA d   1     -20.482 -28.655  15.789  0.00  0.00     0.240 C 
ATOM     86  O   ALA d   1     -21.148 -27.877  16.481  0.00  0.00    -0.271 OA
ATOM     87  H33 ALA d   1     -17.881 -30.256  14.943  0.00  0.00     0.163 HD
ATOM     88  H34 ALA d   1     -18.724 -28.413  16.979  0.00  0.00     0.086 H 
ATOM     89  N   ASN d   1     -22.683 -31.086  16.451  0.00  0.00    -0.346 N 
ATOM     90  CA  ASN d   1     -23.328 -31.722  17.589  0.00  0.00     0.097 C 
ATOM     91  C   ASN d   1     -23.595 -30.732  18.705  0.00  0.00     0.241 C 
ATOM     92  O   ASN d   1     -24.674 -30.732  19.308  0.00  0.00    -0.271 OA
ATOM     93  H42 ASN d   1     -21.816 -31.449  16.110  0.00  0.00     0.163 HD
ATOM     94  H43 ASN d   1     -24.285 -32.147  17.254  0.00  0.00     0.088 H 
ATOM     95  N   VAL d   1     -22.608 -29.896  19.014  0.00  0.00    -0.346 N 
ATOM     96  CA  VAL d   1     -22.685 -29.122  20.237  0.00  0.00     0.092 C 
ATOM     97  C   VAL d   1     -23.672 -27.964  20.101  0.00  0.00     0.241 C 
ATOM     98  O   VAL d   1     -24.434 -27.674  21.030  0.00  0.00    -0.271 OA
ATOM     99  H48 VAL d   1     -21.819 -29.802  18.407  0.00  0.00     0.163 HD
ATOM    100  H49 VAL d   1     -23.057 -29.777  21.038  0.00  0.00     0.088 H 
ATOM    101  N   ASP d   1     -23.741 -27.338  18.929  0.00  0.00    -0.345 N 
ATOM    102  CA  ASP d   1     -24.695 -26.248  18.771  0.00  0.00     0.098 C 
ATOM    103  C   ASP d   1     -26.135 -26.741  18.696  0.00  0.00     0.241 C 
ATOM    104  O   ASP d   1     -27.055 -25.912  18.725  0.00  0.00    -0.271 OA
ATOM    105  H57 ASP d   1     -23.149 -27.610  18.171  0.00  0.00     0.163 HD
ATOM    106  H58 ASP d   1     -24.609 -25.604  19.659  0.00  0.00     0.088 H 
ATOM    107  N   GLU d   1     -30.150 -30.690  21.394  0.00  0.00    -0.346 N 
ATOM    108  CA  GLU d   1     -31.503 -31.233  21.349  0.00  0.00     0.090 C 
ATOM    109  C   GLU d   1     -31.690 -32.236  20.215  0.00  0.00     0.241 C 
ATOM    110  O   GLU d   1     -32.635 -33.034  20.255  0.00  0.00    -0.271 OA
ATOM    111  H75 GLU d   1     -29.992 -29.753  21.081  0.00  0.00     0.163 HD
ATOM    112  H76 GLU d   1     -31.683 -31.761  22.297  0.00  0.00     0.087 H 
ATOM    113  N   ILE d   1     -30.816 -32.220  19.209  0.00  0.00    -0.346 N 
ATOM    114  CA  ILE d   1     -30.937 -33.134  18.078  0.00  0.00     0.092 C 
ATOM    115  C   ILE d   1     -29.970 -34.299  18.246  0.00  0.00     0.241 C 
ATOM    116  O   ILE d   1     -30.258 -35.426  17.828  0.00  0.00    -0.271 OA
ATOM    117  H81 ILE d   1     -30.059 -31.566  19.230  0.00  0.00     0.163 HD
ATOM    118  H82 ILE d   1     -31.962 -33.534  18.061  0.00  0.00     0.088 H 
ENDROOT
BRANCH 114 119
ATOM    119  CB  ILE d   1     -30.688 -32.392  16.751  0.00  0.00    -0.030 C 
ATOM    120  H83 ILE d   1     -29.627 -32.103  16.710  0.00  0.00     0.043 H 
BRANCH 119 121
ATOM    121  CG1 ILE d   1     -31.536 -31.121  16.691  0.00  0.00    -0.063 C 
ATOM    122  H84 ILE d   1     -31.374 -30.552  17.618  0.00  0.00     0.033 H 
ATOM    123  H85 ILE d   1     -32.594 -31.413  16.621  0.00  0.00     0.033 H 
BRANCH 121 124
ATOM    124  CD1 ILE d   1     -31.212 -30.224  15.520  0.00  0.00    -0.076 C 
ATOM    125  H89 ILE d   1     -31.861 -29.336  15.548  0.00  0.00     0.027 H 
ATOM    126  H90 ILE d   1     -31.380 -30.772  14.581  0.00  0.00     0.027 H 
ATOM    127  H91 ILE d   1     -30.159 -29.910  15.579  0.00  0.00     0.027 H 
ENDBRANCH 121 124
ENDBRANCH 119 121
BRANCH 119 128
ATOM    128  CG2 ILE d   1     -30.982 -33.293  15.560  0.00  0.00    -0.071 C 
ATOM    129  H86 ILE d   1     -30.362 -34.199  15.624  0.00  0.00     0.028 H 
ATOM    130  H87 ILE d   1     -30.751 -32.756  14.628  0.00  0.00     0.028 H 
ATOM    131  H88 ILE d   1     -32.045 -33.575  15.567  0.00  0.00     0.028 H 
ENDBRANCH 119 128
ENDBRANCH 114 119
BRANCH 108 132
ATOM    132  CB  GLU d   1     -32.529 -30.100  21.231  0.00  0.00    -0.029 C 
ATOM    133  H77 GLU d   1     -33.525 -30.545  21.090  0.00  0.00     0.037 H 
ATOM    134  H78 GLU d   1     -32.273 -29.488  20.354  0.00  0.00     0.037 H 
BRANCH 132 135
ATOM    135  CG  GLU d   1     -32.574 -29.192  22.458  0.00  0.00     0.018 C 
ATOM    136  H79 GLU d   1     -31.559 -28.813  22.649  0.00  0.00     0.049 H 
ATOM    137  H80 GLU d   1     -32.912 -29.787  23.320  0.00  0.00     0.049 H 
BRANCH 135 138
ATOM    138  CD  GLU d   1     -33.512 -28.001  22.295  0.00  0.00     0.172 C 
ATOM    139  OE1 GLU d   1     -33.964 -27.738  21.155  0.00  0.00    -0.648 OA
ATOM    140  OE2 GLU d   1     -33.798 -27.330  23.314  0.00  0.00    -0.648 OA
ENDBRANCH 135 138
ENDBRANCH 132 135
ENDBRANCH 108 132
BRANCH  19 141
ATOM    141  C   CYS d   1     -27.602 -35.498  20.445  0.00  0.00     0.239 C 
ATOM    142  O   CYS d   1     -27.664 -34.673  21.355  0.00  0.00    -0.271 OA
ATOM    143  N   NH2 d   1     -27.364 -36.789  20.652  0.00  0.00    -0.368 N 
ATOM    144  H96 NH2 d   1     -27.224 -37.129  21.582  0.00  0.00     0.159 HD
ATOM    145  H97 NH2 d   1     -27.325 -37.421  19.878  0.00  0.00     0.159 HD
ENDBRANCH  19 141
BRANCH  48 146
ATOM    146  CB  HIS d   1     -28.004 -29.027  17.151  0.00  0.00     0.002 C 
ATOM    147  H63 HIS d   1     -29.038 -29.400  17.107  0.00  0.00     0.046 H 
ATOM    148  H64 HIS d   1     -27.313 -29.824  16.838  0.00  0.00     0.046 H 
BRANCH 146 149
ATOM    149  CG  HIS d   1     -27.871 -27.882  16.198  0.00  0.00     0.030 A 
ATOM    150  ND1 HIS d   1     -28.706 -26.783  16.214  0.00  0.00    -0.353 N 
ATOM    151  CE1 HIS d   1     -28.294 -25.922  15.298  0.00  0.00     0.063 A 
ATOM    152  H65 HIS d   1     -29.516 -26.654  16.837  0.00  0.00     0.166 HD
ATOM    153  NE2 HIS d   1     -27.200 -26.398  14.730  0.00  0.00    -0.254 NA
ATOM    154  H67 HIS d   1     -28.777 -24.977  15.053  0.00  0.00     0.143 H 
ATOM    155  CD2 HIS d   1     -26.896 -27.605  15.300  0.00  0.00     0.025 A 
ATOM    156  H66 HIS d   1     -26.031 -28.227  15.073  0.00  0.00     0.117 H 
ENDBRANCH 146 149
ENDBRANCH  48 146
BRANCH   1 157
ATOM    157  N   CYS d   1     -25.667 -34.291  10.743  0.00  0.00    -0.346 N 
ATOM    158  C   GLY d   1     -24.928 -35.256  10.184  0.00  0.00     0.243 C 
ATOM    159  O   GLY d   1     -23.723 -35.410  10.402  0.00  0.00    -0.272 OA
ATOM    160  H6  CYS d   1     -26.636 -34.218  10.508  0.00  0.00     0.163 HD
BRANCH 158 161
ATOM    161  CA  GLY d   1     -25.667 -36.172   9.226  0.00  0.00     0.152 C 
ATOM    162  H4  GLY d   1     -25.384 -35.903   8.198  0.00  0.00     0.090 H 
ATOM    163  H5  GLY d   1     -25.363 -37.209   9.431  0.00  0.00     0.090 H 
BRANCH 161 164
ATOM    164  N   GLY d   1     -27.112 -36.084   9.344  0.00  0.00    -0.071 N 
ATOM    165  H1  GLY d   1     -27.542 -36.713   8.684  0.00  0.00     0.274 HD
ATOM    166  H2  GLY d   1     -27.408 -35.140   9.150  0.00  0.00     0.274 HD
ATOM    167  H3  GLY d   1     -27.389 -36.337  10.280  0.00  0.00     0.274 HD
ENDBRANCH 161 164
ENDBRANCH 158 161
ENDBRANCH   1 157
BRANCH  38 168
ATOM    168  CB  SER d   1     -21.302 -37.724  11.764  0.00  0.00     0.044 C 
ATOM    169  H16 SER d   1     -21.518 -37.022  10.945  0.00  0.00     0.077 H 
ATOM    170  H17 SER d   1     -22.034 -38.545  11.745  0.00  0.00     0.077 H 
BRANCH 168 171
ATOM    171  OG  SER d   1     -20.002 -38.258  11.585  0.00  0.00    -0.398 OA
ATOM    172  H18 SER d   1     -19.366 -37.552  11.597  0.00  0.00     0.209 HD
ENDBRANCH 168 171
ENDBRANCH  38 168
BRANCH 102 173
ATOM    173  CB  ASP d   1     -24.365 -25.396  17.537  0.00  0.00     0.043 C 
ATOM    174  H59 ASP d   1     -25.306 -25.044  17.090  0.00  0.00     0.052 H 
ATOM    175  H60 ASP d   1     -23.826 -26.021  16.811  0.00  0.00     0.052 H 
BRANCH 173 176
ATOM    176  CG  ASP d   1     -23.504 -24.189  17.875  0.00  0.00     0.175 C 
ATOM    177  OD1 ASP d   1     -23.354 -23.901  19.088  0.00  0.00    -0.648 OA
ATOM    178  OD2 ASP d   1     -22.978 -23.536  16.949  0.00  0.00    -0.648 OA
ENDBRANCH 173 176
ENDBRANCH 102 173
BRANCH  44 179
ATOM    179  CB  HIS d   1     -20.292 -32.445  11.996  0.00  0.00     0.004 C 
ATOM    180  H21 HIS d   1     -21.226 -32.016  12.388  0.00  0.00     0.046 H 
ATOM    181  H22 HIS d   1     -20.487 -32.924  11.025  0.00  0.00     0.046 H 
BRANCH 179 182
ATOM    182  CG  HIS d   1     -19.316 -31.330  11.782  0.00  0.00     0.053 A 
ATOM    183  ND1 HIS d   1     -19.365 -30.151  12.494  0.00  0.00    -0.247 NA
ATOM    184  CE1 HIS d   1     -18.392 -29.354  12.088  0.00  0.00     0.064 A 
ATOM    185  NE2 HIS d   1     -17.713 -29.975  11.141  0.00  0.00    -0.359 N 
ATOM    186  H24 HIS d   1     -18.185 -28.355  12.470  0.00  0.00     0.143 H 
ATOM    187  CD2 HIS d   1     -18.272 -31.212  10.929  0.00  0.00     0.002 A 
ATOM    188  H25 HIS d   1     -16.896 -29.594  10.642  0.00  0.00     0.166 HD
ATOM    189  H23 HIS d   1     -17.938 -31.958  10.209  0.00  0.00     0.114 H 
ENDBRANCH 179 182
ENDBRANCH  44 179
BRANCH  96 190
ATOM    190  CB  VAL d   1     -21.272 -28.674  20.613  0.00  0.00    -0.033 C 
ATOM    191  H50 VAL d   1     -20.955 -27.873  19.928  0.00  0.00     0.042 H 
BRANCH 190 192
ATOM    192  CG1 VAL d   1     -21.308 -28.121  21.990  0.00  0.00    -0.071 C 
ATOM    193  H51 VAL d   1     -20.299 -27.793  22.280  0.00  0.00     0.028 H 
ATOM    194  H52 VAL d   1     -21.655 -28.897  22.688  0.00  0.00     0.028 H 
ATOM    195  H53 VAL d   1     -21.996 -27.264  22.023  0.00  0.00     0.028 H 
ENDBRANCH 190 192
BRANCH 190 196
ATOM    196  CG2 VAL d   1     -20.297 -29.851  20.451  0.00  0.00    -0.071 C 
ATOM    197  H54 VAL d   1     -20.323 -30.208  19.411  0.00  0.00     0.028 H 
ATOM    198  H55 VAL d   1     -20.592 -30.668  21.126  0.00  0.00     0.028 H 
ATOM    199  H56 VAL d   1     -19.278 -29.520  20.700  0.00  0.00     0.028 H 
ENDBRANCH 190 196
ENDBRANCH  96 190
BRANCH  90 200
ATOM    200  CB  ASN d   1     -22.452 -32.839  18.140  0.00  0.00     0.036 C 
ATOM    201  H44 ASN d   1     -22.966 -33.301  18.996  0.00  0.00     0.051 H 
ATOM    202  H45 ASN d   1     -21.498 -32.406  18.475  0.00  0.00     0.051 H 
BRANCH 200 203
ATOM    203  CG  ASN d   1     -22.168 -33.892  17.131  0.00  0.00     0.217 C 
ATOM    204  OD1 ASN d   1     -22.826 -33.955  16.102  0.00  0.00    -0.274 OA
ATOM    205  ND2 ASN d   1     -21.208 -34.755  17.427  0.00  0.00    -0.370 N 
ATOM    206  H46 ASN d   1     -20.975 -35.484  16.784  0.00  0.00     0.159 HD
ATOM    207  H47 ASN d   1     -20.716 -34.677  18.294  0.00  0.00     0.159 HD
ENDBRANCH 200 203
ENDBRANCH  90 200
BRANCH  84 208
ATOM    208  CB  ALA d   1     -18.291 -27.723  14.995  0.00  0.00    -0.049 C 
ATOM    209  H35 ALA d   1     -18.686 -26.712  15.172  0.00  0.00     0.030 H 
ATOM    210  H36 ALA d   1     -18.494 -28.020  13.955  0.00  0.00     0.030 H 
ATOM    211  H37 ALA d   1     -17.206 -27.729  15.173  0.00  0.00     0.030 H 
ENDBRANCH  84 208
TORSDOF 25
