REMARK  15 active torsions:
REMARK  status: ('A' for Active; 'I' for Inactive)
REMARK    1  A    between atoms: C1_1  and  O2_3 
REMARK       I    between atoms: N_12  and  C1_1 
REMARK    2  A    between atoms: O2_3  and  C2_4 
REMARK    3  A    between atoms: C2_4  and  C3_5 
REMARK    4  A    between atoms: C_11  and  CA_14 
REMARK       I    between atoms: N_27  and  C_11 
REMARK    5  A    between atoms: CA_14  and  N_12 
REMARK    6  A    between atoms: CA_14  and  CB_15 
REMARK    7  A    between atoms: CB_15  and  CG_18 
REMARK    8  A    between atoms: CD_16  and  CE_17 
REMARK    9  A    between atoms: CG_18  and  CD_16 
REMARK   10  A    between atoms: CE_17  and  NZ_24 
REMARK   11  A    between atoms: CK_19  and  CL_20 
REMARK   12  A    between atoms: CX_22  and  CK_19 
REMARK   13  A    between atoms: CL_20  and  CP_21 
REMARK       I    between atoms: NZ_24  and  CX_22 
REMARK   14  A    between atoms: CA_28  and  N_27 
REMARK   15  A    between atoms: C6_33  and  C10_37 
ROOT
ATOM      1  H9  PHQ d   1      16.626 -29.388  -2.598  0.00  0.00     0.087 H 
ATOM      2  CA  SLL d   1      16.915 -28.508  -3.192  0.00  0.00     0.092 C 
ENDROOT
BRANCH   2   3
ATOM      3  C   SLL d   1      18.316 -28.082  -2.756  0.00  0.00     0.245 C 
ATOM      4  O   SLL d   1      18.622 -26.949  -2.616  0.00  0.00    -0.271 OA
ATOM      5  N   MCM d   1      19.231 -29.185  -2.533  0.00  0.00    -0.325 N 
ATOM      6  H23 PHQ d   1      18.901 -30.110  -2.721  0.00  0.00     0.169 HD
BRANCH   5   7
ATOM      7  CA  MCM d   1      20.582 -29.037  -2.059  0.00  0.00     0.037 A 
ATOM      8  C2  MCM d   1      21.199 -27.818  -1.952  0.00  0.00    -0.024 A 
ATOM      9  C3  MCM d   1      22.498 -27.765  -1.445  0.00  0.00     0.092 A 
ATOM     10  H24 PHQ d   1      20.688 -26.912  -2.256  0.00  0.00     0.091 H 
ATOM     11  C7  MCM d   1      23.131 -28.919  -1.046  0.00  0.00     0.004 A 
ATOM     12  O1  MCM d   1      23.150 -26.561  -1.361  0.00  0.00    -0.275 OA
ATOM     13  C6  MCM d   1      24.426 -28.866  -0.540  0.00  0.00    -0.043 C 
ATOM     14  C8  MCM d   1      22.503 -30.137  -1.131  0.00  0.00    -0.068 A 
ATOM     15  C5  MCM d   1      25.132 -27.654  -0.713  0.00  0.00    -0.004 C 
ATOM     16  C4  MCM d   1      24.496 -26.569  -1.354  0.00  0.00     0.288 C 
ATOM     17  H25 PHQ d   1      26.156 -27.558  -0.355  0.00  0.00     0.093 H 
ATOM     18  O2  MCM d   1      25.102 -25.689  -1.892  0.00  0.00    -0.260 OA
ATOM     19  C9  MCM d   1      21.218 -30.180  -1.623  0.00  0.00    -0.056 A 
ATOM     20  H26 PHQ d   1      23.007 -31.044  -0.818  0.00  0.00     0.085 H 
ATOM     21  H27 PHQ d   1      20.697 -31.129  -1.668  0.00  0.00     0.086 H 
BRANCH  13  22
ATOM     22  C10 MCM d   1      24.974 -30.124   0.167  0.00  0.00    -0.050 C 
ATOM     23  H28 PHQ d   1      26.001 -29.933   0.511  0.00  0.00     0.033 H 
ATOM     24  H29 PHQ d   1      24.974 -30.969  -0.537  0.00  0.00     0.033 H 
ATOM     25  H30 PHQ d   1      24.337 -30.366   1.031  0.00  0.00     0.033 H 
ENDBRANCH  13  22
ENDBRANCH   5   7
ENDBRANCH   2   3
BRANCH   2  26
ATOM     26  N   SLL d   1      15.908 -27.461  -2.931  0.00  0.00    -0.324 N 
ATOM     27  C1  PHQ d   1      14.671 -27.898  -2.271  0.00  0.00     0.361 C 
ATOM     28  O1  PHQ d   1      14.693 -28.942  -1.730  0.00  0.00    -0.238 OA
ATOM     29  H8  PHQ d   1      16.060 -26.507  -3.189  0.00  0.00     0.165 HD
BRANCH  27  30
ATOM     30  O2  PHQ d   1      13.442 -27.210  -2.265  0.00  0.00    -0.299 OA
BRANCH  30  31
ATOM     31  C2  PHQ d   1      13.460 -25.836  -2.024  0.00  0.00     0.054 C 
ATOM     32  H1  PHQ d   1      12.666 -25.354  -2.614  0.00  0.00     0.082 H 
ATOM     33  H2  PHQ d   1      14.437 -25.428  -2.322  0.00  0.00     0.082 H 
BRANCH  31  34
ATOM     34  C3  PHQ d   1      13.227 -25.552  -0.536  0.00  0.00    -0.034 A 
ATOM     35  C4  PHQ d   1      11.958 -25.617   0.041  0.00  0.00    -0.075 A 
ATOM     36  C5  PHQ d   1      11.779 -25.340   1.393  0.00  0.00    -0.082 A 
ATOM     37  H3  PHQ d   1      11.104 -25.886  -0.570  0.00  0.00     0.084 H 
ATOM     38  C6  PHQ d   1      12.865 -24.988   2.156  0.00  0.00    -0.083 A 
ATOM     39  H4  PHQ d   1      10.793 -25.401   1.839  0.00  0.00     0.083 H 
ATOM     40  C7  PHQ d   1      14.126 -24.917   1.578  0.00  0.00    -0.082 A 
ATOM     41  H5  PHQ d   1      12.738 -24.765   3.209  0.00  0.00     0.083 H 
ATOM     42  C8  PHQ d   1      14.310 -25.195   0.239  0.00  0.00    -0.075 A 
ATOM     43  H6  PHQ d   1      14.978 -24.639   2.188  0.00  0.00     0.083 H 
ATOM     44  H7  PHQ d   1      15.299 -25.133  -0.201  0.00  0.00     0.084 H 
ENDBRANCH  31  34
ENDBRANCH  30  31
ENDBRANCH  27  30
ENDBRANCH   2  26
BRANCH   2  45
ATOM     45  CB  SLL d   1      16.984 -28.934  -4.652  0.00  0.00    -0.038 C 
ATOM     46  H10 PHQ d   1      16.256 -29.736  -4.845  0.00  0.00     0.036 H 
ATOM     47  H11 PHQ d   1      17.996 -29.292  -4.892  0.00  0.00     0.036 H 
BRANCH  45  48
ATOM     48  CG  SLL d   1      16.648 -27.706  -5.502  0.00  0.00    -0.061 C 
ATOM     49  H16 PHQ d   1      17.414 -26.935  -5.332  0.00  0.00     0.033 H 
ATOM     50  H17 PHQ d   1      15.664 -27.320  -5.197  0.00  0.00     0.033 H 
BRANCH  48  51
ATOM     51  CD  SLL d   1      16.607 -28.038  -6.981  0.00  0.00    -0.050 C 
ATOM     52  H12 PHQ d   1      17.177 -27.282  -7.541  0.00  0.00     0.035 H 
ATOM     53  H13 PHQ d   1      17.053 -29.030  -7.145  0.00  0.00     0.035 H 
BRANCH  51  54
ATOM     54  CE  SLL d   1      15.173 -28.046  -7.464  0.00  0.00    -0.005 C 
ATOM     55  H14 PHQ d   1      14.889 -27.043  -7.815  0.00  0.00     0.064 H 
ATOM     56  H15 PHQ d   1      14.503 -28.352  -6.647  0.00  0.00     0.064 H 
BRANCH  54  57
ATOM     57  NZ  SLL d   1      15.089 -28.995  -8.555  0.00  0.00    -0.361 N 
ATOM     58  CX  SLL d   1      15.273 -28.490  -9.880  0.00  0.00     0.218 C 
ATOM     59  OX  SLL d   1      15.445 -27.337 -10.051  0.00  0.00    -0.274 OA
ATOM     60  H22 PHQ d   1      14.909 -29.965  -8.388  0.00  0.00     0.162 HD
BRANCH  58  61
ATOM     61  CK  SLL d   1      15.174 -29.431 -11.049  0.00  0.00     0.018 C 
ATOM     62  H18 PHQ d   1      15.862 -29.141 -11.857  0.00  0.00     0.047 H 
ATOM     63  H19 PHQ d   1      15.380 -30.468 -10.747  0.00  0.00     0.047 H 
BRANCH  61  64
ATOM     64  CL  SLL d   1      13.733 -29.254 -11.464  0.00  0.00     0.024 C 
ATOM     65  H20 PHQ d   1      13.378 -28.259 -11.157  0.00  0.00     0.049 H 
ATOM     66  H21 PHQ d   1      13.112 -30.027 -10.988  0.00  0.00     0.049 H 
BRANCH  64  67
ATOM     67  CP  SLL d   1      13.648 -29.384 -12.958  0.00  0.00     0.172 C 
ATOM     68  OP1 SLL d   1      13.948 -28.403 -13.688  0.00  0.00    -0.648 OA
ATOM     69  OP2 SLL d   1      13.289 -30.497 -13.399  0.00  0.00    -0.648 OA
ENDBRANCH  64  67
ENDBRANCH  61  64
ENDBRANCH  58  61
ENDBRANCH  54  57
ENDBRANCH  51  54
ENDBRANCH  48  51
ENDBRANCH  45  48
ENDBRANCH   2  45
TORSDOF 15
