REMARK WARNING: 32 MAX_TORS EXCEEDED!!!
REMARK  49 active torsions:
REMARK  status: ('A' for Active; 'I' for Inactive)
REMARK    1  A    between atoms: N_1  and  CA_2 
REMARK    2  A    between atoms: CA_2  and  C_3 
REMARK    3  A    between atoms: CA_2  and  CB_5 
REMARK       I    between atoms: C_3  and  N_12 
REMARK    4  A    between atoms: CB_5  and  CG_6 
REMARK    5  A    between atoms: CG_6  and  CD_7 
REMARK    6  A    between atoms: CD_7  and  NE_8 
REMARK       I    between atoms: NE_8  and  CZ_9 
REMARK       I    between atoms: CZ_9  and  NH1_10 
REMARK       I    between atoms: CZ_9  and  NH2_11 
REMARK    7  A    between atoms: CA_13  and  C_14 
REMARK       I    between atoms: C_14  and  N_19 
REMARK    8  A    between atoms: N_19  and  CA_20 
REMARK    9  A    between atoms: CA_20  and  C_21 
REMARK   10  A    between atoms: CA_20  and  CB_23 
REMARK       I    between atoms: C_21  and  N_26 
REMARK   11  A    between atoms: CB_23  and  CG1_24 
REMARK   12  A    between atoms: CB_23  and  CG2_25 
REMARK   13  A    between atoms: CA_27  and  C_28 
REMARK       I    between atoms: C_28  and  N_33 
REMARK   14  A    between atoms: N_33  and  CA_34 
REMARK   15  A    between atoms: CA_34  and  C_35 
REMARK   16  A    between atoms: CA_34  and  CB_37 
REMARK       I    between atoms: C_35  and  N_41 
REMARK   17  A    between atoms: CB_37  and  CG_38 
REMARK   18  A    between atoms: CG_38  and  SD_39 
REMARK   19  A    between atoms: SD_39  and  CE_40 
REMARK   20  A    between atoms: N_41  and  CA_42 
REMARK   21  A    between atoms: CA_42  and  C_43 
REMARK   22  A    between atoms: CA_42  and  CB_45 
REMARK       I    between atoms: C_43  and  N_47 
REMARK   23  A    between atoms: CB_45  and  CG_46 
REMARK   24  A    between atoms: N_47  and  CA_48 
REMARK   25  A    between atoms: CA_48  and  C_49 
REMARK   26  A    between atoms: CA_48  and  CB_51 
REMARK       I    between atoms: C_49  and  N_58 
REMARK   27  A    between atoms: CB_51  and  CG_52 
REMARK   28  A    between atoms: CG_52  and  CD_53 
REMARK   29  A    between atoms: CD_53  and  NE_54 
REMARK       I    between atoms: NE_54  and  CZ_55 
REMARK       I    between atoms: CZ_55  and  NH1_56 
REMARK       I    between atoms: CZ_55  and  NH2_57 
REMARK   30  A    between atoms: N_58  and  CA_59 
REMARK   31  A    between atoms: CA_59  and  C_60 
REMARK   32  A    between atoms: CA_59  and  CB_62 
REMARK       I    between atoms: C_60  and  N_68 
REMARK   33  A    between atoms: CB_62  and  CG_63 
REMARK   34  A    between atoms: N_68  and  CA_69 
REMARK   35  A    between atoms: CA_69  and  C_70 
REMARK   36  A    between atoms: CA_69  and  CB_72 
REMARK       I    between atoms: C_70  and  N_76 
REMARK   37  A    between atoms: CB_72  and  CG1_73 
REMARK   38  A    between atoms: CB_72  and  CG2_74 
REMARK   39  A    between atoms: CG1_73  and  CD1_75 
REMARK   40  A    between atoms: N_76  and  CA_77 
REMARK   41  A    between atoms: CA_77  and  C_78 
REMARK   42  A    between atoms: CA_77  and  CB_80 
REMARK       I    between atoms: C_78  and  N_87 
REMARK   43  A    between atoms: CB_80  and  CG_81 
REMARK   44  A    between atoms: N_87  and  CA_88 
REMARK   45  A    between atoms: CA_88  and  C_89 
REMARK   46  A    between atoms: CA_88  and  CB_91 
REMARK   47  A    between atoms: CB_91  and  CG_92 
REMARK   48  A    between atoms: CG_92  and  CD_93 
REMARK   49  A    between atoms: CD_93  and  NE_94 
REMARK       I    between atoms: NE_94  and  CZ_95 
REMARK       I    between atoms: CZ_95  and  NH1_96 
ROOT
ATOM      1  CA  ARG d   1     -14.973  -2.144  -2.506  0.00  0.00     0.089 C 
ATOM      2  H56 ARG d   1     -14.002  -1.893  -2.054  0.00  0.00     0.087 H 
ENDROOT
BRANCH   1   3
ATOM      3  N   ARG d   1     -15.077  -1.488  -3.804  0.00  0.00    -0.346 N 
ATOM      4  C   LYS d   1     -14.106  -0.748  -4.340  0.00  0.00     0.241 C 
ATOM      5  O   LYS d   1     -13.019  -0.561  -3.784  0.00  0.00    -0.271 OA
ATOM      6  H55 ARG d   1     -15.925  -1.599  -4.322  0.00  0.00     0.163 HD
BRANCH   4   7
ATOM      7  CA  LYS d   1     -14.425  -0.124  -5.696  0.00  0.00     0.089 C 
ATOM      8  H49 LYS d   1     -15.505   0.075  -5.752  0.00  0.00     0.087 H 
BRANCH   7   9
ATOM      9  N   LYS d   1     -13.706   1.134  -5.860  0.00  0.00    -0.346 N 
ATOM     10  C   MET d   1     -13.939   2.149  -5.031  0.00  0.00     0.241 C 
ATOM     11  O   MET d   1     -14.812   2.104  -4.162  0.00  0.00    -0.271 OA
ATOM     12  H48 LYS d   1     -13.037   1.234  -6.596  0.00  0.00     0.163 HD
BRANCH  10  13
ATOM     13  CA  MET d   1     -13.072   3.388  -5.250  0.00  0.00     0.090 C 
ATOM     14  H40 MET d   1     -12.936   3.528  -6.333  0.00  0.00     0.087 H 
BRANCH  13  15
ATOM     15  N   MET d   1     -13.726   4.566  -4.710  0.00  0.00    -0.346 N 
ATOM     16  C   PRO d   1     -14.729   5.131  -5.372  0.00  0.00     0.241 C 
ATOM     17  O   PRO d   1     -15.098   4.759  -6.488  0.00  0.00    -0.271 OA
ATOM     18  H39 MET d   1     -13.421   4.952  -3.839  0.00  0.00     0.163 HD
BRANCH  16  19
ATOM     19  CA  PRO d   1     -15.415   6.277  -4.649  0.00  0.00     0.091 C 
ATOM     20  N   PRO d   1     -15.849   7.317  -5.586  0.00  0.00    -0.337 N 
ATOM     21  C   VAL d   1     -14.949   8.030  -6.257  0.00  0.00     0.243 C 
ATOM     22  CD  PRO d   1     -17.312   7.458  -5.631  0.00  0.00    -0.001 C 
ATOM     23  O   VAL d   1     -13.734   7.875  -6.062  0.00  0.00    -0.271 OA
ATOM     24  CG  PRO d   1     -17.741   6.867  -4.320  0.00  0.00    -0.048 C 
ATOM     25  H37 PRO d   1     -17.739   6.899  -6.477  0.00  0.00     0.064 H 
ATOM     26  H38 PRO d   1     -17.607   8.515  -5.705  0.00  0.00     0.064 H 
ATOM     27  CB  PRO d   1     -16.726   5.789  -4.017  0.00  0.00    -0.036 C 
ATOM     28  H35 PRO d   1     -17.735   7.634  -3.531  0.00  0.00     0.035 H 
ATOM     29  H36 PRO d   1     -18.749   6.434  -4.404  0.00  0.00     0.035 H 
ATOM     30  H33 PRO d   1     -16.607   5.666  -2.930  0.00  0.00     0.036 H 
ATOM     31  H34 PRO d   1     -17.036   4.832  -4.463  0.00  0.00     0.036 H 
ATOM     32  H32 PRO d   1     -14.738   6.692  -3.888  0.00  0.00     0.087 H 
BRANCH  21  33
ATOM     33  CA  VAL d   1     -15.422   9.044  -7.294  0.00  0.00     0.092 C 
ATOM     34  H24 VAL d   1     -16.521   9.091  -7.277  0.00  0.00     0.088 H 
BRANCH  33  35
ATOM     35  N   VAL d   1     -14.887  10.354  -6.930  0.00  0.00    -0.346 N 
ATOM     36  C   PRO d   1     -15.649  11.360  -6.524  0.00  0.00     0.241 C 
ATOM     37  O   PRO d   1     -16.867  11.256  -6.391  0.00  0.00    -0.271 OA
ATOM     38  H23 VAL d   1     -13.899  10.499  -6.990  0.00  0.00     0.163 HD
BRANCH  36  39
ATOM     39  CA  PRO d   1     -14.914  12.663  -6.240  0.00  0.00     0.091 C 
ATOM     40  N   PRO d   1     -15.844  13.798  -6.217  0.00  0.00    -0.337 N 
ATOM     41  C   ARG d   1     -16.363  14.256  -7.353  0.00  0.00     0.251 C 
ATOM     42  CD  PRO d   1     -16.079  14.297  -4.849  0.00  0.00    -0.001 C 
ATOM     43  O   ARG d   1     -16.035  13.809  -8.451  0.00  0.00    -0.271 OA
ATOM     44  CG  PRO d   1     -15.406  13.263  -3.984  0.00  0.00    -0.048 C 
ATOM     45  H21 PRO d   1     -17.155  14.354  -4.630  0.00  0.00     0.064 H 
ATOM     46  H22 PRO d   1     -15.623  15.288  -4.707  0.00  0.00     0.064 H 
ATOM     47  CB  PRO d   1     -14.325  12.661  -4.827  0.00  0.00    -0.036 C 
ATOM     48  H19 PRO d   1     -14.975  13.735  -3.089  0.00  0.00     0.035 H 
ATOM     49  H20 PRO d   1     -16.128  12.491  -3.679  0.00  0.00     0.035 H 
ATOM     50  H17 PRO d   1     -13.410  13.270  -4.784  0.00  0.00     0.036 H 
ATOM     51  H18 PRO d   1     -14.099  11.636  -4.499  0.00  0.00     0.036 H 
ATOM     52  H16 PRO d   1     -14.128  12.813  -6.995  0.00  0.00     0.087 H 
BRANCH  41  53
ATOM     53  CA  ARG d   1     -17.418  15.360  -7.253  0.00  0.00     0.176 C 
ATOM     54  H4  ARG d   1     -17.258  15.915  -6.317  0.00  0.00     0.099 H 
BRANCH  53  55
ATOM     55  N   ARG d   1     -17.289  16.290  -8.373  0.00  0.00    -0.067 N 
ATOM     56  H1  ARG d   1     -17.989  17.011  -8.294  0.00  0.00     0.275 HD
ATOM     57  H2  ARG d   1     -17.416  15.792  -9.240  0.00  0.00     0.275 HD
ATOM     58  H3  ARG d   1     -16.372  16.709  -8.358  0.00  0.00     0.275 HD
ENDBRANCH  53  55
BRANCH  53  59
ATOM     59  CB  ARG d   1     -18.828  14.743  -7.224  0.00  0.00    -0.029 C 
ATOM     60  H5  ARG d   1     -18.848  13.988  -6.425  0.00  0.00     0.036 H 
ATOM     61  H6  ARG d   1     -19.001  14.255  -8.194  0.00  0.00     0.036 H 
BRANCH  59  62
ATOM     62  CG  ARG d   1     -19.999  15.727  -6.974  0.00  0.00    -0.047 C 
ATOM     63  H7  ARG d   1     -20.229  16.252  -7.913  0.00  0.00     0.035 H 
ATOM     64  H8  ARG d   1     -19.693  16.457  -6.210  0.00  0.00     0.035 H 
BRANCH  62  65
ATOM     65  CD  ARG d   1     -21.271  14.997  -6.486  0.00  0.00     0.009 C 
ATOM     66  H9  ARG d   1     -21.734  14.460  -7.327  0.00  0.00     0.064 H 
ATOM     67  H10 ARG d   1     -21.985  15.729  -6.080  0.00  0.00     0.064 H 
BRANCH  65  68
ATOM     68  NE  ARG d   1     -20.899  14.047  -5.444  0.00  0.00    -0.227 N 
ATOM     69  CZ  ARG d   1     -20.824  14.346  -4.152  0.00  0.00     0.665 C 
ATOM     70  NH1 ARG d   1     -20.389  13.439  -3.297  0.00  0.00    -0.235 N 
ATOM     71  NH2 ARG d   1     -21.187  15.550  -3.715  0.00  0.00    -0.235 N 
ATOM     72  H12 ARG d   1     -20.328  13.664  -2.294  0.00  0.00     0.174 HD
ATOM     73  H13 ARG d   1     -20.110  12.506  -3.633  0.00  0.00     0.174 HD
ATOM     74  H14 ARG d   1     -21.527  16.259  -4.381  0.00  0.00     0.174 HD
ATOM     75  H15 ARG d   1     -21.128  15.773  -2.711  0.00  0.00     0.174 HD
ATOM     76  H11 ARG d   1     -20.680  13.082  -5.728  0.00  0.00     0.177 HD
ENDBRANCH  65  68
ENDBRANCH  62  65
ENDBRANCH  59  62
ENDBRANCH  53  59
ENDBRANCH  41  53
ENDBRANCH  36  39
ENDBRANCH  33  35
BRANCH  33  77
ATOM     77  CB  VAL d   1     -14.974   8.622  -8.705  0.00  0.00    -0.033 C 
ATOM     78  H25 VAL d   1     -13.874   8.619  -8.733  0.00  0.00     0.042 H 
BRANCH  77  79
ATOM     79  CG1 VAL d   1     -15.466   7.214  -9.018  0.00  0.00    -0.071 C 
ATOM     80  H26 VAL d   1     -15.138   6.927 -10.028  0.00  0.00     0.028 H 
ATOM     81  H27 VAL d   1     -16.565   7.190  -8.968  0.00  0.00     0.028 H 
ATOM     82  H28 VAL d   1     -15.050   6.508  -8.284  0.00  0.00     0.028 H 
ENDBRANCH  77  79
BRANCH  77  83
ATOM     83  CG2 VAL d   1     -15.476   9.611  -9.748  0.00  0.00    -0.071 C 
ATOM     84  H29 VAL d   1     -15.110  10.619  -9.503  0.00  0.00     0.028 H 
ATOM     85  H30 VAL d   1     -16.576   9.612  -9.753  0.00  0.00     0.028 H 
ATOM     86  H31 VAL d   1     -15.105   9.317 -10.741  0.00  0.00     0.028 H 
ENDBRANCH  77  83
ENDBRANCH  33  77
ENDBRANCH  21  33
ENDBRANCH  16  19
ENDBRANCH  13  15
BRANCH  13  87
ATOM     87  CB  MET d   1     -11.700   3.218  -4.611  0.00  0.00    -0.030 C 
ATOM     88  H41 MET d   1     -11.208   2.340  -5.054  0.00  0.00     0.037 H 
ATOM     89  H42 MET d   1     -11.829   3.060  -3.530  0.00  0.00     0.037 H 
BRANCH  87  90
ATOM     90  CG  MET d   1     -10.820   4.432  -4.826  0.00  0.00    -0.021 C 
ATOM     91  H43 MET d   1     -11.210   5.261  -4.217  0.00  0.00     0.049 H 
ATOM     92  H44 MET d   1     -10.858   4.709  -5.890  0.00  0.00     0.049 H 
BRANCH  90  93
ATOM     93  SD  MET d   1      -9.111   4.142  -4.371  0.00  0.00    -0.173 SA
BRANCH  93  94
ATOM     94  CE  MET d   1      -8.734   2.731  -5.408  0.00  0.00    -0.035 C 
ATOM     95  H45 MET d   1      -7.691   2.422  -5.242  0.00  0.00     0.041 H 
ATOM     96  H46 MET d   1      -8.871   3.005  -6.464  0.00  0.00     0.041 H 
ATOM     97  H47 MET d   1      -9.408   1.899  -5.154  0.00  0.00     0.041 H 
ENDBRANCH  93  94
ENDBRANCH  90  93
ENDBRANCH  87  90
ENDBRANCH  13  87
ENDBRANCH  10  13
ENDBRANCH   7   9
BRANCH   7  98
ATOM     98  CB  LYS d   1     -14.039  -1.099  -6.814  0.00  0.00    -0.041 C 
ATOM     99  H50 LYS d   1     -14.190  -2.124  -6.446  0.00  0.00     0.036 H 
ATOM    100  H51 LYS d   1     -12.976  -0.948  -7.053  0.00  0.00     0.036 H 
BRANCH  98 101
ATOM    101  CG  LYS d   1     -14.845  -0.926  -8.091  0.00  0.00    -0.074 C 
ATOM    102  H52 LYS d   1     -14.509  -1.659  -8.839  0.00  0.00     0.027 H 
ATOM    103  H53 LYS d   1     -14.698   0.091  -8.483  0.00  0.00     0.027 H 
ATOM    104  H54 LYS d   1     -15.912  -1.085  -7.876  0.00  0.00     0.027 H 
ENDBRANCH  98 101
ENDBRANCH   7  98
ENDBRANCH   4   7
ENDBRANCH   1   3
BRANCH   1 105
ATOM    105  C   ARG d   1     -15.117  -3.652  -2.649  0.00  0.00     0.241 C 
ATOM    106  O   ARG d   1     -15.949  -4.133  -3.426  0.00  0.00    -0.271 OA
ATOM    107  N   HIS d   1     -14.354  -4.381  -1.832  0.00  0.00    -0.346 N 
ATOM    108  H68 HIS d   1     -13.633  -3.913  -1.320  0.00  0.00     0.163 HD
BRANCH 107 109
ATOM    109  CA  HIS d   1     -14.509  -5.826  -1.640  0.00  0.00     0.094 C 
ATOM    110  H69 HIS d   1     -15.492  -6.108  -2.044  0.00  0.00     0.088 H 
BRANCH 109 111
ATOM    111  C   HIS d   1     -14.451  -6.256  -0.184  0.00  0.00     0.241 C 
ATOM    112  O   HIS d   1     -14.933  -7.350   0.144  0.00  0.00    -0.271 OA
ATOM    113  N   ILE d   1     -13.853  -5.463   0.695  0.00  0.00    -0.346 N 
ATOM    114  H75 ILE d   1     -13.661  -4.519   0.426  0.00  0.00     0.163 HD
BRANCH 113 115
ATOM    115  CA  ILE d   1     -13.463  -5.891   2.025  0.00  0.00     0.092 C 
ATOM    116  H76 ILE d   1     -13.572  -6.984   2.091  0.00  0.00     0.088 H 
BRANCH 115 117
ATOM    117  C   ILE d   1     -14.389  -5.250   3.048  0.00  0.00     0.241 C 
ATOM    118  O   ILE d   1     -14.733  -4.063   2.946  0.00  0.00    -0.271 OA
ATOM    119  N   PHE d   1     -14.797  -6.044   4.029  0.00  0.00    -0.346 N 
ATOM    120  H86 PHE d   1     -14.467  -6.988   4.051  0.00  0.00     0.163 HD
BRANCH 119 121
ATOM    121  CA  PHE d   1     -15.705  -5.598   5.073  0.00  0.00     0.093 C 
ATOM    122  H87 PHE d   1     -15.643  -4.503   5.155  0.00  0.00     0.088 H 
BRANCH 121 123
ATOM    123  C   PHE d   1     -15.282  -6.217   6.399  0.00  0.00     0.241 C 
ATOM    124  O   PHE d   1     -14.557  -7.213   6.439  0.00  0.00    -0.271 OA
ATOM    125  N   ARG d   1     -15.729  -5.612   7.496  0.00  0.00    -0.345 N 
ATOM    126  H95 ARG d   1     -16.267  -4.774   7.409  0.00  0.00     0.163 HD
BRANCH 125 127
ATOM    127  CA  ARG d   1     -15.449  -6.147   8.821  0.00  0.00     0.096 C 
ATOM    128  H96 ARG d   1     -14.370  -6.343   8.901  0.00  0.00     0.089 H 
BRANCH 127 129
ATOM    129  C   ARG d   1     -16.206  -7.439   9.041  0.00  0.00     0.196 C 
ATOM    130  O   ARG d   1     -15.670  -8.389   9.630  0.00  0.00    -0.646 OA
ATOM    131  OXT ARG d   1     -17.368  -7.530   8.640  0.00  0.00    -0.646 OA
ENDBRANCH 127 129
BRANCH 127 132
ATOM    132  CB  ARG d   1     -15.857  -5.152   9.907  0.00  0.00    -0.035 C 
ATOM    133  H97 ARG d   1     -15.772  -5.649  10.884  0.00  0.00     0.036 H 
ATOM    134  H98 ARG d   1     -16.903  -4.858   9.735  0.00  0.00     0.036 H 
BRANCH 132 135
ATOM    135  CG  ARG d   1     -15.019  -3.919   9.931  0.00  0.00    -0.047 C 
ATOM    136  H99 ARG d   1     -15.398  -3.242  10.711  0.00  0.00     0.035 H 
ATOM    137 0H10 ARG d   1     -15.083  -3.422   8.952  0.00  0.00     0.035 H 
BRANCH 135 138
ATOM    138  CD  ARG d   1     -13.579  -4.248  10.222  0.00  0.00     0.009 C 
ATOM    139 1H10 ARG d   1     -13.119  -4.709   9.335  0.00  0.00     0.064 H 
ATOM    140 2H10 ARG d   1     -13.524  -4.948  11.069  0.00  0.00     0.064 H 
BRANCH 138 141
ATOM    141  NE  ARG d   1     -12.872  -3.022  10.556  0.00  0.00    -0.227 N 
ATOM    142  CZ  ARG d   1     -11.576  -2.820  10.381  0.00  0.00     0.665 C 
ATOM    143  NH1 ARG d   1     -10.809  -3.769   9.866  0.00  0.00    -0.235 N 
ATOM    144  NH2 ARG d   1     -11.057  -1.648  10.716  0.00  0.00    -0.235 N 
ATOM    145 4H10 ARG d   1      -9.801  -3.602   9.734  0.00  0.00     0.174 HD
ATOM    146 5H10 ARG d   1     -11.220  -4.674   9.598  0.00  0.00     0.174 HD
ATOM    147 6H10 ARG d   1     -11.659  -0.914  11.116  0.00  0.00     0.174 HD
ATOM    148 7H10 ARG d   1     -10.052  -1.471  10.576  0.00  0.00     0.174 HD
ATOM    149 3H10 ARG d   1     -13.423  -2.251  10.960  0.00  0.00     0.177 HD
ENDBRANCH 138 141
ENDBRANCH 135 138
ENDBRANCH 132 135
ENDBRANCH 127 132
ENDBRANCH 125 127
ENDBRANCH 121 123
BRANCH 121 150
ATOM    150  CB  PHE d   1     -17.155  -5.982   4.731  0.00  0.00    -0.014 C 
ATOM    151  H88 PHE d   1     -17.491  -5.354   3.892  0.00  0.00     0.043 H 
ATOM    152  H89 PHE d   1     -17.783  -5.783   5.612  0.00  0.00     0.043 H 
BRANCH 150 153
ATOM    153  CG  PHE d   1     -17.331  -7.434   4.339  0.00  0.00    -0.056 A 
ATOM    154  CD1 PHE d   1     -17.603  -8.390   5.299  0.00  0.00    -0.077 A 
ATOM    155  CE1 PHE d   1     -17.763  -9.728   4.946  0.00  0.00    -0.082 A 
ATOM    156  H90 PHE d   1     -17.693  -8.095   6.338  0.00  0.00     0.084 H 
ATOM    157  CZ  PHE d   1     -17.649 -10.110   3.621  0.00  0.00    -0.083 A 
ATOM    158  H92 PHE d   1     -17.977 -10.469   5.708  0.00  0.00     0.083 H 
ATOM    159  CE2 PHE d   1     -17.385  -9.179   2.651  0.00  0.00    -0.082 A 
ATOM    160  H94 PHE d   1     -17.769 -11.152   3.349  0.00  0.00     0.083 H 
ATOM    161  CD2 PHE d   1     -17.208  -7.839   3.013  0.00  0.00    -0.077 A 
ATOM    162  H93 PHE d   1     -17.314  -9.478   1.611  0.00  0.00     0.083 H 
ATOM    163  H91 PHE d   1     -16.972  -7.106   2.250  0.00  0.00     0.084 H 
ENDBRANCH 150 153
ENDBRANCH 121 150
ENDBRANCH 119 121
ENDBRANCH 115 117
BRANCH 115 164
ATOM    164  CB  ILE d   1     -11.987  -5.535   2.293  0.00  0.00    -0.030 C 
ATOM    165  H77 ILE d   1     -11.869  -4.445   2.202  0.00  0.00     0.043 H 
BRANCH 164 166
ATOM    166  CG1 ILE d   1     -11.085  -6.212   1.250  0.00  0.00    -0.063 C 
ATOM    167  H78 ILE d   1     -11.408  -5.886   0.250  0.00  0.00     0.033 H 
ATOM    168  H79 ILE d   1     -11.211  -7.301   1.339  0.00  0.00     0.033 H 
BRANCH 166 169
ATOM    169  CD1 ILE d   1      -9.609  -5.888   1.403  0.00  0.00    -0.076 C 
ATOM    170  H83 ILE d   1      -9.036  -6.409   0.622  0.00  0.00     0.027 H 
ATOM    171  H84 ILE d   1      -9.262  -6.217   2.393  0.00  0.00     0.027 H 
ATOM    172  H85 ILE d   1      -9.460  -4.803   1.304  0.00  0.00     0.027 H 
ENDBRANCH 166 169
ENDBRANCH 164 166
BRANCH 164 173
ATOM    173  CG2 ILE d   1     -11.582  -5.943   3.690  0.00  0.00    -0.071 C 
ATOM    174  H80 ILE d   1     -12.239  -5.449   4.421  0.00  0.00     0.028 H 
ATOM    175  H81 ILE d   1     -10.539  -5.643   3.872  0.00  0.00     0.028 H 
ATOM    176  H82 ILE d   1     -11.673  -7.034   3.794  0.00  0.00     0.028 H 
ENDBRANCH 164 173
ENDBRANCH 115 164
ENDBRANCH 113 115
ENDBRANCH 109 111
BRANCH 109 177
ATOM    177  CB  HIS d   1     -13.423  -6.616  -2.391  0.00  0.00     0.004 C 
ATOM    178  H70 HIS d   1     -13.713  -7.677  -2.403  0.00  0.00     0.046 H 
ATOM    179  H71 HIS d   1     -12.474  -6.502  -1.847  0.00  0.00     0.046 H 
BRANCH 177 180
ATOM    180  CG  HIS d   1     -13.212  -6.173  -3.798  0.00  0.00     0.053 A 
ATOM    181  ND1 HIS d   1     -12.427  -5.089  -4.123  0.00  0.00    -0.247 NA
ATOM    182  CE1 HIS d   1     -12.432  -4.926  -5.434  0.00  0.00     0.064 A 
ATOM    183  NE2 HIS d   1     -13.189  -5.868  -5.969  0.00  0.00    -0.359 N 
ATOM    184  H73 HIS d   1     -11.902  -4.147  -5.981  0.00  0.00     0.143 H 
ATOM    185  CD2 HIS d   1     -13.691  -6.660  -4.966  0.00  0.00     0.002 A 
ATOM    186  H74 HIS d   1     -13.373  -5.989  -6.975  0.00  0.00     0.166 HD
ATOM    187  H72 HIS d   1     -14.350  -7.518  -5.088  0.00  0.00     0.114 H 
ENDBRANCH 177 180
ENDBRANCH 109 177
ENDBRANCH 107 109
ENDBRANCH   1 105
BRANCH   1 188
ATOM    188  CB  ARG d   1     -16.118  -1.726  -1.572  0.00  0.00    -0.036 C 
ATOM    189  H57 ARG d   1     -16.128  -2.417  -0.717  0.00  0.00     0.036 H 
ATOM    190  H58 ARG d   1     -17.062  -1.819  -2.129  0.00  0.00     0.036 H 
BRANCH 188 191
ATOM    191  CG  ARG d   1     -16.033  -0.333  -1.038  0.00  0.00    -0.048 C 
ATOM    192  H59 ARG d   1     -16.307   0.377  -1.833  0.00  0.00     0.035 H 
ATOM    193  H60 ARG d   1     -15.003  -0.134  -0.709  0.00  0.00     0.035 H 
BRANCH 191 194
ATOM    194  CD  ARG d   1     -16.970  -0.156   0.130  0.00  0.00     0.009 C 
ATOM    195  H61 ARG d   1     -17.994  -0.386  -0.199  0.00  0.00     0.064 H 
ATOM    196  H62 ARG d   1     -16.920   0.889   0.469  0.00  0.00     0.064 H 
BRANCH 194 197
ATOM    197  NE  ARG d   1     -16.628  -1.028   1.245  0.00  0.00    -0.227 N 
ATOM    198  CZ  ARG d   1     -17.474  -1.388   2.199  0.00  0.00     0.665 C 
ATOM    199  NH1 ARG d   1     -18.713  -0.910   2.178  0.00  0.00    -0.235 N 
ATOM    200  NH2 ARG d   1     -17.098  -2.193   3.178  0.00  0.00    -0.235 N 
ATOM    201  H64 ARG d   1     -19.382  -1.181   2.913  0.00  0.00     0.174 HD
ATOM    202  H65 ARG d   1     -19.005  -0.269   1.427  0.00  0.00     0.174 HD
ATOM    203  H66 ARG d   1     -16.138  -2.566   3.198  0.00  0.00     0.174 HD
ATOM    204  H67 ARG d   1     -17.765  -2.447   3.921  0.00  0.00     0.174 HD
ATOM    205  H63 ARG d   1     -15.665  -1.389   1.295  0.00  0.00     0.177 HD
ENDBRANCH 194 197
ENDBRANCH 191 194
ENDBRANCH 188 191
ENDBRANCH   1 188
TORSDOF 49
