REMARK  4 active torsions:
REMARK  status: ('A' for Active; 'I' for Inactive)
REMARK    1  A    between atoms: C9_13  and  N2_12 
REMARK    2  A    between atoms: C10_14  and  C9_13 
REMARK    3  A    between atoms: C11_15  and  C10_14 
REMARK    4  A    between atoms: C12_16  and  C11_15 
ROOT
ATOM      1  C10 87F d   1       4.861  -1.910 -27.803  0.00  0.00    -0.047 C 
ATOM      2  H8  87F d   1       3.828  -1.857 -27.430  0.00  0.00     0.035 H 
ATOM      3  H9  87F d   1       5.075  -1.024 -28.418  0.00  0.00     0.035 H 
ENDROOT
BRANCH   1   4
ATOM      4  C9  87F d   1       5.025  -3.182 -28.668  0.00  0.00     0.004 C 
ATOM      5  H6  87F d   1       6.079  -3.497 -28.645  0.00  0.00     0.065 H 
ATOM      6  H7  87F d   1       4.394  -3.981 -28.253  0.00  0.00     0.065 H 
BRANCH   4   7
ATOM      7  N2  87F d   1       4.631  -2.937 -30.059  0.00  0.00    -0.308 N 
ATOM      8  C7  87F d   1       3.347  -3.182 -30.441  0.00  0.00     0.069 A 
ATOM      9  N1  87F d   1       2.941  -2.946 -31.656  0.00  0.00    -0.243 NA
ATOM     10  H4  87F d   1       2.643  -3.585 -29.714  0.00  0.00     0.143 H 
ATOM     11  C6  87F d   1       3.816  -2.426 -32.566  0.00  0.00     0.073 A 
ATOM     12  C1  87F d   1       3.392  -2.191 -33.852  0.00  0.00    -0.054 A 
ATOM     13  C5  87F d   1       5.120  -2.182 -32.214  0.00  0.00     0.061 A 
ATOM     14  C2  87F d   1       4.262  -1.681 -34.782  0.00  0.00    -0.081 A 
ATOM     15  H1  87F d   1       2.368  -2.409 -34.132  0.00  0.00     0.087 H 
ATOM     16  C3  87F d   1       5.559  -1.435 -34.429  0.00  0.00    -0.082 A 
ATOM     17  H2  87F d   1       3.923  -1.474 -35.791  0.00  0.00     0.083 H 
ATOM     18  C4  87F d   1       5.987  -1.681 -33.150  0.00  0.00    -0.065 A 
ATOM     19  H3  87F d   1       6.253  -1.043 -35.164  0.00  0.00     0.083 H 
ATOM     20  H5  87F d   1       7.016  -1.478 -32.877  0.00  0.00     0.085 H 
ATOM     21  C8  87F d   1       5.556  -2.422 -30.938  0.00  0.00     0.261 A 
ATOM     22  O1  87F d   1       6.700  -2.220 -30.608  0.00  0.00    -0.267 OA
ENDBRANCH   4   7
ENDBRANCH   1   4
BRANCH   1  23
ATOM     23  C11 87F d   1       5.824  -1.942 -26.615  0.00  0.00    -0.030 C 
ATOM     24  H10 87F d   1       6.836  -1.712 -26.980  0.00  0.00     0.036 H 
ATOM     25  H11 87F d   1       5.811  -2.953 -26.182  0.00  0.00     0.036 H 
BRANCH  23  26
ATOM     26  C12 87F d   1       5.461  -0.930 -25.508  0.00  0.00     0.158 C 
ATOM     27  N3  87F d   1       5.429   0.433 -25.997  0.00  0.00    -0.064 N 
ATOM     28  C16 87F d   1       5.220   1.374 -24.904  0.00  0.00     0.083 C 
ATOM     29  H13 87F d   1       4.677   0.527 -26.662  0.00  0.00     0.278 HD
ATOM     30  H14 87F d   1       6.305   0.642 -26.449  0.00  0.00     0.278 HD
ATOM     31  C15 87F d   1       4.436   0.844 -23.762  0.00  0.00    -0.036 C 
ATOM     32  H15 87F d   1       4.689   2.250 -25.305  0.00  0.00     0.075 H 
ATOM     33  H16 87F d   1       6.206   1.683 -24.527  0.00  0.00     0.075 H 
ATOM     34  C14 87F d   1       3.477  -0.153 -24.199  0.00  0.00    -0.006 C 
ATOM     35  H19 87F d   1       3.897   1.674 -23.282  0.00  0.00     0.035 H 
ATOM     36  H20 87F d   1       5.124   0.386 -23.037  0.00  0.00     0.035 H 
ATOM     37  C13 87F d   1       4.168  -1.233 -24.837  0.00  0.00     0.157 C 
ATOM     38  H17 87F d   1       2.923  -0.535 -23.329  0.00  0.00     0.044 H 
ATOM     39  H18 87F d   1       2.773   0.303 -24.910  0.00  0.00     0.044 H 
ATOM     40  O2  87F d   1       3.739  -2.344 -24.765  0.00  0.00    -0.296 OA
ATOM     41  H12 87F d   1       6.252  -0.993 -24.746  0.00  0.00     0.096 H 
ENDBRANCH  23  26
ENDBRANCH   1  23
TORSDOF 4
