REMARK  4 active torsions:
REMARK  status: ('A' for Active; 'I' for Inactive)
REMARK    1  A    between atoms: C14_7  and  C13_8 
REMARK    2  A    between atoms: C13_8  and  C12_9 
REMARK    3  A    between atoms: C12_9  and  C11_10 
REMARK    4  A    between atoms: C11_10  and  N10_11 
ROOT
ATOM      1  C12 86U d   1       8.882 -13.155  27.329  0.00  0.00    -0.047 C 
ATOM      2  H12 86U d   1       9.536 -12.773  26.532  0.00  0.00     0.035 H 
ATOM      3  H13 86U d   1       9.469 -13.784  28.015  0.00  0.00     0.035 H 
ENDROOT
BRANCH   1   4
ATOM      4  C13 86U d   1       7.757 -13.987  26.710  0.00  0.00    -0.030 C 
ATOM      5  H10 86U d   1       7.498 -14.815  27.387  0.00  0.00     0.036 H 
ATOM      6  H11 86U d   1       6.873 -13.351  26.554  0.00  0.00     0.036 H 
BRANCH   4   7
ATOM      7  C14 86U d   1       8.221 -14.553  25.366  0.00  0.00     0.158 C 
ATOM      8  C19 86U d   1       7.157 -14.317  24.326  0.00  0.00     0.157 C 
ATOM      9  O20 86U d   1       6.951 -13.186  23.888  0.00  0.00    -0.296 OA
ATOM     10  C18 86U d   1       6.353 -15.482  23.833  0.00  0.00    -0.006 C 
ATOM     11  C17 86U d   1       7.298 -16.611  23.350  0.00  0.00    -0.036 C 
ATOM     12  H1  86U d   1       5.716 -15.158  22.997  0.00  0.00     0.044 H 
ATOM     13  H2  86U d   1       5.721 -15.860  24.650  0.00  0.00     0.044 H 
ATOM     14  C16 86U d   1       8.646 -16.551  24.111  0.00  0.00     0.083 C 
ATOM     15  H3  86U d   1       7.485 -16.491  22.273  0.00  0.00     0.035 H 
ATOM     16  H4  86U d   1       6.822 -17.585  23.533  0.00  0.00     0.035 H 
ATOM     17  N15 86U d   1       8.477 -15.993  25.463  0.00  0.00    -0.064 N 
ATOM     18  H5  86U d   1       9.347 -15.917  23.548  0.00  0.00     0.075 H 
ATOM     19  H6  86U d   1       9.056 -17.568  24.193  0.00  0.00     0.075 H 
ATOM     20  H7  86U d   1       9.316 -16.150  25.999  0.00  0.00     0.278 HD
ATOM     21  H8  86U d   1       7.698 -16.443  25.918  0.00  0.00     0.278 HD
ATOM     22  H9  86U d   1       9.147 -14.042  25.064  0.00  0.00     0.096 H 
ENDBRANCH   4   7
ENDBRANCH   1   4
BRANCH   1  23
ATOM     23  C11 86U d   1       8.281 -11.980  28.103  0.00  0.00     0.004 C 
ATOM     24  H14 86U d   1       7.461 -11.543  27.514  0.00  0.00     0.065 H 
ATOM     25  H15 86U d   1       9.060 -11.221  28.267  0.00  0.00     0.065 H 
BRANCH  23  26
ATOM     26  N10 86U d   1       7.753 -12.423  29.414  0.00  0.00    -0.308 N 
ATOM     27  C22 86U d   1       8.593 -13.021  30.324  0.00  0.00     0.261 A 
ATOM     28  O23 86U d   1       9.784 -13.200  30.076  0.00  0.00    -0.267 OA
ATOM     29  C06 86U d   1       7.989 -13.425  31.589  0.00  0.00     0.064 A 
ATOM     30  C05 86U d   1       8.763 -14.037  32.567  0.00  0.00    -0.025 A 
ATOM     31  C07 86U d   1       6.634 -13.196  31.811  0.00  0.00     0.077 A 
ATOM     32  C03 86U d   1       8.184 -14.421  33.771  0.00  0.00     0.155 A 
ATOM     33  H16 86U d   1       9.818 -14.215  32.391  0.00  0.00     0.090 H 
ATOM     34  F40 86U d   1       8.935 -15.015  34.722  0.00  0.00    -0.203 F 
ATOM     35  C02 86U d   1       6.831 -14.193  33.995  0.00  0.00     0.157 A 
ATOM     36  F41 86U d   1       6.269 -14.566  35.165  0.00  0.00    -0.203 F 
ATOM     37  C24 86U d   1       6.057 -13.581  33.016  0.00  0.00    -0.014 A 
ATOM     38  H17 86U d   1       5.002 -13.404  33.192  0.00  0.00     0.092 H 
ATOM     39  N08 86U d   1       5.846 -12.578  30.826  0.00  0.00    -0.243 NA
ATOM     40  C09 86U d   1       6.442 -12.237  29.713  0.00  0.00     0.069 A 
ATOM     41  H18 86U d   1       5.827 -11.758  28.953  0.00  0.00     0.143 H 
ENDBRANCH  23  26
ENDBRANCH   1  23
TORSDOF 4
