REMARK  4 active torsions:
REMARK  status: ('A' for Active; 'I' for Inactive)
REMARK    1  A    between atoms: C13_10  and  C12_1 
REMARK    2  A    between atoms: C12_1  and  N11_11 
REMARK    3  A    between atoms: C15_3  and  C14_2 
REMARK    4  A    between atoms: C14_2  and  C13_10 
ROOT
ATOM      1  C13 86X d   1      12.648  -1.482  -8.251  0.00  0.00    -0.047 C 
ATOM      2  H14 86X d   1      11.734  -1.591  -7.649  0.00  0.00     0.035 H 
ATOM      3  H15 86X d   1      12.591  -0.554  -8.839  0.00  0.00     0.035 H 
ENDROOT
BRANCH   1   4
ATOM      4  C12 86X d   1      12.781  -2.677  -9.197  0.00  0.00     0.004 C 
ATOM      5  H1  86X d   1      12.170  -3.508  -8.815  0.00  0.00     0.065 H 
ATOM      6  H2  86X d   1      13.836  -2.986  -9.240  0.00  0.00     0.065 H 
BRANCH   4   7
ATOM      7  N11 86X d   1      12.323  -2.327 -10.561  0.00  0.00    -0.308 N 
ATOM      8  C22 86X d   1      13.234  -1.889 -11.506  0.00  0.00     0.261 A 
ATOM      9  O23 86X d   1      14.424  -1.791 -11.211  0.00  0.00    -0.267 OA
ATOM     10  C06 86X d   1      12.788  -1.568 -12.770  0.00  0.00     0.063 A 
ATOM     11  C05 86X d   1      13.684  -1.126 -13.737  0.00  0.00    -0.041 A 
ATOM     12  C07 86X d   1      11.442  -1.689 -13.072  0.00  0.00     0.076 A 
ATOM     13  C03 86X d   1      13.228  -0.804 -15.009  0.00  0.00     0.073 A 
ATOM     14  H16 86X d   1      14.737  -1.033 -13.498  0.00  0.00     0.087 H 
ATOM     15 CL4  86X d   1      14.337  -0.255 -16.211  0.00  0.00    -0.081 Cl
ATOM     16  C02 86X d   1      11.877  -0.925 -15.313  0.00  0.00     0.140 A 
ATOM     17  F01 86X d   1      11.429  -0.610 -16.560  0.00  0.00    -0.204 F 
ATOM     18  C08 86X d   1      10.983  -1.368 -14.344  0.00  0.00    -0.015 A 
ATOM     19  H17 86X d   1       9.929  -1.463 -14.581  0.00  0.00     0.091 H 
ATOM     20  N09 86X d   1      10.545  -2.134 -12.098  0.00  0.00    -0.243 NA
ATOM     21  C10 86X d   1      10.961  -2.440 -10.897  0.00  0.00     0.069 A 
ATOM     22  H18 86X d   1      10.248  -2.785 -10.150  0.00  0.00     0.143 H 
ENDBRANCH   4   7
ENDBRANCH   1   4
BRANCH   1  23
ATOM     23  C14 86X d   1      13.865  -1.426  -7.325  0.00  0.00    -0.030 C 
ATOM     24  H3  86X d   1      14.164  -2.448  -7.051  0.00  0.00     0.036 H 
ATOM     25  H4  86X d   1      14.697  -0.927  -7.843  0.00  0.00     0.036 H 
BRANCH  23  26
ATOM     26  C15 86X d   1      13.509  -0.642  -6.060  0.00  0.00     0.158 C 
ATOM     27  C20 86X d   1      12.098  -0.950  -5.661  0.00  0.00     0.157 C 
ATOM     28  O21 86X d   1      11.808  -2.048  -5.189  0.00  0.00    -0.296 OA
ATOM     29  C19 86X d   1      11.039   0.108  -5.848  0.00  0.00    -0.006 C 
ATOM     30  C18 86X d   1      11.487   1.429  -5.176  0.00  0.00    -0.036 C 
ATOM     31  H8  86X d   1      10.098  -0.233  -5.391  0.00  0.00     0.044 H 
ATOM     32  H9  86X d   1      10.882   0.281  -6.923  0.00  0.00     0.044 H 
ATOM     33  C17 86X d   1      13.031   1.525  -5.153  0.00  0.00     0.083 C 
ATOM     34  H10 86X d   1      11.079   2.280  -5.741  0.00  0.00     0.035 H 
ATOM     35  H11 86X d   1      11.107   1.458  -4.144  0.00  0.00     0.035 H 
ATOM     36  N16 86X d   1      13.633   0.802  -6.285  0.00  0.00    -0.064 N 
ATOM     37  H6  86X d   1      13.402   1.090  -4.213  0.00  0.00     0.075 H 
ATOM     38  H7  86X d   1      13.324   2.584  -5.208  0.00  0.00     0.075 H 
ATOM     39  H12 86X d   1      13.155   1.052  -7.136  0.00  0.00     0.278 HD
ATOM     40  H13 86X d   1      14.607   1.048  -6.362  0.00  0.00     0.278 HD
ATOM     41  H5  86X d   1      14.191  -0.940  -5.250  0.00  0.00     0.096 H 
ENDBRANCH  23  26
ENDBRANCH   1  23
TORSDOF 4
