REMARK  6 active torsions:
REMARK  status: ('A' for Active; 'I' for Inactive)
REMARK    1  A    between atoms: N08_11  and  C07_12 
REMARK    2  A    between atoms: C07_12  and  C06_13 
REMARK    3  A    between atoms: C06_13  and  O19_14 
REMARK    4  A    between atoms: C06_13  and  C05_15 
REMARK    5  A    between atoms: C05_15  and  C04_16 
REMARK    6  A    between atoms: C20_19  and  O22_20 
ROOT
ATOM      1  C06 873 d   1       3.416 -18.050   3.094  0.00  0.00     0.053 C 
ATOM      2  H8  873 d   1       4.457 -18.375   3.240  0.00  0.00     0.085 H 
ENDROOT
BRANCH   1   3
ATOM      3  C07 873 d   1       3.026 -17.074   4.219  0.00  0.00     0.028 C 
ATOM      4  H6  873 d   1       1.932 -17.074   4.329  0.00  0.00     0.069 H 
ATOM      5  H7  873 d   1       3.489 -17.408   5.159  0.00  0.00     0.069 H 
BRANCH   3   6
ATOM      6  N08 873 d   1       3.480 -15.697   3.921  0.00  0.00    -0.305 N 
ATOM      7  C17 873 d   1       2.581 -14.784   3.434  0.00  0.00     0.261 A 
ATOM      8  C12 873 d   1       3.077 -13.466   3.182  0.00  0.00     0.061 A 
ATOM      9  O18 873 d   1       1.457 -15.068   3.215  0.00  0.00    -0.267 OA
ATOM     10  C11 873 d   1       4.423 -13.152   3.447  0.00  0.00     0.073 A 
ATOM     11  C13 873 d   1       2.216 -12.503   2.675  0.00  0.00    -0.065 A 
ATOM     12  C16 873 d   1       4.895 -11.866   3.197  0.00  0.00    -0.054 A 
ATOM     13  N10 873 d   1       5.269 -14.135   3.954  0.00  0.00    -0.243 NA
ATOM     14  C15 873 d   1       4.018 -10.880   2.696  0.00  0.00    -0.081 A 
ATOM     15  H4  873 d   1       5.934 -11.623   3.387  0.00  0.00     0.087 H 
ATOM     16  C14 873 d   1       2.691 -11.198   2.427  0.00  0.00    -0.082 A 
ATOM     17  H3  873 d   1       4.379  -9.873   2.521  0.00  0.00     0.083 H 
ATOM     18  H2  873 d   1       2.023 -10.444   2.027  0.00  0.00     0.083 H 
ATOM     19  C09 873 d   1       4.785 -15.306   4.163  0.00  0.00     0.069 A 
ATOM     20  H5  873 d   1       5.462 -16.058   4.566  0.00  0.00     0.143 H 
ATOM     21  H1  873 d   1       1.181 -12.753   2.470  0.00  0.00     0.085 H 
ENDBRANCH   3   6
ENDBRANCH   1   3
BRANCH   1  22
ATOM     22  O19 873 d   1       3.297 -17.393   1.831  0.00  0.00    -0.394 OA
ATOM     23  H9  873 d   1       3.538 -17.996   1.138  0.00  0.00     0.210 HD
ENDBRANCH   1  22
BRANCH   1  24
ATOM     24  C05 873 d   1       2.487 -19.287   3.123  0.00  0.00    -0.011 C 
ATOM     25  H10 873 d   1       1.451 -18.938   3.244  0.00  0.00     0.040 H 
ATOM     26  H11 873 d   1       2.768 -19.910   3.985  0.00  0.00     0.040 H 
BRANCH  24  27
ATOM     27  C04 873 d   1       2.558 -20.139   1.879  0.00  0.00     0.129 C 
ATOM     28  N03 873 d   1       3.263 -19.431   0.788  0.00  0.00    -0.068 N 
ATOM     29  C02 873 d   1       3.131 -20.149  -0.500  0.00  0.00     0.082 C 
ATOM     30  H13 873 d   1       4.240 -19.358   1.023  0.00  0.00     0.277 HD
ATOM     31  H14 873 d   1       2.871 -18.508   0.690  0.00  0.00     0.277 HD
ATOM     32  C01 873 d   1       2.998 -21.672  -0.283  0.00  0.00    -0.040 C 
ATOM     33  H15 873 d   1       4.022 -19.951  -1.113  0.00  0.00     0.075 H 
ATOM     34  H16 873 d   1       2.236 -19.782  -1.024  0.00  0.00     0.075 H 
ATOM     35  C21 873 d   1       3.835 -22.094   0.928  0.00  0.00    -0.038 C 
ATOM     36  H21 873 d   1       3.356 -22.202  -1.178  0.00  0.00     0.035 H 
ATOM     37  H22 873 d   1       1.943 -21.925  -0.105  0.00  0.00     0.035 H 
ATOM     38  C20 873 d   1       3.248 -21.479   2.199  0.00  0.00     0.063 C 
ATOM     39  H19 873 d   1       3.826 -23.191   1.014  0.00  0.00     0.036 H 
ATOM     40  H20 873 d   1       4.870 -21.745   0.797  0.00  0.00     0.036 H 
ATOM     41  H17 873 d   1       2.506 -22.171   2.623  0.00  0.00     0.086 H 
ATOM     42  H12 873 d   1       1.531 -20.349   1.544  0.00  0.00     0.088 H 
BRANCH  38  43
ATOM     43  O22 873 d   1       4.304 -21.268   3.162  0.00  0.00    -0.393 OA
ATOM     44  H18 873 d   1       4.725 -22.097   3.355  0.00  0.00     0.210 HD
ENDBRANCH  38  43
ENDBRANCH  24  27
ENDBRANCH   1  24
TORSDOF 6
