REMARK  10 active torsions:
REMARK  status: ('A' for Active; 'I' for Inactive)
REMARK    1  A    between atoms: C12_2  and  C13_3 
REMARK       I    between atoms: C12_2  and  N1_4 
REMARK    2  A    between atoms: N1_4  and  C11_5 
REMARK    3  A    between atoms: C5_12  and  O3_19 
REMARK    4  A    between atoms: C3_13  and  O2_17 
REMARK    5  A    between atoms: C1_14  and  O1_15 
REMARK    6  A    between atoms: O1_15  and  C2_16 
REMARK    7  A    between atoms: O2_17  and  C4_18 
REMARK    8  A    between atoms: O3_19  and  C6_20 
REMARK    9  A    between atoms: C17_25  and  O6_28 
REMARK   10  A    between atoms: O6_28  and  C18_29 
ROOT
ATOM      1  C11 LOC d   1     -17.964  68.746 -44.563  0.00  0.00     0.017 C 
ATOM      2  C14 LOC d   1     -17.446  67.311 -44.908  0.00  0.00    -0.021 C 
ATOM      3  C15 LOC d   1     -18.011  66.764 -46.173  0.00  0.00    -0.001 C 
ATOM      4  C10 LOC d   1     -19.391  68.774 -43.986  0.00  0.00    -0.042 C 
ATOM      5  C9  LOC d   1     -19.563  67.858 -42.729  0.00  0.00    -0.038 C 
ATOM      6  C8  LOC d   1     -18.258  67.639 -41.916  0.00  0.00    -0.046 A 
ATOM      7  C7  LOC d   1     -18.210  68.025 -40.487  0.00  0.00    -0.041 A 
ATOM      8  C5  LOC d   1     -17.012  67.847 -39.745  0.00  0.00     0.104 A 
ATOM      9  C3  LOC d   1     -15.901  67.301 -40.360  0.00  0.00     0.135 A 
ATOM     10  C1  LOC d   1     -15.921  66.913 -41.769  0.00  0.00     0.111 A 
ATOM     11  C22 LOC d   1     -17.175  67.088 -42.515  0.00  0.00    -0.011 A 
ATOM     12  C21 LOC d   1     -16.977  66.675 -43.883  0.00  0.00    -0.019 C 
ATOM     13  C20 LOC d   1     -16.972  65.303 -43.729  0.00  0.00    -0.055 C 
ATOM     14  C19 LOC d   1     -16.731  64.347 -44.699  0.00  0.00    -0.034 C 
ATOM     15  C17 LOC d   1     -17.078  64.379 -46.086  0.00  0.00     0.095 C 
ATOM     16  C16 LOC d   1     -17.760  65.460 -46.815  0.00  0.00     0.156 C 
ATOM     17  O5  LOC d   1     -18.136  65.285 -47.986  0.00  0.00    -0.295 OA
ATOM     18  H5  LOC d   1     -17.295  69.147 -43.787  0.00  0.00     0.073 H 
ATOM     19  H6  LOC d   1     -16.467  67.580 -45.331  0.00  0.00     0.044 H 
ATOM     20  H7  LOC d   1     -17.733  67.503 -46.939  0.00  0.00     0.045 H 
ATOM     21  H8  LOC d   1     -19.100  66.787 -46.019  0.00  0.00     0.045 H 
ATOM     22  H9  LOC d   1     -20.090  68.435 -44.764  0.00  0.00     0.036 H 
ATOM     23  H10 LOC d   1     -19.633  69.808 -43.701  0.00  0.00     0.036 H 
ATOM     24  H11 LOC d   1     -19.928  66.876 -43.065  0.00  0.00     0.040 H 
ATOM     25  H12 LOC d   1     -20.309  68.320 -42.066  0.00  0.00     0.040 H 
ATOM     26  H13 LOC d   1     -19.088  68.443 -40.008  0.00  0.00     0.088 H 
ATOM     27  H23 LOC d   1     -15.911  66.894 -44.045  0.00  0.00     0.048 H 
ATOM     28  H24 LOC d   1     -17.971  65.061 -43.338  0.00  0.00     0.034 H 
ATOM     29  H25 LOC d   1     -16.218  65.111 -42.952  0.00  0.00     0.034 H 
ATOM     30  H26 LOC d   1     -17.214  63.436 -44.315  0.00  0.00     0.037 H 
ATOM     31  H27 LOC d   1     -15.639  64.215 -44.691  0.00  0.00     0.037 H 
ATOM     32  H28 LOC d   1     -17.974  63.751 -45.978  0.00  0.00     0.095 H 
ENDROOT
BRANCH   1  33
ATOM     33  N1  LOC d   1     -17.884  69.587 -45.659  0.00  0.00    -0.356 N 
ATOM     34  C12 LOC d   1     -16.589  69.979 -46.265  0.00  0.00     0.213 C 
ATOM     35  O4  LOC d   1     -15.573  69.611 -45.845  0.00  0.00    -0.274 OA
ATOM     36  H4  LOC d   1     -18.730  69.943 -46.056  0.00  0.00     0.162 HD
BRANCH  34  37
ATOM     37  C13 LOC d   1     -16.605  70.901 -47.461  0.00  0.00    -0.003 C 
ATOM     38  H1  LOC d   1     -17.645  71.147 -47.721  0.00  0.00     0.040 H 
ATOM     39  H2  LOC d   1     -16.122  70.403 -48.315  0.00  0.00     0.040 H 
ATOM     40  H3  LOC d   1     -16.060  71.825 -47.219  0.00  0.00     0.040 H 
ENDBRANCH  34  37
ENDBRANCH   1  33
BRANCH  15  41
ATOM     41  O6  LOC d   1     -16.316  63.486 -46.920  0.00  0.00    -0.383 OA
BRANCH  41  42
ATOM     42  C18 LOC d   1     -16.919  62.293 -47.191  0.00  0.00     0.005 C 
ATOM     43  H29 LOC d   1     -16.261  61.687 -47.831  0.00  0.00     0.066 H 
ATOM     44  H30 LOC d   1     -17.871  62.473 -47.711  0.00  0.00     0.066 H 
ATOM     45  H31 LOC d   1     -17.111  61.757 -46.250  0.00  0.00     0.066 H 
ENDBRANCH  41  42
ENDBRANCH  15  41
BRANCH  10  46
ATOM     46  O1  LOC d   1     -14.702  66.352 -42.336  0.00  0.00    -0.352 OA
BRANCH  46  47
ATOM     47  C2  LOC d   1     -13.733  67.322 -42.743  0.00  0.00     0.011 C 
ATOM     48  H14 LOC d   1     -12.852  66.809 -43.156  0.00  0.00     0.067 H 
ATOM     49  H15 LOC d   1     -13.432  67.926 -41.874  0.00  0.00     0.067 H 
ATOM     50  H16 LOC d   1     -14.170  67.977 -43.511  0.00  0.00     0.067 H 
ENDBRANCH  46  47
ENDBRANCH  10  46
BRANCH   9  51
ATOM     51  O2  LOC d   1     -14.703  67.121 -39.589  0.00  0.00    -0.351 OA
BRANCH  51  52
ATOM     52  C4  LOC d   1     -14.643  65.843 -38.927  0.00  0.00     0.011 C 
ATOM     53  H17 LOC d   1     -13.705  65.769 -38.356  0.00  0.00     0.067 H 
ATOM     54  H18 LOC d   1     -14.680  65.039 -39.677  0.00  0.00     0.067 H 
ATOM     55  H19 LOC d   1     -15.498  65.745 -38.242  0.00  0.00     0.067 H 
ENDBRANCH  51  52
ENDBRANCH   9  51
BRANCH   8  56
ATOM     56  O3  LOC d   1     -16.935  68.210 -38.352  0.00  0.00    -0.353 OA
BRANCH  56  57
ATOM     57  C6  LOC d   1     -17.748  69.250 -37.952  0.00  0.00     0.010 C 
ATOM     58  H20 LOC d   1     -17.604  69.435 -36.877  0.00  0.00     0.066 H 
ATOM     59  H21 LOC d   1     -18.799  68.987 -38.141  0.00  0.00     0.066 H 
ATOM     60  H22 LOC d   1     -17.489  70.157 -38.518  0.00  0.00     0.066 H 
ENDBRANCH  56  57
ENDBRANCH   8  56
TORSDOF 10
