REMARK WARNING: 32 MAX_TORS EXCEEDED!!!
REMARK  36 active torsions:
REMARK  status: ('A' for Active; 'I' for Inactive)
REMARK    1  A    between atoms: N_1  and  CA_2 
REMARK    2  A    between atoms: N_1  and  CN_5 
REMARK    3  A    between atoms: CA_2  and  C_3 
REMARK       I    between atoms: C_3  and  N_6 
REMARK    4  A    between atoms: N_6  and  CA_7 
REMARK    5  A    between atoms: CA_7  and  C_8 
REMARK    6  A    between atoms: CA_7  and  CB_10 
REMARK       I    between atoms: C_8  and  N_17 
REMARK    7  A    between atoms: CB_10  and  CG_11 
REMARK    8  A    between atoms: CG_11  and  CD_12 
REMARK    9  A    between atoms: CD_12  and  NE_13 
REMARK       I    between atoms: NE_13  and  CZ_14 
REMARK       I    between atoms: CZ_14  and  NH1_15 
REMARK       I    between atoms: CZ_14  and  NH2_16 
REMARK   10  A    between atoms: N_17  and  CA_18 
REMARK   11  A    between atoms: CA_18  and  C_19 
REMARK   12  A    between atoms: CA_18  and  CB_21 
REMARK       I    between atoms: C_19  and  N_24 
REMARK   13  A    between atoms: CB_21  and  CG1_22 
REMARK   14  A    between atoms: CB_21  and  CG2_23 
REMARK   15  A    between atoms: N_24  and  CA_25 
REMARK   16  A    between atoms: CA_25  and  C_26 
REMARK   17  A    between atoms: CA_25  and  CB_28 
REMARK       I    between atoms: C_26  and  N_36 
REMARK   18  A    between atoms: CB_28  and  CG_29 
REMARK   19  A    between atoms: CZ_34  and  OH_35 
REMARK   20  A    between atoms: N_36  and  CA_37 
REMARK   21  A    between atoms: CA_37  and  C_38 
REMARK   22  A    between atoms: CA_37  and  CB_40 
REMARK       I    between atoms: C_38  and  N_44 
REMARK   23  A    between atoms: CB_40  and  CG1_41 
REMARK   24  A    between atoms: CB_40  and  CG2_42 
REMARK   25  A    between atoms: CG1_41  and  CD1_43 
REMARK   26  A    between atoms: N_44  and  CA_45 
REMARK   27  A    between atoms: CA_45  and  C_46 
REMARK   28  A    between atoms: CA_45  and  CB_48 
REMARK       I    between atoms: C_46  and  N_54 
REMARK   29  A    between atoms: CB_48  and  CG_49 
REMARK   30  A    between atoms: CA_55  and  C_56 
REMARK       I    between atoms: C_56  and  N_61 
REMARK   31  A    between atoms: N_61  and  CA_62 
REMARK   32  A    between atoms: CA_62  and  C_63 
REMARK   33  A    between atoms: CA_62  and  CB_65 
REMARK   34  A    between atoms: CB_65  and  CG1_66 
REMARK   35  A    between atoms: CB_65  and  CG2_67 
REMARK   36  A    between atoms: CG1_66  and  CD1_68 
ROOT
ATOM      1  C   TYR d   1      61.517  24.073  13.098  0.00  0.00     0.241 C 
ATOM      2  O   TYR d   1      61.439  25.156  12.508  0.00  0.00    -0.271 OA
ATOM      3  N   ILE d   1      61.452  22.899  12.473  0.00  0.00    -0.346 N 
ATOM      4  H39 ILE d   1      61.458  22.060  13.017  0.00  0.00     0.163 HD
ENDROOT
BRANCH   1   5
ATOM      5  CA  TYR d   1      61.683  24.023  14.614  0.00  0.00     0.093 C 
ATOM      6  H31 TYR d   1      61.554  22.983  14.948  0.00  0.00     0.088 H 
BRANCH   5   7
ATOM      7  N   TYR d   1      63.031  24.465  14.957  0.00  0.00    -0.346 N 
ATOM      8  C   VAL d   1      64.041  23.611  15.101  0.00  0.00     0.241 C 
ATOM      9  O   VAL d   1      63.915  22.394  14.952  0.00  0.00    -0.271 OA
ATOM     10  H30 TYR d   1      63.201  25.442  15.088  0.00  0.00     0.163 HD
BRANCH   8  11
ATOM     11  CA  VAL d   1      65.382  24.236  15.457  0.00  0.00     0.092 C 
ATOM     12  H22 VAL d   1      65.222  25.010  16.222  0.00  0.00     0.088 H 
BRANCH  11  13
ATOM     13  N   VAL d   1      66.237  23.202  16.021  0.00  0.00    -0.346 N 
ATOM     14  C   ARG d   1      66.958  23.387  17.126  0.00  0.00     0.241 C 
ATOM     15  O   ARG d   1      67.023  24.467  17.712  0.00  0.00    -0.271 OA
ATOM     16  H21 VAL d   1      66.285  22.316  15.560  0.00  0.00     0.163 HD
BRANCH  14  17
ATOM     17  CA  ARG d   1      67.719  22.171  17.639  0.00  0.00     0.089 C 
ATOM     18  H9  ARG d   1      67.720  21.408  16.847  0.00  0.00     0.087 H 
BRANCH  17  19
ATOM     19  N   ARG d   1      69.106  22.495  17.956  0.00  0.00    -0.346 N 
ATOM     20  C   SAR d   1      70.073  21.589  17.856  0.00  0.00     0.244 C 
ATOM     21  O   SAR d   1      69.872  20.392  17.493  0.00  0.00    -0.272 OA
ATOM     22  H8  ARG d   1      69.334  23.421  18.256  0.00  0.00     0.163 HD
BRANCH  20  23
ATOM     23  CA  SAR d   1      71.510  22.059  18.206  0.00  0.00     0.153 C 
ATOM     24  H3  SAR d   1      71.786  22.849  17.492  0.00  0.00     0.090 H 
ATOM     25  H4  SAR d   1      71.486  22.476  19.223  0.00  0.00     0.090 H 
BRANCH  23  26
ATOM     26  N   SAR d   1      72.554  21.047  18.169  0.00  0.00    -0.071 N 
ATOM     27  H1  SAR d   1      73.428  21.500  17.954  0.00  0.00     0.277 HD
ATOM     28  H2  SAR d   1      72.330  20.386  17.442  0.00  0.00     0.277 HD
BRANCH  26  29
ATOM     29  CN  SAR d   1      72.708  20.325  19.409  0.00  0.00     0.065 C 
ATOM     30  H5  SAR d   1      73.512  19.581  19.303  0.00  0.00     0.067 H 
ATOM     31  H6  SAR d   1      71.766  19.814  19.655  0.00  0.00     0.067 H 
ATOM     32  H7  SAR d   1      72.964  21.029  20.214  0.00  0.00     0.067 H 
ENDBRANCH  26  29
ENDBRANCH  23  26
ENDBRANCH  20  23
ENDBRANCH  17  19
BRANCH  17  33
ATOM     33  CB  ARG d   1      67.008  21.594  18.866  0.00  0.00    -0.036 C 
ATOM     34  H10 ARG d   1      65.969  21.956  18.867  0.00  0.00     0.036 H 
ATOM     35  H11 ARG d   1      67.523  21.957  19.767  0.00  0.00     0.036 H 
BRANCH  33  36
ATOM     36  CG  ARG d   1      66.985  20.077  18.907  0.00  0.00    -0.048 C 
ATOM     37  H12 ARG d   1      68.020  19.704  18.883  0.00  0.00     0.035 H 
ATOM     38  H13 ARG d   1      66.441  19.705  18.026  0.00  0.00     0.035 H 
BRANCH  36  39
ATOM     39  CD  ARG d   1      66.303  19.557  20.163  0.00  0.00     0.009 C 
ATOM     40  H14 ARG d   1      66.924  19.814  21.034  0.00  0.00     0.064 H 
ATOM     41  H15 ARG d   1      66.212  18.463  20.088  0.00  0.00     0.064 H 
BRANCH  39  42
ATOM     42  NE  ARG d   1      64.971  20.126  20.354  0.00  0.00    -0.227 N 
ATOM     43  CZ  ARG d   1      63.877  19.702  19.729  0.00  0.00     0.665 C 
ATOM     44  NH1 ARG d   1      62.707  20.277  19.973  0.00  0.00    -0.235 N 
ATOM     45  NH2 ARG d   1      63.950  18.709  18.853  0.00  0.00    -0.235 N 
ATOM     46  H17 ARG d   1      61.860  19.948  19.488  0.00  0.00     0.174 HD
ATOM     47  H18 ARG d   1      62.645  21.053  20.647  0.00  0.00     0.174 HD
ATOM     48  H19 ARG d   1      64.856  18.259  18.659  0.00  0.00     0.174 HD
ATOM     49  H20 ARG d   1      63.101  18.388  18.366  0.00  0.00     0.174 HD
ATOM     50  H16 ARG d   1      64.873  20.908  21.017  0.00  0.00     0.177 HD
ENDBRANCH  39  42
ENDBRANCH  36  39
ENDBRANCH  33  36
ENDBRANCH  17  33
ENDBRANCH  14  17
ENDBRANCH  11  13
BRANCH  11  51
ATOM     51  CB  VAL d   1      66.007  24.910  14.217  0.00  0.00    -0.033 C 
ATOM     52  H23 VAL d   1      65.261  25.590  13.780  0.00  0.00     0.042 H 
BRANCH  51  53
ATOM     53  CG1 VAL d   1      67.223  25.728  14.612  0.00  0.00    -0.071 C 
ATOM     54  H24 VAL d   1      67.654  26.200  13.717  0.00  0.00     0.028 H 
ATOM     55  H25 VAL d   1      67.972  25.070  15.076  0.00  0.00     0.028 H 
ATOM     56  H26 VAL d   1      66.924  26.507  15.329  0.00  0.00     0.028 H 
ENDBRANCH  51  53
BRANCH  51  57
ATOM     57  CG2 VAL d   1      66.372  23.866  13.172  0.00  0.00    -0.071 C 
ATOM     58  H27 VAL d   1      65.476  23.288  12.903  0.00  0.00     0.028 H 
ATOM     59  H28 VAL d   1      67.136  23.189  13.581  0.00  0.00     0.028 H 
ATOM     60  H29 VAL d   1      66.768  24.367  12.276  0.00  0.00     0.028 H 
ENDBRANCH  51  57
ENDBRANCH  11  51
ENDBRANCH   8  11
ENDBRANCH   5   7
BRANCH   5  61
ATOM     61  CB  TYR d   1      60.639  24.886  15.317  0.00  0.00    -0.014 C 
ATOM     62  H32 TYR d   1      60.519  25.818  14.746  0.00  0.00     0.043 H 
ATOM     63  H33 TYR d   1      61.006  25.119  16.327  0.00  0.00     0.043 H 
BRANCH  61  64
ATOM     64  CG  TYR d   1      59.283  24.228  15.444  0.00  0.00    -0.056 A 
ATOM     65  CD1 TYR d   1      58.310  24.404  14.470  0.00  0.00    -0.074 A 
ATOM     66  CE1 TYR d   1      57.068  23.806  14.582  0.00  0.00    -0.051 A 
ATOM     67  H34 TYR d   1      58.528  25.021  13.606  0.00  0.00     0.084 H 
ATOM     68  CZ  TYR d   1      56.786  23.018  15.679  0.00  0.00     0.065 A 
ATOM     69  H36 TYR d   1      56.320  23.956  13.812  0.00  0.00     0.087 H 
ATOM     70  CE2 TYR d   1      57.736  22.827  16.661  0.00  0.00    -0.051 A 
ATOM     71  CD2 TYR d   1      58.977  23.430  16.540  0.00  0.00    -0.074 A 
ATOM     72  H37 TYR d   1      57.512  22.208  17.523  0.00  0.00     0.087 H 
ATOM     73  H35 TYR d   1      59.722  23.277  17.313  0.00  0.00     0.084 H 
BRANCH  68  74
ATOM     74  OH  TYR d   1      55.551  22.422  15.792  0.00  0.00    -0.361 OA
ATOM     75  H38 TYR d   1      55.019  22.652  15.039  0.00  0.00     0.217 HD
ENDBRANCH  68  74
ENDBRANCH  61  64
ENDBRANCH   5  61
ENDBRANCH   1   5
BRANCH   3  76
ATOM     76  CA  ILE d   1      61.373  22.797  11.025  0.00  0.00     0.092 C 
ATOM     77  H40 ILE d   1      61.654  23.775  10.607  0.00  0.00     0.088 H 
BRANCH  76  78
ATOM     78  C   ILE d   1      59.963  22.475  10.537  0.00  0.00     0.241 C 
ATOM     79  O   ILE d   1      59.618  22.834   9.405  0.00  0.00    -0.271 OA
ATOM     80  N   HIS d   1      59.129  21.843  11.361  0.00  0.00    -0.346 N 
ATOM     81  H50 HIS d   1      59.406  21.672  12.307  0.00  0.00     0.163 HD
BRANCH  80  82
ATOM     82  CA  HIS d   1      57.820  21.397  10.904  0.00  0.00     0.095 C 
ATOM     83  H51 HIS d   1      57.959  20.753  10.023  0.00  0.00     0.088 H 
BRANCH  82  84
ATOM     84  C   HIS d   1      56.947  22.587  10.500  0.00  0.00     0.243 C 
ATOM     85  O   HIS d   1      57.103  23.691  11.033  0.00  0.00    -0.271 OA
ATOM     86  N   PRO d   1      56.017  22.389   9.556  0.00  0.00    -0.337 N 
ATOM     87  CA  PRO d   1      55.186  23.520   9.104  0.00  0.00     0.091 C 
ATOM     88  CD  PRO d   1      55.773  21.175   8.755  0.00  0.00    -0.001 C 
ATOM     89  CB  PRO d   1      54.350  22.910   7.966  0.00  0.00    -0.036 C 
ATOM     90  H57 PRO d   1      55.830  24.323   8.715  0.00  0.00     0.087 H 
ATOM     91  CG  PRO d   1      55.121  21.717   7.512  0.00  0.00    -0.048 C 
ATOM     92  H58 PRO d   1      54.234  23.631   7.143  0.00  0.00     0.036 H 
ATOM     93  H59 PRO d   1      53.357  22.611   8.334  0.00  0.00     0.036 H 
ATOM     94  H60 PRO d   1      55.882  22.007   6.772  0.00  0.00     0.035 H 
ATOM     95  H61 PRO d   1      54.448  20.967   7.071  0.00  0.00     0.035 H 
ATOM     96  H62 PRO d   1      55.102  20.481   9.283  0.00  0.00     0.064 H 
ATOM     97  H63 PRO d   1      56.717  20.663   8.516  0.00  0.00     0.064 H 
BRANCH  87  98
ATOM     98  C   PRO d   1      54.303  24.106  10.193  0.00  0.00     0.241 C 
ATOM     99  O   PRO d   1      54.089  25.325  10.223  0.00  0.00    -0.271 OA
ATOM    100  N   ILE d   1      53.776  23.274  11.085  0.00  0.00    -0.344 N 
ATOM    101  H64 ILE d   1      53.952  22.293  11.003  0.00  0.00     0.163 HD
BRANCH 100 102
ATOM    102  CA  ILE d   1      52.947  23.761  12.180  0.00  0.00     0.099 C 
ATOM    103  H65 ILE d   1      52.884  24.857  12.104  0.00  0.00     0.090 H 
BRANCH 102 104
ATOM    104  C   ILE d   1      53.592  23.408  13.516  0.00  0.00     0.197 C 
ATOM    105  O   ILE d   1      53.485  24.150  14.493  0.00  0.00    -0.646 OA
ATOM    106  OXT ILE d   1      54.243  22.371  13.649  0.00  0.00    -0.646 OA
ENDBRANCH 102 104
BRANCH 102 107
ATOM    107  CB  ILE d   1      51.522  23.195  12.093  0.00  0.00    -0.029 C 
ATOM    108  H66 ILE d   1      51.559  22.117  12.306  0.00  0.00     0.043 H 
BRANCH 107 109
ATOM    109  CG1 ILE d   1      50.952  23.398  10.689  0.00  0.00    -0.063 C 
ATOM    110  H67 ILE d   1      51.609  22.886   9.970  0.00  0.00     0.033 H 
ATOM    111  H68 ILE d   1      50.940  24.476  10.472  0.00  0.00     0.033 H 
BRANCH 109 112
ATOM    112  CD1 ILE d   1      49.550  22.862  10.518  0.00  0.00    -0.076 C 
ATOM    113  H72 ILE d   1      49.211  23.044   9.488  0.00  0.00     0.027 H 
ATOM    114  H73 ILE d   1      48.875  23.371  11.222  0.00  0.00     0.027 H 
ATOM    115  H74 ILE d   1      49.544  21.781  10.720  0.00  0.00     0.027 H 
ENDBRANCH 109 112
ENDBRANCH 107 109
BRANCH 107 116
ATOM    116  CG2 ILE d   1      50.622  23.863  13.116  0.00  0.00    -0.070 C 
ATOM    117  H69 ILE d   1      51.038  23.713  14.123  0.00  0.00     0.028 H 
ATOM    118  H70 ILE d   1      49.617  23.420  13.065  0.00  0.00     0.028 H 
ATOM    119  H71 ILE d   1      50.559  24.940  12.902  0.00  0.00     0.028 H 
ENDBRANCH 107 116
ENDBRANCH 102 107
ENDBRANCH 100 102
ENDBRANCH  87  98
ENDBRANCH  82  84
BRANCH  82 120
ATOM    120  CB  HIS d   1      57.135  20.583  11.999  0.00  0.00     0.004 C 
ATOM    121  H52 HIS d   1      56.192  20.184  11.598  0.00  0.00     0.046 H 
ATOM    122  H53 HIS d   1      56.920  21.250  12.847  0.00  0.00     0.046 H 
BRANCH 120 123
ATOM    123  CG  HIS d   1      57.961  19.438  12.495  0.00  0.00     0.053 A 
ATOM    124  ND1 HIS d   1      58.223  18.322  11.729  0.00  0.00    -0.247 NA
ATOM    125  CE1 HIS d   1      58.985  17.489  12.416  0.00  0.00     0.064 A 
ATOM    126  NE2 HIS d   1      59.230  18.026  13.597  0.00  0.00    -0.359 N 
ATOM    127  H55 HIS d   1      59.349  16.524  12.067  0.00  0.00     0.143 H 
ATOM    128  CD2 HIS d   1      58.603  19.247  13.671  0.00  0.00     0.002 A 
ATOM    129  H56 HIS d   1      59.799  17.599  14.342  0.00  0.00     0.166 HD
ATOM    130  H54 HIS d   1      58.620  19.932  14.517  0.00  0.00     0.114 H 
ENDBRANCH 120 123
ENDBRANCH  82 120
ENDBRANCH  80  82
ENDBRANCH  76  78
BRANCH  76 131
ATOM    131  CB  ILE d   1      62.382  21.749  10.506  0.00  0.00    -0.030 C 
ATOM    132  H41 ILE d   1      62.051  20.756  10.843  0.00  0.00     0.043 H 
BRANCH 131 133
ATOM    133  CG1 ILE d   1      63.770  22.025  11.091  0.00  0.00    -0.063 C 
ATOM    134  H42 ILE d   1      63.704  21.952  12.187  0.00  0.00     0.033 H 
ATOM    135  H43 ILE d   1      64.067  23.046  10.809  0.00  0.00     0.033 H 
BRANCH 133 136
ATOM    136  CD1 ILE d   1      64.836  21.073  10.616  0.00  0.00    -0.076 C 
ATOM    137  H47 ILE d   1      65.797  21.338  11.080  0.00  0.00     0.027 H 
ATOM    138  H48 ILE d   1      64.926  21.140   9.522  0.00  0.00     0.027 H 
ATOM    139  H49 ILE d   1      64.563  20.046  10.899  0.00  0.00     0.027 H 
ENDBRANCH 133 136
ENDBRANCH 131 133
BRANCH 131 140
ATOM    140  CG2 ILE d   1      62.450  21.737   8.987  0.00  0.00    -0.071 C 
ATOM    141  H44 ILE d   1      61.449  21.538   8.577  0.00  0.00     0.028 H 
ATOM    142  H45 ILE d   1      63.144  20.950   8.657  0.00  0.00     0.028 H 
ATOM    143  H46 ILE d   1      62.806  22.714   8.628  0.00  0.00     0.028 H 
ENDBRANCH 131 140
ENDBRANCH  76 131
ENDBRANCH   3  76
TORSDOF 36
