REMARK  8 active torsions:
REMARK  status: ('A' for Active; 'I' for Inactive)
REMARK    1  A    between atoms: C11_13  and  C2_6 
REMARK    2  A    between atoms: C14_17  and  C17_7 
REMARK    3  A    between atoms: C20_8  and  O23_24 
REMARK    4  A    between atoms: C7_12  and  C10_14 
REMARK       I    between atoms: N13_22  and  C11_13 
REMARK    5  A    between atoms: C15_16  and  C16_15 
REMARK    6  A    between atoms: C14_17  and  C15_16 
REMARK    7  A    between atoms: C14_17  and  N13_22 
REMARK    8  A    between atoms: O23_24  and  C24_18 
ROOT
ATOM      1  C14 87R d   1       4.819  -0.023   8.728  0.00  0.00     0.037 C 
ATOM      2  H16 87R d   1       4.003   0.332   8.082  0.00  0.00     0.080 H 
ENDROOT
BRANCH   1   3
ATOM      3  C17 87R d   1       5.870  -0.659   7.875  0.00  0.00    -0.035 A 
ATOM      4  C18 87R d   1       5.510  -1.327   6.723  0.00  0.00    -0.072 A 
ATOM      5  C19 87R d   1       6.469  -1.923   5.935  0.00  0.00    -0.050 A 
ATOM      6  H1  87R d   1       4.466  -1.383   6.436  0.00  0.00     0.084 H 
ATOM      7  C20 87R d   1       7.795  -1.840   6.306  0.00  0.00     0.078 A 
ATOM      8  H3  87R d   1       6.185  -2.452   5.032  0.00  0.00     0.087 H 
ATOM      9  C21 87R d   1       8.170  -1.182   7.456  0.00  0.00    -0.050 A 
ATOM     10  C22 87R d   1       7.200  -0.592   8.234  0.00  0.00    -0.072 A 
ATOM     11  H4  87R d   1       9.214  -1.129   7.744  0.00  0.00     0.087 H 
ATOM     12  H2  87R d   1       7.485  -0.069   9.139  0.00  0.00     0.084 H 
BRANCH   7  13
ATOM     13  O23 87R d   1       8.759  -2.446   5.521  0.00  0.00    -0.255 OA
BRANCH  13  14
ATOM     14  C24 87R d   1       9.328  -1.495   4.625  0.00  0.00     0.530 C 
ATOM     15  F25 87R d   1       9.945  -0.460   5.255  0.00  0.00    -0.144 F 
ATOM     16  F26 87R d   1       8.403  -0.985   3.777  0.00  0.00    -0.144 F 
ATOM     17  F27 87R d   1      10.255  -2.164   3.897  0.00  0.00    -0.144 F 
ENDBRANCH  13  14
ENDBRANCH   7  13
ENDBRANCH   1   3
BRANCH   1  18
ATOM     18  C15 87R d   1       4.280  -1.078   9.677  0.00  0.00    -0.045 C 
ATOM     19  H14 87R d   1       3.849  -1.900   9.086  0.00  0.00     0.035 H 
ATOM     20  H15 87R d   1       5.109  -1.462  10.289  0.00  0.00     0.035 H 
BRANCH  18  21
ATOM     21  C16 87R d   1       3.214  -0.525  10.593  0.00  0.00    -0.074 C 
ATOM     22  H11 87R d   1       2.854  -1.322  11.260  0.00  0.00     0.027 H 
ATOM     23  H12 87R d   1       2.375  -0.144   9.992  0.00  0.00     0.027 H 
ATOM     24  H13 87R d   1       3.636   0.294  11.194  0.00  0.00     0.027 H 
ENDBRANCH  18  21
ENDBRANCH   1  18
BRANCH   1  25
ATOM     25  N13 87R d   1       5.338   1.103   9.465  0.00  0.00    -0.348 N 
ATOM     26  C11 87R d   1       5.015   2.380   9.091  0.00  0.00     0.257 C 
ATOM     27  O12 87R d   1       4.430   2.675   8.059  0.00  0.00    -0.267 OA
ATOM     28  H17 87R d   1       5.936   0.951  10.252  0.00  0.00     0.163 HD
BRANCH  26  29
ATOM     29  C2  87R d   1       5.427   3.389  10.032  0.00  0.00     0.098 A 
ATOM     30  C1  87R d   1       5.204   4.785   9.939  0.00  0.00     0.041 A 
ATOM     31  N5  87R d   1       5.713   5.451  10.977  0.00  0.00    -0.178 NA
ATOM     32  H5  87R d   1       4.677   5.261   9.114  0.00  0.00     0.119 H 
ATOM     33  N4  87R d   1       6.261   4.480  11.722  0.00  0.00    -0.226 N 
ATOM     34  C3  87R d   1       6.122   3.221  11.210  0.00  0.00     0.167 A 
ATOM     35  C6  87R d   1       6.885   4.821  12.894  0.00  0.00     0.013 A 
ATOM     36  N9  87R d   1       6.616   2.141  11.854  0.00  0.00    -0.240 NA
ATOM     37  C8  87R d   1       7.197   2.368  12.992  0.00  0.00     0.012 A 
ATOM     38  C7  87R d   1       7.348   3.582  13.534  0.00  0.00    -0.027 A 
ATOM     39  H7  87R d   1       7.588   1.514  13.543  0.00  0.00     0.115 H 
ATOM     40  H6  87R d   1       7.014   5.830  13.282  0.00  0.00     0.115 H 
BRANCH  38  41
ATOM     41  C10 87R d   1       8.029   3.723  14.842  0.00  0.00    -0.049 C 
ATOM     42  H8  87R d   1       8.060   4.785  15.127  0.00  0.00     0.033 H 
ATOM     43  H9  87R d   1       9.055   3.334  14.765  0.00  0.00     0.033 H 
ATOM     44  H10 87R d   1       7.478   3.155  15.606  0.00  0.00     0.033 H 
ENDBRANCH  38  41
ENDBRANCH  26  29
ENDBRANCH   1  25
TORSDOF 8
