REMARK  13 active torsions:
REMARK  status: ('A' for Active; 'I' for Inactive)
REMARK    1  A    between atoms: C56_2  and  C54_5 
REMARK    2  A    between atoms: C54_5  and  N51_6 
REMARK    3  A    between atoms: N51_6  and  C55_7 
REMARK    4  A    between atoms: N51_6  and  S44_8 
REMARK    5  A    between atoms: S44_8  and  C41_11 
REMARK    6  A    between atoms: C32_16  and  C19_17 
REMARK    7  A    between atoms: C17_19  and  C33_20 
REMARK    8  A    between atoms: C15_26  and  C4_27 
REMARK    9  A    between atoms: C4_27  and  C13_28 
REMARK   10  A    between atoms: C13_28  and  C34_29 
REMARK   11  A    between atoms: C13_28  and  C14_30 
REMARK   12  A    between atoms: C2_34  and  N7_35 
REMARK   13  A    between atoms: C10_37  and  C12_38 
ROOT
ATOM      1  C4  8A3 d   1     130.375  11.102 331.441  0.00  0.00     0.064 C 
ATOM      2  C3  8A3 d   1     130.574  12.341 332.353  0.00  0.00     0.091 C 
ATOM      3  C8  8A3 d   1     131.038  12.152 333.522  0.00  0.00     0.101 C 
ATOM      4  N9  8A3 d   1     131.463  11.961 334.603  0.00  0.00    -0.191 NA
ATOM      5  C2  8A3 d   1     130.248  13.601 331.944  0.00  0.00     0.162 C 
ATOM      6  C5  8A3 d   1     130.027  11.526 330.026  0.00  0.00     0.040 A 
ATOM      7  C10 8A3 d   1     129.899  10.855 328.680  0.00  0.00     0.063 A 
ATOM      8  N63 8A3 d   1     129.566  11.824 327.789  0.00  0.00    -0.177 NA
ATOM      9  N11 8A3 d   1     129.450  13.102 328.351  0.00  0.00    -0.256 N 
ATOM     10  C6  8A3 d   1     129.708  12.909 329.655  0.00  0.00     0.175 A 
ATOM     11  O1  8A3 d   1     129.703  13.878 330.617  0.00  0.00    -0.274 OA
ATOM     12  H25 8A3 d   1     129.220  13.986 327.874  0.00  0.00     0.191 HD
ENDROOT
BRANCH   1  13
ATOM     13  C15 8A3 d   1     131.696  10.288 331.479  0.00  0.00    -0.037 A 
ATOM     14  C16 8A3 d   1     131.997   9.452 332.598  0.00  0.00    -0.061 A 
ATOM     15  C17 8A3 d   1     133.188   8.720 332.674  0.00  0.00     0.049 A 
ATOM     16  H11 8A3 d   1     131.283   9.383 333.411  0.00  0.00     0.085 H 
ATOM     17  C18 8A3 d   1     134.074   8.788 331.623  0.00  0.00    -0.058 A 
ATOM     18  C19 8A3 d   1     133.844   9.591 330.511  0.00  0.00    -0.025 A 
ATOM     19  H10 8A3 d   1     134.981   8.196 331.663  0.00  0.00     0.086 H 
ATOM     20  C20 8A3 d   1     132.664  10.332 330.430  0.00  0.00    -0.065 A 
ATOM     21  H12 8A3 d   1     132.480  10.950 329.558  0.00  0.00     0.085 H 
BRANCH  15  22
ATOM     22  C33 8A3 d   1     133.567   7.810 333.825  0.00  0.00     0.417 C 
ATOM     23  F49 8A3 d   1     134.829   8.023 334.211  0.00  0.00    -0.166 F 
ATOM     24  F48 8A3 d   1     133.473   6.565 333.347  0.00  0.00    -0.166 F 
ATOM     25  F47 8A3 d   1     132.793   8.015 334.881  0.00  0.00    -0.166 F 
ENDBRANCH  15  22
BRANCH  18  26
ATOM     26  C32 8A3 d   1     134.905   9.563 329.467  0.00  0.00    -0.026 A 
ATOM     27  C39 8A3 d   1     136.238   9.550 329.886  0.00  0.00    -0.071 A 
ATOM     28  C40 8A3 d   1     137.265   9.486 328.966  0.00  0.00    -0.060 A 
ATOM     29  H7  8A3 d   1     136.468   9.591 330.945  0.00  0.00     0.084 H 
ATOM     30  C41 8A3 d   1     136.993   9.430 327.605  0.00  0.00     0.074 A 
ATOM     31  H6  8A3 d   1     138.293   9.479 329.309  0.00  0.00     0.085 H 
ATOM     32  C42 8A3 d   1     135.661   9.452 327.164  0.00  0.00    -0.060 A 
ATOM     33  C43 8A3 d   1     134.621   9.499 328.100  0.00  0.00    -0.071 A 
ATOM     34  H8  8A3 d   1     135.438   9.433 326.103  0.00  0.00     0.085 H 
ATOM     35  H9  8A3 d   1     133.591   9.486 327.763  0.00  0.00     0.084 H 
BRANCH  30  36
ATOM     36  S44 8A3 d   1     138.253   9.338 326.620  0.00  0.00     0.243 S 
ATOM     37  O52 8A3 d   1     137.869   9.526 325.242  0.00  0.00    -0.206 OA
ATOM     38  O53 8A3 d   1     139.200  10.345 327.040  0.00  0.00    -0.206 OA
BRANCH  36  39
ATOM     39  N51 8A3 d   1     138.995   7.872 326.597  0.00  0.00    -0.202 NA
BRANCH  39  40
ATOM     40  C54 8A3 d   1     139.920   7.588 327.739  0.00  0.00     0.083 C 
ATOM     41  H1  8A3 d   1     140.007   8.488 328.366  0.00  0.00     0.070 H 
ATOM     42  H2  8A3 d   1     139.511   6.761 328.339  0.00  0.00     0.070 H 
BRANCH  40  43
ATOM     43  C56 8A3 d   1     141.319   7.194 327.220  0.00  0.00     0.400 C 
ATOM     44  F67 8A3 d   1     141.207   6.268 326.272  0.00  0.00    -0.170 F 
ATOM     45  F64 8A3 d   1     142.041   6.701 328.219  0.00  0.00    -0.170 F 
ATOM     46  F65 8A3 d   1     141.960   8.253 326.734  0.00  0.00    -0.170 F 
ENDBRANCH  40  43
ENDBRANCH  39  40
BRANCH  39  47
ATOM     47  C55 8A3 d   1     138.061   6.746 326.301  0.00  0.00    -0.019 C 
ATOM     48  H3  8A3 d   1     138.619   5.798 326.300  0.00  0.00     0.049 H 
ATOM     49  H4  8A3 d   1     137.601   6.901 325.314  0.00  0.00     0.049 H 
ATOM     50  H5  8A3 d   1     137.276   6.709 327.070  0.00  0.00     0.049 H 
ENDBRANCH  39  47
ENDBRANCH  36  39
ENDBRANCH  30  36
ENDBRANCH  18  26
ENDBRANCH   1  13
BRANCH   1  51
ATOM     51  C13 8A3 d   1     129.168  10.296 331.981  0.00  0.00    -0.041 C 
ATOM     52  H13 8A3 d   1     129.351  10.184 333.060  0.00  0.00     0.041 H 
BRANCH  51  53
ATOM     53  C34 8A3 d   1     127.801  10.999 331.852  0.00  0.00    -0.072 C 
ATOM     54  H14 8A3 d   1     127.014  10.348 332.261  0.00  0.00     0.028 H 
ATOM     55  H15 8A3 d   1     127.593  11.204 330.791  0.00  0.00     0.028 H 
ATOM     56  H16 8A3 d   1     127.822  11.946 332.411  0.00  0.00     0.028 H 
ENDBRANCH  51  53
BRANCH  51  57
ATOM     57  C14 8A3 d   1     129.081   8.877 331.408  0.00  0.00    -0.072 C 
ATOM     58  H17 8A3 d   1     130.059   8.382 331.503  0.00  0.00     0.028 H 
ATOM     59  H18 8A3 d   1     128.798   8.927 330.346  0.00  0.00     0.028 H 
ATOM     60  H19 8A3 d   1     128.324   8.303 331.963  0.00  0.00     0.028 H 
ENDBRANCH  51  57
ENDBRANCH   1  51
BRANCH   5  61
ATOM     61  N7  8A3 d   1     130.398  14.688 332.711  0.00  0.00    -0.379 N 
ATOM     62  H20 8A3 d   1     130.134  15.615 332.348  0.00  0.00     0.158 HD
ATOM     63  H21 8A3 d   1     130.777  14.597 333.664  0.00  0.00     0.158 HD
ENDBRANCH   5  61
BRANCH   7  64
ATOM     64  C12 8A3 d   1     130.103   9.409 328.284  0.00  0.00    -0.033 C 
ATOM     65  H22 8A3 d   1     129.918   9.295 327.206  0.00  0.00     0.035 H 
ATOM     66  H23 8A3 d   1     129.403   8.773 328.845  0.00  0.00     0.035 H 
ATOM     67  H24 8A3 d   1     131.136   9.108 328.513  0.00  0.00     0.035 H 
ENDBRANCH   7  64
TORSDOF 13
