REMARK  11 active torsions:
REMARK  status: ('A' for Active; 'I' for Inactive)
REMARK    1  A    between atoms: C2_1  and  N7_39 
REMARK    2  A    between atoms: C4_3  and  C13_9 
REMARK    3  A    between atoms: C15_11  and  C4_3 
REMARK    4  A    between atoms: C10_7  and  C12_8 
REMARK    5  A    between atoms: C13_9  and  C14_10 
REMARK    6  A    between atoms: C13_9  and  C34_37 
REMARK    7  A    between atoms: C17_13  and  C33_33 
REMARK    8  A    between atoms: C32_32  and  C19_15 
REMARK    9  A    between atoms: S44_18  and  C56_20 
REMARK   10  A    between atoms: C41_27  and  S44_18 
REMARK   11  A    between atoms: C56_20  and  C57_21 
ROOT
ATOM      1  C2  8AO d   1      29.960  35.824  97.079  0.00  0.00     0.162 C 
ATOM      2  C3  8AO d   1      30.290  34.594  97.545  0.00  0.00     0.091 C 
ATOM      3  C4  8AO d   1      30.133  33.333  96.699  0.00  0.00     0.064 C 
ATOM      4  C5  8AO d   1      29.833  33.673  95.260  0.00  0.00     0.040 A 
ATOM      5  C6  8AO d   1      29.507  35.026  94.801  0.00  0.00     0.175 A 
ATOM      6  C8  8AO d   1      30.725  34.433  98.746  0.00  0.00     0.101 C 
ATOM      7  C10 8AO d   1      29.766  32.904  93.972  0.00  0.00     0.063 A 
ATOM      8  N9  8AO d   1      31.126  34.297  99.829  0.00  0.00    -0.191 NA
ATOM      9  N54 8AO d   1      29.444  33.805  93.018  0.00  0.00    -0.177 NA
ATOM     10  N11 8AO d   1      29.271  35.127  93.474  0.00  0.00    -0.256 N 
ATOM     11  O1  8AO d   1      29.453  36.035  95.723  0.00  0.00    -0.274 OA
ATOM     12  H27 8AO d   1      29.025  35.966  92.929  0.00  0.00     0.191 HD
ENDROOT
BRANCH   1  13
ATOM     13  N7  8AO d   1      30.082  36.936  97.824  0.00  0.00    -0.379 N 
ATOM     14  H25 8AO d   1      29.820  37.851  97.430  0.00  0.00     0.158 HD
ATOM     15  H26 8AO d   1      30.438  36.873  98.788  0.00  0.00     0.158 HD
ENDBRANCH   1  13
BRANCH   3  16
ATOM     16  C13 8AO d   1      28.924  32.552  97.274  0.00  0.00    -0.041 C 
ATOM     17  H4  8AO d   1      29.086  32.520  98.362  0.00  0.00     0.041 H 
BRANCH  16  18
ATOM     18  C14 8AO d   1      28.887  31.105  96.797  0.00  0.00    -0.072 C 
ATOM     19  H5  8AO d   1      28.013  30.598  97.232  0.00  0.00     0.028 H 
ATOM     20  H6  8AO d   1      29.806  30.590  97.115  0.00  0.00     0.028 H 
ATOM     21  H7  8AO d   1      28.815  31.082  95.700  0.00  0.00     0.028 H 
ENDBRANCH  16  18
BRANCH  16  22
ATOM     22  C34 8AO d   1      27.546  33.207  97.071  0.00  0.00    -0.072 C 
ATOM     23  H22 8AO d   1      27.581  34.250  97.418  0.00  0.00     0.028 H 
ATOM     24  H23 8AO d   1      26.789  32.655  97.647  0.00  0.00     0.028 H 
ATOM     25  H24 8AO d   1      27.283  33.184  96.003  0.00  0.00     0.028 H 
ENDBRANCH  16  22
ENDBRANCH   3  16
BRANCH   3  26
ATOM     26  C15 8AO d   1      31.450  32.550  96.804  0.00  0.00    -0.037 A 
ATOM     27  C16 8AO d   1      31.706  31.766  97.947  0.00  0.00    -0.061 A 
ATOM     28  C17 8AO d   1      32.880  31.040  98.075  0.00  0.00     0.049 A 
ATOM     29  H8  8AO d   1      30.970  31.730  98.742  0.00  0.00     0.085 H 
ATOM     30  C18 8AO d   1      33.835  31.094  97.079  0.00  0.00    -0.058 A 
ATOM     31  C19 8AO d   1      33.625  31.851  95.935  0.00  0.00    -0.025 A 
ATOM     32  H9  8AO d   1      34.759  30.539  97.192  0.00  0.00     0.086 H 
ATOM     33  C20 8AO d   1      32.443  32.577  95.794  0.00  0.00    -0.065 A 
ATOM     34  H10 8AO d   1      32.282  33.169  94.901  0.00  0.00     0.085 H 
BRANCH  28  35
ATOM     35  C33 8AO d   1      33.132  30.229  99.314  0.00  0.00     0.417 C 
ATOM     36  F49 8AO d   1      32.040  29.982 100.026  0.00  0.00    -0.166 F 
ATOM     37  F48 8AO d   1      33.932  30.983 100.034  0.00  0.00    -0.166 F 
ATOM     38  F47 8AO d   1      33.736  29.096  98.984  0.00  0.00    -0.166 F 
ENDBRANCH  28  35
BRANCH  31  39
ATOM     39  C32 8AO d   1      34.681  31.842  94.888  0.00  0.00    -0.026 A 
ATOM     40  C39 8AO d   1      34.340  31.720  93.550  0.00  0.00    -0.071 A 
ATOM     41  C40 8AO d   1      35.339  31.700  92.582  0.00  0.00    -0.061 A 
ATOM     42  H19 8AO d   1      33.299  31.640  93.259  0.00  0.00     0.084 H 
ATOM     43  C41 8AO d   1      36.690  31.765  92.942  0.00  0.00     0.059 A 
ATOM     44  H18 8AO d   1      35.067  31.633  91.535  0.00  0.00     0.085 H 
ATOM     45  C42 8AO d   1      37.030  31.874  94.291  0.00  0.00    -0.061 A 
ATOM     46  C43 8AO d   1      36.031  31.906  95.249  0.00  0.00    -0.071 A 
ATOM     47  H20 8AO d   1      38.071  31.933  94.587  0.00  0.00     0.085 H 
ATOM     48  H21 8AO d   1      36.300  31.982  96.296  0.00  0.00     0.084 H 
BRANCH  43  49
ATOM     49  S44 8AO d   1      37.836  31.701  91.827  0.00  0.00     0.179 S 
ATOM     50  O52 8AO d   1      39.001  32.442  92.233  0.00  0.00    -0.222 OA
ATOM     51  O51 8AO d   1      37.343  32.273  90.630  0.00  0.00    -0.222 OA
BRANCH  49  52
ATOM     52  C56 8AO d   1      38.188  30.145  91.326  0.00  0.00     0.057 C 
ATOM     53  H11 8AO d   1      38.968  30.213  90.553  0.00  0.00     0.064 H 
ATOM     54  H12 8AO d   1      37.273  29.723  90.886  0.00  0.00     0.064 H 
BRANCH  52  55
ATOM     55  C57 8AO d   1      38.678  29.173  92.389  0.00  0.00    -0.044 A 
ATOM     56  C62 8AO d   1      39.453  29.560  93.503  0.00  0.00    -0.076 A 
ATOM     57  C61 8AO d   1      39.866  28.613  94.445  0.00  0.00    -0.082 A 
ATOM     58  H13 8AO d   1      39.730  30.600  93.629  0.00  0.00     0.084 H 
ATOM     59  C60 8AO d   1      39.519  27.270  94.281  0.00  0.00    -0.083 A 
ATOM     60  H14 8AO d   1      40.455  28.921  95.302  0.00  0.00     0.083 H 
ATOM     61  C59 8AO d   1      38.753  26.872  93.179  0.00  0.00    -0.082 A 
ATOM     62  H15 8AO d   1      39.843  26.535  95.008  0.00  0.00     0.083 H 
ATOM     63  C58 8AO d   1      38.335  27.819  92.236  0.00  0.00    -0.076 A 
ATOM     64  H16 8AO d   1      38.483  25.829  93.055  0.00  0.00     0.083 H 
ATOM     65  H17 8AO d   1      37.743  27.506  91.383  0.00  0.00     0.084 H 
ENDBRANCH  52  55
ENDBRANCH  49  52
ENDBRANCH  43  49
ENDBRANCH  31  39
ENDBRANCH   3  26
BRANCH   7  66
ATOM     66  C12 8AO d   1      30.019  31.444  93.678  0.00  0.00    -0.033 C 
ATOM     67  H1  8AO d   1      29.869  31.255  92.605  0.00  0.00     0.035 H 
ATOM     68  H2  8AO d   1      29.320  30.826  94.261  0.00  0.00     0.035 H 
ATOM     69  H3  8AO d   1      31.052  31.188  93.954  0.00  0.00     0.035 H 
ENDBRANCH   7  66
TORSDOF 11
