REMARK  7 active torsions:
REMARK  status: ('A' for Active; 'I' for Inactive)
REMARK    1  A    between atoms: C4_3  and  C13_8 
REMARK    2  A    between atoms: C15_10  and  C4_3 
REMARK    3  A    between atoms: C10_31  and  C12_7 
REMARK    4  A    between atoms: C13_8  and  C14_9 
REMARK    5  A    between atoms: C13_8  and  C34_27 
REMARK    6  A    between atoms: C17_12  and  C33_23 
REMARK    7  A    between atoms: C32_22  and  C19_14 
ROOT
ATOM      1  C2  8B3 d   1      30.210  41.049  20.470  0.00  0.00     0.162 A 
ATOM      2  C3  8B3 d   1      30.500  42.278  19.987  0.00  0.00     0.091 A 
ATOM      3  C4  8B3 d   1      30.331  43.562  20.792  0.00  0.00     0.064 A 
ATOM      4  C5  8B3 d   1      29.904  43.255  22.198  0.00  0.00     0.040 A 
ATOM      5  C6  8B3 d   1      29.627  41.905  22.678  0.00  0.00     0.175 A 
ATOM      6  N11 8B3 d   1      29.274  41.836  23.959  0.00  0.00    -0.256 N 
ATOM      7  C8  8B3 d   1      30.886  42.454  18.808  0.00  0.00     0.101 C 
ATOM      8  N9  8B3 d   1      31.249  42.626  17.704  0.00  0.00    -0.191 NA
ATOM      9  N7  8B3 d   1      30.346  39.947  19.747  0.00  0.00    -0.379 N 
ATOM     10  C10 8B3 d   1      29.636  44.054  23.425  0.00  0.00     0.063 A 
ATOM     11  N51 8B3 d   1      29.276  43.175  24.375  0.00  0.00    -0.177 NA
ATOM     12  O1  8B3 d   1      29.747  40.852  21.824  0.00  0.00    -0.274 OA
ATOM     13  H1  8B3 d   1      29.052  40.997  24.514  0.00  0.00     0.191 HD
ATOM     14  H19 8B3 d   1      30.113  39.031  20.156  0.00  0.00     0.158 HD
ATOM     15  H20 8B3 d   1      30.685  40.007  18.776  0.00  0.00     0.158 HD
ENDROOT
BRANCH   3  16
ATOM     16  C13 8B3 d   1      29.201  44.337  20.100  0.00  0.00    -0.041 C 
ATOM     17  H5  8B3 d   1      29.507  44.438  19.048  0.00  0.00     0.041 H 
BRANCH  16  18
ATOM     18  C14 8B3 d   1      28.995  45.764  20.636  0.00  0.00    -0.072 C 
ATOM     19  H6  8B3 d   1      28.171  46.246  20.089  0.00  0.00     0.028 H 
ATOM     20  H7  8B3 d   1      29.918  46.345  20.495  0.00  0.00     0.028 H 
ATOM     21  H8  8B3 d   1      28.748  45.721  21.707  0.00  0.00     0.028 H 
ENDBRANCH  16  18
BRANCH  16  22
ATOM     22  C34 8B3 d   1      27.851  43.588  20.101  0.00  0.00    -0.072 C 
ATOM     23  H16 8B3 d   1      27.998  42.567  19.718  0.00  0.00     0.028 H 
ATOM     24  H17 8B3 d   1      27.135  44.121  19.458  0.00  0.00     0.028 H 
ATOM     25  H18 8B3 d   1      27.458  43.541  21.127  0.00  0.00     0.028 H 
ENDBRANCH  16  22
ENDBRANCH   3  16
BRANCH   3  26
ATOM     26  C15 8B3 d   1      31.648  44.317  20.802  0.00  0.00    -0.037 A 
ATOM     27  C16 8B3 d   1      32.012  45.135  19.715  0.00  0.00    -0.061 A 
ATOM     28  C17 8B3 d   1      33.214  45.830  19.678  0.00  0.00     0.049 A 
ATOM     29  H9  8B3 d   1      31.330  45.225  18.877  0.00  0.00     0.085 H 
ATOM     30  C18 8B3 d   1      34.080  45.729  20.746  0.00  0.00    -0.057 A 
ATOM     31  C19 8B3 d   1      33.756  44.948  21.839  0.00  0.00    -0.022 A 
ATOM     32  H10 8B3 d   1      35.022  46.266  20.728  0.00  0.00     0.086 H 
ATOM     33  C20 8B3 d   1      32.555  44.237  21.869  0.00  0.00    -0.065 A 
ATOM     34  H11 8B3 d   1      32.321  43.616  22.726  0.00  0.00     0.085 H 
BRANCH  28  35
ATOM     35  C33 8B3 d   1      33.595  46.711  18.506  0.00  0.00     0.417 C 
ATOM     36  F48 8B3 d   1      34.560  46.155  17.842  0.00  0.00    -0.166 F 
ATOM     37  F47 8B3 d   1      34.084  47.865  18.953  0.00  0.00    -0.166 F 
ATOM     38  F46 8B3 d   1      32.608  46.865  17.640  0.00  0.00    -0.166 F 
ENDBRANCH  28  35
BRANCH  31  39
ATOM     39  C32 8B3 d   1      34.741  44.884  22.954  0.00  0.00     0.013 A 
ATOM     40  C39 8B3 d   1      34.326  45.050  24.265  0.00  0.00     0.127 A 
ATOM     41  F50 8B3 d   1      33.016  45.245  24.533  0.00  0.00    -0.205 F 
ATOM     42  C40 8B3 d   1      35.243  44.991  25.302  0.00  0.00    -0.045 A 
ATOM     43  C41 8B3 d   1      36.585  44.787  25.029  0.00  0.00    -0.080 A 
ATOM     44  H12 8B3 d   1      34.910  45.105  26.327  0.00  0.00     0.088 H 
ATOM     45  C42 8B3 d   1      37.002  44.640  23.713  0.00  0.00    -0.082 A 
ATOM     46  H13 8B3 d   1      37.306  44.742  25.838  0.00  0.00     0.083 H 
ATOM     47  C43 8B3 d   1      36.083  44.674  22.670  0.00  0.00    -0.069 A 
ATOM     48  H14 8B3 d   1      38.054  44.497  23.496  0.00  0.00     0.083 H 
ATOM     49  H15 8B3 d   1      36.411  44.538  21.646  0.00  0.00     0.085 H 
ENDBRANCH  31  39
ENDBRANCH   3  26
BRANCH  10  50
ATOM     50  C12 8B3 d   1      29.759  45.536  23.667  0.00  0.00    -0.033 C 
ATOM     51  H2  8B3 d   1      29.473  45.763  24.705  0.00  0.00     0.035 H 
ATOM     52  H3  8B3 d   1      29.095  46.077  22.977  0.00  0.00     0.035 H 
ATOM     53  H4  8B3 d   1      30.799  45.850  23.497  0.00  0.00     0.035 H 
ENDBRANCH  10  50
TORSDOF 7
