REMARK  8 active torsions:
REMARK  status: ('A' for Active; 'I' for Inactive)
REMARK    1  A    between atoms: C2_1  and  N7_31 
REMARK    2  A    between atoms: C4_3  and  C13_8 
REMARK    3  A    between atoms: C15_10  and  C4_3 
REMARK    4  A    between atoms: C10_6  and  C12_7 
REMARK    5  A    between atoms: C13_8  and  C14_9 
REMARK    6  A    between atoms: C13_8  and  C34_28 
REMARK    7  A    between atoms: C17_12  and  C33_23 
REMARK    8  A    between atoms: C32_21  and  C19_13 
ROOT
ATOM      1  N53 8B0 d   1     -27.798  27.358  60.808  0.00  0.00    -0.191 NA
ATOM      2  C50 8B0 d   1     -27.314  27.756  61.768  0.00  0.00     0.100 C 
ATOM      3  C39 8B0 d   1     -26.779  28.201  62.830  0.00  0.00     0.055 A 
ATOM      4  C40 8B0 d   1     -27.200  27.589  63.997  0.00  0.00    -0.062 A 
ATOM      5  C41 8B0 d   1     -26.676  28.002  65.206  0.00  0.00    -0.082 A 
ATOM      6  C42 8B0 d   1     -25.740  29.040  65.239  0.00  0.00    -0.082 A 
ATOM      7  C43 8B0 d   1     -25.317  29.649  64.062  0.00  0.00    -0.071 A 
ATOM      8  C32 8B0 d   1     -25.842  29.234  62.838  0.00  0.00    -0.005 A 
ATOM      9  H9  8B0 d   1     -27.934  26.793  63.963  0.00  0.00     0.085 H 
ATOM     10  H10 8B0 d   1     -26.989  27.523  66.126  0.00  0.00     0.083 H 
ATOM     11  H11 8B0 d   1     -25.340  29.373  66.190  0.00  0.00     0.083 H 
ATOM     12  H12 8B0 d   1     -24.581  30.444  64.096  0.00  0.00     0.084 H 
ENDROOT
BRANCH   8  13
ATOM     13  C19 8B0 d   1     -25.348  29.925  61.613  0.00  0.00    -0.023 A 
ATOM     14  C18 8B0 d   1     -24.855  29.188  60.540  0.00  0.00    -0.058 A 
ATOM     15  C17 8B0 d   1     -24.369  29.845  59.413  0.00  0.00     0.049 A 
ATOM     16  H13 8B0 d   1     -24.849  28.105  60.582  0.00  0.00     0.086 H 
ATOM     17  C16 8B0 d   1     -24.387  31.241  59.387  0.00  0.00    -0.061 A 
ATOM     18  C15 8B0 d   1     -24.856  32.035  60.452  0.00  0.00    -0.037 A 
ATOM     19  H8  8B0 d   1     -24.020  31.741  58.498  0.00  0.00     0.085 H 
ATOM     20  C20 8B0 d   1     -25.346  31.331  61.570  0.00  0.00    -0.065 A 
ATOM     21  H14 8B0 d   1     -25.731  31.887  62.418  0.00  0.00     0.085 H 
BRANCH  15  22
ATOM     22  C33 8B0 d   1     -23.822  29.114  58.192  0.00  0.00     0.417 C 
ATOM     23  F48 8B0 d   1     -23.801  27.791  58.317  0.00  0.00    -0.166 F 
ATOM     24  F47 8B0 d   1     -22.592  29.530  57.942  0.00  0.00    -0.166 F 
ATOM     25  F46 8B0 d   1     -24.552  29.414  57.129  0.00  0.00    -0.166 F 
ENDBRANCH  15  22
BRANCH  18  26
ATOM     26  C4  8B0 d   1     -24.844  33.576  60.372  0.00  0.00     0.064 A 
ATOM     27  C3  8B0 d   1     -26.077  34.036  59.602  0.00  0.00     0.091 A 
ATOM     28  C2  8B0 d   1     -26.969  34.946  60.082  0.00  0.00     0.162 A 
ATOM     29  C8  8B0 d   1     -26.250  33.560  58.448  0.00  0.00     0.101 C 
ATOM     30  O1  8B0 d   1     -26.813  35.566  61.386  0.00  0.00    -0.274 OA
ATOM     31  C6  8B0 d   1     -25.815  35.162  62.222  0.00  0.00     0.175 A 
ATOM     32  C5  8B0 d   1     -24.841  34.173  61.755  0.00  0.00     0.040 A 
ATOM     33  N11 8B0 d   1     -25.654  35.568  63.497  0.00  0.00    -0.256 N 
ATOM     34  C10 8B0 d   1     -23.980  34.035  62.983  0.00  0.00     0.063 A 
ATOM     35  N51 8B0 d   1     -24.520  34.858  63.912  0.00  0.00    -0.177 NA
ATOM     36  H20 8B0 d   1     -26.225  36.236  64.034  0.00  0.00     0.191 HD
ATOM     37  N9  8B0 d   1     -26.413  33.119  57.383  0.00  0.00    -0.191 NA
BRANCH  28  38
ATOM     38  N7  8B0 d   1     -28.044  35.363  59.397  0.00  0.00    -0.379 N 
ATOM     39  H18 8B0 d   1     -28.684  36.054  59.813  0.00  0.00     0.158 HD
ATOM     40  H19 8B0 d   1     -28.230  34.992  58.454  0.00  0.00     0.158 HD
ENDBRANCH  28  38
BRANCH  34  41
ATOM     41  C12 8B0 d   1     -22.771  33.170  63.230  0.00  0.00    -0.033 C 
ATOM     42  H1  8B0 d   1     -22.403  33.337  64.253  0.00  0.00     0.035 H 
ATOM     43  H2  8B0 d   1     -21.981  33.429  62.509  0.00  0.00     0.035 H 
ATOM     44  H3  8B0 d   1     -23.046  32.112  63.108  0.00  0.00     0.035 H 
ENDBRANCH  34  41
BRANCH  26  45
ATOM     45  C13 8B0 d   1     -23.620  34.149  59.612  0.00  0.00    -0.041 C 
ATOM     46  H4  8B0 d   1     -23.771  33.852  58.564  0.00  0.00     0.041 H 
BRANCH  45  47
ATOM     47  C14 8B0 d   1     -22.268  33.554  60.036  0.00  0.00    -0.072 C 
ATOM     48  H5  8B0 d   1     -21.463  34.017  59.447  0.00  0.00     0.028 H 
ATOM     49  H6  8B0 d   1     -22.273  32.468  59.859  0.00  0.00     0.028 H 
ATOM     50  H7  8B0 d   1     -22.100  33.751  61.105  0.00  0.00     0.028 H 
ENDBRANCH  45  47
BRANCH  45  51
ATOM     51  C34 8B0 d   1     -23.510  35.689  59.609  0.00  0.00    -0.072 C 
ATOM     52  H15 8B0 d   1     -24.474  36.125  59.306  0.00  0.00     0.028 H 
ATOM     53  H16 8B0 d   1     -22.729  35.999  58.900  0.00  0.00     0.028 H 
ATOM     54  H17 8B0 d   1     -23.250  36.040  60.618  0.00  0.00     0.028 H 
ENDBRANCH  45  51
ENDBRANCH  26  45
ENDBRANCH  18  26
ENDBRANCH   8  13
TORSDOF 8
