REMARK  8 active torsions:
REMARK  status: ('A' for Active; 'I' for Inactive)
REMARK    1  A    between atoms: C10_30  and  C12_6 
REMARK    2  A    between atoms: C17_12  and  C33_9 
REMARK    3  A    between atoms: C19_14  and  C32_15 
REMARK    4  A    between atoms: C39_20  and  C50_21 
REMARK    5  A    between atoms: C15_23  and  C4_24 
REMARK    6  A    between atoms: C4_24  and  C13_25 
REMARK    7  A    between atoms: C13_25  and  C34_26 
REMARK    8  A    between atoms: C13_25  and  C14_27 
ROOT
ATOM      1  C5  8A0 d   1      29.694  33.745  94.945  0.00  0.00     0.036 A 
ATOM      2  C6  8A0 d   1      29.422  35.085  94.479  0.00  0.00     0.175 A 
ATOM      3  C8  8A0 d   1      30.855  34.549  98.361  0.00  0.00     0.073 C 
ATOM      4  C2  8A0 d   1      30.098  35.956  96.686  0.00  0.00     0.160 C 
ATOM      5  N7  8A0 d   1      30.330  37.030  97.430  0.00  0.00    -0.280 NA
ATOM      6  C4  8A0 d   1      30.105  33.437  96.347  0.00  0.00     0.047 C 
ATOM      7  C3  8A0 d   1      30.390  34.683  97.184  0.00  0.00     0.109 C 
ATOM      8  N9  8A0 d   1      31.286  34.423  99.446  0.00  0.00    -0.196 NA
ATOM      9  C10 8A0 d   1      29.444  32.951  93.707  0.00  0.00     0.062 A 
ATOM     10  N51 8A0 d   1      29.105  33.845  92.765  0.00  0.00    -0.177 NA
ATOM     11  N11 8A0 d   1      29.089  35.181  93.193  0.00  0.00    -0.256 N 
ATOM     12  O1  8A0 d   1      29.539  36.111  95.356  0.00  0.00    -0.276 OA
ATOM     13  H1  8A0 d   1      30.119  37.948  97.070  0.00  0.00     0.189 HD
ATOM     14  H22 8A0 d   1      31.408  34.744  96.772  0.00  0.00     0.078 H 
ATOM     15  H23 8A0 d   1      28.873  36.027  92.647  0.00  0.00     0.191 HD
ENDROOT
BRANCH   6  16
ATOM     16  C15 8A0 d   1      31.406  32.626  96.363  0.00  0.00    -0.041 A 
ATOM     17  C16 8A0 d   1      31.732  31.754  97.450  0.00  0.00    -0.061 A 
ATOM     18  C17 8A0 d   1      32.950  31.049  97.455  0.00  0.00     0.049 A 
ATOM     19  H5  8A0 d   1      31.037  31.636  98.274  0.00  0.00     0.085 H 
ATOM     20  C18 8A0 d   1      33.825  31.183  96.398  0.00  0.00    -0.058 A 
ATOM     21  C19 8A0 d   1      33.534  32.021  95.331  0.00  0.00    -0.024 A 
ATOM     22  H6  8A0 d   1      34.755  30.625  96.400  0.00  0.00     0.086 H 
ATOM     23  C20 8A0 d   1      32.346  32.751  95.316  0.00  0.00    -0.065 A 
ATOM     24  H14 8A0 d   1      32.141  33.423  94.490  0.00  0.00     0.085 H 
BRANCH  18  25
ATOM     25  C33 8A0 d   1      33.293  30.099  98.621  0.00  0.00     0.417 C 
ATOM     26  F48 8A0 d   1      32.481  30.178  99.671  0.00  0.00    -0.166 F 
ATOM     27  F46 8A0 d   1      33.326  28.847  98.192  0.00  0.00    -0.166 F 
ATOM     28  F47 8A0 d   1      34.512  30.365  99.054  0.00  0.00    -0.166 F 
ENDBRANCH  18  25
BRANCH  21  29
ATOM     29  C32 8A0 d   1      34.535  32.125  94.231  0.00  0.00    -0.020 A 
ATOM     30  C43 8A0 d   1      34.181  31.698  92.966  0.00  0.00    -0.072 A 
ATOM     31  C42 8A0 d   1      35.090  31.775  91.909  0.00  0.00    -0.082 A 
ATOM     32  H7  8A0 d   1      33.188  31.299  92.792  0.00  0.00     0.084 H 
ATOM     33  C41 8A0 d   1      36.371  32.267  92.112  0.00  0.00    -0.082 A 
ATOM     34  H8  8A0 d   1      34.792  31.447  90.920  0.00  0.00     0.083 H 
ATOM     35  C40 8A0 d   1      36.735  32.683  93.385  0.00  0.00    -0.076 A 
ATOM     36  H9  8A0 d   1      37.076  32.325  91.290  0.00  0.00     0.083 H 
ATOM     37  C39 8A0 d   1      35.827  32.616  94.445  0.00  0.00    -0.051 A 
ATOM     38  H10 8A0 d   1      37.735  33.064  93.559  0.00  0.00     0.084 H 
BRANCH  37  39
ATOM     39  C50 8A0 d   1      36.241  33.071  95.813  0.00  0.00    -0.050 C 
ATOM     40  H11 8A0 d   1      35.401  32.944  96.511  0.00  0.00     0.033 H 
ATOM     41  H12 8A0 d   1      36.529  34.132  95.775  0.00  0.00     0.033 H 
ATOM     42  H13 8A0 d   1      37.096  32.471  96.156  0.00  0.00     0.033 H 
ENDBRANCH  37  39
ENDBRANCH  21  29
ENDBRANCH   6  16
BRANCH   6  43
ATOM     43  C13 8A0 d   1      28.923  32.732  97.039  0.00  0.00    -0.044 C 
ATOM     44  H15 8A0 d   1      29.179  32.716  98.109  0.00  0.00     0.041 H 
BRANCH  43  45
ATOM     45  C34 8A0 d   1      27.585  33.484  96.927  0.00  0.00    -0.072 C 
ATOM     46  H16 8A0 d   1      26.800  32.914  97.445  0.00  0.00     0.028 H 
ATOM     47  H17 8A0 d   1      27.316  33.598  95.867  0.00  0.00     0.028 H 
ATOM     48  H18 8A0 d   1      27.683  34.477  97.389  0.00  0.00     0.028 H 
ENDBRANCH  43  45
BRANCH  43  49
ATOM     49  C14 8A0 d   1      28.727  31.258  96.619  0.00  0.00    -0.072 C 
ATOM     50  H19 8A0 d   1      29.685  30.723  96.700  0.00  0.00     0.028 H 
ATOM     51  H20 8A0 d   1      28.371  31.217  95.579  0.00  0.00     0.028 H 
ATOM     52  H21 8A0 d   1      27.985  30.784  97.279  0.00  0.00     0.028 H 
ENDBRANCH  43  49
ENDBRANCH   6  43
BRANCH   9  53
ATOM     53  C12 8A0 d   1      29.557  31.474  93.458  0.00  0.00    -0.033 C 
ATOM     54  H2  8A0 d   1      29.290  31.257  92.413  0.00  0.00     0.035 H 
ATOM     55  H3  8A0 d   1      28.873  30.935  94.131  0.00  0.00     0.035 H 
ATOM     56  H4  8A0 d   1      30.590  31.148  93.647  0.00  0.00     0.035 H 
ENDBRANCH   9  53
TORSDOF 8
