REMARK  8 active torsions:
REMARK  status: ('A' for Active; 'I' for Inactive)
REMARK    1  A    between atoms: C4_1  and  C14_10 
REMARK    2  A    between atoms: C16_25  and  C4_1 
REMARK    3  A    between atoms: C14_10  and  C15_4 
REMARK    4  A    between atoms: C20_18  and  C22_6 
REMARK    5  A    between atoms: C2_7  and  N7_27 
REMARK    6  A    between atoms: C14_10  and  C24_26 
REMARK    7  A    between atoms: C18_11  and  C23_20 
REMARK    8  A    between atoms: C10_29  and  C13_30 
ROOT
ATOM      1  C4  8AU d   1      30.160  43.462  20.697  0.00  0.00     0.064 A 
ATOM      2  C6  8AU d   1      29.605  41.734  22.577  0.00  0.00     0.175 A 
ATOM      3  C8  8AU d   1      30.803  42.340  18.659  0.00  0.00     0.101 C 
ATOM      4  C2  8AU d   1      30.198  40.951  20.342  0.00  0.00     0.162 A 
ATOM      5  C3  8AU d   1      30.418  42.193  19.860  0.00  0.00     0.091 A 
ATOM      6  N9  8AU d   1      31.158  42.485  17.553  0.00  0.00    -0.191 NA
ATOM      7  C5  8AU d   1      29.791  43.106  22.111  0.00  0.00     0.040 A 
ATOM      8  C10 8AU d   1      29.549  43.869  23.371  0.00  0.00     0.063 A 
ATOM      9  N11 8AU d   1      29.272  42.952  24.317  0.00  0.00    -0.177 NA
ATOM     10  N12 8AU d   1      29.298  41.607  23.880  0.00  0.00    -0.256 N 
ATOM     11  O1  8AU d   1      29.744  40.728  21.689  0.00  0.00    -0.274 OA
ATOM     12  H20 8AU d   1      29.126  40.748  24.422  0.00  0.00     0.191 HD
ENDROOT
BRANCH   1  13
ATOM     13  C14 8AU d   1      28.931  44.163  20.047  0.00  0.00    -0.041 C 
ATOM     14  H5  8AU d   1      29.182  44.237  18.979  0.00  0.00     0.041 H 
BRANCH  13  15
ATOM     15  C15 8AU d   1      28.656  45.602  20.513  0.00  0.00    -0.072 C 
ATOM     16  H1  8AU d   1      27.771  45.994  19.991  0.00  0.00     0.028 H 
ATOM     17  H2  8AU d   1      29.526  46.234  20.284  0.00  0.00     0.028 H 
ATOM     18  H3  8AU d   1      28.474  45.608  21.598  0.00  0.00     0.028 H 
ENDBRANCH  13  15
BRANCH  13  19
ATOM     19  C24 8AU d   1      27.626  43.353  20.123  0.00  0.00    -0.072 C 
ATOM     20  H12 8AU d   1      27.815  42.322  19.791  0.00  0.00     0.028 H 
ATOM     21  H13 8AU d   1      26.869  43.815  19.472  0.00  0.00     0.028 H 
ATOM     22  H14 8AU d   1      27.261  43.343  21.160  0.00  0.00     0.028 H 
ENDBRANCH  13  19
ENDBRANCH   1  13
BRANCH   1  23
ATOM     23  C16 8AU d   1      31.460  44.280  20.697  0.00  0.00    -0.037 A 
ATOM     24  C17 8AU d   1      31.768  45.144  19.612  0.00  0.00    -0.061 A 
ATOM     25  C18 8AU d   1      32.957  45.888  19.573  0.00  0.00     0.049 A 
ATOM     26  H4  8AU d   1      31.065  45.231  18.791  0.00  0.00     0.085 H 
ATOM     27  C19 8AU d   1      33.853  45.776  20.634  0.00  0.00    -0.058 A 
ATOM     28  C20 8AU d   1      33.589  44.952  21.724  0.00  0.00    -0.023 A 
ATOM     29  H10 8AU d   1      34.776  46.343  20.610  0.00  0.00     0.086 H 
ATOM     30  C21 8AU d   1      32.408  44.190  21.743  0.00  0.00    -0.065 A 
ATOM     31  H11 8AU d   1      32.220  43.521  22.575  0.00  0.00     0.085 H 
BRANCH  25  32
ATOM     32  C23 8AU d   1      33.303  46.830  18.423  0.00  0.00     0.417 C 
ATOM     33  F32 8AU d   1      33.151  48.086  18.823  0.00  0.00    -0.166 F 
ATOM     34  F31 8AU d   1      32.537  46.625  17.359  0.00  0.00    -0.166 F 
ATOM     35  F30 8AU d   1      34.587  46.680  18.078  0.00  0.00    -0.166 F 
ENDBRANCH  25  32
BRANCH  28  36
ATOM     36  C22 8AU d   1      34.612  44.877  22.811  0.00  0.00    -0.004 A 
ATOM     37  C25 8AU d   1      34.276  45.036  24.246  0.00  0.00     0.045 A 
ATOM     38 CL3  8AU d   1      32.598  45.335  24.767  0.00  0.00    -0.083 Cl
ATOM     39  C26 8AU d   1      35.262  44.966  25.212  0.00  0.00    -0.061 A 
ATOM     40  C27 8AU d   1      36.583  44.739  24.832  0.00  0.00    -0.081 A 
ATOM     41  H6  8AU d   1      35.009  45.087  26.259  0.00  0.00     0.086 H 
ATOM     42  C28 8AU d   1      36.920  44.589  23.492  0.00  0.00    -0.082 A 
ATOM     43  H7  8AU d   1      37.356  44.679  25.589  0.00  0.00     0.083 H 
ATOM     44  C29 8AU d   1      35.951  44.646  22.488  0.00  0.00    -0.071 A 
ATOM     45  H8  8AU d   1      37.956  44.424  23.221  0.00  0.00     0.083 H 
ATOM     46  H9  8AU d   1      36.240  44.510  21.452  0.00  0.00     0.084 H 
ENDBRANCH  28  36
ENDBRANCH   1  23
BRANCH   4  47
ATOM     47  N7  8AU d   1      30.374  39.834  19.650  0.00  0.00    -0.379 N 
ATOM     48  H15 8AU d   1      30.184  38.921  20.088  0.00  0.00     0.158 HD
ATOM     49  H16 8AU d   1      30.700  39.879  18.674  0.00  0.00     0.158 HD
ENDBRANCH   4  47
BRANCH   8  50
ATOM     50  C13 8AU d   1      29.602  45.360  23.597  0.00  0.00    -0.033 C 
ATOM     51  H17 8AU d   1      29.370  45.580  24.650  0.00  0.00     0.035 H 
ATOM     52  H18 8AU d   1      28.865  45.856  22.948  0.00  0.00     0.035 H 
ATOM     53  H19 8AU d   1      30.610  45.731  23.358  0.00  0.00     0.035 H 
ENDBRANCH   8  50
TORSDOF 8
