REMARK  19 active torsions:
REMARK  status: ('A' for Active; 'I' for Inactive)
REMARK    1  A    between atoms: CA_2  and  CB_5 
REMARK    2  A    between atoms: CB_5  and  CG_6 
REMARK    3  A    between atoms: CG_6  and  CD_7 
REMARK    4  A    between atoms: CD_7  and  NE_8 
REMARK       I    between atoms: NE_8  and  CZ_9 
REMARK       I    between atoms: CZ_9  and  NH1_10 
REMARK    5  A    between atoms: CA_17  and  CB_20 
REMARK    6  A    between atoms: CB_20  and  CG_21 
REMARK    7  A    between atoms: CA_25  and  CB_28 
REMARK    8  A    between atoms: CB_28  and  CG1_29 
REMARK    9  A    between atoms: CB_28  and  CG2_30 
REMARK   10  A    between atoms: CG1_29  and  CD1_31 
REMARK   11  A    between atoms: CA_33  and  CB_36 
REMARK   12  A    between atoms: CB_36  and  CG_37 
REMARK       I    between atoms: CG_37  and  ND2_39 
REMARK   13  A    between atoms: CA_41  and  CB_44 
REMARK   14  A    between atoms: CB_44  and  CG_45 
REMARK       I    between atoms: CG_45  and  ND2_47 
REMARK   15  A    between atoms: CA_49  and  CB_52 
REMARK   16  A    between atoms: CB_52  and  CG_53 
REMARK       I    between atoms: CG_53  and  ND2_55 
REMARK   17  A    between atoms: CA_57  and  CB_60 
REMARK   18  A    between atoms: CB_60  and  CG1_61 
REMARK   19  A    between atoms: CB_60  and  CG2_62 
ROOT
ATOM      1  N   ARG d   1       1.825 -16.815  33.921  0.00  0.00    -0.077 NA
ATOM      2  CA  ARG d   1       0.798 -16.832  34.897  0.00  0.00     0.248 A 
ATOM      3  C   ARG d   1       0.909 -15.620  35.788  0.00  0.00     0.273 C 
ATOM      4  O   ARG d   1       1.972 -15.245  36.261  0.00  0.00    -0.268 OA
ATOM      5  N   GLY d   1      -0.224 -14.976  35.967  0.00  0.00    -0.348 N 
ATOM      6  CA  GLY d   1      -0.351 -13.809  36.804  0.00  0.00     0.069 C 
ATOM      7  C   GLY d   1      -0.099 -12.430  36.183  0.00  0.00     0.236 C 
ATOM      8  O   GLY d   1      -0.245 -11.443  36.833  0.00  0.00    -0.272 OA
ATOM      9  H12 GLY d   1      -1.040 -15.314  35.498  0.00  0.00     0.163 HD
ATOM     10  H13 GLY d   1       0.361 -13.926  37.634  0.00  0.00     0.078 H 
ATOM     11  H14 GLY d   1      -1.377 -13.804  37.200  0.00  0.00     0.078 H 
ATOM     12  N   ASP d   1       0.383 -12.386  34.969  0.00  0.00    -0.346 N 
ATOM     13  CA  ASP d   1       0.822 -11.137  34.360  0.00  0.00     0.098 C 
ATOM     14  C   ASP d   1      -0.309 -10.533  33.512  0.00  0.00     0.241 C 
ATOM     15  O   ASP d   1      -0.966 -11.263  32.775  0.00  0.00    -0.271 OA
ATOM     16  H15 ASP d   1       0.453 -13.234  34.443  0.00  0.00     0.163 HD
ATOM     17  H16 ASP d   1       1.109 -10.421  35.144  0.00  0.00     0.088 H 
ATOM     18  N   ILE d   1      -0.410  -9.209  33.551  0.00  0.00    -0.346 N 
ATOM     19  CA  ILE d   1      -1.464  -8.454  32.860  0.00  0.00     0.092 C 
ATOM     20  C   ILE d   1      -1.420  -8.619  31.328  0.00  0.00     0.241 C 
ATOM     21  O   ILE d   1      -2.422  -8.362  30.642  0.00  0.00    -0.271 OA
ATOM     22  H19 ILE d   1       0.268  -8.698  34.079  0.00  0.00     0.163 HD
ATOM     23  H20 ILE d   1      -2.429  -8.863  33.193  0.00  0.00     0.088 H 
ATOM     24  N   ASN d   1      -0.228  -8.882  30.793  0.00  0.00    -0.346 N 
ATOM     25  CA  ASN d   1       0.028  -8.926  29.324  0.00  0.00     0.097 C 
ATOM     26  C   ASN d   1       0.289 -10.297  28.723  0.00  0.00     0.241 C 
ATOM     27  O   ASN d   1       0.918 -10.484  27.674  0.00  0.00    -0.271 OA
ATOM     28  N   ASN d   1      -0.253 -11.348  29.396  0.00  0.00    -0.346 N 
ATOM     29  CA  ASN d   1      -0.254 -12.712  28.826  0.00  0.00     0.097 C 
ATOM     30  C   ASN d   1       1.168 -13.302  28.703  0.00  0.00     0.241 C 
ATOM     31  O   ASN d   1       1.426 -14.050  27.832  0.00  0.00    -0.271 OA
ATOM     32  N   ASN d   1       2.055 -12.854  29.564  0.00  0.00    -0.346 N 
ATOM     33  CA  ASN d   1       3.468 -13.284  29.377  0.00  0.00     0.097 C 
ATOM     34  C   ASN d   1       3.814 -14.496  30.228  0.00  0.00     0.241 C 
ATOM     35  O   ASN d   1       4.750 -15.179  29.876  0.00  0.00    -0.271 OA
ATOM     36  H30 ASN d   1       0.538  -9.060  31.411  0.00  0.00     0.163 HD
ATOM     37  H31 ASN d   1      -0.887  -8.554  28.840  0.00  0.00     0.088 H 
ATOM     38  H36 ASN d   1      -0.660 -11.194  30.297  0.00  0.00     0.163 HD
ATOM     39  H37 ASN d   1      -0.779 -13.342  29.559  0.00  0.00     0.088 H 
ATOM     40  H42 ASN d   1       1.791 -12.248  30.315  0.00  0.00     0.163 HD
ATOM     41  H43 ASN d   1       3.581 -13.595  28.328  0.00  0.00     0.088 H 
ATOM     42  N   VAL d   1       3.068 -14.667  31.307  0.00  0.00    -0.346 N 
ATOM     43  CA  VAL d   1       3.212 -15.802  32.213  0.00  0.00     0.089 C 
ATOM     44  C   VAL d   1       2.054 -15.710  33.217  0.00  0.00     0.249 C 
ATOM     45  O   VAL d   1       1.314 -14.712  33.310  0.00  0.00    -0.275 OA
ATOM     46  OXT VAL d   1       1.770 -16.627  34.012  0.00  0.00    -0.253 OA
ATOM     47  H48 VAL d   1       2.369 -13.982  31.513  0.00  0.00     0.163 HD
ATOM     48  H49 VAL d   1       3.151 -16.751  31.660  0.00  0.00     0.087 H 
ENDROOT
BRANCH   2  49
ATOM     49  CB  ARG d   1       0.848 -18.130  35.713  0.00  0.00    -0.009 C 
ATOM     50  H1  ARG d   1       1.897 -18.357  35.953  0.00  0.00     0.040 H 
ATOM     51  H2  ARG d   1       0.425 -18.945  35.107  0.00  0.00     0.040 H 
BRANCH  49  52
ATOM     52  CG  ARG d   1       0.056 -18.025  37.019  0.00  0.00    -0.045 C 
ATOM     53  H3  ARG d   1      -0.950 -17.632  36.812  0.00  0.00     0.035 H 
ATOM     54  H4  ARG d   1       0.577 -17.352  37.716  0.00  0.00     0.035 H 
BRANCH  52  55
ATOM     55  CD  ARG d   1      -0.051 -19.411  37.630  0.00  0.00     0.009 C 
ATOM     56  H5  ARG d   1      -0.325 -20.120  36.835  0.00  0.00     0.064 H 
ATOM     57  H6  ARG d   1      -0.842 -19.393  38.394  0.00  0.00     0.064 H 
BRANCH  55  58
ATOM     58  NE  ARG d   1       1.186 -19.878  38.258  0.00  0.00    -0.227 N 
ATOM     59  CZ  ARG d   1       1.577 -19.596  39.501  0.00  0.00     0.665 C 
ATOM     60  NH1 ARG d   1       0.862 -18.776  40.284  0.00  0.00    -0.235 N 
ATOM     61  NH2 ARG d   1       2.705 -20.130  39.960  0.00  0.00    -0.235 N 
ATOM     62  H8  ARG d   1       1.181 -18.570  41.242  0.00  0.00     0.174 HD
ATOM     63  H9  ARG d   1      -0.006 -18.351  39.928  0.00  0.00     0.174 HD
ATOM     64  H10 ARG d   1       3.257 -20.761  39.361  0.00  0.00     0.174 HD
ATOM     65  H11 ARG d   1       3.026 -19.913  40.914  0.00  0.00     0.174 HD
ATOM     66  H7  ARG d   1       1.806 -20.474  37.692  0.00  0.00     0.177 HD
ENDBRANCH  55  58
ENDBRANCH  52  55
ENDBRANCH  49  52
ENDBRANCH   2  49
BRANCH  43  67
ATOM     67  CB  VAL d   1       4.571 -15.691  32.884  0.00  0.00    -0.033 C 
ATOM     68  H50 VAL d   1       5.305 -15.495  32.088  0.00  0.00     0.042 H 
BRANCH  67  69
ATOM     69  CG1 VAL d   1       4.603 -14.487  33.802  0.00  0.00    -0.071 C 
ATOM     70  H51 VAL d   1       5.591 -14.418  34.281  0.00  0.00     0.028 H 
ATOM     71  H52 VAL d   1       3.827 -14.594  34.575  0.00  0.00     0.028 H 
ATOM     72  H53 VAL d   1       4.414 -13.575  33.217  0.00  0.00     0.028 H 
ENDBRANCH  67  69
BRANCH  67  73
ATOM     73  CG2 VAL d   1       5.014 -17.034  33.558  0.00  0.00    -0.071 C 
ATOM     74  H54 VAL d   1       4.960 -17.849  32.821  0.00  0.00     0.028 H 
ATOM     75  H55 VAL d   1       4.346 -17.258  34.403  0.00  0.00     0.028 H 
ATOM     76  H56 VAL d   1       6.047 -16.938  33.923  0.00  0.00     0.028 H 
ENDBRANCH  67  73
ENDBRANCH  43  67
BRANCH  33  77
ATOM     77  CB  ASN d   1       4.406 -12.083  29.595  0.00  0.00     0.036 C 
ATOM     78  H44 ASN d   1       5.440 -12.448  29.688  0.00  0.00     0.051 H 
ATOM     79  H45 ASN d   1       4.115 -11.564  30.520  0.00  0.00     0.051 H 
BRANCH  77  80
ATOM     80  CG  ASN d   1       4.327 -11.090  28.416  0.00  0.00     0.217 C 
ATOM     81  OD1 ASN d   1       4.387 -11.537  27.308  0.00  0.00    -0.274 OA
ATOM     82  ND2 ASN d   1       3.981  -9.853  28.682  0.00  0.00    -0.370 N 
ATOM     83  H46 ASN d   1       3.919  -9.181  27.944  0.00  0.00     0.159 HD
ATOM     84  H47 ASN d   1       3.779  -9.582  29.623  0.00  0.00     0.159 HD
ENDBRANCH  77  80
ENDBRANCH  33  77
BRANCH  13  85
ATOM     85  CB  ASP d   1       2.038 -11.459  33.478  0.00  0.00     0.043 C 
ATOM     86  H17 ASP d   1       1.781 -12.297  32.813  0.00  0.00     0.052 H 
ATOM     87  H18 ASP d   1       2.878 -11.750  34.126  0.00  0.00     0.052 H 
BRANCH  85  88
ATOM     88  CG  ASP d   1       2.470 -10.260  32.618  0.00  0.00     0.175 C 
ATOM     89  OD1 ASP d   1       3.196  -9.388  33.144  0.00  0.00    -0.648 OA
ATOM     90  OD2 ASP d   1       2.101 -10.366  31.429  0.00  0.00    -0.648 OA
ENDBRANCH  85  88
ENDBRANCH  13  85
BRANCH  29  91
ATOM     91  CB  ASN d   1      -1.071 -12.833  27.503  0.00  0.00     0.036 C 
ATOM     92  H38 ASN d   1      -0.546 -12.273  26.715  0.00  0.00     0.051 H 
ATOM     93  H39 ASN d   1      -2.066 -12.393  27.664  0.00  0.00     0.051 H 
BRANCH  91  94
ATOM     94  CG  ASN d   1      -1.244 -14.258  27.046  0.00  0.00     0.217 C 
ATOM     95  OD1 ASN d   1      -1.663 -15.179  27.858  0.00  0.00    -0.274 OA
ATOM     96  ND2 ASN d   1      -1.080 -14.518  25.814  0.00  0.00    -0.370 N 
ATOM     97  H40 ASN d   1      -1.188 -15.455  25.482  0.00  0.00     0.159 HD
ATOM     98  H41 ASN d   1      -0.842 -13.786  25.176  0.00  0.00     0.159 HD
ENDBRANCH  91  94
ENDBRANCH  29  91
BRANCH  19  99
ATOM     99  CB  ILE d   1      -1.415  -6.965  33.303  0.00  0.00    -0.030 C 
ATOM    100  H21 ILE d   1      -1.381  -6.965  34.403  0.00  0.00     0.043 H 
BRANCH  99 101
ATOM    101  CG1 ILE d   1      -2.680  -6.173  32.885  0.00  0.00    -0.063 C 
ATOM    102  H22 ILE d   1      -3.453  -6.902  32.598  0.00  0.00     0.033 H 
ATOM    103  H23 ILE d   1      -2.417  -5.555  32.014  0.00  0.00     0.033 H 
BRANCH 101 104
ATOM    104  CD1 ILE d   1      -3.271  -5.265  33.931  0.00  0.00    -0.076 C 
ATOM    105  H27 ILE d   1      -4.158  -4.761  33.520  0.00  0.00     0.027 H 
ATOM    106  H28 ILE d   1      -2.525  -4.512  34.227  0.00  0.00     0.027 H 
ATOM    107  H29 ILE d   1      -3.561  -5.859  34.810  0.00  0.00     0.027 H 
ENDBRANCH 101 104
ENDBRANCH  99 101
BRANCH  99 108
ATOM    108  CG2 ILE d   1      -0.162  -6.247  32.814  0.00  0.00    -0.071 C 
ATOM    109  H24 ILE d   1       0.729  -6.817  33.116  0.00  0.00     0.028 H 
ATOM    110  H25 ILE d   1      -0.120  -5.240  33.256  0.00  0.00     0.028 H 
ATOM    111  H26 ILE d   1      -0.191  -6.165  31.717  0.00  0.00     0.028 H 
ENDBRANCH  99 108
ENDBRANCH  19  99
BRANCH  25 112
ATOM    112  CB  ASN d   1       1.155  -7.949  28.983  0.00  0.00     0.036 C 
ATOM    113  H32 ASN d   1       1.575  -8.223  28.004  0.00  0.00     0.051 H 
ATOM    114  H33 ASN d   1       1.937  -8.030  29.753  0.00  0.00     0.051 H 
BRANCH 112 115
ATOM    115  CG  ASN d   1       0.669  -6.484  28.922  0.00  0.00     0.217 C 
ATOM    116  OD1 ASN d   1      -0.419  -6.214  28.358  0.00  0.00    -0.274 OA
ATOM    117  ND2 ASN d   1       1.425  -5.567  29.501  0.00  0.00    -0.370 N 
ATOM    118  H34 ASN d   1       1.147  -4.607  29.485  0.00  0.00     0.159 HD
ATOM    119  H35 ASN d   1       2.275  -5.834  29.955  0.00  0.00     0.159 HD
ENDBRANCH 112 115
ENDBRANCH  25 112
TORSDOF 19
