REMARK  16 active torsions:
REMARK  status: ('A' for Active; 'I' for Inactive)
REMARK    1  A    between atoms: C22_2  and  C23_3 
REMARK    2  A    between atoms: C22_2  and  C21_10 
REMARK    3  A    between atoms: C26_6  and  O4_7 
REMARK    4  A    between atoms: C21_10  and  C20_11 
REMARK    5  A    between atoms: C20_11  and  C19_12 
REMARK    6  A    between atoms: C19_12  and  C31_13 
REMARK    7  A    between atoms: C19_12  and  C18_17 
REMARK    8  A    between atoms: C31_13  and  C32_14 
REMARK    9  A    between atoms: C32_14  and  C33_15 
REMARK   10  A    between atoms: C33_15  and  C34_16 
REMARK   11  A    between atoms: C18_17  and  C30_18 
REMARK   12  A    between atoms: C18_17  and  C17_19 
REMARK   13  A    between atoms: C13_20  and  C29_21 
REMARK   14  A    between atoms: C8_29  and  C7_30 
REMARK   15  A    between atoms: C1_33  and  O1_34 
REMARK   16  A    between atoms: C3_36  and  O2_37 
ROOT
ATOM      1  C17 8C9 d   1       9.473   2.961  14.180  0.00  0.00    -0.043 C 
ATOM      2  C13 8C9 d   1       9.451   4.281  13.447  0.00  0.00    -0.033 C 
ATOM      3  C12 8C9 d   1       8.451   5.315  13.966  0.00  0.00    -0.057 C 
ATOM      4  C11 8C9 d   1       8.734   6.720  13.377  0.00  0.00    -0.061 C 
ATOM      5  C10 8C9 d   1      10.199   7.257  13.494  0.00  0.00    -0.044 C 
ATOM      6  C16 8C9 d   1      10.939   2.480  14.169  0.00  0.00    -0.060 C 
ATOM      7  C15 8C9 d   1      11.821   3.641  13.750  0.00  0.00    -0.057 C 
ATOM      8  C14 8C9 d   1      10.829   4.803  13.822  0.00  0.00    -0.025 C 
ATOM      9  C9  8C9 d   1      11.140   6.113  13.120  0.00  0.00    -0.075 C 
ATOM     10  C8  8C9 d   1      12.181   6.196  12.245  0.00  0.00    -0.080 C 
ATOM     11  H24 8C9 d   1       9.209   3.173  15.227  0.00  0.00     0.041 H 
ATOM     12  H28 8C9 d   1       8.524   5.365  15.062  0.00  0.00     0.034 H 
ATOM     13  H29 8C9 d   1       7.435   5.005  13.680  0.00  0.00     0.034 H 
ATOM     14  H30 8C9 d   1       8.076   7.435  13.893  0.00  0.00     0.033 H 
ATOM     15  H31 8C9 d   1       8.476   6.690  12.308  0.00  0.00     0.033 H 
ATOM     16  H32 8C9 d   1      10.398   7.584  14.525  0.00  0.00     0.039 H 
ATOM     17  H33 8C9 d   1      10.345   8.103  12.806  0.00  0.00     0.039 H 
ATOM     18  H34 8C9 d   1      11.053   1.651  13.455  0.00  0.00     0.033 H 
ATOM     19  H35 8C9 d   1      11.226   2.140  15.175  0.00  0.00     0.033 H 
ATOM     20  H36 8C9 d   1      12.210   3.505  12.730  0.00  0.00     0.034 H 
ATOM     21  H37 8C9 d   1      12.660   3.783  14.447  0.00  0.00     0.034 H 
ATOM     22  H38 8C9 d   1      10.784   5.070  14.888  0.00  0.00     0.048 H 
ATOM     23  H39 8C9 d   1      12.836   5.333  12.135  0.00  0.00     0.083 H 
ENDROOT
BRANCH   1  24
ATOM     24  C18 8C9 d   1       8.447   1.910  13.706  0.00  0.00    -0.050 C 
ATOM     25  H20 8C9 d   1       8.785   1.600  12.706  0.00  0.00     0.040 H 
BRANCH  24  26
ATOM     26  C19 8C9 d   1       8.463   0.661  14.564  0.00  0.00    -0.050 C 
ATOM     27  H10 8C9 d   1       9.514   0.377  14.723  0.00  0.00     0.040 H 
BRANCH  26  28
ATOM     28  C20 8C9 d   1       7.764  -0.523  13.846  0.00  0.00    -0.055 C 
ATOM     29  H8  8C9 d   1       6.691  -0.302  13.748  0.00  0.00     0.034 H 
ATOM     30  H9  8C9 d   1       8.205  -0.649  12.846  0.00  0.00     0.034 H 
BRANCH  28  31
ATOM     31  C21 8C9 d   1       7.936  -1.805  14.629  0.00  0.00    -0.005 C 
ATOM     32  H6  8C9 d   1       9.007  -2.055  14.665  0.00  0.00     0.044 H 
ATOM     33  H7  8C9 d   1       7.562  -1.646  15.651  0.00  0.00     0.044 H 
BRANCH  31  34
ATOM     34  C22 8C9 d   1       7.179  -2.982  14.009  0.00  0.00     0.159 C 
ATOM     35  O3  8C9 d   1       6.178  -2.816  13.283  0.00  0.00    -0.292 OA
BRANCH  34  36
ATOM     36  C23 8C9 d   1       7.699  -4.387  14.264  0.00  0.00     0.010 A 
ATOM     37  C28 8C9 d   1       7.048  -5.466  13.657  0.00  0.00    -0.067 A 
ATOM     38  C27 8C9 d   1       7.522  -6.774  13.827  0.00  0.00    -0.050 A 
ATOM     39  H1  8C9 d   1       6.168  -5.289  13.049  0.00  0.00     0.085 H 
ATOM     40  C26 8C9 d   1       8.639  -7.005  14.626  0.00  0.00     0.065 A 
ATOM     41  H2  8C9 d   1       7.021  -7.602  13.339  0.00  0.00     0.087 H 
ATOM     42  C25 8C9 d   1       9.298  -5.941  15.250  0.00  0.00    -0.050 A 
ATOM     43  C24 8C9 d   1       8.831  -4.639  15.067  0.00  0.00    -0.067 A 
ATOM     44  H4  8C9 d   1      10.166  -6.127  15.872  0.00  0.00     0.087 H 
ATOM     45  H5  8C9 d   1       9.343  -3.813  15.547  0.00  0.00     0.085 H 
BRANCH  40  46
ATOM     46  O4  8C9 d   1       9.071  -8.281  14.770  0.00  0.00    -0.361 OA
ATOM     47  H3  8C9 d   1       9.301  -8.634  13.919  0.00  0.00     0.217 HD
ENDBRANCH  40  46
ENDBRANCH  34  36
ENDBRANCH  31  34
ENDBRANCH  28  31
ENDBRANCH  26  28
BRANCH  26  48
ATOM     48  C31 8C9 d   1       7.841   0.943  15.946  0.00  0.00    -0.061 C 
ATOM     49  H11 8C9 d   1       6.894   0.391  16.038  0.00  0.00     0.033 H 
ATOM     50  H12 8C9 d   1       7.647   2.021  16.045  0.00  0.00     0.033 H 
BRANCH  48  51
ATOM     51  C32 8C9 d   1       8.789   0.501  17.045  0.00  0.00    -0.065 C 
ATOM     52  H13 8C9 d   1       9.247   1.381  17.520  0.00  0.00     0.033 H 
ATOM     53  H14 8C9 d   1       9.577  -0.140  16.624  0.00  0.00     0.033 H 
BRANCH  51  54
ATOM     54  C33 8C9 d   1       7.988  -0.271  18.060  0.00  0.00    -0.069 C 
ATOM     55  H15 8C9 d   1       8.656  -1.004  18.537  0.00  0.00     0.032 H 
ATOM     56  H16 8C9 d   1       7.183  -0.800  17.529  0.00  0.00     0.032 H 
BRANCH  54  57
ATOM     57  C34 8C9 d   1       7.360   0.570  19.148  0.00  0.00    -0.077 C 
ATOM     58  H17 8C9 d   1       6.800  -0.080  19.836  0.00  0.00     0.027 H 
ATOM     59  H18 8C9 d   1       6.675   1.303  18.696  0.00  0.00     0.027 H 
ATOM     60  H19 8C9 d   1       8.148   1.099  19.704  0.00  0.00     0.027 H 
ENDBRANCH  54  57
ENDBRANCH  51  54
ENDBRANCH  48  51
ENDBRANCH  26  48
ENDBRANCH  24  26
BRANCH  24  61
ATOM     61  C30 8C9 d   1       7.009   2.443  13.513  0.00  0.00    -0.072 C 
ATOM     62  H21 8C9 d   1       7.034   3.347  12.887  0.00  0.00     0.028 H 
ATOM     63  H22 8C9 d   1       6.574   2.687  14.493  0.00  0.00     0.028 H 
ATOM     64  H23 8C9 d   1       6.396   1.674  13.021  0.00  0.00     0.028 H 
ENDBRANCH  24  61
ENDBRANCH   1  24
BRANCH   2  65
ATOM     65  C29 8C9 d   1       9.333   4.117  11.908  0.00  0.00    -0.068 C 
ATOM     66  H25 8C9 d   1       9.322   5.109  11.433  0.00  0.00     0.028 H 
ATOM     67  H26 8C9 d   1       8.401   3.585  11.666  0.00  0.00     0.028 H 
ATOM     68  H27 8C9 d   1      10.192   3.541  11.534  0.00  0.00     0.028 H 
ENDBRANCH   2  65
BRANCH  10  69
ATOM     69  C7  8C9 d   1      12.460   7.379  11.452  0.00  0.00    -0.080 C 
ATOM     70  C5  8C9 d   1      13.018   7.368  10.226  0.00  0.00    -0.074 C 
ATOM     71  C6  8C9 d   1      13.451   6.079   9.545  0.00  0.00    -0.017 C 
ATOM     72  C4  8C9 d   1      13.122   8.703   9.495  0.00  0.00    -0.017 C 
ATOM     73  C1  8C9 d   1      14.704   6.257   8.670  0.00  0.00     0.062 C 
ATOM     74  H41 8C9 d   1      12.627   5.723   8.909  0.00  0.00     0.043 H 
ATOM     75  H42 8C9 d   1      13.667   5.328  10.319  0.00  0.00     0.043 H 
ATOM     76  C2  8C9 d   1      14.674   7.588   7.921  0.00  0.00    -0.032 C 
ATOM     77  H43 8C9 d   1      15.585   6.266   9.328  0.00  0.00     0.090 H 
ATOM     78  C3  8C9 d   1      14.455   8.843   8.762  0.00  0.00     0.062 C 
ATOM     79  C35 8C9 d   1      14.801   7.666   6.612  0.00  0.00    -0.114 C 
ATOM     80  H47 8C9 d   1      14.427   9.738   8.124  0.00  0.00     0.090 H 
ATOM     81  H49 8C9 d   1      14.957   6.762   6.025  0.00  0.00     0.067 H 
ATOM     82  H50 8C9 d   1      14.750   8.634   6.117  0.00  0.00     0.067 H 
ATOM     83  H45 8C9 d   1      13.030   9.519  10.227  0.00  0.00     0.043 H 
ATOM     84  H46 8C9 d   1      12.304   8.774   8.763  0.00  0.00     0.043 H 
ATOM     85  H40 8C9 d   1      12.199   8.346  11.879  0.00  0.00     0.083 H 
BRANCH  73  86
ATOM     86  O1  8C9 d   1      14.823   5.132   7.785  0.00  0.00    -0.391 OA
ATOM     87  H44 8C9 d   1      14.052   5.082   7.233  0.00  0.00     0.210 HD
ENDBRANCH  73  86
BRANCH  78  88
ATOM     88  O2  8C9 d   1      15.595   8.921   9.673  0.00  0.00    -0.391 OA
ATOM     89  H48 8C9 d   1      15.494   9.676  10.241  0.00  0.00     0.210 HD
ENDBRANCH  78  88
ENDBRANCH  10  69
TORSDOF 16
