REMARK  18 active torsions:
REMARK  status: ('A' for Active; 'I' for Inactive)
REMARK    1  A    between atoms: O38_1  and  C32_2 
REMARK    2  A    between atoms: C29_7  and  C21_8 
REMARK    3  A    between atoms: C21_8  and  O39_9 
REMARK    4  A    between atoms: C21_8  and  C20_11 
REMARK    5  A    between atoms: O39_9  and  C40_10 
REMARK    6  A    between atoms: C20_11  and  C19_12 
REMARK    7  A    between atoms: C19_12  and  C18_13 
REMARK    8  A    between atoms: C18_13  and  C25_14 
REMARK    9  A    between atoms: C18_13  and  C17_18 
REMARK   10  A    between atoms: C25_14  and  C26_15 
REMARK   11  A    between atoms: C26_15  and  C27_16 
REMARK   12  A    between atoms: C27_16  and  C28_17 
REMARK   13  A    between atoms: C17_18  and  C41_19 
REMARK   14  A    between atoms: C17_18  and  C16_20 
REMARK   15  A    between atoms: C23_22  and  C24_23 
REMARK   16  A    between atoms: C8_30  and  C7_31 
REMARK   17  A    between atoms: C4_35  and  O37_36 
REMARK   18  A    between atoms: C2_39  and  O35_40 
ROOT
ATOM      1  C16 8C0 d   1      13.334   3.240  26.897  0.00  0.00    -0.043 C 
ATOM      2  C15 8C0 d   1      14.298   2.590  25.892  0.00  0.00    -0.060 C 
ATOM      3  C23 8C0 d   1      13.002   4.628  26.347  0.00  0.00    -0.033 C 
ATOM      4  C12 8C0 d   1      12.764   5.746  27.356  0.00  0.00    -0.057 C 
ATOM      5  C11 8C0 d   1      12.681   7.079  26.593  0.00  0.00    -0.061 C 
ATOM      6  C10 8C0 d   1      13.978   7.372  25.794  0.00  0.00    -0.044 C 
ATOM      7  C22 8C0 d   1      14.338   4.956  25.676  0.00  0.00    -0.025 C 
ATOM      8  C14 8C0 d   1      14.832   3.689  24.981  0.00  0.00    -0.057 C 
ATOM      9  C9  8C0 d   1      14.258   6.211  24.900  0.00  0.00    -0.075 C 
ATOM     10  C8  8C0 d   1      14.394   6.241  23.567  0.00  0.00    -0.080 C 
ATOM     11  H28 8C0 d   1      13.904   3.409  27.822  0.00  0.00     0.041 H 
ATOM     12  H29 8C0 d   1      13.764   1.836  25.295  0.00  0.00     0.033 H 
ATOM     13  H30 8C0 d   1      15.130   2.111  26.428  0.00  0.00     0.033 H 
ATOM     14  H34 8C0 d   1      13.596   5.781  28.075  0.00  0.00     0.034 H 
ATOM     15  H35 8C0 d   1      11.821   5.567  27.894  0.00  0.00     0.034 H 
ATOM     16  H36 8C0 d   1      12.517   7.892  27.315  0.00  0.00     0.033 H 
ATOM     17  H37 8C0 d   1      11.834   7.035  25.892  0.00  0.00     0.033 H 
ATOM     18  H38 8C0 d   1      14.818   7.515  26.490  0.00  0.00     0.039 H 
ATOM     19  H39 8C0 d   1      13.844   8.281  25.190  0.00  0.00     0.039 H 
ATOM     20  H40 8C0 d   1      15.064   5.160  26.477  0.00  0.00     0.048 H 
ATOM     21  H41 8C0 d   1      14.416   3.603  23.966  0.00  0.00     0.034 H 
ATOM     22  H42 8C0 d   1      15.931   3.665  24.930  0.00  0.00     0.034 H 
ATOM     23  H43 8C0 d   1      14.609   5.316  23.034  0.00  0.00     0.083 H 
ENDROOT
BRANCH   1  24
ATOM     24  C17 8C0 d   1      12.158   2.321  27.325  0.00  0.00    -0.050 C 
ATOM     25  H24 8C0 d   1      11.477   2.229  26.466  0.00  0.00     0.040 H 
BRANCH  24  26
ATOM     26  C18 8C0 d   1      12.684   0.934  27.658  0.00  0.00    -0.051 C 
ATOM     27  H14 8C0 d   1      13.245   0.569  26.785  0.00  0.00     0.040 H 
BRANCH  26  28
ATOM     28  C19 8C0 d   1      11.568  -0.060  27.922  0.00  0.00    -0.059 C 
ATOM     29  H12 8C0 d   1      11.998  -1.072  27.914  0.00  0.00     0.033 H 
ATOM     30  H13 8C0 d   1      11.145   0.151  28.915  0.00  0.00     0.033 H 
BRANCH  28  31
ATOM     31  C20 8C0 d   1      10.427  -0.011  26.891  0.00  0.00    -0.037 C 
ATOM     32  H10 8C0 d   1       9.864   0.927  27.006  0.00  0.00     0.037 H 
ATOM     33  H11 8C0 d   1      10.844  -0.066  25.875  0.00  0.00     0.037 H 
BRANCH  31  34
ATOM     34  C21 8C0 d   1       9.498  -1.201  27.131  0.00  0.00     0.063 C 
ATOM     35  H6  8C0 d   1      10.138  -2.095  27.093  0.00  0.00     0.090 H 
BRANCH  34  36
ATOM     36  C29 8C0 d   1       8.844  -1.192  28.496  0.00  0.00    -0.029 A 
ATOM     37  C30 8C0 d   1       9.148  -2.213  29.441  0.00  0.00    -0.072 A 
ATOM     38  C31 8C0 d   1       8.569  -2.198  30.719  0.00  0.00    -0.050 A 
ATOM     39  H3  8C0 d   1       9.833  -3.009  29.171  0.00  0.00     0.084 H 
ATOM     40  C32 8C0 d   1       7.648  -1.172  31.078  0.00  0.00     0.065 A 
ATOM     41  H2  8C0 d   1       8.823  -2.970  31.436  0.00  0.00     0.087 H 
ATOM     42  C33 8C0 d   1       7.352  -0.181  30.149  0.00  0.00    -0.050 A 
ATOM     43  C34 8C0 d   1       7.967  -0.170  28.881  0.00  0.00    -0.072 A 
ATOM     44  H4  8C0 d   1       6.638   0.594  30.404  0.00  0.00     0.087 H 
ATOM     45  H5  8C0 d   1       7.758   0.642  28.193  0.00  0.00     0.084 H 
BRANCH  40  46
ATOM     46  O38 8C0 d   1       7.040  -1.099  32.331  0.00  0.00    -0.361 OA
ATOM     47  H1  8C0 d   1       6.466  -0.343  32.359  0.00  0.00     0.217 HD
ENDBRANCH  40  46
ENDBRANCH  34  36
BRANCH  34  48
ATOM     48  O39 8C0 d   1       8.506  -1.367  26.123  0.00  0.00    -0.386 OA
BRANCH  48  49
ATOM     49  C40 8C0 d   1       7.735  -0.218  25.828  0.00  0.00     0.005 C 
ATOM     50  H7  8C0 d   1       7.005  -0.458  25.041  0.00  0.00     0.066 H 
ATOM     51  H8  8C0 d   1       8.397   0.589  25.480  0.00  0.00     0.066 H 
ATOM     52  H9  8C0 d   1       7.203   0.109  26.734  0.00  0.00     0.066 H 
ENDBRANCH  48  49
ENDBRANCH  34  48
ENDBRANCH  31  34
ENDBRANCH  28  31
ENDBRANCH  26  28
BRANCH  26  53
ATOM     53  C25 8C0 d   1      13.678   1.035  28.855  0.00  0.00    -0.061 C 
ATOM     54  H15 8C0 d   1      13.159   1.465  29.724  0.00  0.00     0.033 H 
ATOM     55  H16 8C0 d   1      14.522   1.682  28.575  0.00  0.00     0.033 H 
BRANCH  53  56
ATOM     56  C26 8C0 d   1      14.205  -0.359  29.216  0.00  0.00    -0.065 C 
ATOM     57  H17 8C0 d   1      14.194  -0.992  28.317  0.00  0.00     0.033 H 
ATOM     58  H18 8C0 d   1      13.554  -0.802  29.984  0.00  0.00     0.033 H 
BRANCH  56  59
ATOM     59  C27 8C0 d   1      15.631  -0.282  29.754  0.00  0.00    -0.069 C 
ATOM     60  H19 8C0 d   1      15.598  -0.029  30.824  0.00  0.00     0.032 H 
ATOM     61  H20 8C0 d   1      16.179   0.500  29.208  0.00  0.00     0.032 H 
BRANCH  59  62
ATOM     62  C28 8C0 d   1      16.347  -1.598  29.581  0.00  0.00    -0.077 C 
ATOM     63  H21 8C0 d   1      17.370  -1.514  29.977  0.00  0.00     0.027 H 
ATOM     64  H22 8C0 d   1      16.387  -1.856  28.512  0.00  0.00     0.027 H 
ATOM     65  H23 8C0 d   1      15.806  -2.384  30.128  0.00  0.00     0.027 H 
ENDBRANCH  59  62
ENDBRANCH  56  59
ENDBRANCH  53  56
ENDBRANCH  26  53
ENDBRANCH  24  26
BRANCH  24  66
ATOM     66  C41 8C0 d   1      11.339   2.904  28.505  0.00  0.00    -0.072 C 
ATOM     67  H25 8C0 d   1      10.972   3.906  28.237  0.00  0.00     0.028 H 
ATOM     68  H26 8C0 d   1      11.980   2.975  29.396  0.00  0.00     0.028 H 
ATOM     69  H27 8C0 d   1      10.485   2.245  28.719  0.00  0.00     0.028 H 
ENDBRANCH  24  66
ENDBRANCH   1  24
BRANCH   3  70
ATOM     70  C24 8C0 d   1      11.848   4.639  25.328  0.00  0.00    -0.068 C 
ATOM     71  H31 8C0 d   1      11.673   5.669  24.983  0.00  0.00     0.028 H 
ATOM     72  H32 8C0 d   1      10.935   4.252  25.804  0.00  0.00     0.028 H 
ATOM     73  H33 8C0 d   1      12.111   4.004  24.469  0.00  0.00     0.028 H 
ENDBRANCH   3  70
BRANCH  10  74
ATOM     74  C7  8C0 d   1      14.261   7.477  22.817  0.00  0.00    -0.080 C 
ATOM     75  C6  8C0 d   1      14.070   7.488  21.482  0.00  0.00    -0.074 C 
ATOM     76  C1  8C0 d   1      13.873   8.844  20.874  0.00  0.00    -0.017 C 
ATOM     77  C5  8C0 d   1      14.018   6.253  20.638  0.00  0.00    -0.017 C 
ATOM     78  C2  8C0 d   1      14.470   8.993  19.479  0.00  0.00     0.062 C 
ATOM     79  H45 8C0 d   1      14.343   9.589  21.532  0.00  0.00     0.043 H 
ATOM     80  H46 8C0 d   1      12.793   9.040  20.810  0.00  0.00     0.043 H 
ATOM     81  C3  8C0 d   1      14.076   7.819  18.659  0.00  0.00    -0.032 C 
ATOM     82  H53 8C0 d   1      14.055   9.900  19.015  0.00  0.00     0.090 H 
ATOM     83  C4  8C0 d   1      14.506   6.475  19.197  0.00  0.00     0.062 C 
ATOM     84  C36 8C0 d   1      13.421   8.050  17.523  0.00  0.00    -0.114 C 
ATOM     85  H49 8C0 d   1      15.606   6.476  19.195  0.00  0.00     0.090 H 
ATOM     86  H51 8C0 d   1      13.165   9.070  17.240  0.00  0.00     0.067 H 
ATOM     87  H52 8C0 d   1      13.142   7.219  16.877  0.00  0.00     0.067 H 
ATOM     88  H47 8C0 d   1      12.977   5.899  20.603  0.00  0.00     0.043 H 
ATOM     89  H48 8C0 d   1      14.651   5.485  21.106  0.00  0.00     0.043 H 
ATOM     90  H44 8C0 d   1      14.317   8.425  23.349  0.00  0.00     0.083 H 
BRANCH  78  91
ATOM     91  O35 8C0 d   1      15.892   9.134  19.538  0.00  0.00    -0.391 OA
ATOM     92  H54 8C0 d   1      16.234   9.250  18.660  0.00  0.00     0.210 HD
ENDBRANCH  78  91
BRANCH  83  93
ATOM     93  O37 8C0 d   1      14.067   5.317  18.458  0.00  0.00    -0.391 OA
ATOM     94  H50 8C0 d   1      13.120   5.257  18.498  0.00  0.00     0.210 HD
ENDBRANCH  83  93
ENDBRANCH  10  74
TORSDOF 18
