REMARK  14 active torsions:
REMARK  status: ('A' for Active; 'I' for Inactive)
REMARK    1  A    between atoms: O36_1  and  C33_2 
REMARK    2  A    between atoms: C30_7  and  C27_8 
REMARK    3  A    between atoms: C27_8  and  O28_9 
REMARK    4  A    between atoms: C27_8  and  C26_11 
REMARK    5  A    between atoms: O28_9  and  C29_10 
REMARK    6  A    between atoms: C26_11  and  C25_12 
REMARK    7  A    between atoms: C25_12  and  C24_13 
REMARK    8  A    between atoms: C24_13  and  C21_14 
REMARK    9  A    between atoms: C21_14  and  C22_15 
REMARK   10  A    between atoms: C21_14  and  C20_16 
REMARK   11  A    between atoms: C16_17  and  C23_18 
REMARK   12  A    between atoms: C11_26  and  C10_27 
REMARK   13  A    between atoms: C2_30  and  O9_31 
REMARK   14  A    between atoms: C6_33  and  O8_34 
ROOT
ATOM      1  C20 8BO d   1      14.216   3.189  26.965  0.00  0.00    -0.043 C 
ATOM      2  C16 8BO d   1      13.810   4.511  26.328  0.00  0.00    -0.033 C 
ATOM      3  C15 8BO d   1      13.416   5.661  27.260  0.00  0.00    -0.057 C 
ATOM      4  C14 8BO d   1      13.465   7.012  26.518  0.00  0.00    -0.061 C 
ATOM      5  C13 8BO d   1      14.810   7.261  25.812  0.00  0.00    -0.044 C 
ATOM      6  C19 8BO d   1      14.928   2.427  25.837  0.00  0.00    -0.060 C 
ATOM      7  C18 8BO d   1      15.689   3.529  25.090  0.00  0.00    -0.057 C 
ATOM      8  C17 8BO d   1      15.168   4.816  25.731  0.00  0.00    -0.025 C 
ATOM      9  C12 8BO d   1      15.040   6.062  24.914  0.00  0.00    -0.075 C 
ATOM     10  C11 8BO d   1      15.103   6.076  23.563  0.00  0.00    -0.080 C 
ATOM     11  H20 8BO d   1      14.990   3.417  27.712  0.00  0.00     0.041 H 
ATOM     12  H24 8BO d   1      14.114   5.691  28.110  0.00  0.00     0.034 H 
ATOM     13  H25 8BO d   1      12.394   5.490  27.631  0.00  0.00     0.034 H 
ATOM     14  H26 8BO d   1      13.297   7.819  27.247  0.00  0.00     0.033 H 
ATOM     15  H27 8BO d   1      12.665   7.027  25.763  0.00  0.00     0.033 H 
ATOM     16  H28 8BO d   1      15.620   7.345  26.552  0.00  0.00     0.039 H 
ATOM     17  H29 8BO d   1      14.762   8.183  25.214  0.00  0.00     0.039 H 
ATOM     18  H30 8BO d   1      14.201   1.933  25.176  0.00  0.00     0.033 H 
ATOM     19  H31 8BO d   1      15.621   1.677  26.245  0.00  0.00     0.033 H 
ATOM     20  H32 8BO d   1      15.461   3.505  24.014  0.00  0.00     0.034 H 
ATOM     21  H33 8BO d   1      16.774   3.427  25.237  0.00  0.00     0.034 H 
ATOM     22  H34 8BO d   1      15.865   5.056  26.547  0.00  0.00     0.048 H 
ATOM     23  H35 8BO d   1      15.291   5.140  23.039  0.00  0.00     0.083 H 
ENDROOT
BRANCH   1  24
ATOM     24  C21 8BO d   1      13.113   2.495  27.774  0.00  0.00    -0.053 C 
ATOM     25  H16 8BO d   1      12.690   3.264  28.436  0.00  0.00     0.040 H 
BRANCH  24  26
ATOM     26  C24 8BO d   1      11.911   1.928  27.007  0.00  0.00    -0.061 C 
ATOM     27  H14 8BO d   1      11.749   2.510  26.088  0.00  0.00     0.033 H 
ATOM     28  H15 8BO d   1      12.100   0.876  26.746  0.00  0.00     0.033 H 
BRANCH  26  29
ATOM     29  C25 8BO d   1      10.670   2.023  27.905  0.00  0.00    -0.062 C 
ATOM     30  H12 8BO d   1      10.784   1.300  28.726  0.00  0.00     0.033 H 
ATOM     31  H13 8BO d   1      10.622   3.042  28.317  0.00  0.00     0.033 H 
BRANCH  29  32
ATOM     32  C26 8BO d   1       9.347   1.733  27.194  0.00  0.00    -0.037 C 
ATOM     33  H10 8BO d   1       8.538   2.197  27.778  0.00  0.00     0.037 H 
ATOM     34  H11 8BO d   1       9.389   2.193  26.196  0.00  0.00     0.037 H 
BRANCH  32  35
ATOM     35  C27 8BO d   1       9.013   0.245  27.018  0.00  0.00     0.063 C 
ATOM     36  H6  8BO d   1       9.810  -0.255  26.448  0.00  0.00     0.090 H 
BRANCH  35  37
ATOM     37  C30 8BO d   1       8.814  -0.423  28.323  0.00  0.00    -0.029 A 
ATOM     38  C31 8BO d   1       9.262  -1.722  28.559  0.00  0.00    -0.072 A 
ATOM     39  C32 8BO d   1       9.058  -2.319  29.805  0.00  0.00    -0.050 A 
ATOM     40  H3  8BO d   1       9.770  -2.270  27.773  0.00  0.00     0.084 H 
ATOM     41  C33 8BO d   1       8.394  -1.608  30.814  0.00  0.00     0.065 A 
ATOM     42  H2  8BO d   1       9.411  -3.327  29.991  0.00  0.00     0.087 H 
ATOM     43  C34 8BO d   1       7.943  -0.315  30.558  0.00  0.00    -0.050 A 
ATOM     44  C35 8BO d   1       8.145   0.281  29.318  0.00  0.00    -0.072 A 
ATOM     45  H4  8BO d   1       7.427   0.235  31.337  0.00  0.00     0.087 H 
ATOM     46  H5  8BO d   1       7.784   1.286  29.129  0.00  0.00     0.084 H 
BRANCH  41  47
ATOM     47  O36 8BO d   1       8.164  -2.160  32.047  0.00  0.00    -0.361 OA
ATOM     48  H1  8BO d   1       7.705  -1.532  32.593  0.00  0.00     0.217 HD
ENDBRANCH  41  47
ENDBRANCH  35  37
BRANCH  35  49
ATOM     49  O28 8BO d   1       7.767   0.154  26.343  0.00  0.00    -0.386 OA
BRANCH  49  50
ATOM     50  C29 8BO d   1       7.823  -0.735  25.230  0.00  0.00     0.005 C 
ATOM     51  H7  8BO d   1       6.838  -0.772  24.741  0.00  0.00     0.066 H 
ATOM     52  H8  8BO d   1       8.098  -1.742  25.578  0.00  0.00     0.066 H 
ATOM     53  H9  8BO d   1       8.576  -0.377  24.512  0.00  0.00     0.066 H 
ENDBRANCH  49  50
ENDBRANCH  35  49
ENDBRANCH  32  35
ENDBRANCH  29  32
ENDBRANCH  26  29
ENDBRANCH  24  26
BRANCH  24  54
ATOM     54  C22 8BO d   1      13.796   1.467  28.663  0.00  0.00    -0.072 C 
ATOM     55  H17 8BO d   1      14.645   1.937  29.181  0.00  0.00     0.028 H 
ATOM     56  H18 8BO d   1      14.160   0.632  28.046  0.00  0.00     0.028 H 
ATOM     57  H19 8BO d   1      13.077   1.089  29.405  0.00  0.00     0.028 H 
ENDBRANCH  24  54
ENDBRANCH   1  24
BRANCH   2  58
ATOM     58  C23 8BO d   1      12.721   4.326  25.266  0.00  0.00    -0.068 C 
ATOM     59  H21 8BO d   1      12.460   5.303  24.834  0.00  0.00     0.028 H 
ATOM     60  H22 8BO d   1      11.829   3.880  25.730  0.00  0.00     0.028 H 
ATOM     61  H23 8BO d   1      13.092   3.662  24.472  0.00  0.00     0.028 H 
ENDBRANCH   2  58
BRANCH  10  62
ATOM     62  C10 8BO d   1      14.929   7.297  22.778  0.00  0.00    -0.080 C 
ATOM     63  C4  8BO d   1      14.761   7.351  21.434  0.00  0.00    -0.074 C 
ATOM     64  C3  8BO d   1      14.531   8.723  20.827  0.00  0.00    -0.017 C 
ATOM     65  C5  8BO d   1      14.740   6.114  20.563  0.00  0.00    -0.017 C 
ATOM     66  C2  8BO d   1      15.161   8.853  19.438  0.00  0.00     0.062 C 
ATOM     67  H37 8BO d   1      14.973   9.482  21.489  0.00  0.00     0.043 H 
ATOM     68  H38 8BO d   1      13.448   8.896  20.742  0.00  0.00     0.043 H 
ATOM     69  C1  8BO d   1      14.700   7.692  18.595  0.00  0.00    -0.032 C 
ATOM     70  H39 8BO d   1      14.827   9.797  18.983  0.00  0.00     0.090 H 
ATOM     71  C6  8BO d   1      15.105   6.334  19.089  0.00  0.00     0.062 C 
ATOM     72  C7  8BO d   1      13.986   7.856  17.491  0.00  0.00    -0.114 C 
ATOM     73  H43 8BO d   1      16.195   6.237  18.977  0.00  0.00     0.090 H 
ATOM     74  H45 8BO d   1      13.711   8.858  17.164  0.00  0.00     0.067 H 
ATOM     75  H46 8BO d   1      13.674   6.989  16.910  0.00  0.00     0.067 H 
ATOM     76  H41 8BO d   1      13.725   5.691  20.601  0.00  0.00     0.043 H 
ATOM     77  H42 8BO d   1      15.454   5.391  20.984  0.00  0.00     0.043 H 
ATOM     78  H36 8BO d   1      14.935   8.242  23.318  0.00  0.00     0.083 H 
BRANCH  66  79
ATOM     79  O9  8BO d   1      16.599   8.839  19.480  0.00  0.00    -0.391 OA
ATOM     80  H40 8BO d   1      16.906   9.565  20.010  0.00  0.00     0.210 HD
ENDBRANCH  66  79
BRANCH  71  81
ATOM     81  O8  8BO d   1      14.464   5.319  18.322  0.00  0.00    -0.391 OA
ATOM     82  H44 8BO d   1      13.523   5.380  18.441  0.00  0.00     0.210 HD
ENDBRANCH  71  81
ENDBRANCH  10  62
TORSDOF 14
