REMARK  12 active torsions:
REMARK  status: ('A' for Active; 'I' for Inactive)
REMARK    1  A    between atoms: C24_2  and  C25_3 
REMARK    2  A    between atoms: C24_2  and  C23_10 
REMARK    3  A    between atoms: C28_6  and  O29_7 
REMARK    4  A    between atoms: C23_10  and  C20_11 
REMARK    5  A    between atoms: C20_11  and  C19_12 
REMARK    6  A    between atoms: C19_12  and  C18_13 
REMARK    7  A    between atoms: C18_13  and  C22_14 
REMARK    8  A    between atoms: C18_13  and  C17_15 
REMARK    9  A    between atoms: C13_16  and  C21_17 
REMARK   10  A    between atoms: C8_25  and  C7_26 
REMARK   11  A    between atoms: C4_30  and  O2_31 
REMARK   12  A    between atoms: C2_34  and  O1_35 
ROOT
ATOM      1  C17 8BL d   1      13.535   3.124  27.059  0.00  0.00    -0.043 C 
ATOM      2  C13 8BL d   1      13.467   4.527  26.431  0.00  0.00    -0.033 C 
ATOM      3  C12 8BL d   1      13.410   5.656  27.421  0.00  0.00    -0.057 C 
ATOM      4  C11 8BL d   1      13.815   6.983  26.767  0.00  0.00    -0.061 C 
ATOM      5  C10 8BL d   1      15.013   6.907  25.806  0.00  0.00    -0.044 C 
ATOM      6  C16 8BL d   1      13.991   2.207  25.925  0.00  0.00    -0.060 C 
ATOM      7  C15 8BL d   1      14.931   3.088  25.101  0.00  0.00    -0.057 C 
ATOM      8  C14 8BL d   1      14.821   4.480  25.747  0.00  0.00    -0.025 C 
ATOM      9  C9  8BL d   1      14.888   5.719  24.919  0.00  0.00    -0.075 C 
ATOM     10  C8  8BL d   1      14.842   5.747  23.569  0.00  0.00    -0.080 C 
ATOM     11  H16 8BL d   1      14.367   3.141  27.779  0.00  0.00     0.041 H 
ATOM     12  H20 8BL d   1      14.097   5.440  28.252  0.00  0.00     0.034 H 
ATOM     13  H21 8BL d   1      12.384   5.744  27.807  0.00  0.00     0.034 H 
ATOM     14  H22 8BL d   1      14.068   7.693  27.568  0.00  0.00     0.033 H 
ATOM     15  H23 8BL d   1      12.950   7.361  26.202  0.00  0.00     0.033 H 
ATOM     16  H24 8BL d   1      15.942   6.828  26.390  0.00  0.00     0.039 H 
ATOM     17  H25 8BL d   1      15.043   7.818  25.190  0.00  0.00     0.039 H 
ATOM     18  H26 8BL d   1      13.134   1.875  25.320  0.00  0.00     0.033 H 
ATOM     19  H27 8BL d   1      14.523   1.329  26.320  0.00  0.00     0.033 H 
ATOM     20  H28 8BL d   1      14.610   3.121  24.049  0.00  0.00     0.034 H 
ATOM     21  H29 8BL d   1      15.964   2.714  25.158  0.00  0.00     0.034 H 
ATOM     22  H30 8BL d   1      15.624   4.549  26.495  0.00  0.00     0.048 H 
ATOM     23  H31 8BL d   1      14.774   4.814  23.012  0.00  0.00     0.083 H 
ENDROOT
BRANCH   1  24
ATOM     24  C18 8BL d   1      12.334   2.744  27.905  0.00  0.00    -0.053 C 
ATOM     25  H12 8BL d   1      11.982   3.672  28.380  0.00  0.00     0.040 H 
BRANCH  24  26
ATOM     26  C19 8BL d   1      11.105   2.141  27.231  0.00  0.00    -0.061 C 
ATOM     27  H10 8BL d   1      10.907   2.660  26.282  0.00  0.00     0.033 H 
ATOM     28  H11 8BL d   1      11.272   1.071  27.037  0.00  0.00     0.033 H 
BRANCH  26  29
ATOM     29  C20 8BL d   1       9.920   2.318  28.177  0.00  0.00    -0.058 C 
ATOM     30  H8  8BL d   1      10.061   1.644  29.035  0.00  0.00     0.033 H 
ATOM     31  H9  8BL d   1       9.913   3.361  28.528  0.00  0.00     0.033 H 
BRANCH  29  32
ATOM     32  C23 8BL d   1       8.559   2.016  27.552  0.00  0.00    -0.005 C 
ATOM     33  H6  8BL d   1       7.756   2.380  28.210  0.00  0.00     0.044 H 
ATOM     34  H7  8BL d   1       8.480   2.507  26.571  0.00  0.00     0.044 H 
BRANCH  32  35
ATOM     35  C24 8BL d   1       8.450   0.522  27.388  0.00  0.00     0.159 C 
ATOM     36  O25 8BL d   1       9.049   0.025  26.435  0.00  0.00    -0.292 OA
BRANCH  35  37
ATOM     37  C25 8BL d   1       7.634  -0.413  28.241  0.00  0.00     0.010 A 
ATOM     38  C30 8BL d   1       7.656  -1.807  27.956  0.00  0.00    -0.067 A 
ATOM     39  C29 8BL d   1       6.864  -2.692  28.690  0.00  0.00    -0.050 A 
ATOM     40  H1  8BL d   1       8.292  -2.184  27.163  0.00  0.00     0.085 H 
ATOM     41  C28 8BL d   1       6.026  -2.214  29.720  0.00  0.00     0.065 A 
ATOM     42  H2  8BL d   1       6.893  -3.752  28.467  0.00  0.00     0.087 H 
ATOM     43  C27 8BL d   1       6.000  -0.840  29.968  0.00  0.00    -0.050 A 
ATOM     44  C26 8BL d   1       6.810   0.050  29.235  0.00  0.00    -0.067 A 
ATOM     45  H4  8BL d   1       5.345  -0.451  30.739  0.00  0.00     0.087 H 
ATOM     46  H5  8BL d   1       6.782   1.110  29.459  0.00  0.00     0.085 H 
BRANCH  41  47
ATOM     47  O29 8BL d   1       5.205  -3.081  30.450  0.00  0.00    -0.361 OA
ATOM     48  H3  8BL d   1       4.717  -2.584  31.096  0.00  0.00     0.217 HD
ENDBRANCH  41  47
ENDBRANCH  35  37
ENDBRANCH  32  35
ENDBRANCH  29  32
ENDBRANCH  26  29
ENDBRANCH  24  26
BRANCH  24  49
ATOM     49  C22 8BL d   1      12.865   1.828  28.994  0.00  0.00    -0.072 C 
ATOM     50  H13 8BL d   1      13.749   2.288  29.461  0.00  0.00     0.028 H 
ATOM     51  H14 8BL d   1      13.145   0.859  28.554  0.00  0.00     0.028 H 
ATOM     52  H15 8BL d   1      12.086   1.674  29.756  0.00  0.00     0.028 H 
ENDBRANCH  24  49
ENDBRANCH   1  24
BRANCH   2  53
ATOM     53  C21 8BL d   1      12.360   4.723  25.372  0.00  0.00    -0.068 C 
ATOM     54  H17 8BL d   1      12.398   5.753  24.988  0.00  0.00     0.028 H 
ATOM     55  H18 8BL d   1      11.377   4.538  25.830  0.00  0.00     0.028 H 
ATOM     56  H19 8BL d   1      12.517   4.017  24.543  0.00  0.00     0.028 H 
ENDBRANCH   2  53
BRANCH  10  57
ATOM     57  C7  8BL d   1      14.882   7.013  22.852  0.00  0.00    -0.080 C 
ATOM     58  C6  8BL d   1      14.694   7.178  21.529  0.00  0.00    -0.074 C 
ATOM     59  C1  8BL d   1      14.774   8.627  21.044  0.00  0.00    -0.017 C 
ATOM     60  C5  8BL d   1      14.410   6.042  20.582  0.00  0.00    -0.017 C 
ATOM     61  C2  8BL d   1      15.163   8.830  19.569  0.00  0.00     0.062 C 
ATOM     62  H33 8BL d   1      15.520   9.147  21.662  0.00  0.00     0.043 H 
ATOM     63  H34 8BL d   1      13.787   9.087  21.197  0.00  0.00     0.043 H 
ATOM     64  C3  8BL d   1      14.752   7.632  18.752  0.00  0.00    -0.032 C 
ATOM     65  H41 8BL d   1      14.591   9.694  19.199  0.00  0.00     0.090 H 
ATOM     66  C4  8BL d   1      15.099   6.290  19.250  0.00  0.00     0.062 C 
ATOM     67  C33 8BL d   1      14.010   7.797  17.655  0.00  0.00    -0.114 C 
ATOM     68  H37 8BL d   1      16.191   6.201  19.351  0.00  0.00     0.090 H 
ATOM     69  H39 8BL d   1      13.767   8.800  17.308  0.00  0.00     0.067 H 
ATOM     70  H40 8BL d   1      13.647   6.928  17.107  0.00  0.00     0.067 H 
ATOM     71  H35 8BL d   1      13.325   5.964  20.422  0.00  0.00     0.043 H 
ATOM     72  H36 8BL d   1      14.784   5.103  21.017  0.00  0.00     0.043 H 
ATOM     73  H32 8BL d   1      15.082   7.908  23.439  0.00  0.00     0.083 H 
BRANCH  61  74
ATOM     74  O1  8BL d   1      16.536   9.138  19.389  0.00  0.00    -0.391 OA
ATOM     75  H42 8BL d   1      16.699   9.329  18.473  0.00  0.00     0.210 HD
ENDBRANCH  61  74
BRANCH  66  76
ATOM     76  O2  8BL d   1      14.589   5.285  18.370  0.00  0.00    -0.391 OA
ATOM     77  H38 8BL d   1      13.646   5.377  18.298  0.00  0.00     0.210 HD
ENDBRANCH  66  76
ENDBRANCH  10  57
TORSDOF 12
