REMARK  13 active torsions:
REMARK  status: ('A' for Active; 'I' for Inactive)
REMARK    1  A    between atoms: O35_1  and  C26_2 
REMARK    2  A    between atoms: C23_7  and  C22_8 
REMARK    3  A    between atoms: C22_8  and  O34_9 
REMARK    4  A    between atoms: C22_8  and  C21_10 
REMARK    5  A    between atoms: C21_10  and  C20_11 
REMARK    6  A    between atoms: C20_11  and  C19_12 
REMARK    7  A    between atoms: C19_12  and  C18_13 
REMARK    8  A    between atoms: C18_13  and  C33_14 
REMARK    9  A    between atoms: C18_13  and  C17_15 
REMARK   10  A    between atoms: C13_16  and  C32_17 
REMARK   11  A    between atoms: C8_25  and  C7_26 
REMARK   12  A    between atoms: C4_30  and  O30_31 
REMARK   13  A    between atoms: C2_34  and  O29_35 
ROOT
ATOM      1  C17 8BF d   1      14.386   3.093  26.720  0.00  0.00    -0.043 C 
ATOM      2  C13 8BF d   1      13.929   4.432  26.158  0.00  0.00    -0.033 C 
ATOM      3  C12 8BF d   1      13.493   5.481  27.166  0.00  0.00    -0.057 C 
ATOM      4  C11 8BF d   1      13.445   6.872  26.529  0.00  0.00    -0.061 C 
ATOM      5  C10 8BF d   1      14.732   7.268  25.777  0.00  0.00    -0.044 C 
ATOM      6  C16 8BF d   1      15.267   2.511  25.610  0.00  0.00    -0.060 C 
ATOM      7  C15 8BF d   1      15.867   3.689  24.857  0.00  0.00    -0.057 C 
ATOM      8  C14 8BF d   1      15.253   4.872  25.575  0.00  0.00    -0.025 C 
ATOM      9  C9  8BF d   1      15.067   6.142  24.832  0.00  0.00    -0.075 C 
ATOM     10  C8  8BF d   1      15.214   6.209  23.507  0.00  0.00    -0.080 C 
ATOM     11  H18 8BF d   1      15.046   3.314  27.572  0.00  0.00     0.041 H 
ATOM     12  H22 8BF d   1      14.207   5.494  28.003  0.00  0.00     0.034 H 
ATOM     13  H23 8BF d   1      12.492   5.223  27.542  0.00  0.00     0.034 H 
ATOM     14  H24 8BF d   1      13.270   7.610  27.325  0.00  0.00     0.033 H 
ATOM     15  H25 8BF d   1      12.608   6.896  25.816  0.00  0.00     0.033 H 
ATOM     16  H26 8BF d   1      15.555   7.416  26.492  0.00  0.00     0.039 H 
ATOM     17  H27 8BF d   1      14.566   8.197  25.211  0.00  0.00     0.039 H 
ATOM     18  H28 8BF d   1      14.660   1.896  24.929  0.00  0.00     0.033 H 
ATOM     19  H29 8BF d   1      16.067   1.894  26.046  0.00  0.00     0.033 H 
ATOM     20  H30 8BF d   1      15.579   3.673  23.796  0.00  0.00     0.034 H 
ATOM     21  H31 8BF d   1      16.964   3.698  24.939  0.00  0.00     0.034 H 
ATOM     22  H32 8BF d   1      15.930   5.108  26.409  0.00  0.00     0.048 H 
ATOM     23  H33 8BF d   1      15.513   5.311  22.968  0.00  0.00     0.083 H 
ENDROOT
BRANCH   1  24
ATOM     24  C18 8BF d   1      13.309   2.166  27.302  0.00  0.00    -0.053 C 
ATOM     25  H14 8BF d   1      12.395   2.763  27.439  0.00  0.00     0.040 H 
BRANCH  24  26
ATOM     26  C19 8BF d   1      12.960   0.974  26.414  0.00  0.00    -0.061 C 
ATOM     27  H12 8BF d   1      12.514   1.348  25.481  0.00  0.00     0.033 H 
ATOM     28  H13 8BF d   1      13.884   0.423  26.184  0.00  0.00     0.033 H 
BRANCH  26  29
ATOM     29  C20 8BF d   1      11.966   0.011  27.083  0.00  0.00    -0.062 C 
ATOM     30  H10 8BF d   1      12.532  -0.780  27.597  0.00  0.00     0.033 H 
ATOM     31  H11 8BF d   1      11.371   0.572  27.818  0.00  0.00     0.033 H 
BRANCH  29  32
ATOM     32  C21 8BF d   1      11.007  -0.646  26.066  0.00  0.00    -0.037 C 
ATOM     33  H8  8BF d   1      10.660   0.126  25.363  0.00  0.00     0.037 H 
ATOM     34  H9  8BF d   1      11.559  -1.422  25.516  0.00  0.00     0.037 H 
BRANCH  32  35
ATOM     35  C22 8BF d   1       9.773  -1.297  26.729  0.00  0.00     0.061 C 
ATOM     36  H6  8BF d   1       9.233  -1.837  25.937  0.00  0.00     0.090 H 
BRANCH  35  37
ATOM     37  C23 8BF d   1       8.840  -0.287  27.317  0.00  0.00    -0.029 A 
ATOM     38  C24 8BF d   1       9.009   1.105  27.177  0.00  0.00    -0.072 A 
ATOM     39  C25 8BF d   1       8.102   1.976  27.750  0.00  0.00    -0.050 A 
ATOM     40  H3  8BF d   1       9.853   1.494  26.618  0.00  0.00     0.084 H 
ATOM     41  C26 8BF d   1       7.030   1.461  28.463  0.00  0.00     0.065 A 
ATOM     42  H2  8BF d   1       8.227   3.047  27.643  0.00  0.00     0.087 H 
ATOM     43  C27 8BF d   1       6.851   0.105  28.610  0.00  0.00    -0.050 A 
ATOM     44  C28 8BF d   1       7.751  -0.779  28.040  0.00  0.00    -0.072 A 
ATOM     45  H4  8BF d   1       6.005  -0.272  29.173  0.00  0.00     0.087 H 
ATOM     46  H5  8BF d   1       7.611  -1.848  28.154  0.00  0.00     0.084 H 
BRANCH  41  47
ATOM     47  O35 8BF d   1       6.110   2.273  29.031  0.00  0.00    -0.361 OA
ATOM     48  H1  8BF d   1       6.537   2.843  29.659  0.00  0.00     0.217 HD
ENDBRANCH  41  47
ENDBRANCH  35  37
BRANCH  35  49
ATOM     49  O34 8BF d   1      10.106  -2.252  27.767  0.00  0.00    -0.391 OA
ATOM     50  H7  8BF d   1      10.700  -2.905  27.416  0.00  0.00     0.210 HD
ENDBRANCH  35  49
ENDBRANCH  32  35
ENDBRANCH  29  32
ENDBRANCH  26  29
ENDBRANCH  24  26
BRANCH  24  51
ATOM     51  C33 8BF d   1      13.763   1.639  28.670  0.00  0.00    -0.072 C 
ATOM     52  H15 8BF d   1      14.019   2.486  29.323  0.00  0.00     0.028 H 
ATOM     53  H16 8BF d   1      14.646   0.996  28.541  0.00  0.00     0.028 H 
ATOM     54  H17 8BF d   1      12.950   1.056  29.127  0.00  0.00     0.028 H 
ENDBRANCH  24  51
ENDBRANCH   1  24
BRANCH   2  55
ATOM     55  C32 8BF d   1      12.839   4.289  25.091  0.00  0.00    -0.068 C 
ATOM     56  H19 8BF d   1      12.552   5.286  24.725  0.00  0.00     0.028 H 
ATOM     57  H20 8BF d   1      11.961   3.792  25.528  0.00  0.00     0.028 H 
ATOM     58  H21 8BF d   1      13.222   3.687  24.254  0.00  0.00     0.028 H 
ENDBRANCH   2  55
BRANCH  10  59
ATOM     59  C7  8BF d   1      14.990   7.439  22.753  0.00  0.00    -0.080 C 
ATOM     60  C6  8BF d   1      14.854   7.468  21.409  0.00  0.00    -0.074 C 
ATOM     61  C1  8BF d   1      14.975   6.201  20.578  0.00  0.00    -0.017 C 
ATOM     62  C5  8BF d   1      14.572   8.816  20.761  0.00  0.00    -0.017 C 
ATOM     63  C2  8BF d   1      15.324   6.372  19.109  0.00  0.00     0.062 C 
ATOM     64  H35 8BF d   1      14.010   5.676  20.631  0.00  0.00     0.043 H 
ATOM     65  H36 8BF d   1      15.758   5.578  21.035  0.00  0.00     0.043 H 
ATOM     66  C3  8BF d   1      14.805   7.679  18.594  0.00  0.00    -0.032 C 
ATOM     67  H43 8BF d   1      16.416   6.358  18.977  0.00  0.00     0.090 H 
ATOM     68  C4  8BF d   1      15.223   8.890  19.374  0.00  0.00     0.062 C 
ATOM     69  C31 8BF d   1      14.025   7.804  17.530  0.00  0.00    -0.114 C 
ATOM     70  H39 8BF d   1      14.880   9.804  18.866  0.00  0.00     0.090 H 
ATOM     71  H41 8BF d   1      13.725   6.921  16.968  0.00  0.00     0.067 H 
ATOM     72  H42 8BF d   1      13.684   8.790  17.218  0.00  0.00     0.067 H 
ATOM     73  H37 8BF d   1      14.980   9.616  21.396  0.00  0.00     0.043 H 
ATOM     74  H38 8BF d   1      13.485   8.948  20.658  0.00  0.00     0.043 H 
ATOM     75  H34 8BF d   1      14.930   8.379  23.300  0.00  0.00     0.083 H 
BRANCH  63  76
ATOM     76  O29 8BF d   1      14.754   5.232  18.465  0.00  0.00    -0.391 OA
ATOM     77  H44 8BF d   1      13.813   5.234  18.595  0.00  0.00     0.210 HD
ENDBRANCH  63  76
BRANCH  68  78
ATOM     78  O30 8BF d   1      16.661   8.890  19.427  0.00  0.00    -0.391 OA
ATOM     79  H40 8BF d   1      16.958   9.642  19.926  0.00  0.00     0.210 HD
ENDBRANCH  68  78
ENDBRANCH  10  59
TORSDOF 13
