REMARK  3 active torsions:
REMARK  status: ('A' for Active; 'I' for Inactive)
REMARK    1  A    between atoms: C07_9  and  C10_1 
REMARK    2  A    between atoms: N02_4  and  C01_3 
REMARK       I    between atoms: C03_5  and  N02_4 
REMARK    3  A    between atoms: C05_7  and  C03_5 
ROOT
ATOM      1  C05 8CC d   1      -6.378 -13.580  12.742  0.00  0.00     0.101 A 
ATOM      2  C06 8CC d   1      -6.629 -12.847  11.575  0.00  0.00    -0.040 A 
ATOM      3  C07 8CC d   1      -7.698 -12.005  11.883  0.00  0.00    -0.008 A 
ATOM      4  C08 8CC d   1      -8.038 -12.207  13.250  0.00  0.00    -0.012 A 
ATOM      5  N09 8CC d   1      -7.222 -13.192  13.747  0.00  0.00    -0.361 N 
ATOM      6  H6  8CC d   1      -6.100 -12.919  10.626  0.00  0.00     0.088 H 
ATOM      7  H7  8CC d   1      -8.809 -11.674  13.804  0.00  0.00     0.112 H 
ATOM      8  H8  8CC d   1      -7.241 -13.571  14.704  0.00  0.00     0.165 HD
ENDROOT
BRANCH   3   9
ATOM      9  C10 8CC d   1      -8.289 -10.983  11.021  0.00  0.00    -0.022 A 
ATOM     10  C15 8CC d   1      -9.095  -9.966  11.629  0.00  0.00    -0.055 A 
ATOM     11  C14 8CC d   1      -9.624  -8.907  10.886  0.00  0.00     0.003 A 
ATOM     12  H1  8CC d   1      -9.300 -10.019  12.692  0.00  0.00     0.087 H 
ATOM     13  N13 8CC d   1      -9.342  -8.849   9.564  0.00  0.00    -0.273 NA
ATOM     14  H11 8CC d   1     -10.244  -8.152  11.356  0.00  0.00     0.114 H 
ATOM     15  C12 8CC d   1      -8.523  -9.774   8.953  0.00  0.00     0.003 A 
ATOM     16  C11 8CC d   1      -7.963 -10.872   9.665  0.00  0.00    -0.055 A 
ATOM     17  H10 8CC d   1      -8.299  -9.662   7.898  0.00  0.00     0.114 H 
ATOM     18  H9  8CC d   1      -7.313 -11.590   9.178  0.00  0.00     0.087 H 
ENDBRANCH   3   9
BRANCH   1  19
ATOM     19  C03 8CC d   1      -5.339 -14.626  12.925  0.00  0.00     0.267 C 
ATOM     20  N02 8CC d   1      -4.411 -14.850  11.845  0.00  0.00    -0.360 N 
ATOM     21  H5  8CC d   1      -4.502 -14.311  11.008  0.00  0.00     0.162 HD
ATOM     22  O04 8CC d   1      -5.322 -15.222  13.984  0.00  0.00    -0.266 OA
BRANCH  20  23
ATOM     23  C01 8CC d   1      -3.349 -15.834  11.936  0.00  0.00    -0.018 C 
ATOM     24  H2  8CC d   1      -2.768 -15.833  11.002  0.00  0.00     0.056 H 
ATOM     25  H3  8CC d   1      -3.785 -16.831  12.095  0.00  0.00     0.056 H 
ATOM     26  H4  8CC d   1      -2.688 -15.584  12.779  0.00  0.00     0.056 H 
ENDBRANCH  20  23
ENDBRANCH   1  19
TORSDOF 3
