REMARK  2 active torsions:
REMARK  status: ('A' for Active; 'I' for Inactive)
REMARK    1  A    between atoms: C07_9  and  C10_1 
REMARK       I    between atoms: C02_4  and  N01_3 
REMARK    2  A    between atoms: C04_6  and  C02_4 
ROOT
ATOM      1  C04 8D6 d   1       6.214  24.092 -11.701  0.00  0.00     0.123 A 
ATOM      2  C05 8D6 d   1       7.386  24.837 -11.676  0.00  0.00     0.078 A 
ATOM      3 CL06 8D6 d   1       8.664  24.688 -12.840  0.00  0.00    -0.081 Cl
ATOM      4  C07 8D6 d   1       7.354  25.655 -10.562  0.00  0.00     0.014 A 
ATOM      5  C08 8D6 d   1       6.131  25.417  -9.939  0.00  0.00    -0.010 A 
ATOM      6  N09 8D6 d   1       5.462  24.460 -10.628  0.00  0.00    -0.359 N 
ATOM      7  H4  8D6 d   1       5.770  25.919  -9.043  0.00  0.00     0.112 H 
ATOM      8  H5  8D6 d   1       4.539  24.076 -10.381  0.00  0.00     0.165 HD
ENDROOT
BRANCH   4   9
ATOM      9  C10 8D6 d   1       8.313  26.710 -10.104  0.00  0.00    -0.020 A 
ATOM     10  C15 8D6 d   1       8.333  27.111  -8.757  0.00  0.00    -0.055 A 
ATOM     11  C14 8D6 d   1       9.182  28.135  -8.337  0.00  0.00     0.003 A 
ATOM     12  H1  8D6 d   1       7.684  26.621  -8.040  0.00  0.00     0.087 H 
ATOM     13  N13 8D6 d   1       9.944  28.780  -9.249  0.00  0.00    -0.273 NA
ATOM     14  H8  8D6 d   1       9.230  28.411  -7.290  0.00  0.00     0.114 H 
ATOM     15  C12 8D6 d   1       9.934  28.447 -10.564  0.00  0.00     0.003 A 
ATOM     16  C11 8D6 d   1       9.108  27.419 -11.022  0.00  0.00    -0.055 A 
ATOM     17  H7  8D6 d   1      10.569  28.981 -11.261  0.00  0.00     0.114 H 
ATOM     18  H6  8D6 d   1       9.080  27.169 -12.076  0.00  0.00     0.087 H 
ENDBRANCH   4   9
BRANCH   1  19
ATOM     19  C02 8D6 d   1       5.812  23.063 -12.702  0.00  0.00     0.267 C 
ATOM     20  N01 8D6 d   1       4.752  22.176 -12.360  0.00  0.00    -0.365 N 
ATOM     21  H2  8D6 d   1       4.320  22.236 -11.460  0.00  0.00     0.159 HD
ATOM     22  H3  8D6 d   1       4.439  21.493 -13.020  0.00  0.00     0.159 HD
ATOM     23  O03 8D6 d   1       6.334  22.984 -13.802  0.00  0.00    -0.266 OA
ENDBRANCH   1  19
TORSDOF 2
