REMARK  13 active torsions:
REMARK  status: ('A' for Active; 'I' for Inactive)
REMARK    1  A    between atoms: O3_22  and  C1_1 
REMARK    2  A    between atoms: C2_2  and  O2_7 
REMARK    3  A    between atoms: C3_3  and  O3_8 
REMARK    4  A    between atoms: C5_5  and  C6_6 
REMARK    5  A    between atoms: C1_12  and  O1_21 
REMARK    6  A    between atoms: N_20  and  C2_13 
REMARK    7  A    between atoms: C3_14  and  O3_22 
REMARK    8  A    between atoms: C4_15  and  O4_23 
REMARK    9  A    between atoms: C5_16  and  C6_17 
REMARK   10  A    between atoms: C6_17  and  O6_25 
REMARK   11  A    between atoms: C7_18  and  C8_19 
REMARK       I    between atoms: C7_18  and  N_20 
REMARK   12  A    between atoms: O4_23  and  S2_31 
REMARK   13  A    between atoms: O6_25  and  S1_30 
ROOT
ATOM      1  H7  GCD d   1      -1.538   0.535   0.339  0.00  0.00     0.132 H 
ATOM      2  H8  GCD d   1      -4.648   0.823   0.783  0.00  0.00     0.084 H 
ATOM      3  H9  GCD d   1      -2.526  -0.363   2.599  0.00  0.00     0.091 H 
ATOM      4  H10 GCD d   1      -3.622  -2.517   2.008  0.00  0.00     0.093 H 
ATOM      5  H11 GCD d   1      -1.853  -1.790   0.428  0.00  0.00     0.091 H 
ATOM      6  C1  8EX d   1      -2.607   0.543   0.078  0.00  0.00     0.151 C 
ATOM      7  C2  8EX d   1      -3.626   0.779   1.188  0.00  0.00     0.087 C 
ATOM      8  C3  8EX d   1      -3.520  -0.336   2.128  0.00  0.00     0.094 C 
ATOM      9  C4  8EX d   1      -3.798  -1.647   1.358  0.00  0.00     0.114 C 
ATOM     10  C5  8EX d   1      -2.908  -1.736   0.120  0.00  0.00     0.092 C 
ATOM     11  O5  8EX d   1      -3.110  -0.541  -0.730  0.00  0.00    -0.349 OA
ENDROOT
BRANCH   8  12
ATOM     12  O3  8EX d   1      -4.553  -0.161   3.114  0.00  0.00    -0.348 OA
BRANCH  12  13
ATOM     13  C1  GCD d   1      -4.092  -0.657   4.361  0.00  0.00     0.165 C 
ATOM     14  C2  GCD d   1      -4.628   0.247   5.483  0.00  0.00     0.111 C 
ATOM     15  C3  GCD d   1      -4.128  -0.268   6.835  0.00  0.00     0.084 C 
ATOM     16  H2  GCD d   1      -5.726   0.181   5.481  0.00  0.00     0.095 H 
ATOM     17  C4  GCD d   1      -4.315  -1.787   6.935  0.00  0.00    -0.034 C 
ATOM     18  H3  GCD d   1      -3.069  -0.011   6.983  0.00  0.00     0.093 H 
ATOM     19  C5  GCD d   1      -4.490  -2.526   5.837  0.00  0.00     0.147 C 
ATOM     20  H4  GCD d   1      -4.305  -2.268   7.912  0.00  0.00     0.085 H 
ATOM     21  O5  GCD d   1      -4.544  -2.003   4.498  0.00  0.00    -0.311 OA
ATOM     22  H1  GCD d   1      -2.992  -0.642   4.384  0.00  0.00     0.134 H 
BRANCH  14  23
ATOM     23  O2  GCD d   1      -4.274   1.631   5.257  0.00  0.00    -0.388 OA
ATOM     24  H5  GCD d   1      -4.603   1.907   4.410  0.00  0.00     0.210 HD
ENDBRANCH  14  23
BRANCH  15  25
ATOM     25  O3  GCD d   1      -4.950   0.381   7.800  0.00  0.00    -0.389 OA
ATOM     26  H6  GCD d   1      -5.860   0.164   7.636  0.00  0.00     0.210 HD
ENDBRANCH  15  25
BRANCH  19  27
ATOM     27  C6  GCD d   1      -4.570  -4.001   5.936  0.00  0.00     0.233 C 
ATOM     28  O6A GCD d   1      -4.716  -4.599   4.856  0.00  0.00    -0.642 OA
ATOM     29  O6B GCD d   1      -4.422  -4.536   7.047  0.00  0.00    -0.642 OA
ENDBRANCH  19  27
ENDBRANCH  12  13
ENDBRANCH   8  12
BRANCH   7  30
ATOM     30  N   8EX d   1      -3.266   2.081   1.791  0.00  0.00    -0.349 N 
ATOM     31  C7  8EX d   1      -4.092   3.094   1.887  0.00  0.00     0.214 C 
ATOM     32  O7  8EX d   1      -5.272   3.046   1.553  0.00  0.00    -0.274 OA
ATOM     33  H17 GCD d   1      -2.338   2.195   2.146  0.00  0.00     0.163 HD
BRANCH  31  34
ATOM     34  C8  8EX d   1      -3.532   4.360   2.582  0.00  0.00    -0.003 C 
ATOM     35  H14 GCD d   1      -4.308   5.139   2.605  0.00  0.00     0.040 H 
ATOM     36  H15 GCD d   1      -2.659   4.729   2.024  0.00  0.00     0.040 H 
ATOM     37  H16 GCD d   1      -3.232   4.111   3.611  0.00  0.00     0.040 H 
ENDBRANCH  31  34
ENDBRANCH   7  30
BRANCH   9  38
ATOM     38  O4  8EX d   1      -5.154  -1.598   0.947  0.00  0.00    -0.246 OA
BRANCH  38  39
ATOM     39  S2  8EX d   1      -6.135  -2.808   0.920  0.00  0.00     0.252 S 
ATOM     40  O5S 8EX d   1      -6.472  -2.984  -0.479  0.00  0.00    -0.572 OA
ATOM     41  O6S 8EX d   1      -5.426  -4.047   1.297  0.00  0.00    -0.572 OA
ATOM     42  O4S 8EX d   1      -7.293  -2.464   1.751  0.00  0.00    -0.572 OA
ENDBRANCH  38  39
ENDBRANCH   9  38
BRANCH   6  43
ATOM     43  O1  8EX d   1      -3.158   1.573  -0.713  0.00  0.00    -0.369 OA
ATOM     44  H18 GCD d   1      -2.808   1.516  -1.594  0.00  0.00     0.212 HD
ENDBRANCH   6  43
BRANCH  10  45
ATOM     45  C6  8EX d   1      -3.277  -2.996  -0.664  0.00  0.00     0.067 C 
ATOM     46  H12 GCD d   1      -4.353  -2.991  -0.891  0.00  0.00     0.080 H 
ATOM     47  H13 GCD d   1      -3.031  -3.889  -0.071  0.00  0.00     0.080 H 
BRANCH  45  48
ATOM     48  O6  8EX d   1      -2.551  -3.002  -1.841  0.00  0.00    -0.254 OA
BRANCH  48  49
ATOM     49  S1  8EX d   1      -1.517  -4.106  -1.949  0.00  0.00     0.251 S 
ATOM     50  O1S 8EX d   1      -1.257  -4.182  -3.435  0.00  0.00    -0.572 OA
ATOM     51  O2S 8EX d   1      -0.341  -3.585  -0.944  0.00  0.00    -0.572 OA
ATOM     52  O3S 8EX d   1      -2.022  -5.596  -1.690  0.00  0.00    -0.572 OA
ENDBRANCH  48  49
ENDBRANCH  45  48
ENDBRANCH  10  45
TORSDOF 13
