REMARK  1 active torsions:
REMARK  status: ('A' for Active; 'I' for Inactive)
REMARK    1  A    between atoms: C04_2  and  C02_1 
REMARK       I    between atoms: C02_1  and  N01_17 
ROOT
ATOM      1  C04 8E6 d   1      22.480 -14.775 -21.009  0.00  0.00     0.065 A 
ATOM      2  C05 8E6 d   1      21.124 -14.887 -21.105  0.00  0.00    -0.028 A 
ATOM      3  C06 8E6 d   1      20.466 -14.541 -22.329  0.00  0.00     0.119 A 
ATOM      4  C08 8E6 d   1      21.201 -14.076 -23.440  0.00  0.00    -0.018 A 
ATOM      5  C09 8E6 d   1      22.612 -13.965 -23.348  0.00  0.00     0.067 A 
ATOM      6  C11 8E6 d   1      24.779 -13.613 -23.564  0.00  0.00     0.146 A 
ATOM      7  C12 8E6 d   1      26.062 -13.378 -24.115  0.00  0.00     0.051 A 
ATOM      8  C13 8E6 d   1      26.384 -13.120 -25.449  0.00  0.00    -0.054 A 
ATOM      9  C14 8E6 d   1      27.767 -13.041 -25.726  0.00  0.00    -0.018 A 
ATOM     10  C15 8E6 d   1      28.578 -13.262 -24.662  0.00  0.00    -0.007 A 
ATOM     11  C17 8E6 d   1      30.075 -13.201 -24.735  0.00  0.00    -0.012 C 
ATOM     12  C18 8E6 d   1      30.563 -12.515 -26.039  0.00  0.00     0.086 C 
ATOM     13  C20 8E6 d   1      28.359 -12.739 -27.094  0.00  0.00     0.106 C 
ATOM     14  C22 8E6 d   1      23.249 -14.311 -22.134  0.00  0.00     0.101 A 
ATOM     15  F07 8E6 d   1      19.078 -14.677 -22.393  0.00  0.00    -0.206 F 
ATOM     16  N10 8E6 d   1      23.577 -13.561 -24.206  0.00  0.00    -0.338 N 
ATOM     17  N19 8E6 d   1      29.807 -12.905 -27.197  0.00  0.00    -0.071 N 
ATOM     18  N21 8E6 d   1      24.579 -14.097 -22.326  0.00  0.00    -0.227 NA
ATOM     19  S16 8E6 d   1      27.554 -13.575 -23.306  0.00  0.00    -0.090 SA
ATOM     20  H1  8E6 d   1      20.546 -15.237 -20.257  0.00  0.00     0.089 H 
ATOM     21  H2  8E6 d   1      20.691 -13.806 -24.357  0.00  0.00     0.091 H 
ATOM     22  H3  8E6 d   1      25.625 -12.989 -26.219  0.00  0.00     0.086 H 
ATOM     23  H4  8E6 d   1      30.475 -14.225 -24.701  0.00  0.00     0.043 H 
ATOM     24  H5  8E6 d   1      30.450 -12.632 -23.872  0.00  0.00     0.043 H 
ATOM     25  H6  8E6 d   1      31.617 -12.783 -26.202  0.00  0.00     0.076 H 
ATOM     26  H7  8E6 d   1      30.477 -11.425 -25.915  0.00  0.00     0.076 H 
ATOM     27  H8  8E6 d   1      28.118 -11.696 -27.346  0.00  0.00     0.083 H 
ATOM     28  H9  8E6 d   1      27.887 -13.412 -27.825  0.00  0.00     0.083 H 
ATOM     29  H12 8E6 d   1      23.429 -13.264 -25.181  0.00  0.00     0.167 HD
ATOM     30  H13 8E6 d   1      29.995 -13.879 -27.376  0.00  0.00     0.277 HD
ATOM     31  H14 8E6 d   1      30.127 -12.352 -27.977  0.00  0.00     0.277 HD
ENDROOT
BRANCH   1  32
ATOM     32  C02 8E6 d   1      23.179 -15.180 -19.705  0.00  0.00     0.251 C 
ATOM     33  N01 8E6 d   1      24.633 -15.025 -19.566  0.00  0.00    -0.366 N 
ATOM     34  H10 8E6 d   1      25.085 -15.290 -18.714  0.00  0.00     0.159 HD
ATOM     35  H11 8E6 d   1      25.171 -14.654 -20.323  0.00  0.00     0.159 HD
ATOM     36  O03 8E6 d   1      22.548 -15.673 -18.798  0.00  0.00    -0.268 OA
ENDBRANCH   1  32
TORSDOF 1
