REMARK  2 active torsions:
REMARK  status: ('A' for Active; 'I' for Inactive)
REMARK    1  A    between atoms: C04_2  and  C02_1 
REMARK       I    between atoms: C02_1  and  N01_17 
REMARK    2  A    between atoms: C11_7  and  C12_8 
ROOT
ATOM      1  C04 8E3 d   1     -32.386  19.205 -24.389  0.00  0.00     0.063 A 
ATOM      2  C05 8E3 d   1     -32.394  18.577 -23.144  0.00  0.00    -0.028 A 
ATOM      3  C06 8E3 d   1     -33.355  18.913 -22.177  0.00  0.00     0.119 A 
ATOM      4  C08 8E3 d   1     -34.320  19.872 -22.477  0.00  0.00    -0.016 A 
ATOM      5  C09 8E3 d   1     -34.317  20.511 -23.744  0.00  0.00     0.090 A 
ATOM      6  C11 8E3 d   1     -34.668  21.727 -25.508  0.00  0.00     0.163 A 
ATOM      7  C22 8E3 d   1     -33.365  20.189 -24.691  0.00  0.00     0.079 A 
ATOM      8  F07 8E3 d   1     -33.380  18.304 -20.949  0.00  0.00    -0.206 F 
ATOM      9  N10 8E3 d   1     -35.116  21.475 -24.281  0.00  0.00    -0.226 NA
ATOM     10  N21 8E3 d   1     -33.597  20.968 -25.787  0.00  0.00    -0.336 N 
ATOM     11  H1  8E3 d   1     -31.650  17.821 -22.920  0.00  0.00     0.089 H 
ATOM     12  H2  8E3 d   1     -35.074  20.130 -21.742  0.00  0.00     0.091 H 
ATOM     13  H14 8E3 d   1     -33.053  20.973 -26.662  0.00  0.00     0.168 HD
ENDROOT
BRANCH   6  14
ATOM     14  C12 8E3 d   1     -35.256  22.659 -26.366  0.00  0.00     0.122 A 
ATOM     15  C13 8E3 d   1     -34.920  22.874 -27.681  0.00  0.00    -0.038 A 
ATOM     16  C14 8E3 d   1     -35.776  23.908 -28.168  0.00  0.00    -0.022 A 
ATOM     17  H3  8E3 d   1     -34.147  22.354 -28.245  0.00  0.00     0.088 H 
ATOM     18  C15 8E3 d   1     -36.586  24.270 -27.146  0.00  0.00     0.086 A 
ATOM     19  C20 8E3 d   1     -35.865  24.572 -29.562  0.00  0.00    -0.016 C 
ATOM     20  C17 8E3 d   1     -37.638  25.359 -27.325  0.00  0.00     0.126 C 
ATOM     21  O16 8E3 d   1     -36.256  23.493 -26.042  0.00  0.00    -0.309 OA
ATOM     22  N18 8E3 d   1     -38.035  25.602 -28.707  0.00  0.00    -0.069 N 
ATOM     23  H4  8E3 d   1     -37.234  26.296 -26.915  0.00  0.00     0.086 H 
ATOM     24  H5  8E3 d   1     -38.534  25.067 -26.758  0.00  0.00     0.086 H 
ATOM     25  C19 8E3 d   1     -36.871  25.774 -29.603  0.00  0.00     0.086 C 
ATOM     26  H12 8E3 d   1     -38.596  26.438 -28.741  0.00  0.00     0.277 HD
ATOM     27  H13 8E3 d   1     -38.580  24.818 -29.030  0.00  0.00     0.277 HD
ATOM     28  H6  8E3 d   1     -37.239  25.885 -30.634  0.00  0.00     0.076 H 
ATOM     29  H7  8E3 d   1     -36.335  26.687 -29.305  0.00  0.00     0.076 H 
ATOM     30  H8  8E3 d   1     -36.192  23.816 -30.291  0.00  0.00     0.042 H 
ATOM     31  H9  8E3 d   1     -34.867  24.941 -29.839  0.00  0.00     0.042 H 
ENDBRANCH   6  14
BRANCH   1  32
ATOM     32  C02 8E3 d   1     -31.333  18.847 -25.455  0.00  0.00     0.251 C 
ATOM     33  N01 8E3 d   1     -31.288  19.569 -26.721  0.00  0.00    -0.366 N 
ATOM     34  H10 8E3 d   1     -30.602  19.331 -27.408  0.00  0.00     0.159 HD
ATOM     35  H11 8E3 d   1     -31.944  20.302 -26.902  0.00  0.00     0.159 HD
ATOM     36  O03 8E3 d   1     -30.552  17.983 -25.260  0.00  0.00    -0.268 OA
ENDBRANCH   1  32
TORSDOF 2
