REMARK WARNING: 32 MAX_TORS EXCEEDED!!!
REMARK  66 active torsions:
REMARK  status: ('A' for Active; 'I' for Inactive)
REMARK    1  A    between atoms: N_1  and  CA_2 
REMARK    2  A    between atoms: CA_2  and  C_3 
REMARK    3  A    between atoms: CA_2  and  CB_5 
REMARK       I    between atoms: C_3  and  N_10 
REMARK    4  A    between atoms: CB_5  and  CG_6 
REMARK    5  A    between atoms: CG_6  and  CD_7 
REMARK    6  A    between atoms: CD_7  and  CE_8 
REMARK    7  A    between atoms: CE_8  and  NZ_9 
REMARK    8  A    between atoms: N_10  and  CA_11 
REMARK    9  A    between atoms: CA_11  and  C_12 
REMARK   10  A    between atoms: CA_11  and  CB_14 
REMARK       I    between atoms: C_12  and  N_18 
REMARK   11  A    between atoms: CB_14  and  CG1_15 
REMARK   12  A    between atoms: CB_14  and  CG2_16 
REMARK   13  A    between atoms: CG1_15  and  CD1_17 
REMARK   14  A    between atoms: N_18  and  CA_19 
REMARK   15  A    between atoms: CA_19  and  C_20 
REMARK   16  A    between atoms: CA_19  and  CB_22 
REMARK       I    between atoms: C_20  and  N_26 
REMARK   17  A    between atoms: CB_22  and  CG_23 
REMARK   18  A    between atoms: CG_23  and  CD1_24 
REMARK   19  A    between atoms: CG_23  and  CD2_25 
REMARK   20  A    between atoms: N_26  and  CA_27 
REMARK   21  A    between atoms: CA_27  and  C_28 
REMARK   22  A    between atoms: CA_27  and  CB_30 
REMARK       I    between atoms: C_28  and  N_34 
REMARK   23  A    between atoms: CB_30  and  CG_31 
REMARK   24  A    between atoms: CG_31  and  CD1_32 
REMARK   25  A    between atoms: CG_31  and  CD2_33 
REMARK   26  A    between atoms: N_34  and  CA_35 
REMARK   27  A    between atoms: CA_35  and  C_36 
REMARK   28  A    between atoms: CA_35  and  CB_38 
REMARK       I    between atoms: C_36  and  N_41 
REMARK   29  A    between atoms: CB_38  and  OG1_39 
REMARK   30  A    between atoms: CB_38  and  CG2_40 
REMARK   31  A    between atoms: CA_42  and  C_43 
REMARK       I    between atoms: C_43  and  N_48 
REMARK   32  A    between atoms: N_48  and  CA_49 
REMARK   33  A    between atoms: CA_49  and  C_50 
REMARK   34  A    between atoms: CA_49  and  CB_52 
REMARK       I    between atoms: C_50  and  N_59 
REMARK   35  A    between atoms: CB_52  and  CG_53 
REMARK   36  A    between atoms: CG_53  and  CD_54 
REMARK   37  A    between atoms: CD_54  and  NE_55 
REMARK       I    between atoms: NE_55  and  CZ_56 
REMARK       I    between atoms: CZ_56  and  NH1_57 
REMARK       I    between atoms: CZ_56  and  NH2_58 
REMARK   38  A    between atoms: N_59  and  CA_60 
REMARK   39  A    between atoms: CA_60  and  C_61 
REMARK   40  A    between atoms: CA_60  and  CB_63 
REMARK       I    between atoms: C_61  and  N_70 
REMARK   41  A    between atoms: CB_63  and  CG_64 
REMARK   42  A    between atoms: CG_64  and  CD_65 
REMARK   43  A    between atoms: CD_65  and  NE_66 
REMARK       I    between atoms: NE_66  and  CZ_67 
REMARK       I    between atoms: CZ_67  and  NH1_68 
REMARK       I    between atoms: CZ_67  and  NH2_69 
REMARK   44  A    between atoms: N_70  and  CA_71 
REMARK   45  A    between atoms: CA_71  and  C_72 
REMARK   46  A    between atoms: CA_71  and  CB_74 
REMARK       I    between atoms: C_72  and  N_81 
REMARK   47  A    between atoms: CB_74  and  CG_75 
REMARK   48  A    between atoms: CG_75  and  CD_76 
REMARK   49  A    between atoms: CD_76  and  NE_77 
REMARK       I    between atoms: NE_77  and  CZ_78 
REMARK       I    between atoms: CZ_78  and  NH1_79 
REMARK       I    between atoms: CZ_78  and  NH2_80 
REMARK   50  A    between atoms: N_81  and  CA_82 
REMARK   51  A    between atoms: CA_82  and  C_83 
REMARK   52  A    between atoms: CA_82  and  CB_85 
REMARK       I    between atoms: C_83  and  N_90 
REMARK   53  A    between atoms: CB_85  and  CG_86 
REMARK   54  A    between atoms: CG_86  and  CD_87 
REMARK       I    between atoms: CD_87  and  NE2_89 
REMARK   55  A    between atoms: N_90  and  CA_91 
REMARK   56  A    between atoms: CA_91  and  C_92 
REMARK   57  A    between atoms: CA_91  and  CB_94 
REMARK       I    between atoms: C_92  and  N_101 
REMARK   58  A    between atoms: CB_94  and  CG_95 
REMARK   59  A    between atoms: CG_95  and  CD_96 
REMARK   60  A    between atoms: CD_96  and  NE_97 
REMARK       I    between atoms: NE_97  and  CZ_98 
REMARK       I    between atoms: CZ_98  and  NH1_99 
REMARK   61  A    between atoms: N_101  and  CA_102 
REMARK   62  A    between atoms: CA_102  and  C_103 
REMARK   63  A    between atoms: CA_102  and  CB_105 
REMARK   64  A    between atoms: CB_105  and  CG_106 
REMARK   65  A    between atoms: CG_106  and  CD1_107 
REMARK   66  A    between atoms: CG_106  and  CD2_108 
ROOT
ATOM      1  CA  ARG d   1     -69.871  27.908 -14.266  0.00  0.00     0.089 C 
ATOM      2  H64 ARG d   1     -69.734  26.838 -14.048  0.00  0.00     0.087 H 
ENDROOT
BRANCH   1   3
ATOM      3  N   ARG d   1     -69.316  28.717 -13.190  0.00  0.00    -0.346 N 
ATOM      4  C   PRO d   1     -68.099  28.497 -12.699  0.00  0.00     0.241 C 
ATOM      5  O   PRO d   1     -67.449  27.477 -12.912  0.00  0.00    -0.271 OA
ATOM      6  H63 ARG d   1     -69.866  29.460 -12.809  0.00  0.00     0.163 HD
BRANCH   4   7
ATOM      7  CA  PRO d   1     -67.517  29.602 -11.838  0.00  0.00     0.091 C 
ATOM      8  N   PRO d   1     -66.472  29.122 -10.931  0.00  0.00    -0.337 N 
ATOM      9  C   THR d   1     -66.775  28.408  -9.825  0.00  0.00     0.245 C 
ATOM     10  CD  PRO d   1     -65.126  29.523 -11.386  0.00  0.00    -0.001 C 
ATOM     11  O   THR d   1     -67.925  28.086  -9.535  0.00  0.00    -0.271 OA
ATOM     12  CG  PRO d   1     -65.371  30.063 -12.770  0.00  0.00    -0.048 C 
ATOM     13  H61 PRO d   1     -64.447  28.658 -11.416  0.00  0.00     0.064 H 
ATOM     14  H62 PRO d   1     -64.704  30.299 -10.730  0.00  0.00     0.064 H 
ATOM     15  CB  PRO d   1     -66.773  30.576 -12.748  0.00  0.00    -0.036 C 
ATOM     16  H59 PRO d   1     -64.666  30.877 -12.997  0.00  0.00     0.035 H 
ATOM     17  H60 PRO d   1     -65.264  29.265 -13.520  0.00  0.00     0.035 H 
ATOM     18  H57 PRO d   1     -66.808  31.596 -12.338  0.00  0.00     0.036 H 
ATOM     19  H58 PRO d   1     -67.205  30.572 -13.759  0.00  0.00     0.036 H 
ATOM     20  H56 PRO d   1     -68.321  30.101 -11.278  0.00  0.00     0.087 H 
BRANCH   9  21
ATOM     21  CA  THR d   1     -65.622  28.013  -8.904  0.00  0.00     0.114 C 
ATOM     22  H50 THR d   1     -64.701  28.497  -9.261  0.00  0.00     0.091 H 
BRANCH  21  23
ATOM     23  N   THR d   1     -65.898  28.465  -7.544  0.00  0.00    -0.344 N 
ATOM     24  C   LEU d   1     -65.517  29.656  -7.087  0.00  0.00     0.241 C 
ATOM     25  O   LEU d   1     -64.940  30.490  -7.779  0.00  0.00    -0.271 OA
ATOM     26  H49 THR d   1     -66.395  27.853  -6.928  0.00  0.00     0.163 HD
BRANCH  24  27
ATOM     27  CA  LEU d   1     -65.829  29.954  -5.627  0.00  0.00     0.089 C 
ATOM     28  H39 LEU d   1     -65.830  31.046  -5.496  0.00  0.00     0.087 H 
BRANCH  27  29
ATOM     29  N   LEU d   1     -67.164  29.466  -5.267  0.00  0.00    -0.346 N 
ATOM     30  C   LEU d   1     -68.172  30.300  -5.017  0.00  0.00     0.241 C 
ATOM     31  O   LEU d   1     -68.053  31.524  -5.075  0.00  0.00    -0.271 OA
ATOM     32  H38 LEU d   1     -67.322  28.480  -5.208  0.00  0.00     0.163 HD
BRANCH  30  33
ATOM     33  CA  LEU d   1     -69.530  29.674  -4.667  0.00  0.00     0.089 C 
ATOM     34  H28 LEU d   1     -70.126  30.449  -4.164  0.00  0.00     0.087 H 
BRANCH  33  35
ATOM     35  N   LEU d   1     -70.279  29.238  -5.832  0.00  0.00    -0.346 N 
ATOM     36  C   ILE d   1     -71.320  29.928  -6.286  0.00  0.00     0.241 C 
ATOM     37  O   ILE d   1     -71.698  30.991  -5.778  0.00  0.00    -0.271 OA
ATOM     38  H27 LEU d   1     -70.005  28.400  -6.303  0.00  0.00     0.163 HD
BRANCH  36  39
ATOM     39  CA  ILE d   1     -72.065  29.319  -7.474  0.00  0.00     0.092 C 
ATOM     40  H17 ILE d   1     -71.650  28.321  -7.678  0.00  0.00     0.088 H 
BRANCH  39  41
ATOM     41  N   ILE d   1     -73.478  29.183  -7.133  0.00  0.00    -0.346 N 
ATOM     42  C   LYS d   1     -73.938  28.396  -6.163  0.00  0.00     0.249 C 
ATOM     43  O   LYS d   1     -73.231  27.608  -5.527  0.00  0.00    -0.271 OA
ATOM     44  H16 ILE d   1     -74.141  29.714  -7.661  0.00  0.00     0.163 HD
BRANCH  42  45
ATOM     45  CA  LYS d   1     -75.434  28.514  -5.881  0.00  0.00     0.176 C 
ATOM     46  H4  LYS d   1     -75.989  28.170  -6.766  0.00  0.00     0.099 H 
BRANCH  45  47
ATOM     47  N   LYS d   1     -75.808  27.664  -4.723  0.00  0.00    -0.067 N 
ATOM     48  H1  LYS d   1     -76.797  27.751  -4.548  0.00  0.00     0.275 HD
ATOM     49  H2  LYS d   1     -75.295  27.962  -3.908  0.00  0.00     0.275 HD
ATOM     50  H3  LYS d   1     -75.586  26.702  -4.927  0.00  0.00     0.275 HD
ENDBRANCH  45  47
BRANCH  45  51
ATOM     51  CB  LYS d   1     -75.803  29.977  -5.604  0.00  0.00    -0.030 C 
ATOM     52  H5  LYS d   1     -75.071  30.386  -4.891  0.00  0.00     0.036 H 
ATOM     53  H6  LYS d   1     -76.806  29.997  -5.152  0.00  0.00     0.036 H 
BRANCH  51  54
ATOM     54  CG  LYS d   1     -75.819  30.879  -6.839  0.00  0.00    -0.061 C 
ATOM     55  H7  LYS d   1     -76.816  30.833  -7.301  0.00  0.00     0.033 H 
ATOM     56  H8  LYS d   1     -75.066  30.518  -7.555  0.00  0.00     0.033 H 
BRANCH  54  57
ATOM     57  CD  LYS d   1     -75.507  32.323  -6.482  0.00  0.00    -0.043 C 
ATOM     58  H9  LYS d   1     -75.207  32.860  -7.394  0.00  0.00     0.035 H 
ATOM     59  H10 LYS d   1     -74.680  32.341  -5.757  0.00  0.00     0.035 H 
BRANCH  57  60
ATOM     60  CE  LYS d   1     -76.713  33.019  -5.873  0.00  0.00     0.080 C 
ATOM     61  H11 LYS d   1     -77.115  32.397  -5.059  0.00  0.00     0.075 H 
ATOM     62  H12 LYS d   1     -77.482  33.150  -6.648  0.00  0.00     0.075 H 
BRANCH  60  63
ATOM     63  NZ  LYS d   1     -76.341  34.348  -5.329  0.00  0.00    -0.079 N 
ATOM     64  H13 LYS d   1     -77.156  34.788  -4.932  0.00  0.00     0.274 HD
ATOM     65  H14 LYS d   1     -75.976  34.924  -6.071  0.00  0.00     0.274 HD
ATOM     66  H15 LYS d   1     -75.639  34.234  -4.615  0.00  0.00     0.274 HD
ENDBRANCH  60  63
ENDBRANCH  57  60
ENDBRANCH  54  57
ENDBRANCH  51  54
ENDBRANCH  45  51
ENDBRANCH  42  45
ENDBRANCH  39  41
BRANCH  39  67
ATOM     67  CB  ILE d   1     -71.898  30.189  -8.742  0.00  0.00    -0.030 C 
ATOM     68  H18 ILE d   1     -72.362  31.168  -8.553  0.00  0.00     0.043 H 
BRANCH  67  69
ATOM     69  CG1 ILE d   1     -72.620  29.531  -9.928  0.00  0.00    -0.063 C 
ATOM     70  H19 ILE d   1     -73.360  28.822  -9.528  0.00  0.00     0.033 H 
ATOM     71  H20 ILE d   1     -71.874  28.985 -10.523  0.00  0.00     0.033 H 
BRANCH  69  72
ATOM     72  CD1 ILE d   1     -73.340  30.497 -10.846  0.00  0.00    -0.076 C 
ATOM     73  H24 ILE d   1     -73.824  29.938 -11.660  0.00  0.00     0.027 H 
ATOM     74  H25 ILE d   1     -72.616  31.209 -11.270  0.00  0.00     0.027 H 
ATOM     75  H26 ILE d   1     -74.103  31.046 -10.275  0.00  0.00     0.027 H 
ENDBRANCH  69  72
ENDBRANCH  67  69
BRANCH  67  76
ATOM     76  CG2 ILE d   1     -70.426  30.415  -9.063  0.00  0.00    -0.071 C 
ATOM     77  H21 ILE d   1     -69.931  30.886  -8.201  0.00  0.00     0.028 H 
ATOM     78  H22 ILE d   1     -70.339  31.073  -9.940  0.00  0.00     0.028 H 
ATOM     79  H23 ILE d   1     -69.945  29.450  -9.279  0.00  0.00     0.028 H 
ENDBRANCH  67  76
ENDBRANCH  39  67
ENDBRANCH  36  39
ENDBRANCH  33  35
BRANCH  33  80
ATOM     80  CB  LEU d   1     -69.355  28.502  -3.687  0.00  0.00    -0.035 C 
ATOM     81  H29 LEU d   1     -68.615  27.819  -4.130  0.00  0.00     0.037 H 
ATOM     82  H30 LEU d   1     -70.328  27.993  -3.615  0.00  0.00     0.037 H 
BRANCH  80  83
ATOM     83  CG  LEU d   1     -68.896  28.795  -2.258  0.00  0.00    -0.059 C 
ATOM     84  H31 LEU d   1     -67.932  29.323  -2.308  0.00  0.00     0.038 H 
BRANCH  83  85
ATOM     85  CD1 LEU d   1     -69.875  29.686  -1.496  0.00  0.00    -0.073 C 
ATOM     86  H32 LEU d   1     -69.495  29.862  -0.479  0.00  0.00     0.028 H 
ATOM     87  H33 LEU d   1     -70.855  29.190  -1.440  0.00  0.00     0.028 H 
ATOM     88  H34 LEU d   1     -69.980  30.647  -2.020  0.00  0.00     0.028 H 
ENDBRANCH  83  85
BRANCH  83  89
ATOM     89  CD2 LEU d   1     -68.685  27.472  -1.535  0.00  0.00    -0.073 C 
ATOM     90  H35 LEU d   1     -67.977  26.852  -2.105  0.00  0.00     0.028 H 
ATOM     91  H36 LEU d   1     -69.646  26.945  -1.447  0.00  0.00     0.028 H 
ATOM     92  H37 LEU d   1     -68.279  27.664  -0.531  0.00  0.00     0.028 H 
ENDBRANCH  83  89
ENDBRANCH  80  83
ENDBRANCH  33  80
ENDBRANCH  30  33
ENDBRANCH  27  29
BRANCH  27  93
ATOM     93  CB  LEU d   1     -64.723  29.377  -4.726  0.00  0.00    -0.035 C 
ATOM     94  H40 LEU d   1     -63.772  29.828  -5.045  0.00  0.00     0.037 H 
ATOM     95  H41 LEU d   1     -64.691  28.291  -4.901  0.00  0.00     0.037 H 
BRANCH  93  96
ATOM     96  CG  LEU d   1     -64.845  29.592  -3.213  0.00  0.00    -0.059 C 
ATOM     97  H42 LEU d   1     -65.671  28.968  -2.841  0.00  0.00     0.038 H 
BRANCH  96  98
ATOM     98  CD1 LEU d   1     -63.565  29.165  -2.519  0.00  0.00    -0.073 C 
ATOM     99  H43 LEU d   1     -63.665  29.324  -1.435  0.00  0.00     0.028 H 
ATOM    100  H44 LEU d   1     -62.724  29.762  -2.901  0.00  0.00     0.028 H 
ATOM    101  H45 LEU d   1     -63.378  28.099  -2.717  0.00  0.00     0.028 H 
ENDBRANCH  96  98
BRANCH  96 102
ATOM    102  CD2 LEU d   1     -65.154  31.044  -2.880  0.00  0.00    -0.073 C 
ATOM    103  H46 LEU d   1     -66.083  31.347  -3.386  0.00  0.00     0.028 H 
ATOM    104  H47 LEU d   1     -64.326  31.683  -3.221  0.00  0.00     0.028 H 
ATOM    105  H48 LEU d   1     -65.277  31.153  -1.792  0.00  0.00     0.028 H 
ENDBRANCH  96 102
ENDBRANCH  93  96
ENDBRANCH  27  93
ENDBRANCH  24  27
ENDBRANCH  21  23
BRANCH  21 106
ATOM    106  CB  THR d   1     -65.420  26.485  -8.922  0.00  0.00     0.060 C 
ATOM    107  H51 THR d   1     -66.361  26.000  -8.623  0.00  0.00     0.086 H 
BRANCH 106 108
ATOM    108  OG1 THR d   1     -64.393  26.143  -7.986  0.00  0.00    -0.393 OA
ATOM    109  H52 THR d   1     -64.653  26.423  -7.116  0.00  0.00     0.210 HD
ENDBRANCH 106 108
BRANCH 106 110
ATOM    110  CG2 THR d   1     -65.029  25.981 -10.310  0.00  0.00    -0.050 C 
ATOM    111  H53 THR d   1     -64.895  24.890 -10.279  0.00  0.00     0.031 H 
ATOM    112  H54 THR d   1     -64.088  26.457 -10.621  0.00  0.00     0.031 H 
ATOM    113  H55 THR d   1     -65.823  26.233 -11.029  0.00  0.00     0.031 H 
ENDBRANCH 106 110
ENDBRANCH  21 106
ENDBRANCH   9  21
ENDBRANCH   4   7
ENDBRANCH   1   3
BRANCH   1 114
ATOM    114  C   ARG d   1     -69.131  28.293 -15.542  0.00  0.00     0.241 C 
ATOM    115  O   ARG d   1     -68.642  29.418 -15.689  0.00  0.00    -0.271 OA
ATOM    116  N   ARG d   1     -69.033  27.357 -16.467  0.00  0.00    -0.346 N 
ATOM    117  H76 ARG d   1     -69.345  26.428 -16.268  0.00  0.00     0.163 HD
BRANCH 116 118
ATOM    118  CA  ARG d   1     -68.476  27.666 -17.771  0.00  0.00     0.089 C 
ATOM    119  H77 ARG d   1     -67.888  28.593 -17.701  0.00  0.00     0.087 H 
BRANCH 118 120
ATOM    120  C   ARG d   1     -69.625  27.883 -18.748  0.00  0.00     0.241 C 
ATOM    121  O   ARG d   1     -70.604  27.133 -18.734  0.00  0.00    -0.271 OA
ATOM    122  N   ARG d   1     -69.514  28.925 -19.569  0.00  0.00    -0.346 N 
ATOM    123  H89 ARG d   1     -68.726  29.533 -19.470  0.00  0.00     0.163 HD
BRANCH 122 124
ATOM    124  CA  ARG d   1     -70.501  29.216 -20.612  0.00  0.00     0.089 C 
ATOM    125  H90 ARG d   1     -71.500  29.186 -20.152  0.00  0.00     0.087 H 
BRANCH 124 126
ATOM    126  C   ARG d   1     -70.463  28.180 -21.737  0.00  0.00     0.241 C 
ATOM    127  O   ARG d   1     -69.465  28.060 -22.452  0.00  0.00    -0.271 OA
ATOM    128  N   GLN d   1     -71.562  27.450 -21.899  0.00  0.00    -0.346 N 
ATOM    129 2H10 GLN d   1     -72.379  27.677 -21.369  0.00  0.00     0.163 HD
BRANCH 128 130
ATOM    130  CA  GLN d   1     -71.608  26.327 -22.829  0.00  0.00     0.090 C 
ATOM    131 3H10 GLN d   1     -70.569  26.012 -23.002  0.00  0.00     0.087 H 
BRANCH 130 132
ATOM    132  C   GLN d   1     -72.209  26.658 -24.195  0.00  0.00     0.241 C 
ATOM    133  O   GLN d   1     -72.966  27.623 -24.349  0.00  0.00    -0.271 OA
ATOM    134  N   ARG d   1     -71.828  25.847 -25.180  0.00  0.00    -0.346 N 
ATOM    135 0H11 ARG d   1     -71.031  25.263 -25.025  0.00  0.00     0.163 HD
BRANCH 134 136
ATOM    136  CA  ARG d   1     -72.502  25.758 -26.472  0.00  0.00     0.089 C 
ATOM    137 1H11 ARG d   1     -73.179  26.616 -26.600  0.00  0.00     0.087 H 
BRANCH 136 138
ATOM    138  C   ARG d   1     -73.303  24.459 -26.456  0.00  0.00     0.241 C 
ATOM    139  O   ARG d   1     -72.749  23.384 -26.204  0.00  0.00    -0.271 OA
ATOM    140  N   LEU d   1     -74.608  24.567 -26.699  0.00  0.00    -0.345 N 
ATOM    141 3H12 LEU d   1     -74.978  25.455 -26.972  0.00  0.00     0.163 HD
BRANCH 140 142
ATOM    142  CA  LEU d   1     -75.522  23.423 -26.579  0.00  0.00     0.096 C 
ATOM    143 4H12 LEU d   1     -74.898  22.520 -26.509  0.00  0.00     0.089 H 
BRANCH 142 144
ATOM    144  C   LEU d   1     -76.406  23.256 -27.820  0.00  0.00     0.196 C 
ATOM    145  O   LEU d   1     -76.104  23.808 -28.896  0.00  0.00    -0.646 OA
ATOM    146  OXT LEU d   1     -77.443  22.565 -27.775  0.00  0.00    -0.646 OA
ENDBRANCH 142 144
BRANCH 142 147
ATOM    147  CB  LEU d   1     -76.356  23.498 -25.275  0.00  0.00    -0.034 C 
ATOM    148 5H12 LEU d   1     -75.824  22.881 -24.536  0.00  0.00     0.037 H 
ATOM    149 6H12 LEU d   1     -77.328  23.037 -25.506  0.00  0.00     0.037 H 
BRANCH 147 150
ATOM    150  CG  LEU d   1     -76.671  24.831 -24.573  0.00  0.00    -0.059 C 
ATOM    151 7H12 LEU d   1     -77.588  25.235 -25.027  0.00  0.00     0.038 H 
BRANCH 150 152
ATOM    152  CD1 LEU d   1     -76.930  24.623 -23.085  0.00  0.00    -0.073 C 
ATOM    153 8H12 LEU d   1     -77.152  25.591 -22.613  0.00  0.00     0.028 H 
ATOM    154 9H12 LEU d   1     -76.038  24.182 -22.616  0.00  0.00     0.028 H 
ATOM    155 0H13 LEU d   1     -77.787  23.946 -22.953  0.00  0.00     0.028 H 
ENDBRANCH 150 152
BRANCH 150 156
ATOM    156  CD2 LEU d   1     -75.571  25.859 -24.753  0.00  0.00    -0.073 C 
ATOM    157 1H13 LEU d   1     -75.383  26.010 -25.826  0.00  0.00     0.028 H 
ATOM    158 2H13 LEU d   1     -74.652  25.501 -24.266  0.00  0.00     0.028 H 
ATOM    159 3H13 LEU d   1     -75.881  26.811 -24.297  0.00  0.00     0.028 H 
ENDBRANCH 150 156
ENDBRANCH 147 150
ENDBRANCH 142 147
ENDBRANCH 140 142
ENDBRANCH 136 138
BRANCH 136 160
ATOM    160  CB  ARG d   1     -71.491  25.742 -27.622  0.00  0.00    -0.036 C 
ATOM    161 2H11 ARG d   1     -72.023  25.491 -28.552  0.00  0.00     0.036 H 
ATOM    162 3H11 ARG d   1     -70.735  24.971 -27.412  0.00  0.00     0.036 H 
BRANCH 160 163
ATOM    163  CG  ARG d   1     -70.780  27.076 -27.816  0.00  0.00    -0.048 C 
ATOM    164 4H11 ARG d   1     -70.171  27.292 -26.926  0.00  0.00     0.035 H 
ATOM    165 5H11 ARG d   1     -71.532  27.868 -27.947  0.00  0.00     0.035 H 
BRANCH 163 166
ATOM    166  CD  ARG d   1     -69.877  27.040 -29.039  0.00  0.00     0.009 C 
ATOM    167 6H11 ARG d   1     -70.493  26.977 -29.948  0.00  0.00     0.064 H 
ATOM    168 7H11 ARG d   1     -69.217  26.162 -28.982  0.00  0.00     0.064 H 
BRANCH 166 169
ATOM    169  NE  ARG d   1     -69.063  28.262 -29.084  0.00  0.00    -0.227 N 
ATOM    170  CZ  ARG d   1     -68.048  28.461 -29.924  0.00  0.00     0.665 C 
ATOM    171  NH1 ARG d   1     -67.723  27.524 -30.808  0.00  0.00    -0.235 N 
ATOM    172  NH2 ARG d   1     -67.357  29.600 -29.873  0.00  0.00    -0.235 N 
ATOM    173 9H11 ARG d   1     -66.938  27.678 -31.457  0.00  0.00     0.174 HD
ATOM    174 0H12 ARG d   1     -68.256  26.643 -30.844  0.00  0.00     0.174 HD
ATOM    175 1H12 ARG d   1     -67.610  30.326 -29.187  0.00  0.00     0.174 HD
ATOM    176 2H12 ARG d   1     -66.570  29.754 -30.519  0.00  0.00     0.174 HD
ATOM    177 8H11 ARG d   1     -69.293  29.016 -28.421  0.00  0.00     0.177 HD
ENDBRANCH 166 169
ENDBRANCH 163 166
ENDBRANCH 160 163
ENDBRANCH 136 160
ENDBRANCH 134 136
ENDBRANCH 130 132
BRANCH 130 178
ATOM    178  CB  GLN d   1     -72.360  25.146 -22.203  0.00  0.00    -0.030 C 
ATOM    179 4H10 GLN d   1     -72.594  24.425 -23.000  0.00  0.00     0.037 H 
ATOM    180 5H10 GLN d   1     -73.295  25.525 -21.765  0.00  0.00     0.037 H 
BRANCH 178 181
ATOM    181  CG  GLN d   1     -71.583  24.419 -21.114  0.00  0.00     0.011 C 
ATOM    182 6H10 GLN d   1     -71.636  25.014 -20.190  0.00  0.00     0.047 H 
ATOM    183 7H10 GLN d   1     -70.534  24.329 -21.433  0.00  0.00     0.047 H 
BRANCH 181 184
ATOM    184  CD  GLN d   1     -72.121  23.028 -20.825  0.00  0.00     0.215 C 
ATOM    185  OE1 GLN d   1     -73.232  22.675 -21.229  0.00  0.00    -0.274 OA
ATOM    186  NE2 GLN d   1     -71.331  22.227 -20.119  0.00  0.00    -0.370 N 
ATOM    187 8H10 GLN d   1     -71.630  21.299 -19.897  0.00  0.00     0.159 HD
ATOM    188 9H10 GLN d   1     -70.437  22.552 -19.810  0.00  0.00     0.159 HD
ENDBRANCH 181 184
ENDBRANCH 178 181
ENDBRANCH 130 178
ENDBRANCH 128 130
ENDBRANCH 124 126
BRANCH 124 189
ATOM    189  CB  ARG d   1     -70.276  30.614 -21.189  0.00  0.00    -0.036 C 
ATOM    190  H91 ARG d   1     -71.073  30.820 -21.919  0.00  0.00     0.036 H 
ATOM    191  H92 ARG d   1     -69.301  30.627 -21.697  0.00  0.00     0.036 H 
BRANCH 189 192
ATOM    192  CG  ARG d   1     -70.286  31.712 -20.149  0.00  0.00    -0.048 C 
ATOM    193  H93 ARG d   1     -69.279  31.814 -19.719  0.00  0.00     0.035 H 
ATOM    194  H94 ARG d   1     -71.000  31.453 -19.353  0.00  0.00     0.035 H 
BRANCH 192 195
ATOM    195  CD  ARG d   1     -70.696  33.025 -20.781  0.00  0.00     0.009 C 
ATOM    196  H95 ARG d   1     -71.794  33.064 -20.841  0.00  0.00     0.064 H 
ATOM    197  H96 ARG d   1     -70.271  33.081 -21.794  0.00  0.00     0.064 H 
BRANCH 195 198
ATOM    198  NE  ARG d   1     -70.224  34.166 -20.006  0.00  0.00    -0.227 N 
ATOM    199  CZ  ARG d   1     -70.831  34.641 -18.925  0.00  0.00     0.665 C 
ATOM    200  NH1 ARG d   1     -71.936  34.066 -18.473  0.00  0.00    -0.235 N 
ATOM    201  NH2 ARG d   1     -70.326  35.691 -18.290  0.00  0.00    -0.235 N 
ATOM    202  H98 ARG d   1     -72.404  34.438 -17.634  0.00  0.00     0.174 HD
ATOM    203  H99 ARG d   1     -72.327  33.247 -18.961  0.00  0.00     0.174 HD
ATOM    204 0H10 ARG d   1     -69.467  36.140 -18.639  0.00  0.00     0.174 HD
ATOM    205 1H10 ARG d   1     -70.793  36.057 -17.448  0.00  0.00     0.174 HD
ATOM    206  H97 ARG d   1     -69.362  34.635 -20.318  0.00  0.00     0.177 HD
ENDBRANCH 195 198
ENDBRANCH 192 195
ENDBRANCH 189 192
ENDBRANCH 124 189
ENDBRANCH 122 124
ENDBRANCH 118 120
BRANCH 118 207
ATOM    207  CB  ARG d   1     -67.553  26.539 -18.238  0.00  0.00    -0.036 C 
ATOM    208  H78 ARG d   1     -68.169  25.650 -18.440  0.00  0.00     0.036 H 
ATOM    209  H79 ARG d   1     -66.843  26.317 -17.428  0.00  0.00     0.036 H 
BRANCH 207 210
ATOM    210  CG  ARG d   1     -66.760  26.862 -19.490  0.00  0.00    -0.048 C 
ATOM    211  H80 ARG d   1     -65.973  27.589 -19.241  0.00  0.00     0.035 H 
ATOM    212  H81 ARG d   1     -67.435  27.296 -20.242  0.00  0.00     0.035 H 
BRANCH 210 213
ATOM    213  CD  ARG d   1     -66.119  25.609 -20.060  0.00  0.00     0.009 C 
ATOM    214  H82 ARG d   1     -66.604  24.725 -19.619  0.00  0.00     0.064 H 
ATOM    215  H83 ARG d   1     -65.049  25.605 -19.805  0.00  0.00     0.064 H 
BRANCH 213 216
ATOM    216  NE  ARG d   1     -66.263  25.557 -21.514  0.00  0.00    -0.227 N 
ATOM    217  CZ  ARG d   1     -67.209  24.874 -22.156  0.00  0.00     0.665 C 
ATOM    218  NH1 ARG d   1     -68.107  24.160 -21.483  0.00  0.00    -0.235 N 
ATOM    219  NH2 ARG d   1     -67.252  24.903 -23.481  0.00  0.00    -0.235 N 
ATOM    220  H85 ARG d   1     -68.834  23.636 -21.991  0.00  0.00     0.174 HD
ATOM    221  H86 ARG d   1     -68.076  24.131 -20.454  0.00  0.00     0.174 HD
ATOM    222  H87 ARG d   1     -66.559  25.454 -24.007  0.00  0.00     0.174 HD
ATOM    223  H88 ARG d   1     -67.978  24.374 -23.984  0.00  0.00     0.174 HD
ATOM    224  H84 ARG d   1     -65.585  26.086 -22.082  0.00  0.00     0.177 HD
ENDBRANCH 213 216
ENDBRANCH 210 213
ENDBRANCH 207 210
ENDBRANCH 118 207
ENDBRANCH 116 118
ENDBRANCH   1 114
BRANCH   1 225
ATOM    225  CB  ARG d   1     -71.355  28.216 -14.443  0.00  0.00    -0.036 C 
ATOM    226  H65 ARG d   1     -71.472  28.828 -15.350  0.00  0.00     0.036 H 
ATOM    227  H66 ARG d   1     -71.693  28.790 -13.567  0.00  0.00     0.036 H 
BRANCH 225 228
ATOM    228  CG  ARG d   1     -72.242  26.996 -14.579  0.00  0.00    -0.048 C 
ATOM    229  H67 ARG d   1     -71.612  26.105 -14.719  0.00  0.00     0.035 H 
ATOM    230  H68 ARG d   1     -72.898  27.122 -15.453  0.00  0.00     0.035 H 
BRANCH 228 231
ATOM    231  CD  ARG d   1     -73.098  26.811 -13.335  0.00  0.00     0.009 C 
ATOM    232  H69 ARG d   1     -72.483  27.013 -12.445  0.00  0.00     0.064 H 
ATOM    233  H70 ARG d   1     -73.460  25.773 -13.302  0.00  0.00     0.064 H 
BRANCH 231 234
ATOM    234  NE  ARG d   1     -74.249  27.716 -13.333  0.00  0.00    -0.227 N 
ATOM    235  CZ  ARG d   1     -75.173  27.777 -12.374  0.00  0.00     0.665 C 
ATOM    236  NH1 ARG d   1     -76.177  28.640 -12.478  0.00  0.00    -0.235 N 
ATOM    237  NH2 ARG d   1     -75.101  26.983 -11.310  0.00  0.00    -0.235 N 
ATOM    238  H72 ARG d   1     -76.892  28.689 -11.739  0.00  0.00     0.174 HD
ATOM    239  H73 ARG d   1     -76.240  29.260 -13.298  0.00  0.00     0.174 HD
ATOM    240  H74 ARG d   1     -74.326  26.311 -11.221  0.00  0.00     0.174 HD
ATOM    241  H75 ARG d   1     -75.820  27.040 -10.575  0.00  0.00     0.174 HD
ATOM    242  H71 ARG d   1     -74.353  28.355 -14.134  0.00  0.00     0.177 HD
ENDBRANCH 231 234
ENDBRANCH 228 231
ENDBRANCH 225 228
ENDBRANCH   1 225
TORSDOF 66
