REMARK  5 active torsions:
REMARK  status: ('A' for Active; 'I' for Inactive)
REMARK    1  A    between atoms: C6_3  and  NAL_20 
REMARK    2  A    between atoms: NAS_23  and  C2_6 
REMARK    3  A    between atoms: NAL_20  and  CAM_11 
REMARK    4  A    between atoms: NAO_21  and  CAR_14 
REMARK    5  A    between atoms: CAV_17  and  NAY_24 
ROOT
ATOM      1  C4  8FR d   1      77.994  25.531 193.530  0.00  0.00     0.090 A 
ATOM      2  C5  8FR d   1      77.109  25.788 194.559  0.00  0.00     0.042 A 
ATOM      3  C6  8FR d   1      76.919  27.111 194.947  0.00  0.00     0.161 A 
ATOM      4  N1  8FR d   1      77.566  28.132 194.323  0.00  0.00    -0.044 NA
ATOM      5  N3  8FR d   1      78.631  26.581 192.942  0.00  0.00    -0.062 NA
ATOM      6  C2  8FR d   1      78.436  27.872 193.351  0.00  0.00     0.727 A 
ATOM      7  CAA 8FR d   1      76.426  24.749 195.208  0.00  0.00    -0.046 A 
ATOM      8  CAB 8FR d   1      76.669  23.414 194.785  0.00  0.00     0.035 A 
ATOM      9  CAC 8FR d   1      77.559  23.131 193.756  0.00  0.00    -0.060 A 
ATOM     10  CAD 8FR d   1      78.229  24.202 193.120  0.00  0.00    -0.052 A 
ATOM     11 CL   8FR d   1      75.813  22.128 195.568  0.00  0.00    -0.084 Cl
ATOM     12  H1  8FR d   1      75.730  24.959 196.012  0.00  0.00     0.087 H 
ATOM     13  H2  8FR d   1      77.737  22.108 193.446  0.00  0.00     0.086 H 
ATOM     14  H3  8FR d   1      78.926  24.001 192.314  0.00  0.00     0.087 H 
ENDROOT
BRANCH   6  15
ATOM     15  NAS 8FR d   1      79.104  28.966 192.647  0.00  0.00    -0.214 N 
ATOM     16  CAT 8FR d   1      80.340  29.572 193.033  0.00  0.00     0.014 C 
ATOM     17  CAU 8FR d   1      81.231  29.918 191.824  0.00  0.00    -0.023 C 
ATOM     18  H9  8FR d   1      80.121  30.497 193.586  0.00  0.00     0.065 H 
ATOM     19  H10 8FR d   1      80.886  28.875 193.685  0.00  0.00     0.065 H 
ATOM     20  CAV 8FR d   1      80.496  30.317 190.545  0.00  0.00     0.103 C 
ATOM     21  H11 8FR d   1      81.848  29.036 191.597  0.00  0.00     0.038 H 
ATOM     22  H12 8FR d   1      81.882  30.756 192.114  0.00  0.00     0.038 H 
ATOM     23  CAW 8FR d   1      79.053  30.614 190.772  0.00  0.00    -0.023 C 
ATOM     24  H13 8FR d   1      80.584  29.486 189.830  0.00  0.00     0.084 H 
ATOM     25  CAX 8FR d   1      78.408  29.433 191.486  0.00  0.00     0.014 C 
ATOM     26  H14 8FR d   1      78.554  30.777 189.805  0.00  0.00     0.038 H 
ATOM     27  H15 8FR d   1      78.956  31.517 191.392  0.00  0.00     0.038 H 
ATOM     28  H16 8FR d   1      78.341  28.599 190.772  0.00  0.00     0.065 H 
ATOM     29  H17 8FR d   1      77.396  29.734 191.794  0.00  0.00     0.065 H 
BRANCH  20  30
ATOM     30  NAY 8FR d   1      81.058  31.514 189.960  0.00  0.00    -0.075 N 
ATOM     31  H19 8FR d   1      82.040  31.372 189.783  0.00  0.00     0.274 HD
ATOM     32  H20 8FR d   1      80.940  32.287 190.596  0.00  0.00     0.274 HD
ATOM     33  H21 8FR d   1      80.586  31.718 189.093  0.00  0.00     0.274 HD
ENDBRANCH  20  30
ENDBRANCH   6  15
BRANCH   3  34
ATOM     34  NAL 8FR d   1      76.003  27.307 196.006  0.00  0.00    -0.323 N 
ATOM     35  H18 8FR d   1      75.405  26.516 196.284  0.00  0.00     0.169 HD
BRANCH  34  36
ATOM     36  CAM 8FR d   1      75.857  28.565 196.726  0.00  0.00     0.146 A 
ATOM     37  CAN 8FR d   1      76.631  29.723 196.583  0.00  0.00     0.024 A 
ATOM     38  NAO 8FR d   1      76.129  30.690 197.466  0.00  0.00    -0.352 N 
ATOM     39  H4  8FR d   1      77.474  29.850 195.906  0.00  0.00     0.117 H 
ATOM     40  CAP 8FR d   1      75.068  30.120 198.154  0.00  0.00     0.068 A 
ATOM     41  NAQ 8FR d   1      74.899  28.800 197.705  0.00  0.00    -0.225 NA
ATOM     42  H5  8FR d   1      74.466  30.614 198.916  0.00  0.00     0.143 H 
BRANCH  38  43
ATOM     43  CAR 8FR d   1      76.621  32.010 197.647  0.00  0.00    -0.014 C 
ATOM     44  H6  8FR d   1      77.467  32.183 196.965  0.00  0.00     0.057 H 
ATOM     45  H7  8FR d   1      76.957  32.137 198.687  0.00  0.00     0.057 H 
ATOM     46  H8  8FR d   1      75.821  32.733 197.429  0.00  0.00     0.057 H 
ENDBRANCH  38  43
ENDBRANCH  34  36
ENDBRANCH   3  34
TORSDOF 5
