REMARK  2 active torsions:
REMARK  status: ('A' for Active; 'I' for Inactive)
REMARK    1  A    between atoms: C2_1  and  C4_2 
REMARK       I    between atoms: C2_1  and  N3_9 
REMARK    2  A    between atoms: N8_8  and  C9_6 
ROOT
ATOM      1  C4  8GC d   1      14.946  18.590  15.113  0.00  0.00     0.047 A 
ATOM      2  C5  8GC d   1      13.850  18.514  14.281  0.00  0.00    -0.065 A 
ATOM      3  C6  8GC d   1      13.825  17.575  13.273  0.00  0.00    -0.067 A 
ATOM      4  C7  8GC d   1      14.903  16.730  13.124  0.00  0.00    -0.021 A 
ATOM      5  C10 8GC d   1      16.007  17.730  14.933  0.00  0.00    -0.006 A 
ATOM      6  N8  8GC d   1      15.943  16.836  13.948  0.00  0.00    -0.370 N 
ATOM      7  H1  8GC d   1      13.013  19.189  14.419  0.00  0.00     0.085 H 
ATOM      8  H2  8GC d   1      12.972  17.502  12.608  0.00  0.00     0.085 H 
ATOM      9  H3  8GC d   1      14.904  15.982  12.339  0.00  0.00     0.111 H 
ATOM     10  H7  8GC d   1      16.876  17.780  15.579  0.00  0.00     0.113 H 
ENDROOT
BRANCH   1  11
ATOM     11  C2  8GC d   1      14.959  19.606  16.181  0.00  0.00     0.250 C 
ATOM     12  N3  8GC d   1      13.693  20.081  16.428  0.00  0.00    -0.366 N 
ATOM     13  H8  8GC d   1      13.549  20.778  17.130  0.00  0.00     0.159 HD
ATOM     14  H9  8GC d   1      12.916  19.730  15.905  0.00  0.00     0.159 HD
ATOM     15  O1  8GC d   1      15.979  19.994  16.718  0.00  0.00    -0.268 OA
ENDBRANCH   1  11
BRANCH   6  16
ATOM     16  C9  8GC d   1      17.058  15.930  13.760  0.00  0.00    -0.015 C 
ATOM     17  H4  8GC d   1      17.832  16.141  14.512  0.00  0.00     0.057 H 
ATOM     18  H5  8GC d   1      17.478  16.069  12.753  0.00  0.00     0.057 H 
ATOM     19  H6  8GC d   1      16.710  14.892  13.873  0.00  0.00     0.057 H 
ENDBRANCH   6  16
TORSDOF 2
