REMARK  2 active torsions:
REMARK  status: ('A' for Active; 'I' for Inactive)
REMARK    1  A    between atoms: C2_1  and  C4_2 
REMARK       I    between atoms: C2_1  and  N3_9 
REMARK    2  A    between atoms: N8_8  and  C9_6 
ROOT
ATOM      1  C4  8GC d   1      23.207   0.275  12.229  0.00  0.00     0.047 A 
ATOM      2  C5  8GC d   1      23.964   0.554  11.114  0.00  0.00    -0.065 A 
ATOM      3  C6  8GC d   1      23.555   1.560  10.262  0.00  0.00    -0.067 A 
ATOM      4  C7  8GC d   1      22.406   2.259  10.540  0.00  0.00    -0.021 A 
ATOM      5  C10 8GC d   1      22.060   0.990  12.485  0.00  0.00    -0.006 A 
ATOM      6  N8  8GC d   1      21.707   1.947  11.629  0.00  0.00    -0.370 N 
ATOM      7  H1  8GC d   1      24.868  -0.008  10.908  0.00  0.00     0.085 H 
ATOM      8  H2  8GC d   1      24.137   1.797   9.379  0.00  0.00     0.085 H 
ATOM      9  H3  8GC d   1      22.073   3.054   9.882  0.00  0.00     0.111 H 
ATOM     10  H7  8GC d   1      21.458   0.780  13.362  0.00  0.00     0.113 H 
ENDROOT
BRANCH   1  11
ATOM     11  C2  8GC d   1      23.630  -0.791  13.150  0.00  0.00     0.250 C 
ATOM     12  N3  8GC d   1      22.621  -1.281  13.933  0.00  0.00    -0.366 N 
ATOM     13  H8  8GC d   1      22.808  -2.009  14.592  0.00  0.00     0.159 HD
ATOM     14  H9  8GC d   1      21.696  -0.911  13.846  0.00  0.00     0.159 HD
ATOM     15  O1  8GC d   1      24.792  -1.171  13.161  0.00  0.00    -0.268 OA
ENDBRANCH   1  11
BRANCH   6  16
ATOM     16  C9  8GC d   1      20.497   2.681  11.920  0.00  0.00    -0.015 C 
ATOM     17  H4  8GC d   1      20.049   2.297  12.848  0.00  0.00     0.057 H 
ATOM     18  H5  8GC d   1      19.785   2.557  11.091  0.00  0.00     0.057 H 
ATOM     19  H6  8GC d   1      20.736   3.748  12.042  0.00  0.00     0.057 H 
ENDBRANCH   6  16
TORSDOF 2
