REMARK  11 active torsions:
REMARK  status: ('A' for Active; 'I' for Inactive)
REMARK    1  A    between atoms: O3B_8  and  PG_1 
REMARK    2  A    between atoms: PB_5  and  O3B_8 
REMARK    3  A    between atoms: O3A_12  and  PB_5 
REMARK    4  A    between atoms: PA_9  and  O3A_12 
REMARK    5  A    between atoms: PA_9  and  O5'_13 
REMARK    6  A    between atoms: O5'_13  and  C5'_14 
REMARK    7  A    between atoms: C5'_14  and  C4'_15 
REMARK    8  A    between atoms: C3'_17  and  O3'_18 
REMARK    9  A    between atoms: C2'_19  and  O2'_20 
REMARK   10  A    between atoms: C1'_21  and  N9_22 
REMARK   11  A    between atoms: C6_26  and  N6_27 
ROOT
ATOM      1  C4' ATP d   1       1.945  -6.102 -14.610  0.00  0.00     0.089 C 
ATOM      2  O4' ATP d   1       3.104  -5.532 -15.255  0.00  0.00    -0.353 OA
ATOM      3  C3' ATP d   1       2.008  -7.590 -14.931  0.00  0.00     0.091 C 
ATOM      4  C2' ATP d   1       2.636  -7.598 -16.328  0.00  0.00     0.105 C 
ATOM      5  C1' ATP d   1       3.598  -6.412 -16.249  0.00  0.00     0.139 C 
ATOM      6  H3  ATP d   1       1.026  -5.683 -15.047  0.00  0.00     0.090 H 
ATOM      7  H4  ATP d   1       2.680  -8.099 -14.224  0.00  0.00     0.091 H 
ATOM      8  H6  ATP d   1       3.172  -8.543 -16.501  0.00  0.00     0.093 H 
ATOM      9  H8  ATP d   1       3.587  -5.898 -17.221  0.00  0.00     0.122 H 
ENDROOT
BRANCH   1  10
ATOM     10  C5' ATP d   1       1.962  -5.756 -13.141  0.00  0.00     0.058 C 
ATOM     11  H1  ATP d   1       1.774  -4.680 -13.014  0.00  0.00     0.079 H 
ATOM     12  H2  ATP d   1       1.182  -6.329 -12.618  0.00  0.00     0.079 H 
BRANCH  10  13
ATOM     13  O5' ATP d   1       3.256  -6.090 -12.594  0.00  0.00    -0.287 OA
BRANCH  13  14
ATOM     14  PA  ATP d   1       3.479  -6.938 -11.254  0.00  0.00     0.417 P 
ATOM     15  O1A ATP d   1       2.656  -8.170 -11.219  0.00  0.00    -0.624 OA
ATOM     16  O2A ATP d   1       4.994  -7.276 -11.043  0.00  0.00    -0.624 OA
BRANCH  14  17
ATOM     17  O3A ATP d   1       2.982  -5.877 -10.173  0.00  0.00    -0.180 OA
BRANCH  17  18
ATOM     18  PB  ATP d   1       2.163  -5.960  -8.811  0.00  0.00     0.428 P 
ATOM     19  O1B ATP d   1       0.716  -6.405  -9.095  0.00  0.00    -0.624 OA
ATOM     20  O2B ATP d   1       2.828  -6.895  -7.872  0.00  0.00    -0.624 OA
BRANCH  18  21
ATOM     21  O3B ATP d   1       2.148  -4.493  -8.195  0.00  0.00    -0.173 OA
BRANCH  21  22
ATOM     22  PG  ATP d   1       1.955  -4.010  -6.688  0.00  0.00     0.431 P 
ATOM     23  O1G ATP d   1       0.411  -4.003  -6.457  0.00  0.00    -0.616 OA
ATOM     24  O2G ATP d   1       2.558  -2.672  -6.432  0.00  0.00    -0.616 OA
ATOM     25  O3G ATP d   1       2.649  -5.114  -5.804  0.00  0.00    -0.616 OA
ENDBRANCH  21  22
ENDBRANCH  18  21
ENDBRANCH  17  18
ENDBRANCH  14  17
ENDBRANCH  13  14
ENDBRANCH  10  13
ENDBRANCH   1  10
BRANCH   3  26
ATOM     26  O3' ATP d   1       0.732  -8.220 -14.841  0.00  0.00    -0.390 OA
ATOM     27  H5  ATP d   1       0.134  -7.812 -15.456  0.00  0.00     0.210 HD
ENDBRANCH   3  26
BRANCH   5  28
ATOM     28  N9  ATP d   1       4.986  -6.772 -15.954  0.00  0.00    -0.294 N 
ATOM     29  C8  ATP d   1       5.629  -6.756 -14.743  0.00  0.00     0.071 A 
ATOM     30  N7  ATP d   1       6.875  -7.165 -14.793  0.00  0.00    -0.236 NA
ATOM     31  H9  ATP d   1       5.148  -6.432 -13.821  0.00  0.00     0.144 H 
ATOM     32  C5  ATP d   1       7.069  -7.466 -16.132  0.00  0.00     0.149 A 
ATOM     33  C6  ATP d   1       8.185  -7.953 -16.847  0.00  0.00     0.155 A 
ATOM     34  C4  ATP d   1       5.912  -7.230 -16.860  0.00  0.00     0.167 A 
ATOM     35  N1  ATP d   1       8.034  -8.175 -18.174  0.00  0.00    -0.222 NA
ATOM     36  C2  ATP d   1       6.851  -7.907 -18.743  0.00  0.00     0.091 A 
ATOM     37  N3  ATP d   1       5.738  -7.427 -18.178  0.00  0.00    -0.222 NA
ATOM     38  H12 ATP d   1       6.787  -8.107 -19.807  0.00  0.00     0.146 H 
BRANCH  33  39
ATOM     39  N6  ATP d   1       9.383  -8.168 -16.301  0.00  0.00    -0.382 N 
ATOM     40  H10 ATP d   1      10.156  -8.525 -16.880  0.00  0.00     0.157 HD
ATOM     41  H11 ATP d   1       9.535  -7.977 -15.300  0.00  0.00     0.157 HD
ENDBRANCH  33  39
ENDBRANCH   5  28
BRANCH   4  42
ATOM     42  O2' ATP d   1       1.719  -7.384 -17.394  0.00  0.00    -0.388 OA
ATOM     43  H7  ATP d   1       1.060  -8.068 -17.385  0.00  0.00     0.210 HD
ENDBRANCH   4  42
TORSDOF 11
