REMARK WARNING: 32 MAX_TORS EXCEEDED!!!
REMARK  50 active torsions:
REMARK  status: ('A' for Active; 'I' for Inactive)
REMARK    1  A    between atoms: N_1  and  CA_2 
REMARK    2  A    between atoms: CA_2  and  C_3 
REMARK    3  A    between atoms: CA_2  and  CB_5 
REMARK       I    between atoms: C_3  and  N_9 
REMARK    4  A    between atoms: CB_5  and  CG1_6 
REMARK    5  A    between atoms: CB_5  and  CG2_7 
REMARK    6  A    between atoms: CG1_6  and  CD1_8 
REMARK    7  A    between atoms: N_9  and  CA_10 
REMARK    8  A    between atoms: CA_10  and  C_11 
REMARK    9  A    between atoms: CA_10  and  CB_13 
REMARK       I    between atoms: C_11  and  N_17 
REMARK   10  A    between atoms: CB_13  and  CG_14 
REMARK   11  A    between atoms: CG_14  and  CD1_15 
REMARK   12  A    between atoms: CG_14  and  CD2_16 
REMARK   13  A    between atoms: N_17  and  CA_18 
REMARK   14  A    between atoms: CA_18  and  C_19 
REMARK   15  A    between atoms: CA_18  and  CB_21 
REMARK       I    between atoms: C_19  and  N_22 
REMARK   16  A    between atoms: N_22  and  CA_23 
REMARK   17  A    between atoms: CA_23  and  C_24 
REMARK   18  A    between atoms: CA_23  and  CB_26 
REMARK       I    between atoms: C_24  and  N_36 
REMARK   19  A    between atoms: CB_26  and  CG_27 
REMARK   20  A    between atoms: N_36  and  CA_37 
REMARK   21  A    between atoms: CA_37  and  C_38 
REMARK       I    between atoms: C_38  and  N_40 
REMARK   22  A    between atoms: N_40  and  CA_41 
REMARK   23  A    between atoms: CA_41  and  C_42 
REMARK   24  A    between atoms: CA_41  and  CB_44 
REMARK       I    between atoms: C_42  and  N_51 
REMARK   25  A    between atoms: CB_44  and  CG_45 
REMARK   26  A    between atoms: CG_45  and  CD_46 
REMARK   27  A    between atoms: CD_46  and  NE_47 
REMARK       I    between atoms: NE_47  and  CZ_48 
REMARK       I    between atoms: CZ_48  and  NH1_49 
REMARK       I    between atoms: CZ_48  and  NH2_50 
REMARK   28  A    between atoms: N_51  and  CA_52 
REMARK   29  A    between atoms: CA_52  and  C_53 
REMARK       I    between atoms: C_53  and  N_55 
REMARK   30  A    between atoms: N_55  and  CA_56 
REMARK   31  A    between atoms: CA_56  and  C_57 
REMARK       I    between atoms: C_57  and  N_59 
REMARK   32  A    between atoms: N_59  and  CA_60 
REMARK   33  A    between atoms: CA_60  and  C_61 
REMARK   34  A    between atoms: CA_60  and  CB_63 
REMARK       I    between atoms: C_61  and  N_66 
REMARK   35  A    between atoms: CB_63  and  OG1_64 
REMARK   36  A    between atoms: CB_63  and  CG2_65 
REMARK   37  A    between atoms: N_66  and  CA_67 
REMARK   38  A    between atoms: CA_67  and  C_68 
REMARK   39  A    between atoms: CA_67  and  CB_70 
REMARK       I    between atoms: C_68  and  N_77 
REMARK   40  A    between atoms: CB_70  and  CG_71 
REMARK   41  A    between atoms: CG_71  and  CD_72 
REMARK   42  A    between atoms: CD_72  and  NE_73 
REMARK       I    between atoms: NE_73  and  CZ_74 
REMARK       I    between atoms: CZ_74  and  NH1_75 
REMARK   43  A    between atoms: N_77  and  CA_78 
REMARK   44  A    between atoms: CA_78  and  C_79 
REMARK   45  A    between atoms: CA_78  and  CB_81 
REMARK       I    between atoms: C_79  and  N_83 
REMARK   46  A    between atoms: CB_81  and  OG_82 
REMARK   47  A    between atoms: N_83  and  CA_84 
REMARK   48  A    between atoms: CA_84  and  C_85 
REMARK   49  A    between atoms: CA_84  and  CB_87 
REMARK   50  A    between atoms: CB_87  and  CG_88 
REMARK       I    between atoms: CG_88  and  ND2_90 
ROOT
ATOM      1  CA  ILE d   1      -7.493  -4.831 -32.645  0.00  0.00     0.089 C 
ATOM      2  H44 ILE d   1      -7.336  -4.091 -33.444  0.00  0.00     0.087 H 
ENDROOT
BRANCH   1   3
ATOM      3  N   ILE d   1      -6.196  -5.203 -32.095  0.00  0.00    -0.346 N 
ATOM      4  C   ILE d   1      -5.195  -5.664 -32.840  0.00  0.00     0.236 C 
ATOM      5  O   ILE d   1      -5.311  -5.866 -34.050  0.00  0.00    -0.272 OA
ATOM      6  H43 ILE d   1      -6.051  -5.107 -31.110  0.00  0.00     0.163 HD
BRANCH   4   7
ATOM      7  CA  ILE d   1      -3.881  -5.942 -32.145  0.00  0.00     0.069 C 
ATOM      8  H41 ILE d   1      -3.897  -6.977 -31.773  0.00  0.00     0.078 H 
ATOM      9  H42 ILE d   1      -3.069  -5.829 -32.879  0.00  0.00     0.078 H 
BRANCH   7  10
ATOM     10  N   ILE d   1      -3.615  -5.055 -31.025  0.00  0.00    -0.351 N 
ATOM     11  C   ILE d   1      -3.358  -3.763 -31.235  0.00  0.00     0.241 C 
ATOM     12  O   ILE d   1      -3.408  -3.244 -32.351  0.00  0.00    -0.271 OA
ATOM     13  H40 ILE d   1      -3.625  -5.415 -30.092  0.00  0.00     0.163 HD
BRANCH  11  14
ATOM     14  CA  ILE d   1      -3.062  -2.928 -29.998  0.00  0.00     0.093 C 
ATOM     15  H31 ILE d   1      -2.800  -3.596 -29.164  0.00  0.00     0.088 H 
BRANCH  14  16
ATOM     16  N   ILE d   1      -1.934  -2.041 -30.254  0.00  0.00    -0.346 N 
ATOM     17  C   ILE d   1      -0.744  -2.542 -30.607  0.00  0.00     0.240 C 
ATOM     18  O   ILE d   1      -0.489  -3.753 -30.615  0.00  0.00    -0.271 OA
ATOM     19  H30 ILE d   1      -2.050  -1.052 -30.165  0.00  0.00     0.163 HD
BRANCH  17  20
ATOM     20  CA  ILE d   1       0.308  -1.520 -31.002  0.00  0.00     0.086 C 
ATOM     21  H26 ILE d   1       0.212  -0.640 -30.349  0.00  0.00     0.086 H 
BRANCH  20  22
ATOM     22  N   ILE d   1       1.628  -2.103 -30.807  0.00  0.00    -0.346 N 
ATOM     23  C   ILE d   1       2.657  -1.348 -30.438  0.00  0.00     0.241 C 
ATOM     24  O   ILE d   1       2.565  -0.125 -30.301  0.00  0.00    -0.271 OA
ATOM     25  H25 ILE d   1       1.762  -3.083 -30.953  0.00  0.00     0.163 HD
BRANCH  23  26
ATOM     26  CA  ILE d   1       3.986  -2.065 -30.200  0.00  0.00     0.089 C 
ATOM     27  H15 ILE d   1       3.810  -3.150 -30.235  0.00  0.00     0.087 H 
BRANCH  26  28
ATOM     28  N   ILE d   1       4.914  -1.705 -31.273  0.00  0.00    -0.346 N 
ATOM     29  C   ILE d   1       5.021  -2.442 -32.379  0.00  0.00     0.249 C 
ATOM     30  O   ILE d   1       4.379  -3.480 -32.539  0.00  0.00    -0.271 OA
ATOM     31  H14 ILE d   1       5.481  -0.887 -31.174  0.00  0.00     0.163 HD
BRANCH  29  32
ATOM     32  CA  ILE d   1       6.001  -1.976 -33.460  0.00  0.00     0.179 C 
ATOM     33  H4  ILE d   1       7.023  -2.119 -33.080  0.00  0.00     0.099 H 
BRANCH  32  34
ATOM     34  N   ILE d   1       5.836  -2.792 -34.657  0.00  0.00    -0.066 N 
ATOM     35  H1  ILE d   1       5.955  -3.764 -34.420  0.00  0.00     0.275 HD
ATOM     36  H2  ILE d   1       6.526  -2.527 -35.342  0.00  0.00     0.275 HD
ATOM     37  H3  ILE d   1       4.913  -2.649 -35.037  0.00  0.00     0.275 HD
ENDBRANCH  32  34
BRANCH  32  38
ATOM     38  CB  ILE d   1       5.825  -0.490 -33.795  0.00  0.00    -0.022 C 
ATOM     39  H5  ILE d   1       6.198   0.106 -32.949  0.00  0.00     0.043 H 
BRANCH  38  40
ATOM     40  CG1 ILE d   1       4.344  -0.159 -34.004  0.00  0.00    -0.063 C 
ATOM     41  H6  ILE d   1       3.845  -0.170 -33.024  0.00  0.00     0.033 H 
ATOM     42  H7  ILE d   1       3.903  -0.934 -34.649  0.00  0.00     0.033 H 
BRANCH  40  43
ATOM     43  CD1 ILE d   1       4.103   1.188 -34.646  0.00  0.00    -0.076 C 
ATOM     44  H11 ILE d   1       3.021   1.351 -34.761  0.00  0.00     0.027 H 
ATOM     45  H12 ILE d   1       4.585   1.215 -35.634  0.00  0.00     0.027 H 
ATOM     46  H13 ILE d   1       4.527   1.979 -34.010  0.00  0.00     0.027 H 
ENDBRANCH  40  43
ENDBRANCH  38  40
BRANCH  38  47
ATOM     47  CG2 ILE d   1       6.640  -0.134 -35.033  0.00  0.00    -0.070 C 
ATOM     48  H8  ILE d   1       7.698  -0.380 -34.859  0.00  0.00     0.028 H 
ATOM     49  H9  ILE d   1       6.543   0.942 -35.239  0.00  0.00     0.028 H 
ATOM     50  H10 ILE d   1       6.267  -0.707 -35.895  0.00  0.00     0.028 H 
ENDBRANCH  38  47
ENDBRANCH  32  38
ENDBRANCH  29  32
ENDBRANCH  26  28
BRANCH  26  51
ATOM     51  CB  ILE d   1       4.574  -1.723 -28.832  0.00  0.00    -0.035 C 
ATOM     52  H16 ILE d   1       4.717  -0.633 -28.800  0.00  0.00     0.037 H 
ATOM     53  H17 ILE d   1       5.551  -2.223 -28.760  0.00  0.00     0.037 H 
BRANCH  51  54
ATOM     54  CG  ILE d   1       3.764  -2.117 -27.584  0.00  0.00    -0.059 C 
ATOM     55  H18 ILE d   1       2.803  -1.584 -27.637  0.00  0.00     0.038 H 
BRANCH  54  56
ATOM     56  CD1 ILE d   1       3.470  -3.608 -27.573  0.00  0.00    -0.073 C 
ATOM     57  H19 ILE d   1       2.892  -3.861 -26.672  0.00  0.00     0.028 H 
ATOM     58  H20 ILE d   1       4.417  -4.168 -27.570  0.00  0.00     0.028 H 
ATOM     59  H21 ILE d   1       2.889  -3.874 -28.468  0.00  0.00     0.028 H 
ENDBRANCH  54  56
BRANCH  54  60
ATOM     60  CD2 ILE d   1       4.448  -1.707 -26.269  0.00  0.00    -0.073 C 
ATOM     61  H22 ILE d   1       4.657  -0.627 -26.286  0.00  0.00     0.028 H 
ATOM     62  H23 ILE d   1       5.392  -2.261 -26.158  0.00  0.00     0.028 H 
ATOM     63  H24 ILE d   1       3.785  -1.939 -25.423  0.00  0.00     0.028 H 
ENDBRANCH  54  60
ENDBRANCH  51  54
ENDBRANCH  26  51
ENDBRANCH  23  26
ENDBRANCH  20  22
BRANCH  20  64
ATOM     64  CB  ILE d   1       0.097  -1.069 -32.452  0.00  0.00    -0.049 C 
ATOM     65  H27 ILE d   1      -0.908  -0.636 -32.559  0.00  0.00     0.030 H 
ATOM     66  H28 ILE d   1       0.196  -1.935 -33.123  0.00  0.00     0.030 H 
ATOM     67  H29 ILE d   1       0.852  -0.313 -32.715  0.00  0.00     0.030 H 
ENDBRANCH  20  64
ENDBRANCH  17  20
ENDBRANCH  14  16
BRANCH  14  68
ATOM     68  CB  ILE d   1      -4.326  -2.147 -29.628  0.00  0.00    -0.012 C 
ATOM     69  H32 ILE d   1      -5.119  -2.886 -29.440  0.00  0.00     0.044 H 
ATOM     70  H33 ILE d   1      -4.595  -1.534 -30.501  0.00  0.00     0.044 H 
BRANCH  68  71
ATOM     71  CG  ILE d   1      -4.288  -1.218 -28.426  0.00  0.00    -0.028 A 
ATOM     72  CD1 ILE d   1      -4.447   0.139 -28.453  0.00  0.00    -0.015 A 
ATOM     73  NE1 ILE d   1      -4.436   0.646 -27.160  0.00  0.00    -0.365 N 
ATOM     74  H34 ILE d   1      -4.565   0.736 -29.356  0.00  0.00     0.112 H 
ATOM     75  CE2 ILE d   1      -4.264  -0.386 -26.275  0.00  0.00     0.042 A 
ATOM     76  H35 ILE d   1      -4.540   1.639 -26.907  0.00  0.00     0.165 HD
ATOM     77  CD2 ILE d   1      -4.191  -1.582 -27.028  0.00  0.00    -0.002 A 
ATOM     78  CZ2 ILE d   1      -4.176  -0.367 -24.871  0.00  0.00    -0.056 A 
ATOM     79  CE3 ILE d   1      -4.026  -2.793 -26.348  0.00  0.00    -0.070 A 
ATOM     80  CZ3 ILE d   1      -3.929  -2.768 -24.946  0.00  0.00    -0.082 A 
ATOM     81  H36 ILE d   1      -3.974  -3.730 -26.890  0.00  0.00     0.084 H 
ATOM     82  CH2 ILE d   1      -4.014  -1.568 -24.230  0.00  0.00    -0.081 A 
ATOM     83  H38 ILE d   1      -3.785  -3.698 -24.408  0.00  0.00     0.083 H 
ATOM     84  H39 ILE d   1      -3.950  -1.589 -23.148  0.00  0.00     0.083 H 
ATOM     85  H37 ILE d   1      -4.234   0.563 -24.317  0.00  0.00     0.086 H 
ENDBRANCH  68  71
ENDBRANCH  14  68
ENDBRANCH  11  14
ENDBRANCH   7  10
ENDBRANCH   4   7
ENDBRANCH   1   3
BRANCH   1  86
ATOM     86  C   ILE d   1      -8.333  -4.196 -31.547  0.00  0.00     0.240 C 
ATOM     87  O   ILE d   1      -7.828  -3.899 -30.457  0.00  0.00    -0.271 OA
ATOM     88  N   ILE d   1      -9.605  -3.986 -31.806  0.00  0.00    -0.351 N 
ATOM     89  H56 ILE d   1     -10.003  -4.308 -32.665  0.00  0.00     0.163 HD
BRANCH  88  90
ATOM     90  CA  ILE d   1     -10.420  -3.290 -30.846  0.00  0.00     0.069 C 
ATOM     91  H57 ILE d   1     -10.216  -2.212 -30.920  0.00  0.00     0.078 H 
ATOM     92  H58 ILE d   1     -10.163  -3.644 -29.837  0.00  0.00     0.078 H 
BRANCH  90  93
ATOM     93  C   ILE d   1     -11.875  -3.525 -31.086  0.00  0.00     0.235 C 
ATOM     94  O   ILE d   1     -12.264  -4.502 -31.730  0.00  0.00    -0.272 OA
ATOM     95  N   ILE d   1     -12.682  -2.612 -30.559  0.00  0.00    -0.351 N 
ATOM     96  H59 ILE d   1     -12.284  -1.825 -30.087  0.00  0.00     0.163 HD
BRANCH  95  97
ATOM     97  CA  ILE d   1     -14.124  -2.724 -30.648  0.00  0.00     0.069 C 
ATOM     98  H60 ILE d   1     -14.491  -3.359 -29.828  0.00  0.00     0.078 H 
ATOM     99  H61 ILE d   1     -14.394  -3.178 -31.613  0.00  0.00     0.078 H 
BRANCH  97 100
ATOM    100  C   ILE d   1     -14.759  -1.361 -30.544  0.00  0.00     0.236 C 
ATOM    101  O   ILE d   1     -14.125  -0.386 -30.133  0.00  0.00    -0.272 OA
ATOM    102  N   ILE d   1     -16.024  -1.294 -30.941  0.00  0.00    -0.344 N 
ATOM    103  H62 ILE d   1     -16.492  -2.118 -31.262  0.00  0.00     0.163 HD
BRANCH 102 104
ATOM    104  CA  ILE d   1     -16.728  -0.026 -30.910  0.00  0.00     0.113 C 
ATOM    105  H63 ILE d   1     -16.093   0.747 -31.367  0.00  0.00     0.091 H 
BRANCH 104 106
ATOM    106  C   ILE d   1     -17.010   0.360 -29.465  0.00  0.00     0.243 C 
ATOM    107  O   ILE d   1     -17.399  -0.486 -28.656  0.00  0.00    -0.271 OA
ATOM    108  N   ILE d   1     -16.777   1.633 -29.145  0.00  0.00    -0.346 N 
ATOM    109  H69 ILE d   1     -16.365   2.230 -29.834  0.00  0.00     0.163 HD
BRANCH 108 110
ATOM    110  CA  ILE d   1     -17.095   2.196 -27.837  0.00  0.00     0.089 C 
ATOM    111  H70 ILE d   1     -16.424   1.758 -27.084  0.00  0.00     0.087 H 
BRANCH 110 112
ATOM    112  C   ILE d   1     -18.534   1.887 -27.445  0.00  0.00     0.241 C 
ATOM    113  O   ILE d   1     -19.461   2.096 -28.230  0.00  0.00    -0.271 OA
ATOM    114  N   ILE d   1     -18.721   1.383 -26.229  0.00  0.00    -0.344 N 
ATOM    115  H82 ILE d   1     -17.945   1.281 -25.607  0.00  0.00     0.163 HD
BRANCH 114 116
ATOM    116  CA  ILE d   1     -20.055   0.979 -25.799  0.00  0.00     0.109 C 
ATOM    117  H83 ILE d   1     -20.477   0.304 -26.558  0.00  0.00     0.090 H 
BRANCH 116 118
ATOM    118  C   ILE d   1     -20.975   2.194 -25.675  0.00  0.00     0.243 C 
ATOM    119  O   ILE d   1     -20.560   3.265 -25.224  0.00  0.00    -0.271 OA
ATOM    120  N   ILE d   1     -22.227   2.034 -26.106  0.00  0.00    -0.344 N 
ATOM    121  H87 ILE d   1     -22.489   1.173 -26.541  0.00  0.00     0.163 HD
BRANCH 120 122
ATOM    122  CA  ILE d   1     -23.227   3.096 -25.954  0.00  0.00     0.104 C 
ATOM    123  H88 ILE d   1     -23.190   3.443 -24.911  0.00  0.00     0.090 H 
BRANCH 122 124
ATOM    124  C   ILE d   1     -24.643   2.586 -26.230  0.00  0.00     0.197 C 
ATOM    125  O   ILE d   1     -25.285   1.994 -25.361  0.00  0.00    -0.646 OA
ATOM    126  OXT ILE d   1     -25.176   2.755 -27.328  0.00  0.00    -0.646 OA
ENDBRANCH 122 124
BRANCH 122 127
ATOM    127  CB  ILE d   1     -22.908   4.295 -26.867  0.00  0.00     0.037 C 
ATOM    128  H89 ILE d   1     -21.904   4.668 -26.617  0.00  0.00     0.051 H 
ATOM    129  H90 ILE d   1     -23.650   5.085 -26.679  0.00  0.00     0.051 H 
BRANCH 127 130
ATOM    130  CG  ILE d   1     -22.939   3.946 -28.346  0.00  0.00     0.217 C 
ATOM    131  OD1 ILE d   1     -23.942   3.446 -28.859  0.00  0.00    -0.274 OA
ATOM    132  ND2 ILE d   1     -21.835   4.221 -29.046  0.00  0.00    -0.370 N 
ATOM    133  H91 ILE d   1     -21.798   4.013 -30.023  0.00  0.00     0.159 HD
ATOM    134  H92 ILE d   1     -21.046   4.635 -28.593  0.00  0.00     0.159 HD
ENDBRANCH 127 130
ENDBRANCH 122 127
ENDBRANCH 120 122
ENDBRANCH 116 118
BRANCH 116 135
ATOM    135  CB  ILE d   1     -19.965   0.220 -24.472  0.00  0.00     0.044 C 
ATOM    136  H84 ILE d   1     -20.963  -0.152 -24.196  0.00  0.00     0.077 H 
ATOM    137  H85 ILE d   1     -19.597   0.898 -23.688  0.00  0.00     0.077 H 
BRANCH 135 138
ATOM    138  OG  ILE d   1     -19.070  -0.881 -24.603  0.00  0.00    -0.398 OA
ATOM    139  H86 ILE d   1     -19.388  -1.468 -25.279  0.00  0.00     0.209 HD
ENDBRANCH 135 138
ENDBRANCH 116 135
ENDBRANCH 114 116
ENDBRANCH 110 112
BRANCH 110 140
ATOM    140  CB  ILE d   1     -16.862   3.706 -27.898  0.00  0.00    -0.036 C 
ATOM    141  H71 ILE d   1     -17.447   4.101 -28.741  0.00  0.00     0.036 H 
ATOM    142  H72 ILE d   1     -15.791   3.872 -28.085  0.00  0.00     0.036 H 
BRANCH 140 143
ATOM    143  CG  ILE d   1     -17.236   4.484 -26.682  0.00  0.00    -0.048 C 
ATOM    144  H73 ILE d   1     -16.622   4.151 -25.832  0.00  0.00     0.035 H 
ATOM    145  H74 ILE d   1     -18.299   4.317 -26.454  0.00  0.00     0.035 H 
BRANCH 143 146
ATOM    146  CD  ILE d   1     -16.999   5.967 -26.926  0.00  0.00     0.009 C 
ATOM    147  H75 ILE d   1     -17.247   6.530 -26.014  0.00  0.00     0.064 H 
ATOM    148  H76 ILE d   1     -17.640   6.307 -27.753  0.00  0.00     0.064 H 
BRANCH 146 149
ATOM    149  NE  ILE d   1     -15.606   6.198 -27.271  0.00  0.00    -0.227 N 
ATOM    150  CZ  ILE d   1     -14.683   6.643 -26.427  0.00  0.00     0.665 C 
ATOM    151  NH1 ILE d   1     -15.002   6.943 -25.172  0.00  0.00    -0.235 N 
ATOM    152  NH2 ILE d   1     -13.441   6.815 -26.857  0.00  0.00    -0.235 N 
ATOM    153  H78 ILE d   1     -14.278   7.288 -24.525  0.00  0.00     0.174 HD
ATOM    154  H79 ILE d   1     -15.973   6.831 -24.846  0.00  0.00     0.174 HD
ATOM    155  H80 ILE d   1     -13.196   6.582 -27.830  0.00  0.00     0.174 HD
ATOM    156  H81 ILE d   1     -12.721   7.182 -26.218  0.00  0.00     0.174 HD
ATOM    157  H77 ILE d   1     -15.314   6.003 -28.239  0.00  0.00     0.177 HD
ENDBRANCH 146 149
ENDBRANCH 143 146
ENDBRANCH 140 143
ENDBRANCH 110 140
ENDBRANCH 108 110
ENDBRANCH 104 106
BRANCH 104 158
ATOM    158  CB  ILE d   1     -18.033  -0.123 -31.706  0.00  0.00     0.060 C 
ATOM    159  H64 ILE d   1     -18.605  -0.995 -31.357  0.00  0.00     0.086 H 
BRANCH 158 160
ATOM    160  OG1 ILE d   1     -17.724  -0.279 -33.095  0.00  0.00    -0.393 OA
ATOM    161  H65 ILE d   1     -17.222   0.471 -33.393  0.00  0.00     0.210 HD
ENDBRANCH 158 160
BRANCH 158 162
ATOM    162  CG2 ILE d   1     -18.866   1.125 -31.518  0.00  0.00    -0.050 C 
ATOM    163  H66 ILE d   1     -19.797   1.035 -32.097  0.00  0.00     0.031 H 
ATOM    164  H67 ILE d   1     -18.299   2.000 -31.869  0.00  0.00     0.031 H 
ATOM    165  H68 ILE d   1     -19.108   1.248 -30.452  0.00  0.00     0.031 H 
ENDBRANCH 158 162
ENDBRANCH 104 158
ENDBRANCH 102 104
ENDBRANCH  97 100
ENDBRANCH  95  97
ENDBRANCH  90  93
ENDBRANCH  88  90
ENDBRANCH   1  86
BRANCH   1 166
ATOM    166  CB  ILE d   1      -8.219  -6.038 -33.245  0.00  0.00    -0.036 C 
ATOM    167  H45 ILE d   1      -7.558  -6.500 -33.993  0.00  0.00     0.036 H 
ATOM    168  H46 ILE d   1      -9.134  -5.678 -33.738  0.00  0.00     0.036 H 
BRANCH 166 169
ATOM    169  CG  ILE d   1      -8.612  -7.106 -32.234  0.00  0.00    -0.048 C 
ATOM    170  H47 ILE d   1      -9.627  -6.900 -31.862  0.00  0.00     0.035 H 
ATOM    171  H48 ILE d   1      -7.903  -7.090 -31.393  0.00  0.00     0.035 H 
BRANCH 169 172
ATOM    172  CD  ILE d   1      -8.585  -8.483 -32.891  0.00  0.00     0.009 C 
ATOM    173  H49 ILE d   1      -7.537  -8.788 -33.025  0.00  0.00     0.064 H 
ATOM    174  H50 ILE d   1      -9.076  -8.414 -33.873  0.00  0.00     0.064 H 
BRANCH 172 175
ATOM    175  NE  ILE d   1      -9.270  -9.501 -32.097  0.00  0.00    -0.227 N 
ATOM    176  CZ  ILE d   1      -9.031 -10.806 -32.187  0.00  0.00     0.665 C 
ATOM    177  NH1 ILE d   1      -9.701 -11.662 -31.426  0.00  0.00    -0.235 N 
ATOM    178  NH2 ILE d   1      -8.122 -11.257 -33.042  0.00  0.00    -0.235 N 
ATOM    179  H52 ILE d   1      -9.513 -12.672 -31.499  0.00  0.00     0.174 HD
ATOM    180  H53 ILE d   1     -10.409 -11.316 -30.763  0.00  0.00     0.174 HD
ATOM    181  H54 ILE d   1      -7.600 -10.596 -33.635  0.00  0.00     0.174 HD
ATOM    182  H55 ILE d   1      -7.939 -12.268 -33.113  0.00  0.00     0.174 HD
ATOM    183  H51 ILE d   1      -9.984  -9.187 -31.424  0.00  0.00     0.177 HD
ENDBRANCH 172 175
ENDBRANCH 169 172
ENDBRANCH 166 169
ENDBRANCH   1 166
TORSDOF 50
