REMARK  12 active torsions:
REMARK  status: ('A' for Active; 'I' for Inactive)
REMARK    1  A    between atoms: O3B_8  and  PG_1 
REMARK    2  A    between atoms: PB_5  and  O3B_8 
REMARK    3  A    between atoms: O3A_12  and  PB_5 
REMARK    4  A    between atoms: PA_9  and  O3A_12 
REMARK    5  A    between atoms: PA_9  and  O5'_13 
REMARK    6  A    between atoms: O5'_13  and  C5'_14 
REMARK    7  A    between atoms: C5'_14  and  C4'_15 
REMARK    8  A    between atoms: C1'_21  and  N9_22 
REMARK    9  A    between atoms: C6_26  and  N6_27 
REMARK   10  A    between atoms: C2F_33  and  N2F_38 
REMARK   11  A    between atoms: C4F_35  and  N4F_39 
REMARK   12  A    between atoms: C6F_37  and  N6F_40 
ROOT
ATOM      1  C4' 128 d   1     -23.836 -23.947 -34.304  0.00  0.00     0.089 C 
ATOM      2  O4' 128 d   1     -23.385 -23.974 -32.939  0.00  0.00    -0.353 OA
ATOM      3  C3' 128 d   1     -23.835 -22.459 -34.611  0.00  0.00     0.098 C 
ATOM      4  O3' 128 d   1     -24.803 -22.078 -35.606  0.00  0.00    -0.337 OA
ATOM      5  C2' 128 d   1     -24.338 -21.827 -33.308  0.00  0.00     0.112 C 
ATOM      6  O2' 128 d   1     -25.731 -21.731 -33.551  0.00  0.00    -0.335 OA
ATOM      7  C1' 128 d   1     -23.986 -22.890 -32.246  0.00  0.00     0.140 C 
ATOM      8  C1F 128 d   1     -25.868 -21.364 -34.936  0.00  0.00     0.247 A 
ATOM      9  C2F 128 d   1     -27.267 -21.910 -35.150  0.00  0.00     0.147 A 
ATOM     10  C3F 128 d   1     -28.347 -21.154 -35.511  0.00  0.00    -0.018 A 
ATOM     11  C4F 128 d   1     -28.236 -19.794 -35.713  0.00  0.00     0.103 A 
ATOM     12  C5F 128 d   1     -27.008 -19.170 -35.592  0.00  0.00    -0.038 A 
ATOM     13  C6F 128 d   1     -25.859 -19.864 -35.241  0.00  0.00     0.152 A 
ATOM     14  H3  128 d   1     -24.837 -24.387 -34.426  0.00  0.00     0.090 H 
ATOM     15  H4  128 d   1     -22.829 -22.114 -34.893  0.00  0.00     0.091 H 
ATOM     16  H5  128 d   1     -23.889 -20.850 -33.076  0.00  0.00     0.094 H 
ATOM     17  H6  128 d   1     -24.903 -23.214 -31.733  0.00  0.00     0.122 H 
ATOM     18  H11 128 d   1     -29.315 -21.635 -35.642  0.00  0.00     0.090 H 
ATOM     19  H12 128 d   1     -26.941 -18.099 -35.778  0.00  0.00     0.084 H 
ATOM     20  H13 128 d   1     -25.655 -20.092 -36.298  0.00  0.00     0.098 H 
ENDROOT
BRANCH   1  21
ATOM     21  C5' 128 d   1     -22.828 -24.687 -35.136  0.00  0.00     0.058 C 
ATOM     22  H1  128 d   1     -22.713 -25.730 -34.805  0.00  0.00     0.079 H 
ATOM     23  H2  128 d   1     -23.089 -24.668 -36.205  0.00  0.00     0.079 H 
BRANCH  21  24
ATOM     24  O5' 128 d   1     -21.643 -23.903 -34.859  0.00  0.00    -0.287 OA
BRANCH  24  25
ATOM     25  PA  128 d   1     -20.412 -24.047 -35.861  0.00  0.00     0.417 P 
ATOM     26  O1A 128 d   1     -19.643 -25.279 -35.527  0.00  0.00    -0.624 OA
ATOM     27  O2A 128 d   1     -20.926 -23.841 -37.243  0.00  0.00    -0.624 OA
BRANCH  25  28
ATOM     28  O3A 128 d   1     -19.573 -22.755 -35.456  0.00  0.00    -0.180 OA
BRANCH  28  29
ATOM     29  PB  128 d   1     -18.285 -22.023 -36.068  0.00  0.00     0.428 P 
ATOM     30  O1B 128 d   1     -17.123 -22.941 -36.057  0.00  0.00    -0.624 OA
ATOM     31  O2B 128 d   1     -18.174 -20.716 -35.378  0.00  0.00    -0.624 OA
BRANCH  29  32
ATOM     32  O3B 128 d   1     -18.736 -21.756 -37.587  0.00  0.00    -0.173 OA
BRANCH  32  33
ATOM     33  PG  128 d   1     -18.690 -22.563 -38.996  0.00  0.00     0.431 P 
ATOM     34  O1G 128 d   1     -19.324 -23.917 -38.806  0.00  0.00    -0.616 OA
ATOM     35  O2G 128 d   1     -19.436 -21.725 -40.009  0.00  0.00    -0.616 OA
ATOM     36  O3G 128 d   1     -17.212 -22.657 -39.307  0.00  0.00    -0.616 OA
ENDBRANCH  32  33
ENDBRANCH  29  32
ENDBRANCH  28  29
ENDBRANCH  25  28
ENDBRANCH  24  25
ENDBRANCH  21  24
ENDBRANCH   1  21
BRANCH   7  37
ATOM     37  N9  128 d   1     -23.020 -22.432 -31.266  0.00  0.00    -0.294 N 
ATOM     38  C8  128 d   1     -21.666 -22.297 -31.449  0.00  0.00     0.071 A 
ATOM     39  N7  128 d   1     -21.059 -21.851 -30.377  0.00  0.00    -0.236 NA
ATOM     40  H7  128 d   1     -21.154 -22.534 -32.380  0.00  0.00     0.144 H 
ATOM     41  C5  128 d   1     -22.066 -21.697 -29.434  0.00  0.00     0.149 A 
ATOM     42  C6  128 d   1     -22.055 -21.256 -28.096  0.00  0.00     0.155 A 
ATOM     43  C4  128 d   1     -23.283 -22.053 -29.974  0.00  0.00     0.167 A 
ATOM     44  N1  128 d   1     -23.243 -21.219 -27.442  0.00  0.00    -0.222 NA
ATOM     45  C2  128 d   1     -24.344 -21.605 -28.098  0.00  0.00     0.091 A 
ATOM     46  N3  128 d   1     -24.472 -22.031 -29.352  0.00  0.00    -0.222 NA
ATOM     47  H10 128 d   1     -25.264 -21.565 -27.525  0.00  0.00     0.146 H 
BRANCH  42  48
ATOM     48  N6  128 d   1     -20.950 -20.870 -27.458  0.00  0.00    -0.382 N 
ATOM     49  H8  128 d   1     -21.004 -20.557 -26.478  0.00  0.00     0.157 HD
ATOM     50  H9  128 d   1     -20.042 -20.885 -27.945  0.00  0.00     0.157 HD
ENDBRANCH  42  48
ENDBRANCH   7  37
BRANCH   9  51
ATOM     51  N2F 128 d   1     -27.511 -23.266 -34.937  0.00  0.00    -0.114 N 
ATOM     52  O2F 128 d   1     -26.573 -24.030 -34.616  0.00  0.00    -0.532 OA
ATOM     53  O3F 128 d   1     -28.676 -23.700 -35.076  0.00  0.00    -0.532 OA
ENDBRANCH   9  51
BRANCH  13  54
ATOM     54  N6F 128 d   1     -24.678 -19.081 -35.161  0.00  0.00    -0.141 N 
ATOM     55  O6F 128 d   1     -24.761 -17.855 -35.406  0.00  0.00    -0.536 OA
ATOM     56  O7F 128 d   1     -23.570 -19.584 -34.868  0.00  0.00    -0.536 OA
ENDBRANCH  13  54
BRANCH  11  57
ATOM     57  N4F 128 d   1     -29.389 -19.096 -36.056  0.00  0.00    -0.116 N 
ATOM     58  O4F 128 d   1     -29.343 -17.748 -36.291  0.00  0.00    -0.532 OA
ATOM     59  O5F 128 d   1     -30.501 -19.682 -36.163  0.00  0.00    -0.532 OA
ENDBRANCH  11  57
TORSDOF 12
