REMARK WARNING: 32 MAX_TORS EXCEEDED!!!
REMARK  56 active torsions:
REMARK  status: ('A' for Active; 'I' for Inactive)
REMARK    1  A    between atoms: N_1  and  CA_2 
REMARK    2  A    between atoms: CA_2  and  C_3 
REMARK    3  A    between atoms: CA_2  and  CB_5 
REMARK       I    between atoms: C_3  and  N_9 
REMARK    4  A    between atoms: CB_5  and  CG_6 
REMARK    5  A    between atoms: CG_6  and  SD_7 
REMARK    6  A    between atoms: SD_7  and  CE_8 
REMARK    7  A    between atoms: N_9  and  CA_10 
REMARK    8  A    between atoms: CA_10  and  C_11 
REMARK    9  A    between atoms: CA_10  and  CB_13 
REMARK       I    between atoms: C_11  and  N_15 
REMARK   10  A    between atoms: CB_13  and  OG_14 
REMARK   11  A    between atoms: N_15  and  CA_16 
REMARK   12  A    between atoms: CA_16  and  C_17 
REMARK   13  A    between atoms: CA_16  and  CB_19 
REMARK       I    between atoms: C_17  and  N_26 
REMARK   14  A    between atoms: CB_19  and  CG_20 
REMARK   15  A    between atoms: CG_20  and  CD_21 
REMARK   16  A    between atoms: CD_21  and  NE_22 
REMARK       I    between atoms: NE_22  and  CZ_23 
REMARK       I    between atoms: CZ_23  and  NH1_24 
REMARK       I    between atoms: CZ_23  and  NH2_25 
REMARK   17  A    between atoms: N_26  and  CA_27 
REMARK   18  A    between atoms: CA_27  and  C_28 
REMARK   19  A    between atoms: CA_27  and  CB_30 
REMARK       I    between atoms: C_28  and  N_37 
REMARK   20  A    between atoms: CB_30  and  CG_31 
REMARK   21  A    between atoms: CG_31  and  CD_32 
REMARK   22  A    between atoms: CD_32  and  NE_33 
REMARK       I    between atoms: NE_33  and  CZ_34 
REMARK       I    between atoms: CZ_34  and  NH1_35 
REMARK   23  A    between atoms: N_37  and  CA_38 
REMARK   24  A    between atoms: CA_38  and  C_39 
REMARK   25  A    between atoms: CA_38  and  CB_41 
REMARK       I    between atoms: C_39  and  N_46 
REMARK   26  A    between atoms: CB_41  and  CG_42 
REMARK   27  A    between atoms: CG_42  and  CD_43 
REMARK   28  A    between atoms: CD_43  and  CE_44 
REMARK   29  A    between atoms: CE_44  and  NZ_45 
REMARK   30  A    between atoms: N_46  and  CA_47 
REMARK   31  A    between atoms: CA_47  and  C_48 
REMARK   32  A    between atoms: CA_47  and  CB_50 
REMARK       I    between atoms: C_48  and  N_55 
REMARK   33  A    between atoms: CB_50  and  CG_51 
REMARK   34  A    between atoms: CG_51  and  CD_52 
REMARK       I    between atoms: CD_52  and  NE2_54 
REMARK   35  A    between atoms: N_55  and  CA_56 
REMARK   36  A    between atoms: CA_56  and  C_57 
REMARK   37  A    between atoms: CA_56  and  CB_59 
REMARK       I    between atoms: C_57  and  N_60 
REMARK   38  A    between atoms: N_60  and  CA_61 
REMARK   39  A    between atoms: CA_61  and  C_62 
REMARK   40  A    between atoms: CA_61  and  CB_64 
REMARK       I    between atoms: C_62  and  N_65 
REMARK   41  A    between atoms: CA_66  and  C_67 
REMARK       I    between atoms: C_67  and  N_72 
REMARK   42  A    between atoms: N_72  and  CA_73 
REMARK   43  A    between atoms: CA_73  and  C_74 
REMARK   44  A    between atoms: CA_73  and  CB_76 
REMARK       I    between atoms: C_74  and  N_81 
REMARK   45  A    between atoms: CB_76  and  CG_77 
REMARK   46  A    between atoms: CG_77  and  CD_78 
REMARK       I    between atoms: CD_78  and  NE2_80 
REMARK   47  A    between atoms: N_81  and  CA_82 
REMARK   48  A    between atoms: CA_82  and  C_83 
REMARK   49  A    between atoms: CA_82  and  CB_85 
REMARK       I    between atoms: C_83  and  N_91 
REMARK   50  A    between atoms: CB_85  and  CG_86 
REMARK   51  A    between atoms: N_91  and  CA_92 
REMARK   52  A    between atoms: CA_92  and  C_93 
REMARK   53  A    between atoms: CA_92  and  CB_95 
REMARK   54  A    between atoms: CB_95  and  CG1_96 
REMARK   55  A    between atoms: CB_95  and  CG2_97 
REMARK   56  A    between atoms: CG1_96  and  CD1_98 
ROOT
ATOM      1  CA  GLN d   1      -1.101   8.639  21.402  0.00  0.00     0.090 C 
ATOM      2  H57 GLN d   1      -1.538   9.137  20.524  0.00  0.00     0.087 H 
ENDROOT
BRANCH   1   3
ATOM      3  N   GLN d   1      -0.493   7.401  20.907  0.00  0.00    -0.346 N 
ATOM      4  C   LYS d   1       0.397   7.478  19.926  0.00  0.00     0.241 C 
ATOM      5  O   LYS d   1       0.691   8.550  19.383  0.00  0.00    -0.271 OA
ATOM      6  H56 GLN d   1      -0.744   6.516  21.300  0.00  0.00     0.163 HD
BRANCH   4   7
ATOM      7  CA  LYS d   1       1.002   6.175  19.463  0.00  0.00     0.089 C 
ATOM      8  H44 LYS d   1       0.481   5.343  19.960  0.00  0.00     0.087 H 
BRANCH   7   9
ATOM      9  N   LYS d   1       0.850   6.029  18.028  0.00  0.00    -0.346 N 
ATOM     10  C   ARG d   1       0.001   5.162  17.480  0.00  0.00     0.241 C 
ATOM     11  O   ARG d   1      -0.792   4.473  18.119  0.00  0.00    -0.271 OA
ATOM     12  H43 LYS d   1       1.405   6.603  17.426  0.00  0.00     0.163 HD
BRANCH  10  13
ATOM     13  CA  ARG d   1       0.042   5.091  15.973  0.00  0.00     0.089 C 
ATOM     14  H31 ARG d   1      -0.947   4.779  15.605  0.00  0.00     0.087 H 
BRANCH  13  15
ATOM     15  N   ARG d   1       0.359   6.396  15.439  0.00  0.00    -0.346 N 
ATOM     16  C   ARG d   1      -0.526   7.191  14.863  0.00  0.00     0.241 C 
ATOM     17  O   ARG d   1      -1.717   6.898  14.734  0.00  0.00    -0.271 OA
ATOM     18  H30 ARG d   1       1.304   6.716  15.509  0.00  0.00     0.163 HD
BRANCH  16  19
ATOM     19  CA  ARG d   1       0.069   8.525  14.421  0.00  0.00     0.089 C 
ATOM     20  H18 ARG d   1      -0.212   9.326  15.120  0.00  0.00     0.087 H 
BRANCH  19  21
ATOM     21  N   ARG d   1       1.514   8.291  14.432  0.00  0.00    -0.346 N 
ATOM     22  C   SER d   1       2.388   8.925  15.208  0.00  0.00     0.243 C 
ATOM     23  O   SER d   1       2.054   9.765  16.042  0.00  0.00    -0.271 OA
ATOM     24  H17 ARG d   1       1.873   7.599  13.806  0.00  0.00     0.163 HD
BRANCH  22  25
ATOM     25  CA  SER d   1       3.865   8.488  15.059  0.00  0.00     0.109 C 
ATOM     26  H13 SER d   1       4.185   8.749  14.040  0.00  0.00     0.090 H 
BRANCH  25  27
ATOM     27  N   SER d   1       4.764   9.159  15.993  0.00  0.00    -0.344 N 
ATOM     28  C   MET d   1       5.518  10.202  15.663  0.00  0.00     0.249 C 
ATOM     29  O   MET d   1       5.592  10.657  14.521  0.00  0.00    -0.271 OA
ATOM     30  H12 SER d   1       4.815   8.816  16.931  0.00  0.00     0.163 HD
BRANCH  28  31
ATOM     31  CA  MET d   1       6.303  10.826  16.818  0.00  0.00     0.176 C 
ATOM     32  H4  MET d   1       6.206  10.165  17.692  0.00  0.00     0.099 H 
BRANCH  31  33
ATOM     33  N   MET d   1       7.720  10.955  16.509  0.00  0.00    -0.066 N 
ATOM     34  H1  MET d   1       8.199  11.369  17.294  0.00  0.00     0.275 HD
ATOM     35  H2  MET d   1       7.835  11.542  15.698  0.00  0.00     0.275 HD
ATOM     36  H3  MET d   1       8.107  10.043  16.322  0.00  0.00     0.275 HD
ENDBRANCH  31  33
BRANCH  31  37
ATOM     37  CB  MET d   1       5.706  12.191  17.177  0.00  0.00    -0.022 C 
ATOM     38  H5  MET d   1       4.943  12.039  17.954  0.00  0.00     0.037 H 
ATOM     39  H6  MET d   1       5.233  12.607  16.275  0.00  0.00     0.037 H 
BRANCH  37  40
ATOM     40  CG  MET d   1       6.707  13.195  17.690  0.00  0.00    -0.021 C 
ATOM     41  H7  MET d   1       7.644  13.087  17.124  0.00  0.00     0.049 H 
ATOM     42  H8  MET d   1       6.897  12.998  18.756  0.00  0.00     0.049 H 
BRANCH  40  43
ATOM     43  SD  MET d   1       6.104  14.880  17.505  0.00  0.00    -0.173 SA
BRANCH  43  44
ATOM     44  CE  MET d   1       6.418  15.157  15.758  0.00  0.00    -0.035 C 
ATOM     45  H9  MET d   1       6.094  16.172  15.484  0.00  0.00     0.041 H 
ATOM     46  H10 MET d   1       5.858  14.420  15.163  0.00  0.00     0.041 H 
ATOM     47  H11 MET d   1       7.494  15.049  15.557  0.00  0.00     0.041 H 
ENDBRANCH  43  44
ENDBRANCH  40  43
ENDBRANCH  37  40
ENDBRANCH  31  37
ENDBRANCH  28  31
ENDBRANCH  25  27
BRANCH  25  48
ATOM     48  CB  SER d   1       4.000   6.971  15.232  0.00  0.00     0.044 C 
ATOM     49  H14 SER d   1       5.030   6.738  15.539  0.00  0.00     0.077 H 
ATOM     50  H15 SER d   1       3.785   6.482  14.270  0.00  0.00     0.077 H 
BRANCH  48  51
ATOM     51  OG  SER d   1       3.105   6.471  16.211  0.00  0.00    -0.398 OA
ATOM     52  H16 SER d   1       3.217   5.531  16.290  0.00  0.00     0.209 HD
ENDBRANCH  48  51
ENDBRANCH  25  48
ENDBRANCH  22  25
ENDBRANCH  19  21
BRANCH  19  53
ATOM     53  CB  ARG d   1      -0.364   8.907  12.990  0.00  0.00    -0.036 C 
ATOM     54  H19 ARG d   1       0.133   8.204  12.305  0.00  0.00     0.036 H 
ATOM     55  H20 ARG d   1       0.006   9.926  12.802  0.00  0.00     0.036 H 
BRANCH  53  56
ATOM     56  CG  ARG d   1      -1.824   8.899  12.646  0.00  0.00    -0.048 C 
ATOM     57  H21 ARG d   1      -2.260   9.882  12.878  0.00  0.00     0.035 H 
ATOM     58  H22 ARG d   1      -2.335   8.123  13.235  0.00  0.00     0.035 H 
BRANCH  56  59
ATOM     59  CD  ARG d   1      -1.999   8.603  11.152  0.00  0.00     0.009 C 
ATOM     60  H23 ARG d   1      -3.076   8.570  10.931  0.00  0.00     0.064 H 
ATOM     61  H24 ARG d   1      -1.551   7.621  10.941  0.00  0.00     0.064 H 
BRANCH  59  62
ATOM     62  NE  ARG d   1      -1.379   9.590  10.265  0.00  0.00    -0.227 N 
ATOM     63  CZ  ARG d   1      -0.513   9.321   9.286  0.00  0.00     0.665 C 
ATOM     64  NH1 ARG d   1      -0.109   8.077   9.016  0.00  0.00    -0.235 N 
ATOM     65  NH2 ARG d   1      -0.040  10.329   8.569  0.00  0.00    -0.235 N 
ATOM     66  H26 ARG d   1       0.561   7.907   8.252  0.00  0.00     0.174 HD
ATOM     67  H27 ARG d   1      -0.467   7.287   9.572  0.00  0.00     0.174 HD
ATOM     68  H28 ARG d   1      -0.346  11.292   8.770  0.00  0.00     0.174 HD
ATOM     69  H29 ARG d   1       0.634  10.150   7.811  0.00  0.00     0.174 HD
ATOM     70  H25 ARG d   1      -1.634  10.578  10.409  0.00  0.00     0.177 HD
ENDBRANCH  59  62
ENDBRANCH  56  59
ENDBRANCH  53  56
ENDBRANCH  19  53
ENDBRANCH  16  19
ENDBRANCH  13  15
BRANCH  13  71
ATOM     71  CB  ARG d   1       1.089   4.086  15.492  0.00  0.00    -0.036 C 
ATOM     72  H32 ARG d   1       2.067   4.406  15.882  0.00  0.00     0.036 H 
ATOM     73  H33 ARG d   1       1.105   4.117  14.393  0.00  0.00     0.036 H 
BRANCH  71  74
ATOM     74  CG  ARG d   1       0.873   2.657  15.909  0.00  0.00    -0.048 C 
ATOM     75  H34 ARG d   1       0.089   2.206  15.283  0.00  0.00     0.035 H 
ATOM     76  H35 ARG d   1       0.564   2.625  16.964  0.00  0.00     0.035 H 
BRANCH  74  77
ATOM     77  CD  ARG d   1       2.176   1.879  15.735  0.00  0.00     0.009 C 
ATOM     78  H36 ARG d   1       2.058   0.901  16.225  0.00  0.00     0.064 H 
ATOM     79  H37 ARG d   1       2.979   2.443  16.232  0.00  0.00     0.064 H 
BRANCH  77  80
ATOM     80  NE  ARG d   1       2.576   1.646  14.346  0.00  0.00    -0.227 N 
ATOM     81  CZ  ARG d   1       2.371   0.503  13.710  0.00  0.00     0.665 C 
ATOM     82  NH1 ARG d   1       2.789   0.340  12.454  0.00  0.00    -0.235 N 
ATOM     83  NH2 ARG d   1       1.751  -0.484  14.347  0.00  0.00    -0.235 N 
ATOM     84  H39 ARG d   1       2.624  -0.553  11.968  0.00  0.00     0.174 HD
ATOM     85  H40 ARG d   1       3.276   1.107  11.970  0.00  0.00     0.174 HD
ATOM     86  H41 ARG d   1       1.431  -0.350  15.317  0.00  0.00     0.174 HD
ATOM     87  H42 ARG d   1       1.590  -1.383  13.871  0.00  0.00     0.174 HD
ATOM     88  H38 ARG d   1       3.041   2.411  13.837  0.00  0.00     0.177 HD
ENDBRANCH  77  80
ENDBRANCH  74  77
ENDBRANCH  71  74
ENDBRANCH  13  71
ENDBRANCH  10  13
ENDBRANCH   7   9
BRANCH   7  89
ATOM     89  CB  LYS d   1       2.489   6.134  19.849  0.00  0.00    -0.038 C 
ATOM     90  H45 LYS d   1       2.858   7.169  19.887  0.00  0.00     0.036 H 
ATOM     91  H46 LYS d   1       3.028   5.581  19.066  0.00  0.00     0.036 H 
BRANCH  89  92
ATOM     92  CG  LYS d   1       2.803   5.467  21.204  0.00  0.00    -0.061 C 
ATOM     93  H47 LYS d   1       2.207   4.547  21.297  0.00  0.00     0.033 H 
ATOM     94  H48 LYS d   1       2.536   6.160  22.015  0.00  0.00     0.033 H 
BRANCH  92  95
ATOM     95  CD  LYS d   1       4.273   5.116  21.320  0.00  0.00    -0.043 C 
ATOM     96  H49 LYS d   1       4.510   4.313  20.607  0.00  0.00     0.035 H 
ATOM     97  H50 LYS d   1       4.482   4.771  22.343  0.00  0.00     0.035 H 
BRANCH  95  98
ATOM     98  CE  LYS d   1       5.134   6.315  21.017  0.00  0.00     0.080 C 
ATOM     99  H51 LYS d   1       4.904   7.102  21.750  0.00  0.00     0.075 H 
ATOM    100  H52 LYS d   1       4.889   6.673  20.006  0.00  0.00     0.075 H 
BRANCH  98 101
ATOM    101  NZ  LYS d   1       6.605   6.027  21.075  0.00  0.00    -0.079 N 
ATOM    102  H53 LYS d   1       7.120   6.867  20.863  0.00  0.00     0.274 HD
ATOM    103  H54 LYS d   1       6.835   5.313  20.401  0.00  0.00     0.274 HD
ATOM    104  H55 LYS d   1       6.849   5.707  21.999  0.00  0.00     0.274 HD
ENDBRANCH  98 101
ENDBRANCH  95  98
ENDBRANCH  92  95
ENDBRANCH  89  92
ENDBRANCH   7  89
ENDBRANCH   4   7
ENDBRANCH   1   3
BRANCH   1 105
ATOM    105  C   GLN d   1      -0.142   9.621  22.020  0.00  0.00     0.241 C 
ATOM    106  O   GLN d   1       1.001   9.303  22.374  0.00  0.00    -0.271 OA
ATOM    107  N   ALA d   1      -0.646  10.841  22.141  0.00  0.00    -0.346 N 
ATOM    108  H64 ALA d   1      -1.568  11.027  21.802  0.00  0.00     0.163 HD
BRANCH 107 109
ATOM    109  CA  ALA d   1       0.110  11.902  22.751  0.00  0.00     0.086 C 
ATOM    110  H65 ALA d   1       1.169  11.798  22.472  0.00  0.00     0.086 H 
BRANCH 109 111
ATOM    111  C   ALA d   1      -0.017  11.761  24.241  0.00  0.00     0.240 C 
ATOM    112  O   ALA d   1       0.995  11.617  24.925  0.00  0.00    -0.271 OA
ATOM    113  N   LYS d   1      -1.250  11.698  24.745  0.00  0.00    -0.346 N 
ATOM    114  H69 LYS d   1      -2.038  11.685  24.129  0.00  0.00     0.163 HD
BRANCH 113 115
ATOM    115  CA  LYS d   1      -1.459  11.648  26.188  0.00  0.00     0.086 C 
ATOM    116  H70 LYS d   1      -0.469  11.558  26.658  0.00  0.00     0.086 H 
BRANCH 115 117
ATOM    117  C   LYS d   1      -2.300  10.466  26.674  0.00  0.00     0.243 C 
ATOM    118  O   LYS d   1      -3.513  10.568  26.788  0.00  0.00    -0.271 OA
ATOM    119  N   PRO d   1      -1.646   9.350  27.004  0.00  0.00    -0.337 N 
ATOM    120  CA  PRO d   1      -2.347   8.271  27.720  0.00  0.00     0.091 C 
ATOM    121  CD  PRO d   1      -0.239   9.038  26.703  0.00  0.00    -0.001 C 
ATOM    122  CB  PRO d   1      -1.317   7.141  27.757  0.00  0.00    -0.036 C 
ATOM    123  H74 PRO d   1      -3.237   7.964  27.151  0.00  0.00     0.087 H 
ATOM    124  CG  PRO d   1       0.004   7.817  27.499  0.00  0.00    -0.048 C 
ATOM    125  H75 PRO d   1      -1.530   6.396  26.976  0.00  0.00     0.036 H 
ATOM    126  H76 PRO d   1      -1.315   6.650  28.741  0.00  0.00     0.036 H 
ATOM    127  H77 PRO d   1       0.666   7.137  26.942  0.00  0.00     0.035 H 
ATOM    128  H78 PRO d   1       0.476   8.086  28.456  0.00  0.00     0.035 H 
ATOM    129  H79 PRO d   1       0.425   9.856  27.020  0.00  0.00     0.064 H 
ATOM    130  H80 PRO d   1      -0.097   8.846  25.629  0.00  0.00     0.064 H 
BRANCH 120 131
ATOM    131  C   PRO d   1      -2.783   8.638  29.133  0.00  0.00     0.241 C 
ATOM    132  O   PRO d   1      -2.190   9.493  29.802  0.00  0.00    -0.271 OA
ATOM    133  N   GLN d   1      -3.828   7.946  29.581  0.00  0.00    -0.346 N 
ATOM    134  H81 GLN d   1      -4.170   7.184  29.031  0.00  0.00     0.163 HD
BRANCH 133 135
ATOM    135  CA  GLN d   1      -4.493   8.253  30.838  0.00  0.00     0.090 C 
ATOM    136  H82 GLN d   1      -3.999   9.127  31.287  0.00  0.00     0.087 H 
BRANCH 135 137
ATOM    137  C   GLN d   1      -4.360   7.080  31.795  0.00  0.00     0.241 C 
ATOM    138  O   GLN d   1      -4.284   5.927  31.380  0.00  0.00    -0.271 OA
ATOM    139  N   HIS d   1      -4.334   7.398  33.080  0.00  0.00    -0.346 N 
ATOM    140  H89 HIS d   1      -4.439   8.357  33.344  0.00  0.00     0.163 HD
BRANCH 139 141
ATOM    141  CA  HIS d   1      -4.158   6.401  34.114  0.00  0.00     0.094 C 
ATOM    142  H90 HIS d   1      -3.620   5.541  33.689  0.00  0.00     0.088 H 
BRANCH 141 143
ATOM    143  C   HIS d   1      -5.500   5.946  34.603  0.00  0.00     0.241 C 
ATOM    144  O   HIS d   1      -6.416   6.749  34.692  0.00  0.00    -0.271 OA
ATOM    145  N   ILE d   1      -5.606   4.677  34.968  0.00  0.00    -0.344 N 
ATOM    146  H96 ILE d   1      -4.821   4.066  34.862  0.00  0.00     0.163 HD
BRANCH 145 147
ATOM    147  CA  ILE d   1      -6.845   4.161  35.520  0.00  0.00     0.099 C 
ATOM    148  H97 ILE d   1      -7.593   4.967  35.495  0.00  0.00     0.090 H 
BRANCH 147 149
ATOM    149  C   ILE d   1      -6.666   3.712  36.971  0.00  0.00     0.197 C 
ATOM    150  O   ILE d   1      -5.589   3.263  37.378  0.00  0.00    -0.646 OA
ATOM    151  OXT ILE d   1      -7.592   3.783  37.786  0.00  0.00    -0.646 OA
ENDBRANCH 147 149
BRANCH 147 152
ATOM    152  CB  ILE d   1      -7.366   2.986  34.685  0.00  0.00    -0.029 C 
ATOM    153  H98 ILE d   1      -6.504   2.408  34.319  0.00  0.00     0.043 H 
BRANCH 152 154
ATOM    154  CG1 ILE d   1      -8.163   3.495  33.479  0.00  0.00    -0.063 C 
ATOM    155  H99 ILE d   1      -7.516   4.160  32.889  0.00  0.00     0.033 H 
ATOM    156 0H10 ILE d   1      -9.031   4.061  33.848  0.00  0.00     0.033 H 
BRANCH 154 157
ATOM    157  CD1 ILE d   1      -8.660   2.386  32.579  0.00  0.00    -0.076 C 
ATOM    158 4H10 ILE d   1      -9.221   2.820  31.738  0.00  0.00     0.027 H 
ATOM    159 5H10 ILE d   1      -9.318   1.716  33.152  0.00  0.00     0.027 H 
ATOM    160 6H10 ILE d   1      -7.803   1.815  32.192  0.00  0.00     0.027 H 
ENDBRANCH 154 157
ENDBRANCH 152 154
BRANCH 152 161
ATOM    161  CG2 ILE d   1      -8.240   2.072  35.533  0.00  0.00    -0.070 C 
ATOM    162 1H10 ILE d   1      -7.662   1.710  36.397  0.00  0.00     0.028 H 
ATOM    163 2H10 ILE d   1      -8.570   1.215  34.928  0.00  0.00     0.028 H 
ATOM    164 3H10 ILE d   1      -9.119   2.631  35.888  0.00  0.00     0.028 H 
ENDBRANCH 152 161
ENDBRANCH 147 152
ENDBRANCH 145 147
ENDBRANCH 141 143
BRANCH 141 165
ATOM    165  CB  HIS d   1      -3.349   6.957  35.277  0.00  0.00     0.004 C 
ATOM    166  H91 HIS d   1      -3.855   7.858  35.654  0.00  0.00     0.046 H 
ATOM    167  H92 HIS d   1      -2.348   7.226  34.908  0.00  0.00     0.046 H 
BRANCH 165 168
ATOM    168  CG  HIS d   1      -3.192   5.994  36.409  0.00  0.00     0.053 A 
ATOM    169  ND1 HIS d   1      -2.185   5.056  36.449  0.00  0.00    -0.247 NA
ATOM    170  CE1 HIS d   1      -2.288   4.352  37.563  0.00  0.00     0.064 A 
ATOM    171  NE2 HIS d   1      -3.332   4.797  38.241  0.00  0.00    -0.359 N 
ATOM    172  H94 HIS d   1      -1.626   3.544  37.870  0.00  0.00     0.143 H 
ATOM    173  CD2 HIS d   1      -3.911   5.828  37.542  0.00  0.00     0.002 A 
ATOM    174  H95 HIS d   1      -3.658   4.430  39.147  0.00  0.00     0.166 HD
ATOM    175  H93 HIS d   1      -4.785   6.404  37.844  0.00  0.00     0.114 H 
ENDBRANCH 165 168
ENDBRANCH 141 165
ENDBRANCH 139 141
ENDBRANCH 135 137
BRANCH 135 176
ATOM    176  CB  GLN d   1      -5.977   8.600  30.612  0.00  0.00    -0.030 C 
ATOM    177  H83 GLN d   1      -6.442   8.742  31.599  0.00  0.00     0.037 H 
ATOM    178  H84 GLN d   1      -6.447   7.745  30.104  0.00  0.00     0.037 H 
BRANCH 176 179
ATOM    179  CG  GLN d   1      -6.264   9.861  29.772  0.00  0.00     0.011 C 
ATOM    180  H85 GLN d   1      -7.325  10.123  29.895  0.00  0.00     0.047 H 
ATOM    181  H86 GLN d   1      -6.065   9.624  28.716  0.00  0.00     0.047 H 
BRANCH 179 182
ATOM    182  CD  GLN d   1      -5.415  11.091  30.160  0.00  0.00     0.215 C 
ATOM    183  OE1 GLN d   1      -4.939  11.218  31.296  0.00  0.00    -0.274 OA
ATOM    184  NE2 GLN d   1      -5.253  12.016  29.213  0.00  0.00    -0.370 N 
ATOM    185  H87 GLN d   1      -4.713  12.836  29.402  0.00  0.00     0.159 HD
ATOM    186  H88 GLN d   1      -5.671  11.889  28.314  0.00  0.00     0.159 HD
ENDBRANCH 179 182
ENDBRANCH 176 179
ENDBRANCH 135 176
ENDBRANCH 133 135
ENDBRANCH 120 131
ENDBRANCH 115 117
BRANCH 115 187
ATOM    187  CB  LYS d   1      -2.089  12.949  26.652  0.00  0.00    -0.049 C 
ATOM    188  H71 LYS d   1      -2.247  12.912  27.740  0.00  0.00     0.030 H 
ATOM    189  H72 LYS d   1      -3.055  13.089  26.146  0.00  0.00     0.030 H 
ATOM    190  H73 LYS d   1      -1.421  13.788  26.407  0.00  0.00     0.030 H 
ENDBRANCH 115 187
ENDBRANCH 113 115
ENDBRANCH 109 111
BRANCH 109 191
ATOM    191  CB  ALA d   1      -0.389  13.273  22.260  0.00  0.00    -0.049 C 
ATOM    192  H66 ALA d   1       0.200  14.070  22.737  0.00  0.00     0.030 H 
ATOM    193  H67 ALA d   1      -1.450  13.393  22.524  0.00  0.00     0.030 H 
ATOM    194  H68 ALA d   1      -0.274  13.335  21.168  0.00  0.00     0.030 H 
ENDBRANCH 109 191
ENDBRANCH 107 109
ENDBRANCH   1 105
BRANCH   1 195
ATOM    195  CB  GLN d   1      -2.237   8.363  22.375  0.00  0.00    -0.030 C 
ATOM    196  H58 GLN d   1      -3.169   8.725  21.916  0.00  0.00     0.037 H 
ATOM    197  H59 GLN d   1      -2.037   8.931  23.295  0.00  0.00     0.037 H 
BRANCH 195 198
ATOM    198  CG  GLN d   1      -2.445   6.899  22.765  0.00  0.00     0.011 C 
ATOM    199  H60 GLN d   1      -1.476   6.425  22.981  0.00  0.00     0.047 H 
ATOM    200  H61 GLN d   1      -2.943   6.358  21.947  0.00  0.00     0.047 H 
BRANCH 198 201
ATOM    201  CD  GLN d   1      -3.296   6.885  23.973  0.00  0.00     0.215 C 
ATOM    202  OE1 GLN d   1      -4.411   6.491  23.901  0.00  0.00    -0.274 OA
ATOM    203  NE2 GLN d   1      -2.723   7.129  25.117  0.00  0.00    -0.370 N 
ATOM    204  H62 GLN d   1      -3.265   7.129  25.958  0.00  0.00     0.159 HD
ATOM    205  H63 GLN d   1      -1.742   7.317  25.155  0.00  0.00     0.159 HD
ENDBRANCH 198 201
ENDBRANCH 195 198
ENDBRANCH   1 195
TORSDOF 56
