REMARK WARNING: 32 MAX_TORS EXCEEDED!!!
REMARK  74 active torsions:
REMARK  status: ('A' for Active; 'I' for Inactive)
REMARK    1  A    between atoms: N_1  and  CA_2 
REMARK    2  A    between atoms: CA_2  and  C_3 
REMARK    3  A    between atoms: CA_2  and  CB_5 
REMARK       I    between atoms: C_3  and  N_9 
REMARK    4  A    between atoms: CB_5  and  CG_6 
REMARK       I    between atoms: CG_6  and  ND2_8 
REMARK    5  A    between atoms: N_9  and  CA_10 
REMARK    6  A    between atoms: CA_10  and  C_11 
REMARK    7  A    between atoms: CA_10  and  CB_13 
REMARK       I    between atoms: C_11  and  N_15 
REMARK    8  A    between atoms: CB_13  and  OG_14 
REMARK    9  A    between atoms: N_15  and  CA_16 
REMARK   10  A    between atoms: CA_16  and  C_17 
REMARK   11  A    between atoms: CA_16  and  CB_19 
REMARK       I    between atoms: C_17  and  N_23 
REMARK   12  A    between atoms: CB_19  and  CG_20 
REMARK   13  A    between atoms: N_23  and  CA_24 
REMARK   14  A    between atoms: CA_24  and  C_25 
REMARK   15  A    between atoms: CA_24  and  CB_27 
REMARK       I    between atoms: C_25  and  N_31 
REMARK   16  A    between atoms: CB_27  and  CG_28 
REMARK       I    between atoms: CG_28  and  ND2_30 
REMARK   17  A    between atoms: N_31  and  CA_32 
REMARK   18  A    between atoms: CA_32  and  C_33 
REMARK   19  A    between atoms: CA_32  and  CB_35 
REMARK       I    between atoms: C_33  and  N_39 
REMARK   20  A    between atoms: CB_35  and  CG1_36 
REMARK   21  A    between atoms: CB_35  and  CG2_37 
REMARK   22  A    between atoms: CG1_36  and  CD1_38 
REMARK   23  A    between atoms: N_39  and  CA_40 
REMARK   24  A    between atoms: CA_40  and  C_41 
REMARK   25  A    between atoms: CA_40  and  CB_43 
REMARK       I    between atoms: C_41  and  N_50 
REMARK   26  A    between atoms: CB_43  and  CG_44 
REMARK   27  A    between atoms: N_50  and  CA_51 
REMARK   28  A    between atoms: CA_51  and  C_52 
REMARK   29  A    between atoms: CA_51  and  CB_54 
REMARK       I    between atoms: C_52  and  N_57 
REMARK   30  A    between atoms: CB_54  and  CG1_55 
REMARK   31  A    between atoms: CB_54  and  CG2_56 
REMARK   32  A    between atoms: N_57  and  CA_58 
REMARK   33  A    between atoms: CA_58  and  C_59 
REMARK   34  A    between atoms: CA_58  and  CB_61 
REMARK       I    between atoms: C_59  and  N_66 
REMARK   35  A    between atoms: CB_61  and  CG_62 
REMARK   36  A    between atoms: CG_62  and  CD_63 
REMARK   37  A    between atoms: CD_63  and  CE_64 
REMARK   38  A    between atoms: CE_64  and  NZ_65 
REMARK   39  A    between atoms: CA_67  and  C_68 
REMARK       I    between atoms: C_68  and  N_73 
REMARK   40  A    between atoms: N_73  and  CA_74 
REMARK   41  A    between atoms: CA_74  and  C_75 
REMARK       I    between atoms: C_75  and  N_77 
REMARK   42  A    between atoms: N_77  and  CA_78 
REMARK   43  A    between atoms: CA_78  and  C_79 
REMARK   44  A    between atoms: CA_78  and  CB_81 
REMARK       I    between atoms: C_79  and  N_86 
REMARK   45  A    between atoms: CB_81  and  CG_82 
REMARK   46  A    between atoms: CG_82  and  CD_83 
REMARK   47  A    between atoms: N_86  and  CA_87 
REMARK   48  A    between atoms: CA_87  and  C_88 
REMARK   49  A    between atoms: CA_87  and  CB_90 
REMARK       I    between atoms: C_88  and  N_94 
REMARK   50  A    between atoms: CB_90  and  CG_91 
REMARK   51  A    between atoms: N_94  and  CA_95 
REMARK   52  A    between atoms: CA_95  and  C_96 
REMARK   53  A    between atoms: CA_95  and  CB_98 
REMARK       I    between atoms: C_96  and  N_102 
REMARK   54  A    between atoms: CB_98  and  CG_99 
REMARK   55  A    between atoms: CG_99  and  CD1_100 
REMARK   56  A    between atoms: CG_99  and  CD2_101 
REMARK   57  A    between atoms: N_102  and  CA_103 
REMARK   58  A    between atoms: CA_103  and  C_104 
REMARK   59  A    between atoms: CA_103  and  CB_106 
REMARK       I    between atoms: C_104  and  N_111 
REMARK   60  A    between atoms: CB_106  and  CG_107 
REMARK   61  A    between atoms: CG_107  and  CD_108 
REMARK   62  A    between atoms: N_111  and  CA_112 
REMARK   63  A    between atoms: CA_112  and  C_113 
REMARK   64  A    between atoms: CA_112  and  CB_115 
REMARK       I    between atoms: C_113  and  N_119 
REMARK   65  A    between atoms: CB_115  and  CG1_116 
REMARK   66  A    between atoms: CB_115  and  CG2_117 
REMARK   67  A    between atoms: CG1_116  and  CD1_118 
REMARK   68  A    between atoms: CA_120  and  C_121 
REMARK       I    between atoms: C_121  and  N_126 
REMARK   69  A    between atoms: N_126  and  CA_127 
REMARK   70  A    between atoms: CA_127  and  C_128 
REMARK   71  A    between atoms: CA_127  and  CB_130 
REMARK   72  A    between atoms: CB_130  and  CG_131 
REMARK   73  A    between atoms: CG_131  and  CD1_132 
REMARK   74  A    between atoms: CG_131  and  CD2_133 
ROOT
ATOM      1  C   LYS d   1       3.934  22.591 -25.036  0.00  0.00     0.243 C 
ATOM      2  O   LYS d   1       2.806  22.177 -25.318  0.00  0.00    -0.271 OA
ATOM      3  N   PRO d   1       4.661  23.375 -25.873  0.00  0.00    -0.337 N 
ATOM      4  CA  PRO d   1       4.103  23.976 -27.105  0.00  0.00     0.091 C 
ATOM      5  CB  PRO d   1       5.348  24.478 -27.862  0.00  0.00    -0.036 C 
ATOM      6  CG  PRO d   1       6.522  23.882 -27.163  0.00  0.00    -0.048 C 
ATOM      7  CD  PRO d   1       6.097  23.684 -25.744  0.00  0.00    -0.001 C 
ATOM      8  H66 PRO d   1       3.453  24.822 -26.837  0.00  0.00     0.087 H 
ATOM      9  H67 PRO d   1       5.399  25.576 -27.827  0.00  0.00     0.036 H 
ATOM     10  H68 PRO d   1       5.318  24.145 -28.910  0.00  0.00     0.036 H 
ATOM     11  H69 PRO d   1       7.384  24.564 -27.213  0.00  0.00     0.035 H 
ATOM     12  H70 PRO d   1       6.790  22.918 -27.620  0.00  0.00     0.035 H 
ATOM     13  H71 PRO d   1       6.642  22.849 -25.280  0.00  0.00     0.064 H 
ATOM     14  H72 PRO d   1       6.254  24.598 -25.152  0.00  0.00     0.064 H 
ENDROOT
BRANCH   1  15
ATOM     15  CA  LYS d   1       4.552  22.213 -23.678  0.00  0.00     0.089 C 
ATOM     16  H54 LYS d   1       5.359  22.924 -23.445  0.00  0.00     0.087 H 
BRANCH  15  17
ATOM     17  N   LYS d   1       3.529  22.298 -22.637  0.00  0.00    -0.346 N 
ATOM     18  C   VAL d   1       3.046  23.459 -22.194  0.00  0.00     0.241 C 
ATOM     19  O   VAL d   1       3.426  24.559 -22.603  0.00  0.00    -0.271 OA
ATOM     20  H53 LYS d   1       3.177  21.450 -22.241  0.00  0.00     0.163 HD
BRANCH  18  21
ATOM     21  CA  VAL d   1       1.967  23.356 -21.121  0.00  0.00     0.092 C 
ATOM     22  H45 VAL d   1       1.976  22.332 -20.718  0.00  0.00     0.088 H 
BRANCH  21  23
ATOM     23  N   VAL d   1       2.274  24.275 -20.021  0.00  0.00    -0.346 N 
ATOM     24  C   PHE d   1       2.652  23.847 -18.813  0.00  0.00     0.241 C 
ATOM     25  O   PHE d   1       2.741  22.651 -18.518  0.00  0.00    -0.271 OA
ATOM     26  H44 VAL d   1       2.198  25.259 -20.181  0.00  0.00     0.163 HD
BRANCH  24  27
ATOM     27  CA  PHE d   1       2.967  24.913 -17.757  0.00  0.00     0.093 C 
ATOM     28  H36 PHE d   1       3.874  24.590 -17.225  0.00  0.00     0.088 H 
BRANCH  27  29
ATOM     29  N   PHE d   1       3.241  26.247 -18.313  0.00  0.00    -0.346 N 
ATOM     30  C   ILE d   1       4.470  26.690 -18.574  0.00  0.00     0.241 C 
ATOM     31  O   ILE d   1       5.484  26.021 -18.367  0.00  0.00    -0.271 OA
ATOM     32  H35 PHE d   1       2.467  26.851 -18.504  0.00  0.00     0.163 HD
BRANCH  30  33
ATOM     33  CA  ILE d   1       4.584  28.104 -19.166  0.00  0.00     0.092 C 
ATOM     34  H25 ILE d   1       5.652  28.359 -19.237  0.00  0.00     0.088 H 
BRANCH  33  35
ATOM     35  N   ILE d   1       4.027  28.106 -20.533  0.00  0.00    -0.346 N 
ATOM     36  C   ASN d   1       4.638  28.680 -21.574  0.00  0.00     0.241 C 
ATOM     37  O   ASN d   1       5.656  29.369 -21.469  0.00  0.00    -0.271 OA
ATOM     38  H24 ILE d   1       3.148  27.655 -20.688  0.00  0.00     0.163 HD
BRANCH  36  39
ATOM     39  CA  ASN d   1       4.000  28.468 -22.943  0.00  0.00     0.097 C 
ATOM     40  H19 ASN d   1       2.974  28.094 -22.808  0.00  0.00     0.088 H 
BRANCH  39  41
ATOM     41  N   ASN d   1       3.953  29.733 -23.676  0.00  0.00    -0.346 N 
ATOM     42  C   ASP d   1       2.875  30.167 -24.335  0.00  0.00     0.241 C 
ATOM     43  O   ASP d   1       1.881  29.465 -24.537  0.00  0.00    -0.271 OA
ATOM     44  H18 ASN d   1       4.773  30.305 -23.684  0.00  0.00     0.163 HD
BRANCH  42  45
ATOM     45  CA  ASP d   1       2.917  31.613 -24.861  0.00  0.00     0.098 C 
ATOM     46  H15 ASP d   1       2.080  32.157 -24.400  0.00  0.00     0.088 H 
BRANCH  45  47
ATOM     47  N   ASP d   1       4.157  32.308 -24.493  0.00  0.00    -0.345 N 
ATOM     48  C   SER d   1       4.287  32.994 -23.361  0.00  0.00     0.243 C 
ATOM     49  O   SER d   1       3.361  33.184 -22.567  0.00  0.00    -0.271 OA
ATOM     50  H14 ASP d   1       4.936  32.264 -25.119  0.00  0.00     0.163 HD
BRANCH  48  51
ATOM     51  CA  SER d   1       5.679  33.550 -23.083  0.00  0.00     0.109 C 
ATOM     52  H10 SER d   1       6.112  33.911 -24.027  0.00  0.00     0.090 H 
BRANCH  51  53
ATOM     53  N   SER d   1       5.610  34.667 -22.143  0.00  0.00    -0.344 N 
ATOM     54  C   ASN d   1       5.211  35.888 -22.499  0.00  0.00     0.249 C 
ATOM     55  O   ASN d   1       4.852  36.177 -23.646  0.00  0.00    -0.271 OA
ATOM     56  H9  SER d   1       5.874  34.508 -21.192  0.00  0.00     0.163 HD
BRANCH  54  57
ATOM     57  CA  ASN d   1       5.217  36.934 -21.370  0.00  0.00     0.183 C 
ATOM     58  H4  ASN d   1       4.495  36.598 -20.611  0.00  0.00     0.099 H 
BRANCH  57  59
ATOM     59  N   ASN d   1       6.558  37.035 -20.697  0.00  0.00    -0.066 N 
ATOM     60  H1  ASN d   1       6.516  37.729 -19.967  0.00  0.00     0.275 HD
ATOM     61  H2  ASN d   1       7.255  37.302 -21.375  0.00  0.00     0.275 HD
ATOM     62  H3  ASN d   1       6.802  36.142 -20.298  0.00  0.00     0.275 HD
ENDBRANCH  57  59
BRANCH  57  63
ATOM     63  CB  ASN d   1       4.749  38.312 -21.876  0.00  0.00     0.044 C 
ATOM     64  H5  ASN d   1       3.837  38.175 -22.476  0.00  0.00     0.051 H 
ATOM     65  H6  ASN d   1       5.541  38.743 -22.505  0.00  0.00     0.051 H 
BRANCH  63  66
ATOM     66  CG  ASN d   1       4.445  39.282 -20.744  0.00  0.00     0.217 C 
ATOM     67  OD1 ASN d   1       3.291  39.428 -20.338  0.00  0.00    -0.274 OA
ATOM     68  ND2 ASN d   1       5.476  39.951 -20.226  0.00  0.00    -0.370 N 
ATOM     69  H7  ASN d   1       5.327  40.600 -19.480  0.00  0.00     0.159 HD
ATOM     70  H8  ASN d   1       6.398  39.803 -20.584  0.00  0.00     0.159 HD
ENDBRANCH  63  66
ENDBRANCH  57  63
ENDBRANCH  54  57
ENDBRANCH  51  53
BRANCH  51  71
ATOM     71  CB  SER d   1       6.570  32.436 -22.523  0.00  0.00     0.044 C 
ATOM     72  H11 SER d   1       6.617  31.613 -23.252  0.00  0.00     0.077 H 
ATOM     73  H12 SER d   1       6.136  32.068 -21.582  0.00  0.00     0.077 H 
BRANCH  71  74
ATOM     74  OG  SER d   1       7.882  32.909 -22.274  0.00  0.00    -0.398 OA
ATOM     75  H13 SER d   1       8.412  32.201 -21.928  0.00  0.00     0.209 HD
ENDBRANCH  71  74
ENDBRANCH  51  71
ENDBRANCH  48  51
ENDBRANCH  45  47
BRANCH  45  76
ATOM     76  CB  ASP d   1       2.723  31.647 -26.382  0.00  0.00     0.043 C 
ATOM     77  H16 ASP d   1       1.832  31.054 -26.637  0.00  0.00     0.052 H 
ATOM     78  H17 ASP d   1       3.608  31.203 -26.860  0.00  0.00     0.052 H 
BRANCH  76  79
ATOM     79  CG  ASP d   1       2.537  33.063 -26.917  0.00  0.00     0.175 C 
ATOM     80  OD1 ASP d   1       1.697  33.809 -26.369  0.00  0.00    -0.648 OA
ATOM     81  OD2 ASP d   1       3.228  33.427 -27.893  0.00  0.00    -0.648 OA
ENDBRANCH  76  79
ENDBRANCH  45  76
ENDBRANCH  42  45
ENDBRANCH  39  41
BRANCH  39  82
ATOM     82  CB  ASN d   1       4.807  27.438 -23.730  0.00  0.00     0.036 C 
ATOM     83  H20 ASN d   1       5.001  26.571 -23.081  0.00  0.00     0.051 H 
ATOM     84  H21 ASN d   1       5.763  27.893 -24.030  0.00  0.00     0.051 H 
BRANCH  82  85
ATOM     85  CG  ASN d   1       4.085  26.962 -24.972  0.00  0.00     0.217 C 
ATOM     86  OD1 ASN d   1       4.521  27.217 -26.095  0.00  0.00    -0.274 OA
ATOM     87  ND2 ASN d   1       2.962  26.278 -24.777  0.00  0.00    -0.370 N 
ATOM     88  H22 ASN d   1       2.441  25.938 -25.560  0.00  0.00     0.159 HD
ATOM     89  H23 ASN d   1       2.638  26.104 -23.847  0.00  0.00     0.159 HD
ENDBRANCH  82  85
ENDBRANCH  39  82
ENDBRANCH  36  39
ENDBRANCH  33  35
BRANCH  33  90
ATOM     90  CB  ILE d   1       3.913  29.164 -18.245  0.00  0.00    -0.030 C 
ATOM     91  H26 ILE d   1       2.827  28.992 -18.250  0.00  0.00     0.043 H 
BRANCH  90  92
ATOM     92  CG1 ILE d   1       4.197  30.587 -18.751  0.00  0.00    -0.063 C 
ATOM     93  H27 ILE d   1       4.128  30.581 -19.849  0.00  0.00     0.033 H 
ATOM     94  H28 ILE d   1       5.219  30.861 -18.449  0.00  0.00     0.033 H 
BRANCH  92  95
ATOM     95  CD1 ILE d   1       3.249  31.645 -18.224  0.00  0.00    -0.076 C 
ATOM     96  H32 ILE d   1       3.528  32.626 -18.637  0.00  0.00     0.027 H 
ATOM     97  H33 ILE d   1       3.311  31.679 -17.126  0.00  0.00     0.027 H 
ATOM     98  H34 ILE d   1       2.220  31.399 -18.526  0.00  0.00     0.027 H 
ENDBRANCH  92  95
ENDBRANCH  90  92
BRANCH  90  99
ATOM     99  CG2 ILE d   1       4.426  29.054 -16.811  0.00  0.00    -0.071 C 
ATOM    100  H29 ILE d   1       4.232  28.041 -16.429  0.00  0.00     0.028 H 
ATOM    101  H30 ILE d   1       3.908  29.790 -16.179  0.00  0.00     0.028 H 
ATOM    102  H31 ILE d   1       5.508  29.252 -16.792  0.00  0.00     0.028 H 
ENDBRANCH  90  99
ENDBRANCH  33  90
ENDBRANCH  30  33
ENDBRANCH  27  29
BRANCH  27 103
ATOM    103  CB  PHE d   1       1.818  24.983 -16.741  0.00  0.00    -0.014 C 
ATOM    104  H37 PHE d   1       1.391  23.975 -16.629  0.00  0.00     0.043 H 
ATOM    105  H38 PHE d   1       1.049  25.666 -17.133  0.00  0.00     0.043 H 
BRANCH 103 106
ATOM    106  CG  PHE d   1       2.240  25.472 -15.385  0.00  0.00    -0.056 A 
ATOM    107  CD1 PHE d   1       2.779  24.592 -14.452  0.00  0.00    -0.077 A 
ATOM    108  CE1 PHE d   1       3.171  25.037 -13.197  0.00  0.00    -0.082 A 
ATOM    109  H39 PHE d   1       2.894  23.545 -14.709  0.00  0.00     0.084 H 
ATOM    110  CZ  PHE d   1       3.024  26.375 -12.862  0.00  0.00    -0.083 A 
ATOM    111  H41 PHE d   1       3.591  24.340 -12.480  0.00  0.00     0.083 H 
ATOM    112  CE2 PHE d   1       2.493  27.262 -13.786  0.00  0.00    -0.082 A 
ATOM    113  H43 PHE d   1       3.323  26.726 -11.881  0.00  0.00     0.083 H 
ATOM    114  CD2 PHE d   1       2.100  26.810 -15.036  0.00  0.00    -0.077 A 
ATOM    115  H42 PHE d   1       2.385  28.310 -13.531  0.00  0.00     0.083 H 
ATOM    116  H40 PHE d   1       1.678  27.508 -15.750  0.00  0.00     0.084 H 
ENDBRANCH 103 106
ENDBRANCH  27 103
ENDBRANCH  24  27
ENDBRANCH  21  23
BRANCH  21 117
ATOM    117  CB  VAL d   1       0.570  23.608 -21.734  0.00  0.00    -0.033 C 
ATOM    118  H46 VAL d   1       0.590  24.568 -22.270  0.00  0.00     0.042 H 
BRANCH 117 119
ATOM    119  CG1 VAL d   1       0.206  22.501 -22.716  0.00  0.00    -0.071 C 
ATOM    120  H47 VAL d   1      -0.790  22.699 -23.140  0.00  0.00     0.028 H 
ATOM    121  H48 VAL d   1       0.195  21.534 -22.191  0.00  0.00     0.028 H 
ATOM    122  H49 VAL d   1       0.950  22.470 -23.526  0.00  0.00     0.028 H 
ENDBRANCH 117 119
BRANCH 117 123
ATOM    123  CG2 VAL d   1      -0.493  23.672 -20.645  0.00  0.00    -0.071 C 
ATOM    124  H50 VAL d   1      -0.239  24.469 -19.931  0.00  0.00     0.028 H 
ATOM    125  H51 VAL d   1      -0.537  22.707 -20.118  0.00  0.00     0.028 H 
ATOM    126  H52 VAL d   1      -1.472  23.886 -21.100  0.00  0.00     0.028 H 
ENDBRANCH 117 123
ENDBRANCH  21 117
ENDBRANCH  18  21
ENDBRANCH  15  17
BRANCH  15 127
ATOM    127  CB  LYS d   1       5.143  20.797 -23.724  0.00  0.00    -0.038 C 
ATOM    128  H55 LYS d   1       5.841  20.741 -24.572  0.00  0.00     0.036 H 
ATOM    129  H56 LYS d   1       4.320  20.083 -23.878  0.00  0.00     0.036 H 
BRANCH 127 130
ATOM    130  CG  LYS d   1       5.894  20.398 -22.457  0.00  0.00    -0.061 C 
ATOM    131  H57 LYS d   1       5.317  20.735 -21.583  0.00  0.00     0.033 H 
ATOM    132  H58 LYS d   1       6.878  20.890 -22.459  0.00  0.00     0.033 H 
BRANCH 130 133
ATOM    133  CD  LYS d   1       6.099  18.894 -22.358  0.00  0.00    -0.043 C 
ATOM    134  H59 LYS d   1       6.606  18.540 -23.267  0.00  0.00     0.035 H 
ATOM    135  H60 LYS d   1       5.119  18.403 -22.270  0.00  0.00     0.035 H 
BRANCH 133 136
ATOM    136  CE  LYS d   1       6.945  18.535 -21.145  0.00  0.00     0.080 C 
ATOM    137  H61 LYS d   1       6.391  18.807 -20.234  0.00  0.00     0.075 H 
ATOM    138  H62 LYS d   1       7.884  19.106 -21.187  0.00  0.00     0.075 H 
BRANCH 136 139
ATOM    139  NZ  LYS d   1       7.269  17.083 -21.092  0.00  0.00    -0.079 N 
ATOM    140  H63 LYS d   1       7.828  16.893 -20.275  0.00  0.00     0.274 HD
ATOM    141  H64 LYS d   1       7.783  16.823 -21.919  0.00  0.00     0.274 HD
ATOM    142  H65 LYS d   1       6.415  16.550 -21.046  0.00  0.00     0.274 HD
ENDBRANCH 136 139
ENDBRANCH 133 136
ENDBRANCH 130 133
ENDBRANCH 127 130
ENDBRANCH  15 127
ENDBRANCH   1  15
BRANCH   4 143
ATOM    143  C   PRO d   1       3.295  23.014 -27.975  0.00  0.00     0.241 C 
ATOM    144  O   PRO d   1       2.153  23.316 -28.328  0.00  0.00    -0.271 OA
ATOM    145  N   GLY d   1       3.895  21.872 -28.300  0.00  0.00    -0.351 N 
ATOM    146  H73 GLY d   1       4.853  21.746 -28.043  0.00  0.00     0.163 HD
BRANCH 145 147
ATOM    147  CA  GLY d   1       3.216  20.795 -29.015  0.00  0.00     0.069 C 
ATOM    148  H74 GLY d   1       3.861  20.434 -29.829  0.00  0.00     0.078 H 
ATOM    149  H75 GLY d   1       2.273  21.174 -29.435  0.00  0.00     0.078 H 
BRANCH 147 150
ATOM    150  C   GLY d   1       2.920  19.653 -28.065  0.00  0.00     0.236 C 
ATOM    151  O   GLY d   1       3.758  18.765 -27.880  0.00  0.00    -0.272 OA
ATOM    152  N   GLU d   1       1.736  19.691 -27.451  0.00  0.00    -0.346 N 
ATOM    153  H76 GLU d   1       1.131  20.469 -27.623  0.00  0.00     0.163 HD
BRANCH 152 154
ATOM    154  CA  GLU d   1       1.286  18.639 -26.535  0.00  0.00     0.090 C 
ATOM    155  H77 GLU d   1       1.866  17.727 -26.741  0.00  0.00     0.087 H 
BRANCH 154 156
ATOM    156  C   GLU d   1      -0.192  18.335 -26.752  0.00  0.00     0.241 C 
ATOM    157  O   GLU d   1      -1.028  19.239 -26.725  0.00  0.00    -0.271 OA
ATOM    158  N   ASP d   1      -0.499  17.054 -26.949  0.00  0.00    -0.346 N 
ATOM    159  H82 ASP d   1       0.233  16.373 -26.916  0.00  0.00     0.163 HD
BRANCH 158 160
ATOM    160  CA  ASP d   1      -1.863  16.608 -27.211  0.00  0.00     0.098 C 
ATOM    161  H83 ASP d   1      -2.363  17.361 -27.837  0.00  0.00     0.088 H 
BRANCH 160 162
ATOM    162  C   ASP d   1      -2.641  16.477 -25.898  0.00  0.00     0.241 C 
ATOM    163  O   ASP d   1      -2.460  15.512 -25.151  0.00  0.00    -0.271 OA
ATOM    164  N   LEU d   1      -3.496  17.467 -25.629  0.00  0.00    -0.346 N 
ATOM    165  H86 LEU d   1      -3.513  18.259 -26.239  0.00  0.00     0.163 HD
BRANCH 164 166
ATOM    166  CA  LEU d   1      -4.413  17.450 -24.482  0.00  0.00     0.089 C 
ATOM    167  H87 LEU d   1      -4.026  16.734 -23.742  0.00  0.00     0.087 H 
BRANCH 166 168
ATOM    168  C   LEU d   1      -5.824  16.996 -24.897  0.00  0.00     0.241 C 
ATOM    169  O   LEU d   1      -6.774  17.112 -24.117  0.00  0.00    -0.271 OA
ATOM    170  N   GLU d   1      -5.947  16.469 -26.118  0.00  0.00    -0.346 N 
ATOM    171  H97 GLU d   1      -5.127  16.396 -26.686  0.00  0.00     0.163 HD
BRANCH 170 172
ATOM    172  CA  GLU d   1      -7.211  15.995 -26.667  0.00  0.00     0.090 C 
ATOM    173  H98 GLU d   1      -8.039  16.571 -26.229  0.00  0.00     0.087 H 
BRANCH 172 174
ATOM    174  C   GLU d   1      -7.379  14.517 -26.307  0.00  0.00     0.241 C 
ATOM    175  O   GLU d   1      -6.591  13.675 -26.745  0.00  0.00    -0.271 OA
ATOM    176  N   ILE d   1      -8.396  14.213 -25.501  0.00  0.00    -0.346 N 
ATOM    177 3H10 ILE d   1      -8.969  14.954 -25.151  0.00  0.00     0.163 HD
BRANCH 176 178
ATOM    178  CA  ILE d   1      -8.708  12.836 -25.107  0.00  0.00     0.092 C 
ATOM    179 4H10 ILE d   1      -7.839  12.196 -25.320  0.00  0.00     0.088 H 
BRANCH 178 180
ATOM    180  C   ILE d   1      -9.910  12.382 -25.955  0.00  0.00     0.243 C 
ATOM    181  O   ILE d   1     -10.949  13.048 -25.935  0.00  0.00    -0.271 OA
ATOM    182  N   PRO d   1      -9.781  11.263 -26.705  0.00  0.00    -0.337 N 
ATOM    183  CA  PRO d   1     -10.865  10.829 -27.600  0.00  0.00     0.091 C 
ATOM    184  CD  PRO d   1      -8.624  10.351 -26.792  0.00  0.00    -0.001 C 
ATOM    185  CB  PRO d   1     -10.113  10.050 -28.681  0.00  0.00    -0.036 C 
ATOM    186 4H11 PRO d   1     -11.366  11.708 -28.031  0.00  0.00     0.087 H 
ATOM    187  CG  PRO d   1      -8.946   9.463 -27.966  0.00  0.00    -0.048 C 
ATOM    188 5H11 PRO d   1      -9.779  10.722 -29.485  0.00  0.00     0.036 H 
ATOM    189 6H11 PRO d   1     -10.749   9.259 -29.105  0.00  0.00     0.036 H 
ATOM    190 7H11 PRO d   1      -8.081   9.411 -28.643  0.00  0.00     0.035 H 
ATOM    191 8H11 PRO d   1      -9.195   8.452 -27.612  0.00  0.00     0.035 H 
ATOM    192 9H11 PRO d   1      -8.523   9.759 -25.870  0.00  0.00     0.064 H 
ATOM    193 0H12 PRO d   1      -7.696  10.913 -26.970  0.00  0.00     0.064 H 
BRANCH 183 194
ATOM    194  C   PRO d   1     -11.934   9.938 -26.942  0.00  0.00     0.241 C 
ATOM    195  O   PRO d   1     -11.792   9.545 -25.780  0.00  0.00    -0.271 OA
ATOM    196  N   LEU d   1     -12.987   9.639 -27.709  0.00  0.00    -0.345 N 
ATOM    197 1H12 LEU d   1     -13.036  10.056 -28.617  0.00  0.00     0.163 HD
BRANCH 196 198
ATOM    198  CA  LEU d   1     -14.082   8.736 -27.307  0.00  0.00     0.096 C 
ATOM    199 2H12 LEU d   1     -14.830   8.757 -28.113  0.00  0.00     0.089 H 
BRANCH 198 200
ATOM    200  C   LEU d   1     -14.787   9.179 -26.028  0.00  0.00     0.196 C 
ATOM    201  O   LEU d   1     -15.841   9.810 -26.078  0.00  0.00    -0.646 OA
ATOM    202  OXT LEU d   1     -14.313   8.913 -24.925  0.00  0.00    -0.646 OA
ENDBRANCH 198 200
BRANCH 198 203
ATOM    203  CB  LEU d   1     -13.581   7.288 -27.175  0.00  0.00    -0.034 C 
ATOM    204 3H12 LEU d   1     -12.958   7.235 -26.270  0.00  0.00     0.037 H 
ATOM    205 4H12 LEU d   1     -12.963   7.071 -28.058  0.00  0.00     0.037 H 
BRANCH 203 206
ATOM    206  CG  LEU d   1     -14.645   6.176 -27.070  0.00  0.00    -0.059 C 
ATOM    207 5H12 LEU d   1     -15.591   6.593 -27.445  0.00  0.00     0.038 H 
BRANCH 206 208
ATOM    208  CD1 LEU d   1     -14.288   4.978 -27.943  0.00  0.00    -0.073 C 
ATOM    209 6H12 LEU d   1     -15.066   4.207 -27.844  0.00  0.00     0.028 H 
ATOM    210 7H12 LEU d   1     -13.320   4.566 -27.622  0.00  0.00     0.028 H 
ATOM    211 8H12 LEU d   1     -14.220   5.297 -28.994  0.00  0.00     0.028 H 
ENDBRANCH 206 208
BRANCH 206 212
ATOM    212  CD2 LEU d   1     -14.878   5.728 -25.631  0.00  0.00    -0.073 C 
ATOM    213 9H12 LEU d   1     -15.134   6.601 -25.012  0.00  0.00     0.028 H 
ATOM    214 0H13 LEU d   1     -13.963   5.258 -25.241  0.00  0.00     0.028 H 
ATOM    215 1H13 LEU d   1     -15.704   5.003 -25.602  0.00  0.00     0.028 H 
ENDBRANCH 206 212
ENDBRANCH 203 206
ENDBRANCH 198 203
ENDBRANCH 196 198
ENDBRANCH 183 194
ENDBRANCH 178 180
BRANCH 178 216
ATOM    216  CB  ILE d   1      -9.065  12.703 -23.600  0.00  0.00    -0.030 C 
ATOM    217 5H10 ILE d   1     -10.125  12.974 -23.485  0.00  0.00     0.043 H 
BRANCH 216 218
ATOM    218  CG1 ILE d   1      -8.243  13.651 -22.702  0.00  0.00    -0.063 C 
ATOM    219 6H10 ILE d   1      -8.577  13.505 -21.664  0.00  0.00     0.033 H 
ATOM    220 7H10 ILE d   1      -8.459  14.683 -23.015  0.00  0.00     0.033 H 
BRANCH 218 221
ATOM    221  CD1 ILE d   1      -6.740  13.461 -22.737  0.00  0.00    -0.076 C 
ATOM    222 1H11 ILE d   1      -6.263  14.187 -22.062  0.00  0.00     0.027 H 
ATOM    223 2H11 ILE d   1      -6.374  13.618 -23.762  0.00  0.00     0.027 H 
ATOM    224 3H11 ILE d   1      -6.492  12.440 -22.411  0.00  0.00     0.027 H 
ENDBRANCH 218 221
ENDBRANCH 216 218
BRANCH 216 225
ATOM    225  CG2 ILE d   1      -8.895  11.261 -23.141  0.00  0.00    -0.071 C 
ATOM    226 8H10 ILE d   1      -9.486  10.598 -23.790  0.00  0.00     0.028 H 
ATOM    227 9H10 ILE d   1      -9.243  11.163 -22.102  0.00  0.00     0.028 H 
ATOM    228 0H11 ILE d   1      -7.833  10.980 -23.200  0.00  0.00     0.028 H 
ENDBRANCH 216 225
ENDBRANCH 178 216
ENDBRANCH 176 178
ENDBRANCH 172 174
BRANCH 172 229
ATOM    229  CB  GLU d   1      -7.218  16.186 -28.193  0.00  0.00    -0.029 C 
ATOM    230  H99 GLU d   1      -6.629  15.373 -28.642  0.00  0.00     0.037 H 
ATOM    231 0H10 GLU d   1      -6.742  17.152 -28.419  0.00  0.00     0.037 H 
BRANCH 229 232
ATOM    232  CG  GLU d   1      -8.602  16.178 -28.831  0.00  0.00     0.018 C 
ATOM    233 1H10 GLU d   1      -9.082  17.149 -28.638  0.00  0.00     0.049 H 
ATOM    234 2H10 GLU d   1      -9.196  15.377 -28.368  0.00  0.00     0.049 H 
BRANCH 232 235
ATOM    235  CD  GLU d   1      -8.565  15.946 -30.336  0.00  0.00     0.172 C 
ATOM    236  OE1 GLU d   1      -7.724  16.566 -31.023  0.00  0.00    -0.648 OA
ATOM    237  OE2 GLU d   1      -9.386  15.145 -30.835  0.00  0.00    -0.648 OA
ENDBRANCH 232 235
ENDBRANCH 229 232
ENDBRANCH 172 229
ENDBRANCH 170 172
ENDBRANCH 166 168
BRANCH 166 238
ATOM    238  CB  LEU d   1      -4.469  18.840 -23.829  0.00  0.00    -0.035 C 
ATOM    239  H88 LEU d   1      -5.179  18.781 -22.991  0.00  0.00     0.037 H 
ATOM    240  H89 LEU d   1      -4.851  19.542 -24.584  0.00  0.00     0.037 H 
BRANCH 238 241
ATOM    241  CG  LEU d   1      -3.160  19.425 -23.280  0.00  0.00    -0.059 C 
ATOM    242  H90 LEU d   1      -2.411  19.396 -24.085  0.00  0.00     0.038 H 
BRANCH 241 243
ATOM    243  CD1 LEU d   1      -3.362  20.875 -22.866  0.00  0.00    -0.073 C 
ATOM    244  H91 LEU d   1      -2.417  21.280 -22.475  0.00  0.00     0.028 H 
ATOM    245  H92 LEU d   1      -4.135  20.929 -22.085  0.00  0.00     0.028 H 
ATOM    246  H93 LEU d   1      -3.680  21.465 -23.738  0.00  0.00     0.028 H 
ENDBRANCH 241 243
BRANCH 241 247
ATOM    247  CD2 LEU d   1      -2.621  18.617 -22.107  0.00  0.00    -0.073 C 
ATOM    248  H94 LEU d   1      -2.479  17.571 -22.417  0.00  0.00     0.028 H 
ATOM    249  H95 LEU d   1      -3.337  18.658 -21.273  0.00  0.00     0.028 H 
ATOM    250  H96 LEU d   1      -1.657  19.038 -21.784  0.00  0.00     0.028 H 
ENDBRANCH 241 247
ENDBRANCH 238 241
ENDBRANCH 166 238
ENDBRANCH 164 166
ENDBRANCH 160 162
BRANCH 160 251
ATOM    251  CB  ASP d   1      -1.846  15.274 -27.976  0.00  0.00     0.043 C 
ATOM    252  H84 ASP d   1      -1.523  14.479 -27.288  0.00  0.00     0.052 H 
ATOM    253  H85 ASP d   1      -1.129  15.355 -28.806  0.00  0.00     0.052 H 
BRANCH 251 254
ATOM    254  CG  ASP d   1      -3.208  14.899 -28.546  0.00  0.00     0.175 C 
ATOM    255  OD1 ASP d   1      -3.881  15.770 -29.138  0.00  0.00    -0.648 OA
ATOM    256  OD2 ASP d   1      -3.601  13.720 -28.413  0.00  0.00    -0.648 OA
ENDBRANCH 251 254
ENDBRANCH 160 251
ENDBRANCH 158 160
ENDBRANCH 154 156
BRANCH 154 257
ATOM    257  CB  GLU d   1       1.522  19.049 -25.081  0.00  0.00    -0.029 C 
ATOM    258  H78 GLU d   1       0.761  19.793 -24.801  0.00  0.00     0.037 H 
ATOM    259  H79 GLU d   1       2.522  19.500 -25.005  0.00  0.00     0.037 H 
BRANCH 257 260
ATOM    260  CG  GLU d   1       1.442  17.885 -24.099  0.00  0.00     0.018 C 
ATOM    261  H80 GLU d   1       2.300  17.219 -24.276  0.00  0.00     0.049 H 
ATOM    262  H81 GLU d   1       0.507  17.336 -24.284  0.00  0.00     0.049 H 
BRANCH 260 263
ATOM    263  CD  GLU d   1       1.464  18.323 -22.648  0.00  0.00     0.172 C 
ATOM    264  OE1 GLU d   1       1.065  17.514 -21.783  0.00  0.00    -0.648 OA
ATOM    265  OE2 GLU d   1       1.875  19.469 -22.361  0.00  0.00    -0.648 OA
ENDBRANCH 260 263
ENDBRANCH 257 260
ENDBRANCH 154 257
ENDBRANCH 152 154
ENDBRANCH 147 150
ENDBRANCH 145 147
ENDBRANCH   4 143
TORSDOF 74
