REMARK WARNING: 32 MAX_TORS EXCEEDED!!!
REMARK  35 active torsions:
REMARK  status: ('A' for Active; 'I' for Inactive)
REMARK       I    between atoms: N_1  and  CN_2 
REMARK    1  A    between atoms: CA_5  and  N_1 
REMARK    2  A    between atoms: CN_2  and  CM_4 
REMARK    3  A    between atoms: CA_5  and  CB_6 
REMARK    4  A    between atoms: C_9  and  CA_5 
REMARK    5  A    between atoms: CB_6  and  OG1_7 
REMARK    6  A    between atoms: CB_6  and  CG2_8 
REMARK       I    between atoms: N_11  and  C_9 
REMARK    7  A    between atoms: CA_12  and  N_11 
REMARK    8  A    between atoms: C_13  and  CA_12 
REMARK    9  A    between atoms: CA_12  and  CB_15 
REMARK       I    between atoms: N_17  and  C_13 
REMARK   10  A    between atoms: CB_15  and  OG_16 
REMARK   11  A    between atoms: CA_18  and  N_17 
REMARK   12  A    between atoms: C_19  and  CA_18 
REMARK   13  A    between atoms: CA_18  and  CB_21 
REMARK       I    between atoms: NAC_33  and  C_19 
REMARK   14  A    between atoms: CB_21  and  CG_22 
REMARK   15  A    between atoms: CAF_30  and  CAA_31 
REMARK   16  A    between atoms: CAF_30  and  NAC_33 
REMARK   17  A    between atoms: CA_41  and  CB_44 
REMARK   18  A    between atoms: CB_44  and  CG_45 
REMARK   19  A    between atoms: CG_45  and  CD_46 
REMARK   20  A    between atoms: CA_50  and  CB_53 
REMARK   21  A    between atoms: CB_53  and  CG_54 
REMARK   22  A    between atoms: CZ_59  and  OH_60 
REMARK   23  A    between atoms: CA_62  and  CB_63 
REMARK   24  A    between atoms: CB_63  and  CG_64 
REMARK   25  A    between atoms: CA_77  and  CB_80 
REMARK   26  A    between atoms: CA_82  and  CB_85 
REMARK   27  A    between atoms: CB_85  and  CG_86 
REMARK   28  A    between atoms: CG_86  and  CD1_87 
REMARK   29  A    between atoms: CG_86  and  CD2_88 
REMARK   30  A    between atoms: CA_90  and  CB_93 
REMARK   31  A    between atoms: CB_93  and  CG_94 
REMARK   32  A    between atoms: CG_94  and  CD1_95 
REMARK   33  A    between atoms: CG_94  and  CD2_96 
REMARK   34  A    between atoms: CA_100  and  C_97 
REMARK       I    between atoms: C_97  and  N_106 
REMARK   35  A    between atoms: CA_100  and  CB1_105 
ROOT
ATOM      1  OAD 0EH d   1      12.248 130.460  34.965  0.00  0.00    -0.271 OA
ATOM      2  CAE 0EH d   1      12.973 131.271  35.535  0.00  0.00     0.246 C 
ATOM      3  CAF 0EH d   1      13.781 130.840  36.780  0.00  0.00     0.110 C 
ATOM      4  CAB 0EH d   1      13.636 129.316  37.020  0.00  0.00    -0.033 C 
ATOM      5  CAO 0EH d   1      13.955 128.605  38.358  0.00  0.00    -0.062 C 
ATOM      6  CAP 0EH d   1      13.452 127.122  38.355  0.00  0.00    -0.065 C 
ATOM      7  CAQ 0EH d   1      12.184 126.981  37.467  0.00  0.00    -0.065 C 
ATOM      8  CAR 0EH d   1      11.121 125.919  37.633  0.00  0.00    -0.062 C 
ATOM      9  CAS 0EH d   1       9.873 126.401  36.911  0.00  0.00    -0.050 C 
ATOM     10  CAT 0EH d   1       9.453 125.450  35.842  0.00  0.00    -0.107 C 
ATOM     11  H28 0EH d   1      14.280 128.836  36.269  0.00  0.00     0.037 H 
ATOM     12  H29 0EH d   1      12.583 129.081  36.804  0.00  0.00     0.037 H 
ATOM     13  H31 0EH d   1      13.462 129.148  39.178  0.00  0.00     0.033 H 
ATOM     14  H32 0EH d   1      15.043 128.613  38.516  0.00  0.00     0.033 H 
ATOM     15  H33 0EH d   1      13.209 126.820  39.384  0.00  0.00     0.033 H 
ATOM     16  H34 0EH d   1      14.245 126.471  37.959  0.00  0.00     0.033 H 
ATOM     17  H35 0EH d   1      12.558 126.863  36.439  0.00  0.00     0.033 H 
ATOM     18  H36 0EH d   1      11.655 127.941  37.557  0.00  0.00     0.033 H 
ATOM     19  H37 0EH d   1      10.903 125.770  38.701  0.00  0.00     0.033 H 
ATOM     20  H38 0EH d   1      11.466 124.971  37.194  0.00  0.00     0.033 H 
ATOM     21  H39 0EH d   1      10.080 127.380  36.456  0.00  0.00     0.038 H 
ATOM     22  H40 0EH d   1       9.056 126.501  37.640  0.00  0.00     0.038 H 
ATOM     23  H41 0EH d   1       9.909 124.467  35.737  0.00  0.00     0.076 H 
ATOM     24  N   GLU d   1      13.129 132.476  35.101  0.00  0.00    -0.346 N 
ATOM     25  CA  GLU d   1      12.390 132.955  33.929  0.00  0.00     0.090 C 
ATOM     26  C   GLU d   1      12.771 132.223  32.633  0.00  0.00     0.241 C 
ATOM     27  O   GLU d   1      11.873 131.844  31.869  0.00  0.00    -0.271 OA
ATOM     28  H42 GLU d   1      13.762 133.091  35.570  0.00  0.00     0.163 HD
ATOM     29  H43 GLU d   1      11.327 132.741  34.113  0.00  0.00     0.087 H 
ATOM     30  N   TYR d   1      14.066 131.998  32.387  0.00  0.00    -0.346 N 
ATOM     31  CA  TYR d   1      14.479 131.236  31.201  0.00  0.00     0.093 C 
ATOM     32  C   TYR d   1      13.873 129.825  31.207  0.00  0.00     0.241 C 
ATOM     33  O   TYR d   1      13.366 129.336  30.184  0.00  0.00    -0.271 OA
ATOM     34  H48 TYR d   1      14.759 132.351  33.016  0.00  0.00     0.163 HD
ATOM     35  H49 TYR d   1      14.121 131.771  30.309  0.00  0.00     0.088 H 
ATOM     36  N   6CW d   1      13.893 129.178  32.379  0.00  0.00    -0.346 N 
ATOM     37  CA  6CW d   1      13.389 127.818  32.480  0.00  0.00     0.093 C 
ATOM     38  C   6CW d   1      11.873 127.800  32.327  0.00  0.00     0.241 C 
ATOM     39  O   6CW d   1      11.316 126.905  31.673  0.00  0.00    -0.271 OA
ATOM     40  H57 6CW d   1      14.257 129.634  33.191  0.00  0.00     0.163 HD
ATOM     41  H58 6CW d   1      13.820 127.232  31.655  0.00  0.00     0.088 H 
ATOM     42  N   ALA d   1      11.194 128.791  32.896  0.00  0.00    -0.346 N 
ATOM     43  CA  ALA d   1       9.742 128.928  32.754  0.00  0.00     0.086 C 
ATOM     44  C   ALA d   1       9.317 129.123  31.290  0.00  0.00     0.240 C 
ATOM     45  O   ALA d   1       8.256 128.647  30.896  0.00  0.00    -0.271 OA
ATOM     46  H66 ALA d   1      11.691 129.467  33.440  0.00  0.00     0.163 HD
ATOM     47  H67 ALA d   1       9.287 127.993  33.111  0.00  0.00     0.086 H 
ATOM     48  N   LEU d   1      10.145 129.801  30.494  0.00  0.00    -0.346 N 
ATOM     49  CA  LEU d   1       9.878 129.968  29.065  0.00  0.00     0.089 C 
ATOM     50  C   LEU d   1      10.037 128.651  28.331  0.00  0.00     0.241 C 
ATOM     51  O   LEU d   1       9.259 128.331  27.426  0.00  0.00    -0.271 OA
ATOM     52  N   LEU d   1      11.044 127.877  28.738  0.00  0.00    -0.346 N 
ATOM     53  CA  LEU d   1      11.234 126.540  28.243  0.00  0.00     0.089 C 
ATOM     54  C   LEU d   1      10.033 125.646  28.537  0.00  0.00     0.241 C 
ATOM     55  O   LEU d   1       9.580 124.916  27.644  0.00  0.00    -0.271 OA
ATOM     56  H71 LEU d   1      10.971 130.207  30.885  0.00  0.00     0.163 HD
ATOM     57  H72 LEU d   1       8.838 130.307  28.949  0.00  0.00     0.087 H 
ATOM     58  H82 LEU d   1      11.689 128.239  29.411  0.00  0.00     0.163 HD
ATOM     59  H83 LEU d   1      11.332 126.605  27.149  0.00  0.00     0.087 H 
ATOM     60  N   MK8 d   1       9.517 125.707  29.771  0.00  0.00    -0.342 N 
ATOM     61  CA  MK8 d   1       8.381 124.908  30.207  0.00  0.00     0.110 C 
ATOM     62  CB  MK8 d   1       7.903 125.229  31.604  0.00  0.00    -0.033 C 
ATOM     63  CD  MK8 d   1       8.040 124.925  33.997  0.00  0.00    -0.050 C 
ATOM     64  CE  MK8 d   1       8.505 125.862  35.035  0.00  0.00    -0.107 C 
ATOM     65  CG  MK8 d   1       8.870 125.000  32.736  0.00  0.00    -0.059 C 
ATOM     66  H93 MK8 d   1       9.934 126.335  30.428  0.00  0.00     0.163 HD
ATOM     67  H94 MK8 d   1       7.014 124.611  31.799  0.00  0.00     0.037 H 
ATOM     68  H95 MK8 d   1       7.621 126.292  31.620  0.00  0.00     0.037 H 
ATOM     69  H96 MK8 d   1       6.996 125.165  33.747  0.00  0.00     0.038 H 
ATOM     70  H97 MK8 d   1       8.095 123.901  34.395  0.00  0.00     0.038 H 
ATOM     71  H98 MK8 d   1       8.077 126.859  35.128  0.00  0.00     0.076 H 
ATOM     72  H99 MK8 d   1       9.585 125.833  32.800  0.00  0.00     0.033 H 
ATOM     73 0H10 MK8 d   1       9.417 124.058  32.584  0.00  0.00     0.033 H 
ENDROOT
BRANCH   3  74
ATOM     74  CAA 0EH d   1      13.234 131.633  37.973  0.00  0.00    -0.044 C 
ATOM     75  H25 0EH d   1      13.786 131.354  38.883  0.00  0.00     0.031 H 
ATOM     76  H26 0EH d   1      12.166 131.405  38.107  0.00  0.00     0.031 H 
ATOM     77  H27 0EH d   1      13.358 132.710  37.785  0.00  0.00     0.031 H 
ENDBRANCH   3  74
BRANCH   3  78
ATOM     78  NAC 0EH d   1      15.197 131.193  36.566  0.00  0.00    -0.342 N 
ATOM     79  C   PHE d   1      15.877 130.842  35.516  0.00  0.00     0.241 C 
ATOM     80  O   PHE d   1      15.396 130.185  34.605  0.00  0.00    -0.271 OA
ATOM     81  H30 0EH d   1      15.660 131.733  37.269  0.00  0.00     0.163 HD
BRANCH  79  82
ATOM     82  CA  PHE d   1      17.343 131.311  35.405  0.00  0.00     0.093 C 
ATOM     83  H17 PHE d   1      17.662 131.201  34.358  0.00  0.00     0.088 H 
BRANCH  82  84
ATOM     84  N   PHE d   1      17.454 132.713  35.770  0.00  0.00    -0.346 N 
ATOM     85  C   SER d   1      16.703 133.648  35.201  0.00  0.00     0.243 C 
ATOM     86  O   SER d   1      16.005 133.442  34.210  0.00  0.00    -0.271 OA
ATOM     87  H16 PHE d   1      18.116 132.981  36.470  0.00  0.00     0.163 HD
BRANCH  85  88
ATOM     88  CA  SER d   1      16.729 134.999  35.884  0.00  0.00     0.109 C 
ATOM     89  H12 SER d   1      17.740 135.174  36.280  0.00  0.00     0.090 H 
BRANCH  88  90
ATOM     90  N   SER d   1      16.409 136.066  34.942  0.00  0.00    -0.344 N 
ATOM     91  C   THC d   1      17.301 136.471  34.043  0.00  0.00     0.243 C 
ATOM     92  O   THC d   1      18.419 135.961  33.924  0.00  0.00    -0.271 OA
ATOM     93  H11 SER d   1      15.508 136.498  34.973  0.00  0.00     0.163 HD
BRANCH  91  94
ATOM     94  CA  THC d   1      16.870 137.611  33.141  0.00  0.00     0.113 C 
ATOM     95  H5  THC d   1      15.988 138.092  33.589  0.00  0.00     0.091 H 
BRANCH  94  96
ATOM     96  N   THC d   1      17.931 138.612  33.023  0.00  0.00    -0.346 N 
ATOM     97  CN  THC d   1      18.232 139.462  34.006  0.00  0.00     0.214 C 
ATOM     98  ON  THC d   1      17.623 139.500  35.071  0.00  0.00    -0.274 OA
ATOM     99  H1  THC d   1      18.452 138.661  32.171  0.00  0.00     0.163 HD
BRANCH  97 100
ATOM    100  CM  THC d   1      19.360 140.431  33.738  0.00  0.00    -0.003 C 
ATOM    101  H2  THC d   1      19.509 141.073  34.619  0.00  0.00     0.040 H 
ATOM    102  H3  THC d   1      19.108 141.055  32.868  0.00  0.00     0.040 H 
ATOM    103  H4  THC d   1      20.284 139.870  33.532  0.00  0.00     0.040 H 
ENDBRANCH  97 100
ENDBRANCH  94  96
BRANCH  94 104
ATOM    104  CB  THC d   1      16.483 137.084  31.761  0.00  0.00     0.060 C 
ATOM    105  H6  THC d   1      17.372 136.616  31.313  0.00  0.00     0.086 H 
BRANCH 104 106
ATOM    106  OG1 THC d   1      16.046 138.176  30.927  0.00  0.00    -0.393 OA
ATOM    107  H7  THC d   1      15.807 137.843  30.070  0.00  0.00     0.210 HD
ENDBRANCH 104 106
BRANCH 104 108
ATOM    108  CG2 THC d   1      15.356 136.055  31.791  0.00  0.00    -0.050 C 
ATOM    109  H8  THC d   1      15.134 135.724  30.766  0.00  0.00     0.031 H 
ATOM    110  H9  THC d   1      14.456 136.509  32.232  0.00  0.00     0.031 H 
ATOM    111  H10 THC d   1      15.665 135.190  32.397  0.00  0.00     0.031 H 
ENDBRANCH 104 108
ENDBRANCH  94 104
ENDBRANCH  91  94
ENDBRANCH  88  90
BRANCH  88 112
ATOM    112  CB  SER d   1      15.737 135.006  37.048  0.00  0.00     0.044 C 
ATOM    113  H13 SER d   1      15.787 135.982  37.552  0.00  0.00     0.077 H 
ATOM    114  H14 SER d   1      16.015 134.213  37.757  0.00  0.00     0.077 H 
BRANCH 112 115
ATOM    115  OG  SER d   1      14.416 134.785  36.614  0.00  0.00    -0.398 OA
ATOM    116  H15 SER d   1      14.165 135.470  36.005  0.00  0.00     0.209 HD
ENDBRANCH 112 115
ENDBRANCH  88 112
ENDBRANCH  85  88
ENDBRANCH  82  84
BRANCH  82 117
ATOM    117  CB  PHE d   1      18.263 130.442  36.280  0.00  0.00    -0.014 C 
ATOM    118  H18 PHE d   1      18.073 130.681  37.337  0.00  0.00     0.043 H 
ATOM    119  H19 PHE d   1      19.309 130.676  36.033  0.00  0.00     0.043 H 
BRANCH 117 120
ATOM    120  CG  PHE d   1      18.037 128.976  36.071  0.00  0.00    -0.056 A 
ATOM    121  CD1 PHE d   1      18.408 128.371  34.887  0.00  0.00    -0.077 A 
ATOM    122  CE1 PHE d   1      18.172 127.036  34.657  0.00  0.00    -0.082 A 
ATOM    123  H20 PHE d   1      18.897 128.962  34.121  0.00  0.00     0.084 H 
ATOM    124  CZ  PHE d   1      17.490 126.294  35.598  0.00  0.00    -0.083 A 
ATOM    125  H22 PHE d   1      18.520 126.570  33.742  0.00  0.00     0.083 H 
ATOM    126  CE2 PHE d   1      17.089 126.889  36.775  0.00  0.00    -0.082 A 
ATOM    127  H24 PHE d   1      17.270 125.249  35.413  0.00  0.00     0.083 H 
ATOM    128  CD2 PHE d   1      17.357 128.231  37.008  0.00  0.00    -0.077 A 
ATOM    129  H23 PHE d   1      16.562 126.306  37.522  0.00  0.00     0.083 H 
ATOM    130  H21 PHE d   1      17.029 128.694  37.932  0.00  0.00     0.084 H 
ENDBRANCH 117 120
ENDBRANCH  82 117
ENDBRANCH  79  82
ENDBRANCH   3  78
BRANCH  25 131
ATOM    131  CB  GLU d   1      12.527 134.474  33.778  0.00  0.00    -0.029 C 
ATOM    132  H44 GLU d   1      13.574 134.716  33.545  0.00  0.00     0.037 H 
ATOM    133  H45 GLU d   1      12.243 134.953  34.726  0.00  0.00     0.037 H 
BRANCH 131 134
ATOM    134  CG  GLU d   1      11.631 135.018  32.659  0.00  0.00     0.018 C 
ATOM    135  H46 GLU d   1      10.613 134.635  32.826  0.00  0.00     0.049 H 
ATOM    136  H47 GLU d   1      12.015 134.633  31.703  0.00  0.00     0.049 H 
BRANCH 134 137
ATOM    137  CD  GLU d   1      11.547 136.530  32.552  0.00  0.00     0.172 C 
ATOM    138  OE1 GLU d   1      12.148 137.290  33.362  0.00  0.00    -0.648 OA
ATOM    139  OE2 GLU d   1      10.838 136.950  31.611  0.00  0.00    -0.648 OA
ENDBRANCH 134 137
ENDBRANCH 131 134
ENDBRANCH  25 131
BRANCH  31 140
ATOM    140  CB  TYR d   1      15.980 131.106  31.116  0.00  0.00    -0.014 C 
ATOM    141  H50 TYR d   1      16.214 130.278  30.431  0.00  0.00     0.043 H 
ATOM    142  H51 TYR d   1      16.361 130.869  32.120  0.00  0.00     0.043 H 
BRANCH 140 143
ATOM    143  CG  TYR d   1      16.700 132.356  30.616  0.00  0.00    -0.056 A 
ATOM    144  CD1 TYR d   1      16.438 132.867  29.339  0.00  0.00    -0.074 A 
ATOM    145  CE1 TYR d   1      17.125 133.974  28.867  0.00  0.00    -0.051 A 
ATOM    146  H52 TYR d   1      15.691 132.392  28.714  0.00  0.00     0.084 H 
ATOM    147  CZ  TYR d   1      18.071 134.574  29.673  0.00  0.00     0.065 A 
ATOM    148  H54 TYR d   1      16.922 134.364  27.876  0.00  0.00     0.087 H 
ATOM    149  CE2 TYR d   1      18.332 134.083  30.935  0.00  0.00    -0.051 A 
ATOM    150  CD2 TYR d   1      17.646 132.971  31.390  0.00  0.00    -0.074 A 
ATOM    151  H55 TYR d   1      19.070 134.565  31.566  0.00  0.00     0.087 H 
ATOM    152  H53 TYR d   1      17.862 132.580  32.378  0.00  0.00     0.084 H 
BRANCH 147 153
ATOM    153  OH  TYR d   1      18.759 135.706  29.250  0.00  0.00    -0.361 OA
ATOM    154  H56 TYR d   1      19.692 135.528  29.255  0.00  0.00     0.217 HD
ENDBRANCH 147 153
ENDBRANCH 140 143
ENDBRANCH  31 140
BRANCH  37 155
ATOM    155  CB  6CW d   1      13.828 127.164  33.803  0.00  0.00    -0.012 C 
ATOM    156  H59 6CW d   1      13.201 127.547  34.622  0.00  0.00     0.044 H 
ATOM    157  H60 6CW d   1      14.881 127.414  33.999  0.00  0.00     0.044 H 
BRANCH 155 158
ATOM    158  CG  6CW d   1      13.680 125.661  33.724  0.00  0.00    -0.028 A 
ATOM    159  CD2 6CW d   1      14.651 124.697  33.198  0.00  0.00    -0.002 A 
ATOM    160  CE3 6CW d   1      15.919 124.847  32.628  0.00  0.00    -0.069 A 
ATOM    161  CE2 6CW d   1      14.017 123.374  33.343  0.00  0.00     0.044 A 
ATOM    162  CZ3 6CW d   1      16.586 123.711  32.194  0.00  0.00    -0.061 A 
ATOM    163  H61 6CW d   1      16.370 125.828  32.528  0.00  0.00     0.085 H 
ATOM    164  CH2 6CW d   1      15.987 122.442  32.335  0.00  0.00     0.036 A 
ATOM    165  H65 6CW d   1      17.569 123.799  31.746  0.00  0.00     0.086 H 
ATOM    166  CZ2 6CW d   1      14.724 122.274  32.891  0.00  0.00    -0.035 A 
ATOM    167 CLL  6CW d   1      16.891 121.033  31.759  0.00  0.00    -0.084 Cl
ATOM    168  H64 6CW d   1      14.294 121.282  32.970  0.00  0.00     0.089 H 
ATOM    169  NE1 6CW d   1      12.811 123.560  33.919  0.00  0.00    -0.365 N 
ATOM    170  CD1 6CW d   1      12.597 124.895  34.152  0.00  0.00    -0.015 A 
ATOM    171  H62 6CW d   1      12.146 122.808  34.151  0.00  0.00     0.165 HD
ATOM    172  H63 6CW d   1      11.698 125.303  34.611  0.00  0.00     0.112 H 
ENDBRANCH 155 158
ENDBRANCH  37 155
BRANCH  43 173
ATOM    173  CB  ALA d   1       9.208 130.057  33.607  0.00  0.00    -0.049 C 
ATOM    174  H68 ALA d   1       8.118 130.131  33.477  0.00  0.00     0.030 H 
ATOM    175  H69 ALA d   1       9.679 131.003  33.301  0.00  0.00     0.030 H 
ATOM    176  H70 ALA d   1       9.438 129.858  34.664  0.00  0.00     0.030 H 
ENDBRANCH  43 173
BRANCH  61 177
ATOM    177  C   MK8 d   1       7.136 125.228  29.405  0.00  0.00     0.243 C 
ATOM    178  O   MK8 d   1       6.889 126.396  29.066  0.00  0.00    -0.271 OA
ATOM    179  N   NH2 d   1       6.228 124.210  29.090  0.00  0.00    -0.368 N 
ATOM    180 4H10 NH2 d   1       6.421 123.267  29.360  0.00  0.00     0.159 HD
ATOM    181 5H10 NH2 d   1       5.386 124.426  28.595  0.00  0.00     0.159 HD
ENDBRANCH  61 177
BRANCH  61 182
ATOM    182  CB1 MK8 d   1       8.775 123.420  30.174  0.00  0.00    -0.044 C 
ATOM    183 1H10 MK8 d   1       7.922 122.808  30.502  0.00  0.00     0.031 H 
ATOM    184 2H10 MK8 d   1       9.628 123.251  30.848  0.00  0.00     0.031 H 
ATOM    185 3H10 MK8 d   1       9.056 123.138  29.149  0.00  0.00     0.031 H 
ENDBRANCH  61 182
BRANCH  49 186
ATOM    186  CB  LEU d   1      10.798 131.022  28.448  0.00  0.00    -0.035 C 
ATOM    187  H73 LEU d   1      10.898 130.796  27.376  0.00  0.00     0.037 H 
ATOM    188  H74 LEU d   1      11.781 130.937  28.934  0.00  0.00     0.037 H 
BRANCH 186 189
ATOM    189  CG  LEU d   1      10.337 132.463  28.579  0.00  0.00    -0.059 C 
ATOM    190  H75 LEU d   1       9.939 132.599  29.596  0.00  0.00     0.038 H 
BRANCH 189 191
ATOM    191  CD1 LEU d   1      11.503 133.434  28.406  0.00  0.00    -0.073 C 
ATOM    192  H76 LEU d   1      11.138 134.467  28.506  0.00  0.00     0.028 H 
ATOM    193  H77 LEU d   1      11.949 133.298  27.410  0.00  0.00     0.028 H 
ATOM    194  H78 LEU d   1      12.262 133.237  29.178  0.00  0.00     0.028 H 
ENDBRANCH 189 191
BRANCH 189 195
ATOM    195  CD2 LEU d   1       9.202 132.756  27.590  0.00  0.00    -0.073 C 
ATOM    196  H79 LEU d   1       8.384 132.037  27.747  0.00  0.00     0.028 H 
ATOM    197  H80 LEU d   1       9.579 132.663  26.561  0.00  0.00     0.028 H 
ATOM    198  H81 LEU d   1       8.828 133.778  27.753  0.00  0.00     0.028 H 
ENDBRANCH 189 195
ENDBRANCH 186 189
ENDBRANCH  49 186
BRANCH  53 199
ATOM    199  CB  LEU d   1      12.538 125.939  28.787  0.00  0.00    -0.035 C 
ATOM    200  H84 LEU d   1      12.595 126.179  29.859  0.00  0.00     0.037 H 
ATOM    201  H85 LEU d   1      13.374 126.420  28.259  0.00  0.00     0.037 H 
BRANCH 199 202
ATOM    202  CG  LEU d   1      12.703 124.432  28.640  0.00  0.00    -0.059 C 
ATOM    203  H86 LEU d   1      11.725 123.945  28.770  0.00  0.00     0.038 H 
BRANCH 202 204
ATOM    204  CD1 LEU d   1      13.224 124.143  27.253  0.00  0.00    -0.073 C 
ATOM    205  H87 LEU d   1      13.350 123.058  27.128  0.00  0.00     0.028 H 
ATOM    206  H88 LEU d   1      14.194 124.643  27.114  0.00  0.00     0.028 H 
ATOM    207  H89 LEU d   1      12.508 124.518  26.507  0.00  0.00     0.028 H 
ENDBRANCH 202 204
BRANCH 202 208
ATOM    208  CD2 LEU d   1      13.660 123.897  29.688  0.00  0.00    -0.073 C 
ATOM    209  H90 LEU d   1      13.265 124.116  30.691  0.00  0.00     0.028 H 
ATOM    210  H91 LEU d   1      14.642 124.378  29.567  0.00  0.00     0.028 H 
ATOM    211  H92 LEU d   1      13.767 122.809  29.566  0.00  0.00     0.028 H 
ENDBRANCH 202 208
ENDBRANCH 199 202
ENDBRANCH  53 199
TORSDOF 35
