REMARK WARNING: 32 MAX_TORS EXCEEDED!!!
REMARK  67 active torsions:
REMARK  status: ('A' for Active; 'I' for Inactive)
REMARK    1  A    between atoms: N_1  and  CA_2 
REMARK    2  A    between atoms: CA_2  and  C_3 
REMARK    3  A    between atoms: CA_2  and  CB_5 
REMARK       I    between atoms: C_3  and  N_10 
REMARK    4  A    between atoms: CB_5  and  CG_6 
REMARK    5  A    between atoms: CG_6  and  CD_7 
REMARK    6  A    between atoms: CD_7  and  CE_8 
REMARK    7  A    between atoms: CE_8  and  NZ_9 
REMARK    8  A    between atoms: N_10  and  CA_11 
REMARK    9  A    between atoms: CA_11  and  C_12 
REMARK   10  A    between atoms: CA_11  and  CB_14 
REMARK       I    between atoms: C_12  and  N_21 
REMARK   11  A    between atoms: CB_14  and  CG_15 
REMARK   12  A    between atoms: CG_15  and  CD_16 
REMARK   13  A    between atoms: CD_16  and  NE_17 
REMARK       I    between atoms: NE_17  and  CZ_18 
REMARK       I    between atoms: CZ_18  and  NH1_19 
REMARK       I    between atoms: CZ_18  and  NH2_20 
REMARK   14  A    between atoms: N_21  and  CA_22 
REMARK   15  A    between atoms: CA_22  and  C_23 
REMARK   16  A    between atoms: CA_22  and  CB_25 
REMARK       I    between atoms: C_23  and  N_29 
REMARK   17  A    between atoms: CB_25  and  CG_26 
REMARK   18  A    between atoms: CG_26  and  SD_27 
REMARK   19  A    between atoms: SD_27  and  CE_28 
REMARK   20  A    between atoms: N_29  and  CA_30 
REMARK   21  A    between atoms: CA_30  and  C_31 
REMARK   22  A    between atoms: CA_30  and  CB_33 
REMARK       I    between atoms: C_31  and  N_36 
REMARK   23  A    between atoms: CB_33  and  OG1_34 
REMARK   24  A    between atoms: CB_33  and  CG2_35 
REMARK   25  A    between atoms: N_36  and  CA_37 
REMARK   26  A    between atoms: CA_37  and  C_38 
REMARK   27  A    between atoms: CA_37  and  CB_40 
REMARK       I    between atoms: C_38  and  N_44 
REMARK   28  A    between atoms: CB_40  and  CG1_41 
REMARK   29  A    between atoms: CB_40  and  CG2_42 
REMARK   30  A    between atoms: CG1_41  and  CD1_43 
REMARK   31  A    between atoms: N_44  and  CA_45 
REMARK   32  A    between atoms: CA_45  and  C_46 
REMARK   33  A    between atoms: CA_45  and  CB_48 
REMARK       I    between atoms: C_46  and  N_50 
REMARK   34  A    between atoms: CB_48  and  OG_49 
REMARK   35  A    between atoms: N_50  and  CA_51 
REMARK   36  A    between atoms: CA_51  and  C_52 
REMARK   37  A    between atoms: CA_51  and  CB_54 
REMARK       I    between atoms: C_52  and  N_61 
REMARK   38  A    between atoms: CB_54  and  CG_55 
REMARK   39  A    between atoms: CG_55  and  CD_56 
REMARK   40  A    between atoms: CD_56  and  NE_57 
REMARK       I    between atoms: NE_57  and  CZ_58 
REMARK       I    between atoms: CZ_58  and  NH1_59 
REMARK   41  A    between atoms: N_61  and  CA_62 
REMARK   42  A    between atoms: CA_62  and  C_63 
REMARK   43  A    between atoms: CA_62  and  CB_65 
REMARK       I    between atoms: C_63  and  N_69 
REMARK   44  A    between atoms: CB_65  and  CG_66 
REMARK   45  A    between atoms: CG_66  and  CD1_67 
REMARK   46  A    between atoms: CG_66  and  CD2_68 
REMARK   47  A    between atoms: N_69  and  CA_70 
REMARK   48  A    between atoms: CA_70  and  C_71 
REMARK   49  A    between atoms: CA_70  and  CB_73 
REMARK       I    between atoms: C_71  and  N_76 
REMARK   50  A    between atoms: CB_73  and  CG1_74 
REMARK   51  A    between atoms: CB_73  and  CG2_75 
REMARK   52  A    between atoms: N_76  and  CA_77 
REMARK   53  A    between atoms: CA_77  and  C_78 
REMARK   54  A    between atoms: CA_77  and  CB_80 
REMARK       I    between atoms: C_78  and  N_84 
REMARK   55  A    between atoms: CB_80  and  CG_81 
REMARK   56  A    between atoms: CG_81  and  CD1_82 
REMARK   57  A    between atoms: CG_81  and  CD2_83 
REMARK   58  A    between atoms: N_84  and  CA_85 
REMARK   59  A    between atoms: CA_85  and  C_86 
REMARK   60  A    between atoms: CA_85  and  CB_88 
REMARK       I    between atoms: C_86  and  N_93 
REMARK   61  A    between atoms: CB_88  and  CG_89 
REMARK   62  A    between atoms: CG_89  and  CD_90 
REMARK   63  A    between atoms: N_93  and  CA_94 
REMARK   64  A    between atoms: CA_94  and  C_95 
REMARK   65  A    between atoms: CA_94  and  CB_97 
REMARK   66  A    between atoms: CB_97  and  CG_98 
REMARK   67  A    between atoms: CG_98  and  CD_99 
ROOT
ATOM      1  N   ARG d   1      12.153  52.919  21.709  0.00  0.00    -0.346 N 
ATOM      2  H61 ARG d   1      11.212  53.214  21.546  0.00  0.00     0.163 HD
ATOM      3  C   SER d   1      12.783  52.233  20.782  0.00  0.00     0.243 C 
ATOM      4  O   SER d   1      13.884  51.824  20.939  0.00  0.00    -0.271 OA
ENDROOT
BRANCH   3   5
ATOM      5  CA  SER d   1      12.046  51.982  19.470  0.00  0.00     0.109 C 
ATOM      6  H57 SER d   1      12.672  51.299  18.877  0.00  0.00     0.090 H 
BRANCH   5   7
ATOM      7  N   SER d   1      10.753  51.364  19.594  0.00  0.00    -0.344 N 
ATOM      8  C   ILE d   1      10.544  50.304  20.338  0.00  0.00     0.241 C 
ATOM      9  O   ILE d   1      11.423  49.712  20.890  0.00  0.00    -0.271 OA
ATOM     10  H56 SER d   1       9.983  51.758  19.093  0.00  0.00     0.163 HD
BRANCH   8  11
ATOM     11  CA  ILE d   1       9.096  49.894  20.502  0.00  0.00     0.092 C 
ATOM     12  H46 ILE d   1       9.041  49.191  21.346  0.00  0.00     0.088 H 
BRANCH  11  13
ATOM     13  N   ILE d   1       8.272  51.032  20.829  0.00  0.00    -0.346 N 
ATOM     14  C   THR d   1       8.474  51.750  21.911  0.00  0.00     0.243 C 
ATOM     15  O   THR d   1       9.324  51.490  22.719  0.00  0.00    -0.271 OA
ATOM     16  H45 ILE d   1       7.524  51.282  20.214  0.00  0.00     0.163 HD
BRANCH  14  17
ATOM     17  CA  THR d   1       7.593  52.964  22.053  0.00  0.00     0.113 C 
ATOM     18  H39 THR d   1       6.564  52.686  21.781  0.00  0.00     0.091 H 
BRANCH  17  19
ATOM     19  N   THR d   1       7.564  53.464  23.410  0.00  0.00    -0.344 N 
ATOM     20  C   MET d   1       6.504  53.386  24.194  0.00  0.00     0.241 C 
ATOM     21  O   MET d   1       5.384  53.062  23.790  0.00  0.00    -0.271 OA
ATOM     22  H38 THR d   1       8.391  53.892  23.774  0.00  0.00     0.163 HD
BRANCH  20  23
ATOM     23  CA  MET d   1       6.747  53.748  25.654  0.00  0.00     0.090 C 
ATOM     24  H30 MET d   1       7.699  54.295  25.723  0.00  0.00     0.087 H 
BRANCH  23  25
ATOM     25  N   MET d   1       5.687  54.603  26.171  0.00  0.00    -0.346 N 
ATOM     26  C   ARG d   1       5.475  55.818  25.670  0.00  0.00     0.241 C 
ATOM     27  O   ARG d   1       6.056  56.246  24.668  0.00  0.00    -0.271 OA
ATOM     28  H29 MET d   1       5.108  54.271  26.916  0.00  0.00     0.163 HD
BRANCH  26  29
ATOM     29  CA  ARG d   1       4.456  56.667  26.420  0.00  0.00     0.089 C 
ATOM     30  H17 ARG d   1       4.495  56.397  27.486  0.00  0.00     0.087 H 
BRANCH  29  31
ATOM     31  N   ARG d   1       4.781  58.077  26.291  0.00  0.00    -0.346 N 
ATOM     32  C   LYS d   1       5.714  58.642  27.050  0.00  0.00     0.248 C 
ATOM     33  O   LYS d   1       6.289  58.048  27.963  0.00  0.00    -0.271 OA
ATOM     34  H16 ARG d   1       4.293  58.633  25.618  0.00  0.00     0.163 HD
BRANCH  32  35
ATOM     35  CA  LYS d   1       6.045  60.094  26.731  0.00  0.00     0.176 C 
ATOM     36  H4  LYS d   1       5.239  60.500  26.102  0.00  0.00     0.099 H 
BRANCH  35  37
ATOM     37  N   LYS d   1       6.130  60.907  27.938  0.00  0.00    -0.067 N 
ATOM     38  H1  LYS d   1       6.350  61.858  27.688  0.00  0.00     0.275 HD
ATOM     39  H2  LYS d   1       6.853  60.542  28.539  0.00  0.00     0.275 HD
ATOM     40  H3  LYS d   1       5.246  60.883  28.422  0.00  0.00     0.275 HD
ENDBRANCH  35  37
BRANCH  35  41
ATOM     41  CB  LYS d   1       7.356  60.164  25.944  0.00  0.00    -0.030 C 
ATOM     42  H5  LYS d   1       7.579  59.158  25.558  0.00  0.00     0.036 H 
ATOM     43  H6  LYS d   1       8.154  60.478  26.633  0.00  0.00     0.036 H 
BRANCH  41  44
ATOM     44  CG  LYS d   1       7.334  61.129  24.771  0.00  0.00    -0.061 C 
ATOM     45  H7  LYS d   1       7.159  62.148  25.147  0.00  0.00     0.033 H 
ATOM     46  H8  LYS d   1       6.520  60.845  24.087  0.00  0.00     0.033 H 
BRANCH  44  47
ATOM     47  CD  LYS d   1       8.653  61.099  24.013  0.00  0.00    -0.043 C 
ATOM     48  H9  LYS d   1       9.039  60.069  24.007  0.00  0.00     0.035 H 
ATOM     49  H10 LYS d   1       9.373  61.758  24.521  0.00  0.00     0.035 H 
BRANCH  47  50
ATOM     50  CE  LYS d   1       8.479  61.570  22.578  0.00  0.00     0.080 C 
ATOM     51  H11 LYS d   1       9.468  61.805  22.157  0.00  0.00     0.075 H 
ATOM     52  H12 LYS d   1       7.854  62.475  22.573  0.00  0.00     0.075 H 
BRANCH  50  53
ATOM     53  NZ  LYS d   1       7.829  60.529  21.734  0.00  0.00    -0.079 N 
ATOM     54  H13 LYS d   1       7.730  60.874  20.792  0.00  0.00     0.274 HD
ATOM     55  H14 LYS d   1       6.919  60.312  22.110  0.00  0.00     0.274 HD
ATOM     56  H15 LYS d   1       8.398  59.697  21.729  0.00  0.00     0.274 HD
ENDBRANCH  50  53
ENDBRANCH  47  50
ENDBRANCH  44  47
ENDBRANCH  41  44
ENDBRANCH  35  41
ENDBRANCH  32  35
ENDBRANCH  29  31
BRANCH  29  57
ATOM     57  CB  ARG d   1       3.044  56.390  25.903  0.00  0.00    -0.036 C 
ATOM     58  H18 ARG d   1       3.042  55.409  25.406  0.00  0.00     0.036 H 
ATOM     59  H19 ARG d   1       2.781  57.171  25.174  0.00  0.00     0.036 H 
BRANCH  57  60
ATOM     60  CG  ARG d   1       1.986  56.377  26.996  0.00  0.00    -0.048 C 
ATOM     61  H20 ARG d   1       2.292  57.065  27.798  0.00  0.00     0.035 H 
ATOM     62  H21 ARG d   1       1.902  55.357  27.400  0.00  0.00     0.035 H 
BRANCH  60  63
ATOM     63  CD  ARG d   1       0.630  56.810  26.466  0.00  0.00     0.009 C 
ATOM     64  H22 ARG d   1       0.586  57.909  26.462  0.00  0.00     0.064 H 
ATOM     65  H23 ARG d   1      -0.152  56.414  27.130  0.00  0.00     0.064 H 
BRANCH  63  66
ATOM     66  NE  ARG d   1       0.385  56.326  25.111  0.00  0.00    -0.227 N 
ATOM     67  CZ  ARG d   1      -0.607  55.506  24.779  0.00  0.00     0.665 C 
ATOM     68  NH1 ARG d   1      -1.452  55.077  25.708  0.00  0.00    -0.235 N 
ATOM     69  NH2 ARG d   1      -0.757  55.117  23.520  0.00  0.00    -0.235 N 
ATOM     70  H25 ARG d   1      -2.221  54.442  25.451  0.00  0.00     0.174 HD
ATOM     71  H26 ARG d   1      -1.339  55.380  26.686  0.00  0.00     0.174 HD
ATOM     72  H27 ARG d   1      -0.102  55.449  22.797  0.00  0.00     0.174 HD
ATOM     73  H28 ARG d   1      -1.528  54.483  23.265  0.00  0.00     0.174 HD
ATOM     74  H24 ARG d   1       1.021  56.640  24.364  0.00  0.00     0.177 HD
ENDBRANCH  63  66
ENDBRANCH  60  63
ENDBRANCH  57  60
ENDBRANCH  29  57
ENDBRANCH  26  29
ENDBRANCH  23  25
BRANCH  23  75
ATOM     75  CB  MET d   1       6.852  52.476  26.496  0.00  0.00    -0.030 C 
ATOM     76  H31 MET d   1       5.902  51.928  26.412  0.00  0.00     0.037 H 
ATOM     77  H32 MET d   1       7.016  52.769  27.544  0.00  0.00     0.037 H 
BRANCH  75  78
ATOM     78  CG  MET d   1       7.980  51.540  26.081  0.00  0.00    -0.021 C 
ATOM     79  H33 MET d   1       7.871  51.313  25.010  0.00  0.00     0.049 H 
ATOM     80  H34 MET d   1       7.896  50.611  26.663  0.00  0.00     0.049 H 
BRANCH  78  81
ATOM     81  SD  MET d   1       9.619  52.244  26.355  0.00  0.00    -0.173 SA
BRANCH  81  82
ATOM     82  CE  MET d   1       9.533  52.626  28.101  0.00  0.00    -0.035 C 
ATOM     83  H35 MET d   1      10.484  53.074  28.426  0.00  0.00     0.041 H 
ATOM     84  H36 MET d   1       9.350  51.703  28.670  0.00  0.00     0.041 H 
ATOM     85  H37 MET d   1       8.713  53.337  28.281  0.00  0.00     0.041 H 
ENDBRANCH  81  82
ENDBRANCH  78  81
ENDBRANCH  75  78
ENDBRANCH  23  75
ENDBRANCH  20  23
ENDBRANCH  17  19
BRANCH  17  86
ATOM     86  CB  THR d   1       8.100  54.003  21.045  0.00  0.00     0.060 C 
ATOM     87  H40 THR d   1       8.130  53.540  20.048  0.00  0.00     0.086 H 
BRANCH  86  88
ATOM     88  OG1 THR d   1       9.403  54.421  21.401  0.00  0.00    -0.393 OA
ATOM     89  H41 THR d   1       9.711  55.064  20.773  0.00  0.00     0.210 HD
ENDBRANCH  86  88
BRANCH  86  90
ATOM     90  CG2 THR d   1       7.212  55.189  20.995  0.00  0.00    -0.050 C 
ATOM     91  H42 THR d   1       7.605  55.911  20.264  0.00  0.00     0.031 H 
ATOM     92  H43 THR d   1       7.171  55.659  21.989  0.00  0.00     0.031 H 
ATOM     93  H44 THR d   1       6.201  54.877  20.695  0.00  0.00     0.031 H 
ENDBRANCH  86  90
ENDBRANCH  17  86
ENDBRANCH  14  17
ENDBRANCH  11  13
BRANCH  11  94
ATOM     94  CB  ILE d   1       8.589  49.162  19.259  0.00  0.00    -0.030 C 
ATOM     95  H47 ILE d   1       8.476  49.886  18.438  0.00  0.00     0.043 H 
BRANCH  94  96
ATOM     96  CG1 ILE d   1       7.239  48.524  19.551  0.00  0.00    -0.063 C 
ATOM     97  H48 ILE d   1       6.561  49.315  19.904  0.00  0.00     0.033 H 
ATOM     98  H49 ILE d   1       7.382  47.781  20.349  0.00  0.00     0.033 H 
BRANCH  96  99
ATOM     99  CD1 ILE d   1       6.582  47.836  18.393  0.00  0.00    -0.076 C 
ATOM    100  H53 ILE d   1       5.619  47.414  18.716  0.00  0.00     0.027 H 
ATOM    101  H54 ILE d   1       7.233  47.027  18.029  0.00  0.00     0.027 H 
ATOM    102  H55 ILE d   1       6.412  48.562  17.584  0.00  0.00     0.027 H 
ENDBRANCH  96  99
ENDBRANCH  94  96
BRANCH  94 103
ATOM    103  CG2 ILE d   1       9.571  48.099  18.845  0.00  0.00    -0.071 C 
ATOM    104  H50 ILE d   1      10.546  48.563  18.634  0.00  0.00     0.028 H 
ATOM    105  H51 ILE d   1       9.203  47.592  17.941  0.00  0.00     0.028 H 
ATOM    106  H52 ILE d   1       9.681  47.365  19.657  0.00  0.00     0.028 H 
ENDBRANCH  94 103
ENDBRANCH  11  94
ENDBRANCH   8  11
ENDBRANCH   5   7
BRANCH   5 107
ATOM    107  CB  SER d   1      11.912  53.274  18.709  0.00  0.00     0.044 C 
ATOM    108  H58 SER d   1      11.322  53.987  19.304  0.00  0.00     0.077 H 
ATOM    109  H59 SER d   1      11.401  53.082  17.754  0.00  0.00     0.077 H 
BRANCH 107 110
ATOM    110  OG  SER d   1      13.161  53.811  18.459  0.00  0.00    -0.398 OA
ATOM    111  H60 SER d   1      13.603  53.979  19.283  0.00  0.00     0.209 HD
ENDBRANCH 107 110
ENDBRANCH   5 107
ENDBRANCH   3   5
BRANCH   1 112
ATOM    112  CA  ARG d   1      12.790  53.253  22.953  0.00  0.00     0.089 C 
ATOM    113  H62 ARG d   1      13.794  53.638  22.722  0.00  0.00     0.087 H 
BRANCH 112 114
ATOM    114  C   ARG d   1      12.943  52.043  23.832  0.00  0.00     0.241 C 
ATOM    115  O   ARG d   1      13.910  51.910  24.529  0.00  0.00    -0.271 OA
ATOM    116  N   LEU d   1      11.989  51.144  23.776  0.00  0.00    -0.346 N 
ATOM    117  H74 LEU d   1      11.169  51.326  23.234  0.00  0.00     0.163 HD
BRANCH 116 118
ATOM    118  CA  LEU d   1      12.111  49.899  24.486  0.00  0.00     0.089 C 
ATOM    119  H75 LEU d   1      12.284  50.142  25.545  0.00  0.00     0.087 H 
BRANCH 118 120
ATOM    120  C   LEU d   1      13.295  49.056  24.016  0.00  0.00     0.241 C 
ATOM    121  O   LEU d   1      13.908  48.412  24.800  0.00  0.00    -0.271 OA
ATOM    122  N   VAL d   1      13.603  49.069  22.736  0.00  0.00    -0.346 N 
ATOM    123  H85 VAL d   1      13.035  49.592  22.101  0.00  0.00     0.163 HD
BRANCH 122 124
ATOM    124  CA  VAL d   1      14.735  48.349  22.235  0.00  0.00     0.092 C 
ATOM    125  H86 VAL d   1      14.738  47.357  22.710  0.00  0.00     0.088 H 
BRANCH 124 126
ATOM    126  C   VAL d   1      16.025  49.049  22.617  0.00  0.00     0.241 C 
ATOM    127  O   VAL d   1      16.967  48.420  23.006  0.00  0.00    -0.271 OA
ATOM    128  N   LEU d   1      16.028  50.364  22.534  0.00  0.00    -0.346 N 
ATOM    129  H94 LEU d   1      15.189  50.832  22.256  0.00  0.00     0.163 HD
BRANCH 128 130
ATOM    130  CA  LEU d   1      17.201  51.154  22.830  0.00  0.00     0.089 C 
ATOM    131  H95 LEU d   1      18.044  50.664  22.321  0.00  0.00     0.087 H 
BRANCH 130 132
ATOM    132  C   LEU d   1      17.579  51.254  24.292  0.00  0.00     0.241 C 
ATOM    133  O   LEU d   1      18.705  51.518  24.595  0.00  0.00    -0.271 OA
ATOM    134  N   GLU d   1      16.653  51.017  25.197  0.00  0.00    -0.346 N 
ATOM    135 5H10 GLU d   1      15.755  50.683  24.911  0.00  0.00     0.163 HD
BRANCH 134 136
ATOM    136  CA  GLU d   1      16.925  51.236  26.607  0.00  0.00     0.090 C 
ATOM    137 6H10 GLU d   1      17.572  52.124  26.657  0.00  0.00     0.087 H 
BRANCH 136 138
ATOM    138  C   GLU d   1      17.681  50.120  27.307  0.00  0.00     0.241 C 
ATOM    139  O   GLU d   1      18.135  49.193  26.695  0.00  0.00    -0.271 OA
ATOM    140  N   GLU d   1      17.815  50.243  28.612  0.00  0.00    -0.345 N 
ATOM    141 1H11 GLU d   1      17.285  50.951  29.079  0.00  0.00     0.163 HD
BRANCH 140 142
ATOM    142  CA  GLU d   1      18.701  49.395  29.415  0.00  0.00     0.097 C 
ATOM    143 2H11 GLU d   1      18.600  49.705  30.465  0.00  0.00     0.089 H 
BRANCH 142 144
ATOM    144  C   GLU d   1      20.163  49.566  29.014  0.00  0.00     0.196 C 
ATOM    145  O   GLU d   1      20.601  50.674  28.695  0.00  0.00    -0.646 OA
ATOM    146  OXT GLU d   1      20.928  48.599  29.003  0.00  0.00    -0.646 OA
ENDBRANCH 142 144
BRANCH 142 147
ATOM    147  CB  GLU d   1      18.296  47.917  29.315  0.00  0.00    -0.028 C 
ATOM    148 3H11 GLU d   1      17.811  47.755  28.341  0.00  0.00     0.037 H 
ATOM    149 4H11 GLU d   1      17.581  47.698  30.122  0.00  0.00     0.037 H 
BRANCH 147 150
ATOM    150  CG  GLU d   1      19.472  46.946  29.436  0.00  0.00     0.018 C 
ATOM    151 5H11 GLU d   1      20.083  47.242  30.302  0.00  0.00     0.049 H 
ATOM    152 6H11 GLU d   1      20.077  47.013  28.520  0.00  0.00     0.049 H 
BRANCH 150 153
ATOM    153  CD  GLU d   1      19.036  45.509  29.622  0.00  0.00     0.172 C 
ATOM    154  OE1 GLU d   1      17.898  45.280  30.075  0.00  0.00    -0.648 OA
ATOM    155  OE2 GLU d   1      19.844  44.612  29.323  0.00  0.00    -0.648 OA
ENDBRANCH 150 153
ENDBRANCH 147 150
ENDBRANCH 142 147
ENDBRANCH 140 142
ENDBRANCH 136 138
BRANCH 136 156
ATOM    156  CB  GLU d   1      15.651  51.569  27.370  0.00  0.00    -0.029 C 
ATOM    157 7H10 GLU d   1      14.982  52.122  26.695  0.00  0.00     0.037 H 
ATOM    158 8H10 GLU d   1      15.920  52.208  28.224  0.00  0.00     0.037 H 
BRANCH 156 159
ATOM    159  CG  GLU d   1      14.900  50.372  27.898  0.00  0.00     0.018 C 
ATOM    160 9H10 GLU d   1      15.599  49.744  28.470  0.00  0.00     0.049 H 
ATOM    161 0H11 GLU d   1      14.508  49.800  27.044  0.00  0.00     0.049 H 
BRANCH 159 162
ATOM    162  CD  GLU d   1      13.737  50.752  28.803  0.00  0.00     0.172 C 
ATOM    163  OE1 GLU d   1      13.307  51.925  28.770  0.00  0.00    -0.648 OA
ATOM    164  OE2 GLU d   1      13.247  49.878  29.551  0.00  0.00    -0.648 OA
ENDBRANCH 159 162
ENDBRANCH 156 159
ENDBRANCH 136 156
ENDBRANCH 134 136
ENDBRANCH 130 132
BRANCH 130 165
ATOM    165  CB  LEU d   1      17.056  52.538  22.248  0.00  0.00    -0.035 C 
ATOM    166  H96 LEU d   1      17.827  53.188  22.688  0.00  0.00     0.037 H 
ATOM    167  H97 LEU d   1      16.059  52.926  22.505  0.00  0.00     0.037 H 
BRANCH 165 168
ATOM    168  CG  LEU d   1      17.209  52.553  20.750  0.00  0.00    -0.059 C 
ATOM    169  H98 LEU d   1      16.706  51.658  20.355  0.00  0.00     0.038 H 
BRANCH 168 170
ATOM    170  CD1 LEU d   1      16.530  53.756  20.167  0.00  0.00    -0.073 C 
ATOM    171  H99 LEU d   1      16.651  53.752  19.074  0.00  0.00     0.028 H 
ATOM    172 0H10 LEU d   1      16.982  54.669  20.582  0.00  0.00     0.028 H 
ATOM    173 1H10 LEU d   1      15.459  53.730  20.417  0.00  0.00     0.028 H 
ENDBRANCH 168 170
BRANCH 168 174
ATOM    174  CD2 LEU d   1      18.651  52.482  20.330  0.00  0.00    -0.073 C 
ATOM    175 2H10 LEU d   1      19.119  51.591  20.773  0.00  0.00     0.028 H 
ATOM    176 3H10 LEU d   1      19.178  53.383  20.676  0.00  0.00     0.028 H 
ATOM    177 4H10 LEU d   1      18.711  52.420  19.233  0.00  0.00     0.028 H 
ENDBRANCH 168 174
ENDBRANCH 165 168
ENDBRANCH 130 165
ENDBRANCH 128 130
ENDBRANCH 124 126
BRANCH 124 178
ATOM    178  CB  VAL d   1      14.643  48.136  20.715  0.00  0.00    -0.033 C 
ATOM    179  H87 VAL d   1      14.373  49.095  20.248  0.00  0.00     0.042 H 
BRANCH 178 180
ATOM    180  CG1 VAL d   1      15.966  47.685  20.145  0.00  0.00    -0.071 C 
ATOM    181  H88 VAL d   1      15.867  47.542  19.059  0.00  0.00     0.028 H 
ATOM    182  H89 VAL d   1      16.263  46.736  20.615  0.00  0.00     0.028 H 
ATOM    183  H90 VAL d   1      16.732  48.449  20.346  0.00  0.00     0.028 H 
ENDBRANCH 178 180
BRANCH 178 184
ATOM    184  CG2 VAL d   1      13.567  47.120  20.387  0.00  0.00    -0.071 C 
ATOM    185  H91 VAL d   1      12.607  47.455  20.805  0.00  0.00     0.028 H 
ATOM    186  H92 VAL d   1      13.837  46.147  20.823  0.00  0.00     0.028 H 
ATOM    187  H93 VAL d   1      13.477  47.021  19.295  0.00  0.00     0.028 H 
ENDBRANCH 178 184
ENDBRANCH 124 178
ENDBRANCH 122 124
ENDBRANCH 118 120
BRANCH 118 188
ATOM    188  CB  LEU d   1      10.819  49.108  24.398  0.00  0.00    -0.035 C 
ATOM    189  H76 LEU d   1      10.736  48.708  23.377  0.00  0.00     0.037 H 
ATOM    190  H77 LEU d   1       9.985  49.800  24.590  0.00  0.00     0.037 H 
BRANCH 188 191
ATOM    191  CG  LEU d   1      10.693  47.947  25.365  0.00  0.00    -0.059 C 
ATOM    192  H78 LEU d   1      11.555  47.282  25.211  0.00  0.00     0.038 H 
BRANCH 191 193
ATOM    193  CD1 LEU d   1      10.730  48.442  26.784  0.00  0.00    -0.073 C 
ATOM    194  H79 LEU d   1      10.638  47.589  27.472  0.00  0.00     0.028 H 
ATOM    195  H80 LEU d   1       9.896  49.140  26.951  0.00  0.00     0.028 H 
ATOM    196  H81 LEU d   1      11.683  48.959  26.967  0.00  0.00     0.028 H 
ENDBRANCH 191 193
BRANCH 191 197
ATOM    197  CD2 LEU d   1       9.444  47.151  25.116  0.00  0.00    -0.073 C 
ATOM    198  H82 LEU d   1       9.436  46.798  24.074  0.00  0.00     0.028 H 
ATOM    199  H83 LEU d   1       8.563  47.785  25.296  0.00  0.00     0.028 H 
ATOM    200  H84 LEU d   1       9.418  46.287  25.796  0.00  0.00     0.028 H 
ENDBRANCH 191 197
ENDBRANCH 188 191
ENDBRANCH 118 188
ENDBRANCH 116 118
ENDBRANCH 112 114
BRANCH 112 201
ATOM    201  CB  ARG d   1      12.034  54.333  23.702  0.00  0.00    -0.036 C 
ATOM    202  H63 ARG d   1      10.965  54.073  23.712  0.00  0.00     0.036 H 
ATOM    203  H64 ARG d   1      12.174  55.290  23.178  0.00  0.00     0.036 H 
BRANCH 201 204
ATOM    204  CG  ARG d   1      12.508  54.488  25.129  0.00  0.00    -0.048 C 
ATOM    205  H65 ARG d   1      13.602  54.603  25.116  0.00  0.00     0.035 H 
ATOM    206  H66 ARG d   1      12.242  53.574  25.680  0.00  0.00     0.035 H 
BRANCH 204 207
ATOM    207  CD  ARG d   1      11.916  55.676  25.869  0.00  0.00     0.009 C 
ATOM    208  H67 ARG d   1      12.672  56.472  25.933  0.00  0.00     0.064 H 
ATOM    209  H68 ARG d   1      11.629  55.360  26.883  0.00  0.00     0.064 H 
BRANCH 207 210
ATOM    210  NE  ARG d   1      10.755  56.186  25.191  0.00  0.00    -0.227 N 
ATOM    211  CZ  ARG d   1       9.617  56.470  25.791  0.00  0.00     0.665 C 
ATOM    212  NH1 ARG d   1       9.506  56.307  27.096  0.00  0.00    -0.235 N 
ATOM    213  NH2 ARG d   1       8.598  56.914  25.072  0.00  0.00    -0.235 N 
ATOM    214  H70 ARG d   1       8.618  56.528  27.569  0.00  0.00     0.174 HD
ATOM    215  H71 ARG d   1      10.307  55.959  27.642  0.00  0.00     0.174 HD
ATOM    216  H72 ARG d   1       8.700  57.036  24.054  0.00  0.00     0.174 HD
ATOM    217  H73 ARG d   1       7.703  57.138  25.530  0.00  0.00     0.174 HD
ATOM    218  H69 ARG d   1      10.817  56.339  24.174  0.00  0.00     0.177 HD
ENDBRANCH 207 210
ENDBRANCH 204 207
ENDBRANCH 201 204
ENDBRANCH 112 201
ENDBRANCH   1 112
TORSDOF 67
