REMARK  3 active torsions:
REMARK  status: ('A' for Active; 'I' for Inactive)
REMARK    1  A    between atoms: C7_5  and  C5_6 
REMARK    2  A    between atoms: N1_11  and  C9_12 
REMARK    3  A    between atoms: C9_12  and  C11_13 
ROOT
ATOM      1  C5  FTZ d   1      -0.322 -34.158 -30.242  0.00  0.00     0.199 A 
ATOM      2  N6  FTZ d   1       0.443 -33.064 -30.357  0.00  0.00    -0.167 N 
ATOM      3  N4  FTZ d   1       0.509 -35.196 -30.112  0.00  0.00    -0.112 NA
ATOM      4  N3  FTZ d   1       1.675 -34.792 -30.132  0.00  0.00     0.044 NA
ATOM      5  C2  FTZ d   1       1.701 -33.470 -30.280  0.00  0.00     0.720 A 
ATOM      6  N1  FTZ d   1       2.821 -32.716 -30.337  0.00  0.00    -0.218 N 
ATOM      7  H4  FTZ d   1       0.116 -32.095 -30.481  0.00  0.00     0.186 HD
ATOM      8  H5  FTZ d   1       3.718 -33.195 -30.173  0.00  0.00     0.178 HD
ENDROOT
BRANCH   6   9
ATOM      9  C9  FTZ d   1       2.874 -31.261 -30.615  0.00  0.00     0.037 C 
ATOM     10  H6  FTZ d   1       2.259 -30.738 -29.868  0.00  0.00     0.072 H 
ATOM     11  H7  FTZ d   1       2.464 -31.080 -31.619  0.00  0.00     0.072 H 
BRANCH   9  12
ATOM     12  C11 FTZ d   1       4.331 -30.685 -30.557  0.00  0.00     0.020 A 
ATOM     13  C15 FTZ d   1       5.322 -30.938 -31.539  0.00  0.00     0.044 A 
ATOM     14 CL1  FTZ d   1       4.992 -31.930 -32.910  0.00  0.00    -0.084 Cl
ATOM     15  C23 FTZ d   1       6.614 -30.407 -31.456  0.00  0.00    -0.061 A 
ATOM     16  C16 FTZ d   1       6.967 -29.606 -30.380  0.00  0.00    -0.078 A 
ATOM     17  H8  FTZ d   1       7.339 -30.622 -32.233  0.00  0.00     0.086 H 
ATOM     18  C17 FTZ d   1       6.016 -29.344 -29.399  0.00  0.00    -0.045 A 
ATOM     19  H9  FTZ d   1       7.966 -29.192 -30.305  0.00  0.00     0.083 H 
ATOM     20  C14 FTZ d   1       4.725 -29.872 -29.485  0.00  0.00     0.126 A 
ATOM     21  H10 FTZ d   1       6.281 -28.720 -28.553  0.00  0.00     0.088 H 
ATOM     22  F18 FTZ d   1       3.845 -29.593 -28.510  0.00  0.00    -0.205 F 
ENDBRANCH   9  12
ENDBRANCH   6   9
BRANCH   1  23
ATOM     23  C7  FTZ d   1      -1.728 -34.207 -30.274  0.00  0.00     0.123 A 
ATOM     24  C24 FTZ d   1      -2.516 -35.237 -30.563  0.00  0.00    -0.045 A 
ATOM     25  C25 FTZ d   1      -3.787 -34.832 -30.489  0.00  0.00    -0.059 A 
ATOM     26  H1  FTZ d   1      -2.182 -36.242 -30.817  0.00  0.00     0.088 H 
ATOM     27  C26 FTZ d   1      -3.831 -33.539 -30.160  0.00  0.00     0.019 A 
ATOM     28  H2  FTZ d   1      -4.657 -35.462 -30.670  0.00  0.00     0.086 H 
ATOM     29  O27 FTZ d   1      -2.537 -33.123 -30.022  0.00  0.00    -0.319 OA
ATOM     30  H3  FTZ d   1      -4.726 -32.933 -30.027  0.00  0.00     0.123 H 
ENDBRANCH   1  23
TORSDOF 3
