REMARK  5 active torsions:
REMARK  status: ('A' for Active; 'I' for Inactive)
REMARK    1  A    between atoms: CAV_8  and  CAK_9 
REMARK    2  A    between atoms: CAK_9  and  NAN_10 
REMARK    3  A    between atoms: NAN_10  and  CAU_11 
REMARK    4  A    between atoms: CAT_15  and  CAS_16 
REMARK    5  A    between atoms: CAP_18  and  OAA_19 
ROOT
ATOM      1  CAU P0F d   1       1.836 -33.984 -30.185  0.00  0.00     0.720 A 
ATOM      2  NAM P0F d   1       0.642 -33.422 -30.479  0.00  0.00    -0.169 N 
ATOM      3  NAO P0F d   1       1.653 -35.276 -29.869  0.00  0.00     0.044 NA
ATOM      4  NAL P0F d   1       0.353 -35.502 -29.960  0.00  0.00    -0.114 NA
ATOM      5  CAT P0F d   1      -0.273 -34.397 -30.313  0.00  0.00     0.175 A 
ATOM      6  H7  P0F d   1       0.468 -32.449 -30.770  0.00  0.00     0.186 HD
ENDROOT
BRANCH   1   7
ATOM      7  NAN P0F d   1       3.023 -33.346 -30.236  0.00  0.00    -0.218 N 
ATOM      8  H6  P0F d   1       3.893 -33.874 -30.076  0.00  0.00     0.178 HD
BRANCH   7   9
ATOM      9  CAK P0F d   1       3.087 -31.904 -30.518  0.00  0.00     0.037 C 
ATOM     10  H4  P0F d   1       2.732 -31.730 -31.544  0.00  0.00     0.072 H 
ATOM     11  H5  P0F d   1       2.432 -31.377 -29.809  0.00  0.00     0.072 H 
BRANCH   9  12
ATOM     12  CAV P0F d   1       4.403 -31.380 -30.397  0.00  0.00     0.020 A 
ATOM     13  CAR P0F d   1       5.383 -31.569 -31.382  0.00  0.00     0.044 A 
ATOM     14 CL   P0F d   1       5.099 -32.424 -32.680  0.00  0.00    -0.084 Cl
ATOM     15  CAH P0F d   1       6.666 -31.048 -31.306  0.00  0.00    -0.061 A 
ATOM     16  CAE P0F d   1       6.973 -30.316 -30.197  0.00  0.00    -0.078 A 
ATOM     17  H1  P0F d   1       7.393 -31.215 -32.093  0.00  0.00     0.086 H 
ATOM     18  CAG P0F d   1       6.073 -30.079 -29.164  0.00  0.00    -0.045 A 
ATOM     19  H2  P0F d   1       7.970 -29.898 -30.117  0.00  0.00     0.083 H 
ATOM     20  CAQ P0F d   1       4.746 -30.606 -29.266  0.00  0.00     0.126 A 
ATOM     21  H3  P0F d   1       6.372 -29.504 -28.295  0.00  0.00     0.088 H 
ATOM     22  F   P0F d   1       3.817 -30.412 -28.269  0.00  0.00    -0.205 F 
ENDBRANCH   9  12
ENDBRANCH   7   9
ENDBRANCH   1   7
BRANCH   5  23
ATOM     23  CAS P0F d   1      -1.637 -34.289 -30.460  0.00  0.00     0.015 A 
ATOM     24  CAJ P0F d   1      -2.209 -33.017 -30.233  0.00  0.00    -0.037 A 
ATOM     25  CAP P0F d   1      -3.590 -32.853 -30.362  0.00  0.00     0.066 A 
ATOM     26  H8  P0F d   1      -1.581 -32.176 -29.961  0.00  0.00     0.089 H 
ATOM     27  CAF P0F d   1      -4.377 -33.984 -30.637  0.00  0.00    -0.051 A 
ATOM     28  CAD P0F d   1      -3.820 -35.248 -30.847  0.00  0.00    -0.079 A 
ATOM     29  H10 P0F d   1      -5.454 -33.872 -30.688  0.00  0.00     0.087 H 
ATOM     30  CAI P0F d   1      -2.431 -35.381 -30.742  0.00  0.00    -0.069 A 
ATOM     31  H11 P0F d   1      -4.446 -36.101 -31.084  0.00  0.00     0.083 H 
ATOM     32  H12 P0F d   1      -1.974 -36.353 -30.884  0.00  0.00     0.085 H 
BRANCH  25  33
ATOM     33  OAA P0F d   1      -4.060 -31.598 -30.154  0.00  0.00    -0.361 OA
ATOM     34  H9  P0F d   1      -5.004 -31.592 -30.264  0.00  0.00     0.217 HD
ENDBRANCH  25  33
ENDBRANCH   5  23
TORSDOF 5
