REMARK  6 active torsions:
REMARK  status: ('A' for Active; 'I' for Inactive)
REMARK    1  A    between atoms: C8_24  and  C2_2 
REMARK    2  A    between atoms: C38_8  and  C37_7 
REMARK    3  A    between atoms: C33_9  and  C38_8 
REMARK       I    between atoms: N34_11  and  C33_9 
REMARK    4  A    between atoms: C24_12  and  N34_11 
REMARK    5  A    between atoms: C19_18  and  C26_17 
REMARK    6  A    between atoms: N15_23  and  C8_24 
ROOT
ATOM      1  C19 GYL d   1      -6.168 -14.492 -37.258  0.00  0.00     0.175 A 
ATOM      2  N18 GYL d   1      -7.224 -13.746 -36.923  0.00  0.00    -0.169 N 
ATOM      3  N20 GYL d   1      -5.160 -13.643 -37.548  0.00  0.00    -0.114 NA
ATOM      4  N21 GYL d   1      -5.503 -12.486 -37.401  0.00  0.00     0.044 NA
ATOM      5  C17 GYL d   1      -6.781 -12.486 -37.016  0.00  0.00     0.720 A 
ATOM      6  N15 GYL d   1      -7.480 -11.375 -36.745  0.00  0.00    -0.218 N 
ATOM      7  H14 GYL d   1      -8.165 -14.067 -36.654  0.00  0.00     0.186 HD
ATOM      8  H15 GYL d   1      -7.012 -10.462 -36.843  0.00  0.00     0.178 HD
ENDROOT
BRANCH   1   9
ATOM      9  C26 GYL d   1      -6.134 -15.848 -37.354  0.00  0.00     0.014 A 
ATOM     10  C25 GYL d   1      -7.225 -16.673 -37.008  0.00  0.00    -0.043 A 
ATOM     11  C24 GYL d   1      -7.180 -18.086 -37.124  0.00  0.00     0.035 A 
ATOM     12  H10 GYL d   1      -8.133 -16.209 -36.639  0.00  0.00     0.088 H 
ATOM     13  C23 GYL d   1      -6.021 -18.675 -37.637  0.00  0.00    -0.057 A 
ATOM     14  C28 GYL d   1      -4.949 -17.870 -37.989  0.00  0.00    -0.080 A 
ATOM     15  H11 GYL d   1      -5.961 -19.750 -37.758  0.00  0.00     0.086 H 
ATOM     16  C27 GYL d   1      -4.996 -16.493 -37.855  0.00  0.00    -0.069 A 
ATOM     17  H12 GYL d   1      -4.049 -18.331 -38.380  0.00  0.00     0.083 H 
ATOM     18  H13 GYL d   1      -4.135 -15.902 -38.144  0.00  0.00     0.085 H 
BRANCH  11  19
ATOM     19  N34 GYL d   1      -8.275 -18.828 -36.767  0.00  0.00    -0.327 N 
ATOM     20  C33 GYL d   1      -8.170 -19.991 -36.041  0.00  0.00     0.221 C 
ATOM     21  O35 GYL d   1      -7.119 -20.509 -35.646  0.00  0.00    -0.273 OA
ATOM     22  H9  GYL d   1      -9.183 -18.513 -37.044  0.00  0.00     0.169 HD
BRANCH  20  23
ATOM     23  C38 GYL d   1      -9.487 -20.664 -35.700  0.00  0.00     0.006 C 
ATOM     24  H7  GYL d   1     -10.323 -20.186 -36.232  0.00  0.00     0.046 H 
ATOM     25  H8  GYL d   1      -9.458 -21.735 -35.950  0.00  0.00     0.046 H 
BRANCH  23  26
ATOM     26  C37 GYL d   1      -9.611 -20.457 -34.183  0.00  0.00    -0.068 C 
ATOM     27  H4  GYL d   1     -10.546 -20.914 -33.826  0.00  0.00     0.028 H 
ATOM     28  H5  GYL d   1      -9.620 -19.380 -33.959  0.00  0.00     0.028 H 
ATOM     29  H6  GYL d   1      -8.756 -20.929 -33.677  0.00  0.00     0.028 H 
ENDBRANCH  23  26
ENDBRANCH  20  23
ENDBRANCH  11  19
ENDBRANCH   1   9
BRANCH   6  30
ATOM     30  C8  GYL d   1      -8.893 -11.403 -36.312  0.00  0.00     0.037 C 
ATOM     31  H16 GYL d   1      -9.490 -12.001 -37.016  0.00  0.00     0.072 H 
ATOM     32  H17 GYL d   1      -8.969 -11.839 -35.305  0.00  0.00     0.072 H 
BRANCH  30  33
ATOM     33  C2  GYL d   1      -9.352 -10.086 -36.297  0.00  0.00     0.020 A 
ATOM     34  C1  GYL d   1      -9.555  -9.372 -37.485  0.00  0.00     0.044 A 
ATOM     35  C6  GYL d   1     -10.017  -8.058 -37.474  0.00  0.00    -0.061 A 
ATOM     36 CL7  GYL d   1      -9.227 -10.070 -38.999  0.00  0.00    -0.084 Cl
ATOM     37  C5  GYL d   1     -10.288  -7.431 -36.270  0.00  0.00    -0.078 A 
ATOM     38  H3  GYL d   1     -10.164  -7.527 -38.407  0.00  0.00     0.086 H 
ATOM     39  C4  GYL d   1     -10.093  -8.125 -35.089  0.00  0.00    -0.045 A 
ATOM     40  H2  GYL d   1     -10.649  -6.409 -36.253  0.00  0.00     0.083 H 
ATOM     41  C3  GYL d   1      -9.634  -9.437 -35.094  0.00  0.00     0.126 A 
ATOM     42  H1  GYL d   1     -10.302  -7.637 -34.144  0.00  0.00     0.088 H 
ATOM     43  F9  GYL d   1      -9.468 -10.018 -34.002  0.00  0.00    -0.205 F 
ENDBRANCH  30  33
ENDBRANCH   6  30
TORSDOF 6
