REMARK  8 active torsions:
REMARK  status: ('A' for Active; 'I' for Inactive)
REMARK    1  A    between atoms: C23_1  and  C17_2 
REMARK    2  A    between atoms: C17_2  and  C22_4 
REMARK    3  A    between atoms: C18_6  and  C20_7 
REMARK    4  A    between atoms: C18_6  and  C21_8 
REMARK    5  A    between atoms: C15_10  and  N1_11 
REMARK    6  A    between atoms: N1_11  and  C13_12 
REMARK    7  A    between atoms: C12_16  and  C10_17 
REMARK    8  A    between atoms: C6_22  and  C3_23 
ROOT
ATOM      1  C17 8J6 d   1     -16.855  66.849  20.205  0.00  0.00     0.121 C 
ATOM      2  C16 8J6 d   1     -18.111  67.543  20.721  0.00  0.00    -0.016 C 
ATOM      3  N2  8J6 d   1     -15.729  67.795  19.900  0.00  0.00    -0.059 N 
ATOM      4  C18 8J6 d   1     -16.019  69.259  19.724  0.00  0.00     0.121 C 
ATOM      5  C19 8J6 d   1     -17.482  69.727  19.802  0.00  0.00    -0.016 C 
ATOM      6  C15 8J6 d   1     -18.489  68.618  19.765  0.00  0.00     0.016 C 
ATOM      7  H4  8J6 d   1     -17.912  67.981  21.710  0.00  0.00     0.039 H 
ATOM      8  H5  8J6 d   1     -18.931  66.814  20.801  0.00  0.00     0.039 H 
ATOM      9  H9  8J6 d   1     -15.302  67.476  19.045  0.00  0.00     0.279 HD
ATOM     10  H10 8J6 d   1     -15.067  67.716  20.656  0.00  0.00     0.279 HD
ATOM     11  H17 8J6 d   1     -17.675  70.396  18.950  0.00  0.00     0.039 H 
ATOM     12  H18 8J6 d   1     -17.616  70.282  20.742  0.00  0.00     0.039 H 
ATOM     13  H19 8J6 d   1     -18.488  68.197  18.749  0.00  0.00     0.072 H 
ENDROOT
BRANCH   6  14
ATOM     14  N1  8J6 d   1     -19.892  69.092  20.073  0.00  0.00    -0.364 N 
ATOM     15  H20 8J6 d   1     -20.659  68.665  19.533  0.00  0.00     0.162 HD
BRANCH  14  16
ATOM     16  C13 8J6 d   1     -20.266  70.114  21.080  0.00  0.00     0.167 A 
ATOM     17  N   8J6 d   1     -21.410  70.834  21.055  0.00  0.00    -0.224 NA
ATOM     18  C12 8J6 d   1     -21.589  71.732  22.077  0.00  0.00     0.076 A 
ATOM     19  C14 8J6 d   1     -20.546  71.786  23.026  0.00  0.00    -0.013 A 
ATOM     20  S   8J6 d   1     -19.419  70.624  22.465  0.00  0.00    -0.062 SA
ATOM     21  H21 8J6 d   1     -20.474  72.419  23.909  0.00  0.00     0.098 H 
BRANCH  18  22
ATOM     22  C10 8J6 d   1     -22.864  72.630  22.169  0.00  0.00    -0.006 A 
ATOM     23  C9  8J6 d   1     -22.758  73.962  22.560  0.00  0.00    -0.071 A 
ATOM     24  C8  8J6 d   1     -23.908  74.759  22.637  0.00  0.00    -0.081 A 
ATOM     25  H22 8J6 d   1     -21.789  74.381  22.804  0.00  0.00     0.084 H 
ATOM     26  C7  8J6 d   1     -25.161  74.219  22.322  0.00  0.00    -0.072 A 
ATOM     27  H23 8J6 d   1     -23.827  75.796  22.941  0.00  0.00     0.083 H 
ATOM     28  C6  8J6 d   1     -25.267  72.885  21.929  0.00  0.00    -0.025 A 
ATOM     29  H24 8J6 d   1     -26.049  74.838  22.384  0.00  0.00     0.084 H 
ATOM     30  C11 8J6 d   1     -24.118  72.088  21.850  0.00  0.00    -0.060 A 
ATOM     31  H25 8J6 d   1     -24.198  71.052  21.542  0.00  0.00     0.086 H 
BRANCH  28  32
ATOM     32  C3  8J6 d   1     -26.657  72.280  21.573  0.00  0.00    -0.026 A 
ATOM     33  C2  8J6 d   1     -27.593  73.048  20.881  0.00  0.00    -0.072 A 
ATOM     34  C1  8J6 d   1     -28.840  72.508  20.555  0.00  0.00    -0.082 A 
ATOM     35  H26 8J6 d   1     -27.353  74.066  20.595  0.00  0.00     0.084 H 
ATOM     36  C   8J6 d   1     -29.149  71.199  20.915  0.00  0.00    -0.083 A 
ATOM     37  H27 8J6 d   1     -29.567  73.109  20.021  0.00  0.00     0.083 H 
ATOM     38  C5  8J6 d   1     -28.212  70.430  21.602  0.00  0.00    -0.082 A 
ATOM     39  H30 8J6 d   1     -30.116  70.779  20.662  0.00  0.00     0.083 H 
ATOM     40  C4  8J6 d   1     -26.964  70.970  21.931  0.00  0.00    -0.072 A 
ATOM     41  H29 8J6 d   1     -28.451  69.410  21.882  0.00  0.00     0.083 H 
ATOM     42  H28 8J6 d   1     -26.236  70.369  22.464  0.00  0.00     0.084 H 
ENDBRANCH  28  32
ENDBRANCH  18  22
ENDBRANCH  14  16
ENDBRANCH   6  14
BRANCH   1  43
ATOM     43  C23 8J6 d   1     -16.374  65.868  21.273  0.00  0.00    -0.045 C 
ATOM     44  H1  8J6 d   1     -17.183  65.163  21.514  0.00  0.00     0.030 H 
ATOM     45  H2  8J6 d   1     -16.089  66.423  22.179  0.00  0.00     0.030 H 
ATOM     46  H3  8J6 d   1     -15.504  65.312  20.895  0.00  0.00     0.030 H 
ENDBRANCH   1  43
BRANCH   1  47
ATOM     47  C22 8J6 d   1     -17.211  66.065  18.947  0.00  0.00    -0.045 C 
ATOM     48  H6  8J6 d   1     -16.313  65.559  18.564  0.00  0.00     0.030 H 
ATOM     49  H7  8J6 d   1     -17.597  66.755  18.182  0.00  0.00     0.030 H 
ATOM     50  H8  8J6 d   1     -17.980  65.316  19.187  0.00  0.00     0.030 H 
ENDBRANCH   1  47
BRANCH   4  51
ATOM     51  C20 8J6 d   1     -15.428  69.707  18.381  0.00  0.00    -0.045 C 
ATOM     52  H11 8J6 d   1     -15.629  70.778  18.231  0.00  0.00     0.030 H 
ATOM     53  H12 8J6 d   1     -15.890  69.130  17.566  0.00  0.00     0.030 H 
ATOM     54  H13 8J6 d   1     -14.342  69.534  18.383  0.00  0.00     0.030 H 
ENDBRANCH   4  51
BRANCH   4  55
ATOM     55  C21 8J6 d   1     -15.250  69.997  20.839  0.00  0.00    -0.045 C 
ATOM     56  H14 8J6 d   1     -15.430  71.079  20.754  0.00  0.00     0.030 H 
ATOM     57  H15 8J6 d   1     -14.174  69.795  20.737  0.00  0.00     0.030 H 
ATOM     58  H16 8J6 d   1     -15.598  69.643  21.821  0.00  0.00     0.030 H 
ENDBRANCH   4  55
TORSDOF 8
