REMARK  6 active torsions:
REMARK  status: ('A' for Active; 'I' for Inactive)
REMARK    1  A    between atoms: C4_1  and  O1_21 
REMARK    2  A    between atoms: C14_2  and  C18_18 
REMARK    3  A    between atoms: O1_21  and  C11_5 
REMARK    4  A    between atoms: N1_12  and  C12_10 
REMARK    5  A    between atoms: S1_26  and  N1_12 
REMARK    6  A    between atoms: C1_14  and  S1_26 
ROOT
ATOM      1  C4  8JO d   1       3.442  -6.117 -20.410  0.00  0.00     0.079 A 
ATOM      2  C5  8JO d   1       4.412  -6.480 -21.393  0.00  0.00     0.009 A 
ATOM      3  C6  8JO d   1       5.258  -7.597 -21.133  0.00  0.00     0.000 A 
ATOM      4  C7  8JO d   1       4.558  -5.777 -22.613  0.00  0.00    -0.070 A 
ATOM      5  C8  8JO d   1       5.501  -6.170 -23.522  0.00  0.00    -0.082 A 
ATOM      6  C9  8JO d   1       6.341  -7.267 -23.267  0.00  0.00    -0.082 A 
ATOM      7  C10 8JO d   1       6.223  -7.969 -22.104  0.00  0.00    -0.071 A 
ATOM      8  C3  8JO d   1       3.333  -6.807 -19.231  0.00  0.00    -0.048 A 
ATOM      9  C1  8JO d   1       5.090  -8.301 -19.898  0.00  0.00     0.091 A 
ATOM     10  C2  8JO d   1       4.160  -7.907 -18.972  0.00  0.00    -0.057 A 
ATOM     11  H4  8JO d   1       3.921  -4.926 -22.827  0.00  0.00     0.085 H 
ATOM     12  H5  8JO d   1       5.602  -5.626 -24.454  0.00  0.00     0.083 H 
ATOM     13  H6  8JO d   1       7.087  -7.557 -23.998  0.00  0.00     0.083 H 
ATOM     14  H7  8JO d   1       6.872  -8.818 -21.920  0.00  0.00     0.084 H 
ATOM     15  H10 8JO d   1       2.601  -6.499 -18.493  0.00  0.00     0.087 H 
ATOM     16  H13 8JO d   1       4.064  -8.448 -18.037  0.00  0.00     0.086 H 
ENDROOT
BRANCH   9  17
ATOM     17  S1  8JO d   1       6.103  -9.682 -19.441  0.00  0.00     0.264 S 
ATOM     18  O2  8JO d   1       6.255 -10.576 -20.551  0.00  0.00    -0.200 OA
ATOM     19  O3  8JO d   1       5.587 -10.226 -18.222  0.00  0.00    -0.200 OA
BRANCH  17  20
ATOM     20  N1  8JO d   1       7.582  -9.073 -19.118  0.00  0.00    -0.281 N 
ATOM     21  H9  8JO d   1       8.361  -9.486 -19.589  0.00  0.00     0.179 HD
BRANCH  20  22
ATOM     22  C12 8JO d   1       7.853  -8.002 -18.220  0.00  0.00     0.043 A 
ATOM     23  C13 8JO d   1       6.907  -7.612 -17.268  0.00  0.00    -0.037 A 
ATOM     24  C14 8JO d   1       7.167  -6.537 -16.419  0.00  0.00     0.081 A 
ATOM     25  H8  8JO d   1       5.968  -8.147 -17.189  0.00  0.00     0.088 H 
ATOM     26  C15 8JO d   1       8.383  -5.896 -16.550  0.00  0.00     0.133 A 
ATOM     27  C16 8JO d   1       9.327  -6.257 -17.483  0.00  0.00    -0.042 A 
ATOM     28  F1  8JO d   1       8.676  -4.856 -15.733  0.00  0.00    -0.205 F 
ATOM     29  C17 8JO d   1       9.051  -7.318 -18.331  0.00  0.00    -0.054 A 
ATOM     30  H11 8JO d   1      10.268  -5.723 -17.554  0.00  0.00     0.088 H 
ATOM     31  H12 8JO d   1       9.775  -7.613 -19.082  0.00  0.00     0.087 H 
BRANCH  24  32
ATOM     32  C18 8JO d   1       6.138  -6.104 -15.401  0.00  0.00     0.212 C 
ATOM     33  O4  8JO d   1       6.054  -4.886 -15.142  0.00  0.00    -0.644 OA
ATOM     34  O5  8JO d   1       5.416  -6.975 -14.883  0.00  0.00    -0.644 OA
ENDBRANCH  24  32
ENDBRANCH  20  22
ENDBRANCH  17  20
ENDBRANCH   9  17
BRANCH   1  35
ATOM     35  O1  8JO d   1       2.683  -5.024 -20.724  0.00  0.00    -0.355 OA
BRANCH  35  36
ATOM     36  C11 8JO d   1       1.880  -4.469 -19.680  0.00  0.00     0.010 C 
ATOM     37  H1  8JO d   1       1.325  -3.601 -20.066  0.00  0.00     0.066 H 
ATOM     38  H2  8JO d   1       2.527  -4.150 -18.850  0.00  0.00     0.066 H 
ATOM     39  H3  8JO d   1       1.170  -5.228 -19.321  0.00  0.00     0.066 H 
ENDBRANCH  35  36
ENDBRANCH   1  35
TORSDOF 6
