REMARK  6 active torsions:
REMARK  status: ('A' for Active; 'I' for Inactive)
REMARK    1  A    between atoms: C4_1  and  O1_21 
REMARK    2  A    between atoms: C14_2  and  C18_18 
REMARK    3  A    between atoms: O1_21  and  C11_5 
REMARK    4  A    between atoms: N1_12  and  C12_10 
REMARK    5  A    between atoms: S1_26  and  N1_12 
REMARK    6  A    between atoms: C1_14  and  S1_26 
ROOT
ATOM      1  C4  8JL d   1       3.498  -6.116 -20.464  0.00  0.00     0.079 A 
ATOM      2  C5  8JL d   1       4.460  -6.484 -21.447  0.00  0.00     0.009 A 
ATOM      3  C6  8JL d   1       5.287  -7.615 -21.184  0.00  0.00     0.000 A 
ATOM      4  C7  8JL d   1       4.614  -5.793 -22.668  0.00  0.00    -0.070 A 
ATOM      5  C8  8JL d   1       5.546  -6.224 -23.572  0.00  0.00    -0.082 A 
ATOM      6  C9  8JL d   1       6.390  -7.315 -23.301  0.00  0.00    -0.082 A 
ATOM      7  C10 8JL d   1       6.258  -8.005 -22.134  0.00  0.00    -0.071 A 
ATOM      8  C3  8JL d   1       3.394  -6.792 -19.282  0.00  0.00    -0.048 A 
ATOM      9  C1  8JL d   1       5.120  -8.312 -19.949  0.00  0.00     0.091 A 
ATOM     10  C2  8JL d   1       4.203  -7.901 -19.019  0.00  0.00    -0.057 A 
ATOM     11  H4  8JL d   1       3.999  -4.928 -22.888  0.00  0.00     0.085 H 
ATOM     12  H5  8JL d   1       5.636  -5.711 -24.523  0.00  0.00     0.083 H 
ATOM     13  H6  8JL d   1       7.146  -7.607 -24.021  0.00  0.00     0.083 H 
ATOM     14  H7  8JL d   1       6.899  -8.855 -21.933  0.00  0.00     0.084 H 
ATOM     15  H10 8JL d   1       2.676  -6.465 -18.539  0.00  0.00     0.087 H 
ATOM     16  H13 8JL d   1       4.105  -8.435 -18.081  0.00  0.00     0.086 H 
ENDROOT
BRANCH   9  17
ATOM     17  S1  8JL d   1       6.128  -9.700 -19.481  0.00  0.00     0.264 S 
ATOM     18  O2  8JL d   1       6.279 -10.611 -20.570  0.00  0.00    -0.200 OA
ATOM     19  O3  8JL d   1       5.595 -10.249 -18.265  0.00  0.00    -0.200 OA
BRANCH  17  20
ATOM     20  N1  8JL d   1       7.620  -9.132 -19.144  0.00  0.00    -0.277 N 
ATOM     21  H9  8JL d   1       8.399  -9.550 -19.612  0.00  0.00     0.179 HD
BRANCH  20  22
ATOM     22  C12 8JL d   1       7.879  -8.073 -18.220  0.00  0.00     0.082 A 
ATOM     23  C13 8JL d   1       6.978  -7.691 -17.216  0.00  0.00    -0.037 A 
ATOM     24  C14 8JL d   1       7.270  -6.596 -16.412  0.00  0.00     0.043 A 
ATOM     25  H8  8JL d   1       6.059  -8.247 -17.068  0.00  0.00     0.088 H 
ATOM     26  C15 8JL d   1       8.451  -5.897 -16.603  0.00  0.00    -0.063 A 
ATOM     27  C16 8JL d   1       9.334  -6.246 -17.611  0.00  0.00    -0.042 A 
ATOM     28  H11 8JL d   1       8.688  -5.063 -15.952  0.00  0.00     0.085 H 
ATOM     29  C17 8JL d   1       9.025  -7.324 -18.405  0.00  0.00     0.143 A 
ATOM     30  H12 8JL d   1      10.246  -5.683 -17.770  0.00  0.00     0.088 H 
ATOM     31  F1  8JL d   1       9.885  -7.690 -19.391  0.00  0.00    -0.204 F 
BRANCH  24  32
ATOM     32  C18 8JL d   1       6.302  -6.169 -15.339  0.00  0.00     0.209 C 
ATOM     33  O4  8JL d   1       5.404  -6.974 -14.987  0.00  0.00    -0.644 OA
ATOM     34  O5  8JL d   1       6.361  -4.983 -14.956  0.00  0.00    -0.644 OA
ENDBRANCH  24  32
ENDBRANCH  20  22
ENDBRANCH  17  20
ENDBRANCH   9  17
BRANCH   1  35
ATOM     35  O1  8JL d   1       2.755  -5.012 -20.761  0.00  0.00    -0.355 OA
BRANCH  35  36
ATOM     36  C11 8JL d   1       2.103  -4.375 -19.657  0.00  0.00     0.010 C 
ATOM     37  H1  8JL d   1       1.538  -3.503 -20.018  0.00  0.00     0.066 H 
ATOM     38  H2  8JL d   1       2.857  -4.047 -18.926  0.00  0.00     0.066 H 
ATOM     39  H3  8JL d   1       1.413  -5.086 -19.179  0.00  0.00     0.066 H 
ENDBRANCH  35  36
ENDBRANCH   1  35
TORSDOF 6
