REMARK  6 active torsions:
REMARK  status: ('A' for Active; 'I' for Inactive)
REMARK    1  A    between atoms: C15_2  and  C16_15 
REMARK    2  A    between atoms: O02_21  and  C01_7 
REMARK    3  A    between atoms: C03_8  and  O02_21 
REMARK    4  A    between atoms: S07_26  and  C06_11 
REMARK    5  A    between atoms: N10_20  and  C11_12 
REMARK    6  A    between atoms: N10_20  and  S07_26 
ROOT
ATOM      1  C21 8JR d   1      -5.315   7.569 -21.257  0.00  0.00     0.000 A 
ATOM      2  C22 8JR d   1      -6.218   7.955 -22.257  0.00  0.00    -0.071 A 
ATOM      3  C24 8JR d   1      -5.553   6.062 -23.596  0.00  0.00    -0.082 A 
ATOM      4  C26 8JR d   1      -4.542   6.430 -21.434  0.00  0.00     0.009 A 
ATOM      5  C03 8JR d   1      -3.646   6.036 -20.446  0.00  0.00     0.079 A 
ATOM      6  C04 8JR d   1      -3.520   6.786 -19.267  0.00  0.00    -0.048 A 
ATOM      7  C05 8JR d   1      -4.282   7.908 -19.087  0.00  0.00    -0.057 A 
ATOM      8  C06 8JR d   1      -5.180   8.310 -20.071  0.00  0.00     0.091 A 
ATOM      9  C23 8JR d   1      -6.346   7.220 -23.415  0.00  0.00    -0.082 A 
ATOM     10  C25 8JR d   1      -4.664   5.671 -22.619  0.00  0.00    -0.070 A 
ATOM     11  H2  8JR d   1      -6.823   8.843 -22.117  0.00  0.00     0.084 H 
ATOM     12  H3  8JR d   1      -5.645   5.481 -24.506  0.00  0.00     0.083 H 
ATOM     13  H7  8JR d   1      -2.820   6.477 -18.500  0.00  0.00     0.087 H 
ATOM     14  H8  8JR d   1      -4.186   8.486 -18.175  0.00  0.00     0.086 H 
ATOM     15  H11 8JR d   1      -7.049   7.526 -24.182  0.00  0.00     0.083 H 
ATOM     16  H12 8JR d   1      -4.059   4.782 -22.759  0.00  0.00     0.085 H 
ENDROOT
BRANCH   8  17
ATOM     17  S07 8JR d   1      -6.126   9.812 -19.718  0.00  0.00     0.264 S 
ATOM     18  O08 8JR d   1      -6.604  10.516 -20.917  0.00  0.00    -0.200 OA
ATOM     19  O09 8JR d   1      -5.199  10.774 -19.156  0.00  0.00    -0.200 OA
BRANCH  17  20
ATOM     20  N10 8JR d   1      -7.488   9.548 -18.582  0.00  0.00    -0.277 N 
ATOM     21  H13 8JR d   1      -8.130  10.269 -18.322  0.00  0.00     0.179 HD
BRANCH  20  22
ATOM     22  C11 8JR d   1      -7.570   8.211 -18.082  0.00  0.00     0.082 A 
ATOM     23  C12 8JR d   1      -8.128   7.251 -18.900  0.00  0.00    -0.053 A 
ATOM     24  C13 8JR d   1      -8.188   5.954 -18.445  0.00  0.00    -0.080 A 
ATOM     25  H9  8JR d   1      -8.511   7.513 -19.880  0.00  0.00     0.087 H 
ATOM     26  C14 8JR d   1      -7.707   5.613 -17.202  0.00  0.00    -0.063 A 
ATOM     27  H1  8JR d   1      -8.622   5.188 -19.077  0.00  0.00     0.083 H 
ATOM     28  C15 8JR d   1      -7.142   6.567 -16.407  0.00  0.00     0.081 A 
ATOM     29  H10 8JR d   1      -7.777   4.588 -16.855  0.00  0.00     0.085 H 
ATOM     30  C19 8JR d   1      -7.069   7.893 -16.852  0.00  0.00     0.160 A 
ATOM     31  F20 8JR d   1      -6.505   8.888 -16.074  0.00  0.00    -0.203 F 
BRANCH  28  32
ATOM     32  C16 8JR d   1      -6.634   6.121 -15.066  0.00  0.00     0.212 C 
ATOM     33  O17 8JR d   1      -6.609   6.923 -14.109  0.00  0.00    -0.644 OA
ATOM     34  O18 8JR d   1      -6.252   4.899 -14.937  0.00  0.00    -0.644 OA
ENDBRANCH  28  32
ENDBRANCH  20  22
ENDBRANCH  17  20
ENDBRANCH   8  17
BRANCH   5  35
ATOM     35  O02 8JR d   1      -2.862   4.882 -20.603  0.00  0.00    -0.355 OA
BRANCH  35  36
ATOM     36  C01 8JR d   1      -2.380   4.325 -19.392  0.00  0.00     0.010 C 
ATOM     37  H4  8JR d   1      -1.780   3.430 -19.613  0.00  0.00     0.066 H 
ATOM     38  H5  8JR d   1      -3.231   4.047 -18.752  0.00  0.00     0.066 H 
ATOM     39  H6  8JR d   1      -1.755   5.065 -18.871  0.00  0.00     0.066 H 
ENDBRANCH  35  36
ENDBRANCH   5  35
TORSDOF 6
