REMARK  16 active torsions:
REMARK  status: ('A' for Active; 'I' for Inactive)
REMARK    1  A    between atoms: C1_1  and  C2_2 
REMARK    2  A    between atoms: C1_1  and  C3_3 
REMARK    3  A    between atoms: C5_5  and  C1_1 
REMARK    4  A    between atoms: C1_1  and  C_35 
REMARK    5  A    between atoms: C3_3  and  C4_4 
REMARK    6  A    between atoms: C7_7  and  C8_8 
REMARK    7  A    between atoms: C8_8  and  C9_9 
REMARK    8  A    between atoms: C8_8  and  C12_30 
REMARK    9  A    between atoms: C8_8  and  C10_31 
REMARK   10  A    between atoms: C16_24  and  N_23 
REMARK   11  A    between atoms: C15_25  and  C16_24 
REMARK   12  A    between atoms: C15_25  and  O2_26 
REMARK   13  A    between atoms: C14_27  and  C15_25 
REMARK   14  A    between atoms: O_28  and  C14_27 
REMARK   15  A    between atoms: O_28  and  C13_29 
REMARK   16  A    between atoms: C10_31  and  C11_32 
ROOT
ATOM      1  C5  8K9 d   1      10.283  48.074 -22.805  0.00  0.00    -0.050 A 
ATOM      2  C6  8K9 d   1      10.715  46.919 -23.482  0.00  0.00    -0.067 A 
ATOM      3  C7  8K9 d   1      11.209  46.964 -24.787  0.00  0.00    -0.016 A 
ATOM      4  C13 8K9 d   1      11.243  48.312 -25.441  0.00  0.00     0.075 A 
ATOM      5  C28 8K9 d   1      10.793  49.435 -24.743  0.00  0.00    -0.050 A 
ATOM      6  C29 8K9 d   1      10.313  49.313 -23.444  0.00  0.00    -0.073 A 
ATOM      7  H9  8K9 d   1      10.663  45.963 -22.974  0.00  0.00     0.085 H 
ATOM      8  H41 8K9 d   1      10.818  50.409 -25.218  0.00  0.00     0.087 H 
ATOM      9  H42 8K9 d   1       9.957  50.193 -22.921  0.00  0.00     0.084 H 
ENDROOT
BRANCH   4  10
ATOM     10  O   8K9 d   1      11.693  48.487 -26.721  0.00  0.00    -0.348 OA
BRANCH  10  11
ATOM     11  C14 8K9 d   1      11.403  49.675 -27.460  0.00  0.00     0.051 C 
ATOM     12  H31 8K9 d   1      10.368  49.992 -27.261  0.00  0.00     0.079 H 
ATOM     13  H32 8K9 d   1      12.095  50.476 -27.161  0.00  0.00     0.079 H 
BRANCH  11  14
ATOM     14  C15 8K9 d   1      11.572  49.379 -28.943  0.00  0.00     0.080 C 
ATOM     15  H29 8K9 d   1      12.331  48.597 -29.093  0.00  0.00     0.088 H 
BRANCH  14  16
ATOM     16  C16 8K9 d   1      10.226  48.900 -29.508  0.00  0.00     0.109 C 
ATOM     17  H27 8K9 d   1       9.874  48.071 -28.876  0.00  0.00     0.080 H 
ATOM     18  H28 8K9 d   1       9.518  49.739 -29.440  0.00  0.00     0.080 H 
BRANCH  16  19
ATOM     19  N   8K9 d   1      10.230  48.428 -30.906  0.00  0.00    -0.068 N 
ATOM     20  C17 8K9 d   1       9.017  47.607 -31.118  0.00  0.00     0.088 C 
ATOM     21  C18 8K9 d   1       8.987  46.923 -32.496  0.00  0.00    -0.014 C 
ATOM     22  H22 8K9 d   1       8.979  46.830 -30.340  0.00  0.00     0.076 H 
ATOM     23  H23 8K9 d   1       8.134  48.257 -31.030  0.00  0.00     0.076 H 
ATOM     24  C19 8K9 d   1       8.725  47.967 -33.578  0.00  0.00     0.008 C 
ATOM     25  C25 8K9 d   1      10.298  46.184 -32.786  0.00  0.00    -0.049 C 
ATOM     26  H21 8K9 d   1       8.166  46.191 -32.504  0.00  0.00     0.045 H 
ATOM     27  N1  8K9 d   1       9.962  48.603 -34.074  0.00  0.00    -0.317 N 
ATOM     28  H13 8K9 d   1       8.219  47.477 -34.423  0.00  0.00     0.065 H 
ATOM     29  H14 8K9 d   1       8.072  48.748 -33.162  0.00  0.00     0.065 H 
ATOM     30  C24 8K9 d   1       9.814  49.618 -35.044  0.00  0.00     0.247 A 
ATOM     31  C20 8K9 d   1      11.268  48.244 -33.639  0.00  0.00     0.020 A 
ATOM     32  O1  8K9 d   1       8.664  49.919 -35.430  0.00  0.00    -0.268 OA
ATOM     33  C23 8K9 d   1      10.931  50.262 -35.574  0.00  0.00    -0.017 A 
ATOM     34  C22 8K9 d   1      12.202  49.895 -35.139  0.00  0.00    -0.076 A 
ATOM     35  H15 8K9 d   1      10.811  51.045 -36.321  0.00  0.00     0.092 H 
ATOM     36  C21 8K9 d   1      12.373  48.897 -34.183  0.00  0.00    -0.060 A 
ATOM     37  H16 8K9 d   1      13.076  50.396 -35.553  0.00  0.00     0.083 H 
ATOM     38  H17 8K9 d   1      13.376  48.625 -33.858  0.00  0.00     0.086 H 
ATOM     39  C26 8K9 d   1      11.464  47.161 -32.641  0.00  0.00     0.010 C 
ATOM     40  C27 8K9 d   1      11.460  47.665 -31.199  0.00  0.00     0.092 C 
ATOM     41  H18 8K9 d   1      12.418  46.651 -32.843  0.00  0.00     0.052 H 
ATOM     42  H24 8K9 d   1      12.332  48.317 -31.044  0.00  0.00     0.077 H 
ATOM     43  H25 8K9 d   1      11.520  46.804 -30.517  0.00  0.00     0.077 H 
ATOM     44  H19 8K9 d   1      10.420  45.356 -32.072  0.00  0.00     0.034 H 
ATOM     45  H20 8K9 d   1      10.277  45.785 -33.811  0.00  0.00     0.034 H 
ATOM     46  H26 8K9 d   1      10.197  49.225 -31.522  0.00  0.00     0.280 HD
ENDBRANCH  16  19
ENDBRANCH  14  16
BRANCH  14  47
ATOM     47  O2  8K9 d   1      12.000  50.595 -29.562  0.00  0.00    -0.392 OA
ATOM     48  H30 8K9 d   1      12.833  50.862 -29.191  0.00  0.00     0.210 HD
ENDBRANCH  14  47
ENDBRANCH  11  14
ENDBRANCH  10  11
ENDBRANCH   4  10
BRANCH   3  49
ATOM     49  C8  8K9 d   1      11.677  45.675 -25.461  0.00  0.00    -0.018 C 
BRANCH  49  50
ATOM     50  C9  8K9 d   1      11.208  44.459 -24.668  0.00  0.00    -0.065 C 
ATOM     51  H10 8K9 d   1      11.553  43.541 -25.166  0.00  0.00     0.028 H 
ATOM     52  H11 8K9 d   1      10.109  44.457 -24.616  0.00  0.00     0.028 H 
ATOM     53  H12 8K9 d   1      11.624  44.502 -23.651  0.00  0.00     0.028 H 
ENDBRANCH  49  50
BRANCH  49  54
ATOM     54  C12 8K9 d   1      11.098  45.520 -26.863  0.00  0.00    -0.065 C 
ATOM     55  H33 8K9 d   1      11.406  46.375 -27.483  0.00  0.00     0.028 H 
ATOM     56  H34 8K9 d   1      10.000  45.486 -26.805  0.00  0.00     0.028 H 
ATOM     57  H35 8K9 d   1      11.470  44.588 -27.312  0.00  0.00     0.028 H 
ENDBRANCH  49  54
BRANCH  49  58
ATOM     58  C10 8K9 d   1      13.208  45.586 -25.434  0.00  0.00    -0.058 C 
ATOM     59  H36 8K9 d   1      13.493  44.564 -25.723  0.00  0.00     0.034 H 
ATOM     60  H37 8K9 d   1      13.540  45.782 -24.404  0.00  0.00     0.034 H 
BRANCH  58  61
ATOM     61  C11 8K9 d   1      13.936  46.550 -26.351  0.00  0.00    -0.076 C 
ATOM     62  H38 8K9 d   1      15.021  46.401 -26.252  0.00  0.00     0.027 H 
ATOM     63  H39 8K9 d   1      13.681  47.583 -26.073  0.00  0.00     0.027 H 
ATOM     64  H40 8K9 d   1      13.634  46.365 -27.392  0.00  0.00     0.027 H 
ENDBRANCH  58  61
ENDBRANCH  49  58
ENDBRANCH   3  49
BRANCH   1  65
ATOM     65  C1  8K9 d   1       9.735  47.999 -21.398  0.00  0.00    -0.021 C 
BRANCH  65  66
ATOM     66  C2  8K9 d   1       8.279  47.516 -21.476  0.00  0.00    -0.065 C 
ATOM     67  H1  8K9 d   1       7.859  47.454 -20.461  0.00  0.00     0.028 H 
ATOM     68  H2  8K9 d   1       8.247  46.523 -21.948  0.00  0.00     0.028 H 
ATOM     69  H3  8K9 d   1       7.689  48.226 -22.074  0.00  0.00     0.028 H 
ENDBRANCH  65  66
BRANCH  65  70
ATOM     70  C3  8K9 d   1      10.605  47.088 -20.532  0.00  0.00    -0.058 C 
ATOM     71  H4  8K9 d   1      10.517  47.414 -19.485  0.00  0.00     0.034 H 
ATOM     72  H5  8K9 d   1      11.650  47.188 -20.861  0.00  0.00     0.034 H 
BRANCH  70  73
ATOM     73  C4  8K9 d   1      10.215  45.631 -20.614  0.00  0.00    -0.076 C 
ATOM     74  H6  8K9 d   1      10.879  45.037 -19.969  0.00  0.00     0.027 H 
ATOM     75  H7  8K9 d   1      10.307  45.285 -21.654  0.00  0.00     0.027 H 
ATOM     76  H8  8K9 d   1       9.174  45.511 -20.278  0.00  0.00     0.027 H 
ENDBRANCH  70  73
ENDBRANCH  65  70
BRANCH  65  77
ATOM     77  C   8K9 d   1       9.747  49.385 -20.757  0.00  0.00    -0.065 C 
ATOM     78  H43 8K9 d   1       9.129  50.071 -21.355  0.00  0.00     0.028 H 
ATOM     79  H44 8K9 d   1      10.780  49.762 -20.718  0.00  0.00     0.028 H 
ATOM     80  H45 8K9 d   1       9.341  49.321 -19.737  0.00  0.00     0.028 H 
ENDBRANCH  65  77
ENDBRANCH   1  65
TORSDOF 16
