REMARK  32 active torsions:
REMARK  status: ('A' for Active; 'I' for Inactive)
REMARK    1  A    between atoms: N_1  and  CA_2 
REMARK    2  A    between atoms: CA_2  and  C_3 
REMARK    3  A    between atoms: CA_2  and  CB_5 
REMARK       I    between atoms: C_3  and  N_10 
REMARK    4  A    between atoms: CB_5  and  CG_6 
REMARK    5  A    between atoms: CG_6  and  CD_7 
REMARK    6  A    between atoms: CD_7  and  CE_8 
REMARK    7  A    between atoms: CE_8  and  NZ_9 
REMARK    8  A    between atoms: N_10  and  CA_11 
REMARK    9  A    between atoms: CA_11  and  C_12 
REMARK   10  A    between atoms: CA_11  and  CB_14 
REMARK       I    between atoms: C_12  and  N_21 
REMARK   11  A    between atoms: CB_14  and  CG_15 
REMARK   12  A    between atoms: CG_15  and  CD_16 
REMARK   13  A    between atoms: CD_16  and  NE_17 
REMARK       I    between atoms: NE_17  and  CZ_18 
REMARK       I    between atoms: CZ_18  and  NH1_19 
REMARK       I    between atoms: CZ_18  and  NH2_20 
REMARK   14  A    between atoms: N_21  and  CA_22 
REMARK   15  A    between atoms: CA_22  and  C_23 
REMARK   16  A    between atoms: CA_22  and  CB_25 
REMARK       I    between atoms: C_23  and  N_32 
REMARK   17  A    between atoms: CB_25  and  CG_26 
REMARK   18  A    between atoms: CG_26  and  CD_27 
REMARK   19  A    between atoms: CD_27  and  NE_28 
REMARK       I    between atoms: NE_28  and  CZ_29 
REMARK       I    between atoms: CZ_29  and  NH1_30 
REMARK   20  A    between atoms: N_32  and  CA_33 
REMARK   21  A    between atoms: CA_33  and  C_34 
REMARK   22  A    between atoms: CA_33  and  CB_36 
REMARK       I    between atoms: C_34  and  N_41 
REMARK   23  A    between atoms: CB_36  and  CG_37 
REMARK   24  A    between atoms: CG_37  and  CD_38 
REMARK   25  A    between atoms: CD_38  and  CE_39 
REMARK   26  A    between atoms: CE_39  and  NZ_40 
REMARK   27  A    between atoms: N_41  and  CA_42 
REMARK   28  A    between atoms: CA_42  and  C_43 
REMARK   29  A    between atoms: CA_42  and  CB_45 
REMARK   30  A    between atoms: CB_45  and  CG_46 
REMARK   31  A    between atoms: CG_46  and  CD1_47 
REMARK   32  A    between atoms: CG_46  and  CD2_48 
ROOT
ATOM      1  CA  ARG d   1     179.677  -7.266 136.004  0.00  0.00     0.089 C 
ATOM      2  H30 ARG d   1     178.622  -7.041 135.790  0.00  0.00     0.087 H 
ENDROOT
BRANCH   1   3
ATOM      3  N   ARG d   1     179.732  -8.240 137.083  0.00  0.00    -0.346 N 
ATOM      4  C   ARG d   1     178.645  -8.628 137.735  0.00  0.00     0.241 C 
ATOM      5  O   ARG d   1     177.569  -8.030 137.654  0.00  0.00    -0.271 OA
ATOM      6  H29 ARG d   1     180.617  -8.629 137.341  0.00  0.00     0.163 HD
BRANCH   4   7
ATOM      7  CA  ARG d   1     178.790  -9.901 138.557  0.00  0.00     0.089 C 
ATOM      8  H17 ARG d   1     179.838 -10.015 138.871  0.00  0.00     0.087 H 
BRANCH   7   9
ATOM      9  N   ARG d   1     177.949  -9.855 139.755  0.00  0.00    -0.346 N 
ATOM     10  C   LYS d   1     178.056  -8.892 140.681  0.00  0.00     0.248 C 
ATOM     11  O   LYS d   1     178.990  -8.085 140.718  0.00  0.00    -0.271 OA
ATOM     12  H16 ARG d   1     177.266 -10.573 139.888  0.00  0.00     0.163 HD
BRANCH  10  13
ATOM     13  CA  LYS d   1     176.942  -8.848 141.758  0.00  0.00     0.176 C 
ATOM     14  H4  LYS d   1     176.296  -9.725 141.606  0.00  0.00     0.099 H 
BRANCH  13  15
ATOM     15  N   LYS d   1     177.470  -8.906 143.122  0.00  0.00    -0.067 N 
ATOM     16  H1  LYS d   1     176.707  -8.874 143.779  0.00  0.00     0.275 HD
ATOM     17  H2  LYS d   1     178.082  -8.120 143.279  0.00  0.00     0.275 HD
ATOM     18  H3  LYS d   1     177.985  -9.763 143.247  0.00  0.00     0.275 HD
ENDBRANCH  13  15
BRANCH  13  19
ATOM     19  CB  LYS d   1     176.087  -7.584 141.604  0.00  0.00    -0.030 C 
ATOM     20  H5  LYS d   1     176.761  -6.715 141.633  0.00  0.00     0.036 H 
ATOM     21  H6  LYS d   1     175.395  -7.540 142.458  0.00  0.00     0.036 H 
BRANCH  19  22
ATOM     22  CG  LYS d   1     175.257  -7.490 140.322  0.00  0.00    -0.061 C 
ATOM     23  H7  LYS d   1     174.587  -8.360 140.259  0.00  0.00     0.033 H 
ATOM     24  H8  LYS d   1     175.931  -7.482 139.453  0.00  0.00     0.033 H 
BRANCH  22  25
ATOM     25  CD  LYS d   1     174.422  -6.211 140.323  0.00  0.00    -0.043 C 
ATOM     26  H9  LYS d   1     175.101  -5.345 140.318  0.00  0.00     0.035 H 
ATOM     27  H10 LYS d   1     173.808  -6.190 141.235  0.00  0.00     0.035 H 
BRANCH  25  28
ATOM     28  CE  LYS d   1     173.504  -6.120 139.112  0.00  0.00     0.080 C 
ATOM     29  H11 LYS d   1     173.025  -7.097 138.951  0.00  0.00     0.075 H 
ATOM     30  H12 LYS d   1     174.102  -5.855 138.228  0.00  0.00     0.075 H 
BRANCH  28  31
ATOM     31  NZ  LYS d   1     172.444  -5.084 139.311  0.00  0.00    -0.079 N 
ATOM     32  H13 LYS d   1     171.853  -5.047 138.495  0.00  0.00     0.274 HD
ATOM     33  H14 LYS d   1     172.876  -4.185 139.454  0.00  0.00     0.274 HD
ATOM     34  H15 LYS d   1     171.888  -5.322 140.118  0.00  0.00     0.274 HD
ENDBRANCH  28  31
ENDBRANCH  25  28
ENDBRANCH  22  25
ENDBRANCH  19  22
ENDBRANCH  13  19
ENDBRANCH  10  13
ENDBRANCH   7   9
BRANCH   7  35
ATOM     35  CB  ARG d   1     178.405 -11.070 137.640  0.00  0.00    -0.036 C 
ATOM     36  H18 ARG d   1     178.600 -10.749 136.606  0.00  0.00     0.036 H 
ATOM     37  H19 ARG d   1     177.327 -11.245 137.772  0.00  0.00     0.036 H 
BRANCH  35  38
ATOM     38  CG  ARG d   1     179.103 -12.407 137.834  0.00  0.00    -0.048 C 
ATOM     39  H20 ARG d   1     179.966 -12.282 138.504  0.00  0.00     0.035 H 
ATOM     40  H21 ARG d   1     179.446 -12.792 136.862  0.00  0.00     0.035 H 
BRANCH  38  41
ATOM     41  CD  ARG d   1     178.114 -13.376 138.448  0.00  0.00     0.009 C 
ATOM     42  H22 ARG d   1     177.197 -13.369 137.840  0.00  0.00     0.064 H 
ATOM     43  H23 ARG d   1     177.881 -13.036 139.468  0.00  0.00     0.064 H 
BRANCH  41  44
ATOM     44  NE  ARG d   1     178.609 -14.746 138.521  0.00  0.00    -0.227 N 
ATOM     45  CZ  ARG d   1     178.171 -15.635 139.407  0.00  0.00     0.665 C 
ATOM     46  NH1 ARG d   1     177.242 -15.278 140.283  0.00  0.00    -0.235 N 
ATOM     47  NH2 ARG d   1     178.661 -16.869 139.425  0.00  0.00    -0.235 N 
ATOM     48  H25 ARG d   1     176.896 -15.960 140.974  0.00  0.00     0.174 HD
ATOM     49  H26 ARG d   1     176.866 -14.319 140.273  0.00  0.00     0.174 HD
ATOM     50  H27 ARG d   1     179.383 -17.146 138.744  0.00  0.00     0.174 HD
ATOM     51  H28 ARG d   1     178.319 -17.549 140.119  0.00  0.00     0.174 HD
ATOM     52  H24 ARG d   1     179.335 -15.040 137.852  0.00  0.00     0.177 HD
ENDBRANCH  41  44
ENDBRANCH  38  41
ENDBRANCH  35  38
ENDBRANCH   7  35
ENDBRANCH   4   7
ENDBRANCH   1   3
BRANCH   1  53
ATOM     53  C   ARG d   1     180.313  -7.864 134.753  0.00  0.00     0.241 C 
ATOM     54  O   ARG d   1     181.392  -8.464 134.817  0.00  0.00    -0.271 OA
ATOM     55  N   LYS d   1     179.628  -7.724 133.621  0.00  0.00    -0.346 N 
ATOM     56  H42 LYS d   1     178.734  -7.276 133.646  0.00  0.00     0.163 HD
BRANCH  55  57
ATOM     57  CA  LYS d   1     180.143  -8.204 132.347  0.00  0.00     0.089 C 
ATOM     58  H43 LYS d   1     180.785  -9.078 132.533  0.00  0.00     0.087 H 
BRANCH  57  59
ATOM     59  C   LYS d   1     180.984  -7.115 131.692  0.00  0.00     0.241 C 
ATOM     60  O   LYS d   1     180.673  -5.926 131.816  0.00  0.00    -0.271 OA
ATOM     61  N   LEU d   1     182.049  -7.538 131.001  0.00  0.00    -0.345 N 
ATOM     62  H55 LEU d   1     182.131  -8.520 130.830  0.00  0.00     0.163 HD
BRANCH  61  63
ATOM     63  CA  LEU d   1     183.110  -6.662 130.474  0.00  0.00     0.096 C 
ATOM     64  H56 LEU d   1     183.753  -7.266 129.818  0.00  0.00     0.089 H 
BRANCH  63  65
ATOM     65  C   LEU d   1     183.962  -6.119 131.620  0.00  0.00     0.196 C 
ATOM     66  O   LEU d   1     183.499  -5.311 132.431  0.00  0.00    -0.646 OA
ATOM     67  OXT LEU d   1     185.136  -6.474 131.765  0.00  0.00    -0.646 OA
ENDBRANCH  63  65
BRANCH  63  68
ATOM     68  CB  LEU d   1     182.549  -5.493 129.645  0.00  0.00    -0.034 C 
ATOM     69  H57 LEU d   1     183.337  -4.726 129.624  0.00  0.00     0.037 H 
ATOM     70  H58 LEU d   1     181.681  -5.111 130.202  0.00  0.00     0.037 H 
BRANCH  68  71
ATOM     71  CG  LEU d   1     182.085  -5.666 128.199  0.00  0.00    -0.059 C 
ATOM     72  H59 LEU d   1     182.951  -5.972 127.593  0.00  0.00     0.038 H 
BRANCH  71  73
ATOM     73  CD1 LEU d   1     181.026  -6.732 128.078  0.00  0.00    -0.073 C 
ATOM     74  H60 LEU d   1     180.719  -6.826 127.026  0.00  0.00     0.028 H 
ATOM     75  H61 LEU d   1     180.155  -6.455 128.690  0.00  0.00     0.028 H 
ATOM     76  H62 LEU d   1     181.431  -7.693 128.429  0.00  0.00     0.028 H 
ENDBRANCH  71  73
BRANCH  71  77
ATOM     77  CD2 LEU d   1     181.565  -4.340 127.664  0.00  0.00    -0.073 C 
ATOM     78  H63 LEU d   1     182.348  -3.574 127.759  0.00  0.00     0.028 H 
ATOM     79  H64 LEU d   1     180.680  -4.033 128.241  0.00  0.00     0.028 H 
ATOM     80  H65 LEU d   1     181.291  -4.454 126.605  0.00  0.00     0.028 H 
ENDBRANCH  71  77
ENDBRANCH  68  71
ENDBRANCH  63  68
ENDBRANCH  61  63
ENDBRANCH  57  59
BRANCH  57  81
ATOM     81  CB  LYS d   1     178.993  -8.636 131.435  0.00  0.00    -0.038 C 
ATOM     82  H44 LYS d   1     179.387  -8.766 130.416  0.00  0.00     0.036 H 
ATOM     83  H45 LYS d   1     178.232  -7.842 131.435  0.00  0.00     0.036 H 
BRANCH  81  84
ATOM     84  CG  LYS d   1     178.331  -9.939 131.866  0.00  0.00    -0.061 C 
ATOM     85  H46 LYS d   1     178.020  -9.847 132.917  0.00  0.00     0.033 H 
ATOM     86  H47 LYS d   1     179.062 -10.755 131.770  0.00  0.00     0.033 H 
BRANCH  84  87
ATOM     87  CD  LYS d   1     177.115 -10.274 131.026  0.00  0.00    -0.043 C 
ATOM     88  H48 LYS d   1     177.030 -11.368 130.944  0.00  0.00     0.035 H 
ATOM     89  H49 LYS d   1     177.245  -9.840 130.024  0.00  0.00     0.035 H 
BRANCH  87  90
ATOM     90  CE  LYS d   1     175.839  -9.729 131.632  0.00  0.00     0.080 C 
ATOM     91  H50 LYS d   1     175.751  -8.661 131.382  0.00  0.00     0.075 H 
ATOM     92  H51 LYS d   1     175.882  -9.848 132.725  0.00  0.00     0.075 H 
BRANCH  90  93
ATOM     93  NZ  LYS d   1     174.636 -10.452 131.110  0.00  0.00    -0.079 N 
ATOM     94  H52 LYS d   1     173.804 -10.068 131.531  0.00  0.00     0.274 HD
ATOM     95  H53 LYS d   1     174.707 -11.431 131.339  0.00  0.00     0.274 HD
ATOM     96  H54 LYS d   1     174.587 -10.344 130.109  0.00  0.00     0.274 HD
ENDBRANCH  90  93
ENDBRANCH  87  90
ENDBRANCH  84  87
ENDBRANCH  81  84
ENDBRANCH  57  81
ENDBRANCH  55  57
ENDBRANCH   1  53
BRANCH   1  97
ATOM     97  CB  ARG d   1     180.374  -5.967 136.389  0.00  0.00    -0.036 C 
ATOM     98  H31 ARG d   1     180.506  -5.362 135.480  0.00  0.00     0.036 H 
ATOM     99  H32 ARG d   1     181.359  -6.215 136.810  0.00  0.00     0.036 H 
BRANCH  97 100
ATOM    100  CG  ARG d   1     179.615  -5.140 137.406  0.00  0.00    -0.048 C 
ATOM    101  H33 ARG d   1     179.442  -5.743 138.309  0.00  0.00     0.035 H 
ATOM    102  H34 ARG d   1     178.649  -4.834 136.978  0.00  0.00     0.035 H 
BRANCH 100 103
ATOM    103  CD  ARG d   1     180.419  -3.898 137.775  0.00  0.00     0.009 C 
ATOM    104  H35 ARG d   1     180.549  -3.282 136.873  0.00  0.00     0.064 H 
ATOM    105  H36 ARG d   1     181.404  -4.215 138.148  0.00  0.00     0.064 H 
BRANCH 103 106
ATOM    106  NE  ARG d   1     179.766  -3.087 138.807  0.00  0.00    -0.227 N 
ATOM    107  CZ  ARG d   1     180.315  -2.011 139.370  0.00  0.00     0.665 C 
ATOM    108  NH1 ARG d   1     181.529  -1.619 139.003  0.00  0.00    -0.235 N 
ATOM    109  NH2 ARG d   1     179.656  -1.327 140.301  0.00  0.00    -0.235 N 
ATOM    110  H38 ARG d   1     181.955  -0.788 139.437  0.00  0.00     0.174 HD
ATOM    111  H39 ARG d   1     182.045  -2.146 138.284  0.00  0.00     0.174 HD
ATOM    112  H40 ARG d   1     178.714  -1.627 140.590  0.00  0.00     0.174 HD
ATOM    113  H41 ARG d   1     180.088  -0.498 140.733  0.00  0.00     0.174 HD
ATOM    114  H37 ARG d   1     178.824  -3.366 139.116  0.00  0.00     0.177 HD
ENDBRANCH 103 106
ENDBRANCH 100 103
ENDBRANCH  97 100
ENDBRANCH   1  97
TORSDOF 32
