REMARK  2 active torsions:
REMARK  status: ('A' for Active; 'I' for Inactive)
REMARK    1  A    between atoms: C1_1  and  N1_2 
REMARK    2  A    between atoms: C4_9  and  O3_8 
ROOT
ATOM      1  C1  HNQ d   1      -9.728  -5.863  -0.842  0.00  0.00     0.115 A 
ATOM      2  C2  HNQ d   1     -10.108  -4.804  -1.631  0.00  0.00    -0.047 A 
ATOM      3  N2  HNQ d   1     -12.836  -6.340   0.970  0.00  0.00    -0.257 NA
ATOM      4  C3  HNQ d   1     -11.369  -4.255  -1.547  0.00  0.00    -0.046 A 
ATOM      5  C4  HNQ d   1     -12.282  -4.787  -0.659  0.00  0.00     0.095 A 
ATOM      6  C5  HNQ d   1     -11.923  -5.864   0.139  0.00  0.00     0.102 A 
ATOM      7  C6  HNQ d   1     -12.589  -7.359   1.789  0.00  0.00     0.003 A 
ATOM      8  C7  HNQ d   1     -11.346  -7.957   1.771  0.00  0.00    -0.065 A 
ATOM      9  C8  HNQ d   1     -10.376  -7.481   0.906  0.00  0.00    -0.067 A 
ATOM     10  C9  HNQ d   1     -10.645  -6.417   0.060  0.00  0.00     0.029 A 
ATOM     11  H1  HNQ d   1      -9.398  -4.390  -2.337  0.00  0.00     0.087 H 
ATOM     12  H2  HNQ d   1     -11.642  -3.413  -2.173  0.00  0.00     0.087 H 
ATOM     13  H4  HNQ d   1     -13.358  -7.716   2.465  0.00  0.00     0.114 H 
ATOM     14  H5  HNQ d   1     -11.131  -8.792   2.428  0.00  0.00     0.085 H 
ATOM     15  H6  HNQ d   1      -9.396  -7.945   0.890  0.00  0.00     0.085 H 
ENDROOT
BRANCH   1  16
ATOM     16  N1  HNQ d   1      -8.361  -6.354  -1.044  0.00  0.00    -0.115 N 
ATOM     17  O1  HNQ d   1      -7.895  -6.222  -2.130  0.00  0.00    -0.532 OA
ATOM     18  O2  HNQ d   1      -7.725  -6.874  -0.186  0.00  0.00    -0.532 OA
ENDBRANCH   1  16
BRANCH   5  19
ATOM     19  O3  HNQ d   1     -13.565  -4.236  -0.584  0.00  0.00    -0.358 OA
ATOM     20  H3  HNQ d   1     -13.989  -4.308  -1.431  0.00  0.00     0.217 HD
ENDBRANCH   5  19
TORSDOF 2
