REMARK WARNING: 32 MAX_TORS EXCEEDED!!!
REMARK  37 active torsions:
REMARK  status: ('A' for Active; 'I' for Inactive)
REMARK    1  A    between atoms: N_1  and  CA_2 
REMARK    2  A    between atoms: CA_2  and  C_3 
REMARK    3  A    between atoms: CA_2  and  CB_5 
REMARK       I    between atoms: C_3  and  N_6 
REMARK    4  A    between atoms: N_6  and  CA_7 
REMARK    5  A    between atoms: CA_7  and  C_8 
REMARK    6  A    between atoms: CA_7  and  CB_10 
REMARK       I    between atoms: C_8  and  N_17 
REMARK    7  A    between atoms: CB_10  and  CG_11 
REMARK    8  A    between atoms: CG_11  and  CD_12 
REMARK    9  A    between atoms: CD_12  and  NE_13 
REMARK       I    between atoms: NE_13  and  CZ_14 
REMARK       I    between atoms: CZ_14  and  NH1_15 
REMARK   10  A    between atoms: N_17  and  CA_18 
REMARK   11  A    between atoms: CA_18  and  C_19 
REMARK   12  A    between atoms: CA_18  and  CB_21 
REMARK       I    between atoms: C_19  and  N_24 
REMARK   13  A    between atoms: CB_21  and  OG1_22 
REMARK   14  A    between atoms: CB_21  and  CG2_23 
REMARK   15  A    between atoms: N_24  and  CA_25 
REMARK   16  A    between atoms: CA_25  and  CB_26 
REMARK   17  A    between atoms: CA_25  and  C_31 
REMARK   18  A    between atoms: CB_26  and  CG_27 
REMARK   19  A    between atoms: CG_27  and  CD_28 
REMARK   20  A    between atoms: CD_28  and  CE_29 
REMARK   21  A    between atoms: CE_29  and  NZ_30 
REMARK   22  A    between atoms: NZ_30  and  CM1_33 
REMARK   23  A    between atoms: NZ_30  and  CM2_34 
REMARK   24  A    between atoms: NZ_30  and  CM3_35 
REMARK       I    between atoms: C_31  and  N_36 
REMARK   25  A    between atoms: N_36  and  CA_37 
REMARK   26  A    between atoms: CA_37  and  C_38 
REMARK   27  A    between atoms: CA_37  and  CB_40 
REMARK       I    between atoms: C_38  and  N_45 
REMARK   28  A    between atoms: CB_40  and  CG_41 
REMARK   29  A    between atoms: CG_41  and  CD_42 
REMARK       I    between atoms: CD_42  and  NE2_44 
REMARK   30  A    between atoms: N_45  and  CA_46 
REMARK   31  A    between atoms: CA_46  and  C_47 
REMARK   32  A    between atoms: CA_46  and  CB_49 
REMARK       I    between atoms: C_47  and  N_52 
REMARK   33  A    between atoms: CB_49  and  OG1_50 
REMARK   34  A    between atoms: CB_49  and  CG2_51 
REMARK   35  A    between atoms: N_52  and  CA_53 
REMARK   36  A    between atoms: CA_53  and  C_54 
REMARK   37  A    between atoms: CA_53  and  CB_56 
ROOT
ATOM      1  CA  M3L d   1      23.404   3.213  10.540  0.00  0.00     0.089 C 
ATOM      2  H29 M3L d   1      23.907   2.962  11.486  0.00  0.00     0.087 H 
ENDROOT
BRANCH   1   3
ATOM      3  N   M3L d   1      21.988   3.114  10.737  0.00  0.00    -0.346 N 
ATOM      4  C   THR d   1      21.443   2.810  11.906  0.00  0.00     0.243 C 
ATOM      5  O   THR d   1      22.071   2.336  12.845  0.00  0.00    -0.271 OA
ATOM      6  H28 M3L d   1      21.384   3.282   9.958  0.00  0.00     0.163 HD
BRANCH   4   7
ATOM      7  CA  THR d   1      19.953   3.074  11.997  0.00  0.00     0.113 C 
ATOM      8  H22 THR d   1      19.499   2.800  11.033  0.00  0.00     0.091 H 
BRANCH   7   9
ATOM      9  N   THR d   1      19.278   2.298  13.022  0.00  0.00    -0.344 N 
ATOM     10  C   ARG d   1      18.082   1.763  12.803  0.00  0.00     0.241 C 
ATOM     11  O   ARG d   1      17.493   1.856  11.725  0.00  0.00    -0.271 OA
ATOM     12  H21 THR d   1      19.721   2.164  13.908  0.00  0.00     0.163 HD
BRANCH  10  13
ATOM     13  CA  ARG d   1      17.443   1.035  13.982  0.00  0.00     0.089 C 
ATOM     14  H9  ARG d   1      18.022   1.266  14.888  0.00  0.00     0.087 H 
BRANCH  13  15
ATOM     15  N   ARG d   1      16.078   1.497  14.179  0.00  0.00    -0.346 N 
ATOM     16  C   ALA d   1      15.828   2.635  14.818  0.00  0.00     0.248 C 
ATOM     17  O   ALA d   1      16.709   3.317  15.341  0.00  0.00    -0.271 OA
ATOM     18  H8  ARG d   1      15.317   0.951  13.829  0.00  0.00     0.163 HD
BRANCH  16  19
ATOM     19  CA  ALA d   1      14.376   3.067  14.891  0.00  0.00     0.172 C 
ATOM     20  H4  ALA d   1      13.764   2.195  15.165  0.00  0.00     0.098 H 
BRANCH  19  21
ATOM     21  N   ALA d   1      14.213   4.086  15.915  0.00  0.00    -0.067 N 
ATOM     22  H1  ALA d   1      13.246   4.368  15.958  0.00  0.00     0.275 HD
ATOM     23  H2  ALA d   1      14.786   4.884  15.689  0.00  0.00     0.275 HD
ATOM     24  H3  ALA d   1      14.494   3.713  16.808  0.00  0.00     0.275 HD
ENDBRANCH  19  21
BRANCH  19  25
ATOM     25  CB  ALA d   1      13.902   3.582  13.532  0.00  0.00    -0.042 C 
ATOM     26  H5  ALA d   1      14.035   2.795  12.775  0.00  0.00     0.030 H 
ATOM     27  H6  ALA d   1      14.492   4.466  13.249  0.00  0.00     0.030 H 
ATOM     28  H7  ALA d   1      12.838   3.855  13.594  0.00  0.00     0.030 H 
ENDBRANCH  19  25
ENDBRANCH  16  19
ENDBRANCH  13  15
BRANCH  13  29
ATOM     29  CB  ARG d   1      17.473  -0.475  13.764  0.00  0.00    -0.036 C 
ATOM     30  H10 ARG d   1      18.474  -0.758  13.406  0.00  0.00     0.036 H 
ATOM     31  H11 ARG d   1      16.724  -0.734  13.002  0.00  0.00     0.036 H 
BRANCH  29  32
ATOM     32  CG  ARG d   1      17.173  -1.255  15.017  0.00  0.00    -0.048 C 
ATOM     33  H12 ARG d   1      16.253  -0.861  15.472  0.00  0.00     0.035 H 
ATOM     34  H13 ARG d   1      18.010  -1.136  15.721  0.00  0.00     0.035 H 
BRANCH  32  35
ATOM     35  CD  ARG d   1      16.984  -2.725  14.722  0.00  0.00     0.009 C 
ATOM     36  H14 ARG d   1      17.030  -3.285  15.667  0.00  0.00     0.064 H 
ATOM     37  H15 ARG d   1      17.794  -3.060  14.057  0.00  0.00     0.064 H 
BRANCH  35  38
ATOM     38  NE  ARG d   1      15.701  -2.995  14.076  0.00  0.00    -0.227 N 
ATOM     39  CZ  ARG d   1      15.302  -4.207  13.713  0.00  0.00     0.665 C 
ATOM     40  NH1 ARG d   1      16.089  -5.250  13.928  0.00  0.00    -0.235 N 
ATOM     41  NH2 ARG d   1      14.125  -4.377  13.135  0.00  0.00    -0.235 N 
ATOM     42  H17 ARG d   1      15.783  -6.193  13.648  0.00  0.00     0.174 HD
ATOM     43  H18 ARG d   1      17.007  -5.119  14.376  0.00  0.00     0.174 HD
ATOM     44  H19 ARG d   1      13.512  -3.567  12.967  0.00  0.00     0.174 HD
ATOM     45  H20 ARG d   1      13.821  -5.320  12.853  0.00  0.00     0.174 HD
ATOM     46  H16 ARG d   1      15.072  -2.200  13.893  0.00  0.00     0.177 HD
ENDBRANCH  35  38
ENDBRANCH  32  35
ENDBRANCH  29  32
ENDBRANCH  13  29
ENDBRANCH  10  13
ENDBRANCH   7   9
BRANCH   7  47
ATOM     47  CB  THR d   1      19.773   4.596  12.207  0.00  0.00     0.060 C 
ATOM     48  H23 THR d   1      20.269   5.122  11.378  0.00  0.00     0.086 H 
BRANCH  47  49
ATOM     49  OG1 THR d   1      20.394   4.994  13.437  0.00  0.00    -0.393 OA
ATOM     50  H24 THR d   1      19.991   4.527  14.159  0.00  0.00     0.210 HD
ENDBRANCH  47  49
BRANCH  47  51
ATOM     51  CG2 THR d   1      18.299   4.986  12.206  0.00  0.00    -0.050 C 
ATOM     52  H25 THR d   1      18.207   6.072  12.357  0.00  0.00     0.031 H 
ATOM     53  H26 THR d   1      17.779   4.457  13.019  0.00  0.00     0.031 H 
ATOM     54  H27 THR d   1      17.848   4.710  11.242  0.00  0.00     0.031 H 
ENDBRANCH  47  51
ENDBRANCH   7  47
ENDBRANCH   4   7
ENDBRANCH   1   3
BRANCH   1  55
ATOM     55  CB  M3L d   1      23.957   2.284   9.444  0.00  0.00    -0.038 C 
ATOM     56  H30 M3L d   1      25.046   2.422   9.368  0.00  0.00     0.036 H 
ATOM     57  H31 M3L d   1      23.487   2.539   8.483  0.00  0.00     0.036 H 
BRANCH  55  58
ATOM     58  CG  M3L d   1      23.662   0.840   9.773  0.00  0.00    -0.061 C 
ATOM     59  H32 M3L d   1      22.597   0.741  10.029  0.00  0.00     0.033 H 
ATOM     60  H33 M3L d   1      24.276   0.536  10.634  0.00  0.00     0.033 H 
BRANCH  58  61
ATOM     61  CD  M3L d   1      23.976  -0.072   8.592  0.00  0.00    -0.042 C 
ATOM     62  H34 M3L d   1      25.064  -0.218   8.519  0.00  0.00     0.035 H 
ATOM     63  H35 M3L d   1      23.605   0.387   7.664  0.00  0.00     0.035 H 
BRANCH  61  64
ATOM     64  CE  M3L d   1      23.292  -1.423   8.803  0.00  0.00     0.084 C 
ATOM     65  H36 M3L d   1      22.217  -1.274   8.626  0.00  0.00     0.076 H 
ATOM     66  H37 M3L d   1      23.454  -1.709   9.853  0.00  0.00     0.076 H 
BRANCH  64  67
ATOM     67  NZ  M3L d   1      23.731  -2.597   7.944  0.00  0.00    -0.079 N 
BRANCH  67  68
ATOM     68  CM1 M3L d   1      23.019  -3.853   8.346  0.00  0.00     0.067 C 
ATOM     69  H38 M3L d   1      23.355  -4.685   7.709  0.00  0.00     0.068 H 
ATOM     70  H39 M3L d   1      21.934  -3.714   8.226  0.00  0.00     0.068 H 
ATOM     71  H40 M3L d   1      23.245  -4.082   9.398  0.00  0.00     0.068 H 
ENDBRANCH  67  68
BRANCH  67  72
ATOM     72  CM2 M3L d   1      25.202  -2.820   8.026  0.00  0.00     0.067 C 
ATOM     73  H41 M3L d   1      25.729  -1.901   7.732  0.00  0.00     0.068 H 
ATOM     74  H42 M3L d   1      25.487  -3.639   7.349  0.00  0.00     0.068 H 
ATOM     75  H43 M3L d   1      25.476  -3.085   9.058  0.00  0.00     0.068 H 
ENDBRANCH  67  72
BRANCH  67  76
ATOM     76  CM3 M3L d   1      23.399  -2.279   6.514  0.00  0.00     0.067 C 
ATOM     77  H44 M3L d   1      22.317  -2.108   6.418  0.00  0.00     0.068 H 
ATOM     78  H45 M3L d   1      23.695  -3.122   5.873  0.00  0.00     0.068 H 
ATOM     79  H46 M3L d   1      23.942  -1.374   6.204  0.00  0.00     0.068 H 
ENDBRANCH  67  76
ENDBRANCH  64  67
ENDBRANCH  61  64
ENDBRANCH  58  61
ENDBRANCH  55  58
ENDBRANCH   1  55
BRANCH   1  80
ATOM     80  C   M3L d   1      23.703   4.662  10.172  0.00  0.00     0.241 C 
ATOM     81  O   M3L d   1      23.312   5.217   9.140  0.00  0.00    -0.271 OA
ATOM     82  N   GLN d   1      24.404   5.312  11.085  0.00  0.00    -0.346 N 
ATOM     83  H47 GLN d   1      24.728   4.821  11.893  0.00  0.00     0.163 HD
BRANCH  82  84
ATOM     84  CA  GLN d   1      24.713   6.721  10.940  0.00  0.00     0.090 C 
ATOM     85  H48 GLN d   1      23.843   7.225  10.493  0.00  0.00     0.087 H 
BRANCH  84  86
ATOM     86  C   GLN d   1      25.909   6.916  10.016  0.00  0.00     0.241 C 
ATOM     87  O   GLN d   1      26.687   5.990   9.793  0.00  0.00    -0.271 OA
ATOM     88  N   THR d   1      26.045   8.116   9.466  0.00  0.00    -0.344 N 
ATOM     89  H55 THR d   1      25.342   8.809   9.625  0.00  0.00     0.163 HD
BRANCH  88  90
ATOM     90  CA  THR d   1      27.194   8.447   8.637  0.00  0.00     0.113 C 
ATOM     91  H56 THR d   1      27.346   7.627   7.920  0.00  0.00     0.091 H 
BRANCH  90  92
ATOM     92  C   THR d   1      28.458   8.586   9.481  0.00  0.00     0.243 C 
ATOM     93  O   THR d   1      28.436   9.200  10.540  0.00  0.00    -0.271 OA
ATOM     94  N   ALA d   1      29.549   7.981   9.025  0.00  0.00    -0.345 N 
ATOM     95  H62 ALA d   1      29.484   7.393   8.219  0.00  0.00     0.163 HD
BRANCH  94  96
ATOM     96  CA  ALA d   1      30.841   8.158   9.679  0.00  0.00     0.093 C 
ATOM     97  H63 ALA d   1      30.733   7.905  10.744  0.00  0.00     0.089 H 
BRANCH  96  98
ATOM     98  C   ALA d   1      31.286   9.607   9.566  0.00  0.00     0.196 C 
ATOM     99  O   ALA d   1      31.802  10.172  10.524  0.00  0.00    -0.646 OA
ATOM    100  OXT ALA d   1      31.132  10.221   8.516  0.00  0.00    -0.646 OA
ENDBRANCH  96  98
BRANCH  96 101
ATOM    101  CB  ALA d   1      31.877   7.242   9.070  0.00  0.00    -0.048 C 
ATOM    102  H64 ALA d   1      32.842   7.391   9.577  0.00  0.00     0.030 H 
ATOM    103  H65 ALA d   1      31.986   7.472   8.000  0.00  0.00     0.030 H 
ATOM    104  H66 ALA d   1      31.558   6.196   9.190  0.00  0.00     0.030 H 
ENDBRANCH  96 101
ENDBRANCH  94  96
ENDBRANCH  90  92
BRANCH  90 105
ATOM    105  CB  THR d   1      26.942   9.742   7.846  0.00  0.00     0.060 C 
ATOM    106  H57 THR d   1      26.263  10.390   8.419  0.00  0.00     0.086 H 
BRANCH 105 107
ATOM    107  OG1 THR d   1      26.341   9.404   6.586  0.00  0.00    -0.393 OA
ATOM    108  H58 THR d   1      26.181  10.198   6.090  0.00  0.00     0.210 HD
ENDBRANCH 105 107
BRANCH 105 109
ATOM    109  CG2 THR d   1      28.243  10.486   7.584  0.00  0.00    -0.050 C 
ATOM    110  H59 THR d   1      28.032  11.405   7.018  0.00  0.00     0.031 H 
ATOM    111  H60 THR d   1      28.921   9.845   7.002  0.00  0.00     0.031 H 
ATOM    112  H61 THR d   1      28.716  10.746   8.542  0.00  0.00     0.031 H 
ENDBRANCH 105 109
ENDBRANCH  90 105
ENDBRANCH  88  90
ENDBRANCH  84  86
BRANCH  84 113
ATOM    113  CB  GLN d   1      24.983   7.342  12.309  0.00  0.00    -0.030 C 
ATOM    114  H49 GLN d   1      25.277   8.392  12.165  0.00  0.00     0.037 H 
ATOM    115  H50 GLN d   1      25.808   6.792  12.786  0.00  0.00     0.037 H 
BRANCH 113 116
ATOM    116  CG  GLN d   1      23.779   7.300  13.230  0.00  0.00     0.011 C 
ATOM    117  H51 GLN d   1      24.088   7.632  14.232  0.00  0.00     0.047 H 
ATOM    118  H52 GLN d   1      23.411   6.265  13.284  0.00  0.00     0.047 H 
BRANCH 116 119
ATOM    119  CD  GLN d   1      22.651   8.196  12.744  0.00  0.00     0.215 C 
ATOM    120  OE1 GLN d   1      22.895   9.256  12.164  0.00  0.00    -0.274 OA
ATOM    121  NE2 GLN d   1      21.408   7.770  12.969  0.00  0.00    -0.370 N 
ATOM    122  H53 GLN d   1      20.629   8.321  12.670  0.00  0.00     0.159 HD
ATOM    123  H54 GLN d   1      21.255   6.900  13.437  0.00  0.00     0.159 HD
ENDBRANCH 116 119
ENDBRANCH 113 116
ENDBRANCH  84 113
ENDBRANCH  82  84
ENDBRANCH   1  80
TORSDOF 37
