REMARK WARNING: 32 MAX_TORS EXCEEDED!!!
REMARK  69 active torsions:
REMARK  status: ('A' for Active; 'I' for Inactive)
REMARK    1  A    between atoms: N_1  and  CA_2 
REMARK    2  A    between atoms: CA_2  and  C_3 
REMARK    3  A    between atoms: CA_2  and  CB_5 
REMARK       I    between atoms: C_3  and  N_10 
REMARK    4  A    between atoms: CB_5  and  CG_6 
REMARK    5  A    between atoms: CG_6  and  CD_7 
REMARK    6  A    between atoms: N_10  and  CA_11 
REMARK    7  A    between atoms: CA_11  and  C_12 
REMARK    8  A    between atoms: CA_11  and  CB_14 
REMARK       I    between atoms: C_12  and  N_17 
REMARK    9  A    between atoms: CB_14  and  CG1_15 
REMARK   10  A    between atoms: CB_14  and  CG2_16 
REMARK   11  A    between atoms: N_17  and  CA_18 
REMARK   12  A    between atoms: CA_18  and  C_19 
REMARK   13  A    between atoms: CA_18  and  CB_21 
REMARK       I    between atoms: C_19  and  N_28 
REMARK   14  A    between atoms: CB_21  and  CG_22 
REMARK   15  A    between atoms: CG_22  and  CD_23 
REMARK   16  A    between atoms: CD_23  and  NE_24 
REMARK       I    between atoms: NE_24  and  CZ_25 
REMARK       I    between atoms: CZ_25  and  NH1_26 
REMARK       I    between atoms: CZ_25  and  NH2_27 
REMARK   17  A    between atoms: N_28  and  CA_29 
REMARK   18  A    between atoms: CA_29  and  C_30 
REMARK   19  A    between atoms: CA_29  and  CB_32 
REMARK       I    between atoms: C_30  and  N_37 
REMARK   20  A    between atoms: CB_32  and  CG_33 
REMARK   21  A    between atoms: CG_33  and  CD_34 
REMARK       I    between atoms: CD_34  and  NE2_36 
REMARK   22  A    between atoms: N_37  and  CA_38 
REMARK   23  A    between atoms: CA_38  and  C_39 
REMARK   24  A    between atoms: CA_38  and  CB_41 
REMARK       I    between atoms: C_39  and  N_46 
REMARK   25  A    between atoms: CB_41  and  CG_42 
REMARK   26  A    between atoms: CG_42  and  CD_43 
REMARK   27  A    between atoms: CD_43  and  CE_44 
REMARK   28  A    between atoms: CE_44  and  NZ_45 
REMARK   29  A    between atoms: N_46  and  CA_47 
REMARK   30  A    between atoms: CA_47  and  C_48 
REMARK   31  A    between atoms: CA_47  and  CB_50 
REMARK       I    between atoms: C_48  and  N_55 
REMARK   32  A    between atoms: CB_50  and  CG_51 
REMARK   33  A    between atoms: CG_51  and  CD_52 
REMARK   34  A    between atoms: CD_52  and  CE_53 
REMARK   35  A    between atoms: CE_53  and  NZ_54 
REMARK   36  A    between atoms: N_55  and  CA_56 
REMARK   37  A    between atoms: CA_56  and  C_57 
REMARK   38  A    between atoms: CA_56  and  CB_59 
REMARK       I    between atoms: C_57  and  N_66 
REMARK   39  A    between atoms: CB_59  and  CG_60 
REMARK   40  A    between atoms: CG_60  and  CD_61 
REMARK   41  A    between atoms: CD_61  and  NE_62 
REMARK       I    between atoms: NE_62  and  CZ_63 
REMARK       I    between atoms: CZ_63  and  NH1_64 
REMARK       I    between atoms: CZ_63  and  NH2_65 
REMARK   42  A    between atoms: N_66  and  CA_67 
REMARK   43  A    between atoms: CA_67  and  C_68 
REMARK   44  A    between atoms: CA_67  and  CB_70 
REMARK       I    between atoms: C_68  and  N_77 
REMARK   45  A    between atoms: CB_70  and  CG_71 
REMARK   46  A    between atoms: CG_71  and  CD_72 
REMARK   47  A    between atoms: CD_72  and  NE_73 
REMARK       I    between atoms: NE_73  and  CZ_74 
REMARK       I    between atoms: CZ_74  and  NH1_75 
REMARK       I    between atoms: CZ_74  and  NH2_76 
REMARK   48  A    between atoms: N_77  and  CA_78 
REMARK   49  A    between atoms: CA_78  and  C_79 
REMARK   50  A    between atoms: CA_78  and  CB_81 
REMARK       I    between atoms: C_79  and  N_86 
REMARK   51  A    between atoms: CB_81  and  CG_82 
REMARK   52  A    between atoms: CG_82  and  CD_83 
REMARK   53  A    between atoms: CD_83  and  CE_84 
REMARK   54  A    between atoms: CE_84  and  NZ_85 
REMARK   55  A    between atoms: N_86  and  CA_87 
REMARK   56  A    between atoms: CA_87  and  C_88 
REMARK   57  A    between atoms: CA_87  and  CB_90 
REMARK       I    between atoms: C_88  and  N_97 
REMARK   58  A    between atoms: CB_90  and  CG_91 
REMARK   59  A    between atoms: CG_91  and  CD_92 
REMARK   60  A    between atoms: CD_92  and  NE_93 
REMARK       I    between atoms: NE_93  and  CZ_94 
REMARK       I    between atoms: CZ_94  and  NH1_95 
REMARK   61  A    between atoms: N_97  and  CA_98 
REMARK   62  A    between atoms: CA_98  and  C_99 
REMARK   63  A    between atoms: CA_98  and  CB_101 
REMARK       I    between atoms: C_99  and  N_103 
REMARK   64  A    between atoms: CB_101  and  OG_102 
REMARK   65  A    between atoms: N_103  and  CA_104 
REMARK   66  A    between atoms: CA_104  and  C_105 
REMARK   67  A    between atoms: CA_104  and  CB_107 
REMARK   68  A    between atoms: CB_107  and  OG1_108 
REMARK   69  A    between atoms: CB_107  and  CG2_109 
ROOT
ATOM      1  C   GLU d   1      -2.779   8.033  56.238  0.00  0.00     0.241 C 
ATOM      2  O   GLU d   1      -3.582   7.335  56.722  0.00  0.00    -0.271 OA
ATOM      3  N   GLU d   1      -1.480   7.791  56.200  0.00  0.00    -0.346 N 
ATOM      4  H65 GLU d   1      -0.915   8.311  55.560  0.00  0.00     0.163 HD
ENDROOT
BRANCH   3   5
ATOM      5  CA  GLU d   1      -0.840   6.804  57.046  0.00  0.00     0.089 C 
ATOM      6  H66 GLU d   1      -1.532   6.519  57.852  0.00  0.00     0.087 H 
BRANCH   5   7
ATOM      7  C   GLU d   1       0.398   7.440  57.646  0.00  0.00     0.241 C 
ATOM      8  O   GLU d   1       0.907   8.443  57.140  0.00  0.00    -0.271 OA
ATOM      9  N   GLU d   1       0.884   6.833  58.724  0.00  0.00    -0.346 N 
ATOM     10  H78 GLU d   1       0.394   6.045  59.097  0.00  0.00     0.163 HD
BRANCH   9  11
ATOM     11  CA  GLU d   1       2.104   7.275  59.380  0.00  0.00     0.089 C 
ATOM     12  H79 GLU d   1       2.792   7.686  58.627  0.00  0.00     0.087 H 
BRANCH  11  13
ATOM     13  C   GLU d   1       2.740   6.054  60.023  0.00  0.00     0.241 C 
ATOM     14  O   GLU d   1       2.061   5.063  60.303  0.00  0.00    -0.271 OA
ATOM     15  N   GLU d   1       4.053   6.118  60.237  0.00  0.00    -0.346 N 
ATOM     16  H91 GLU d   1       4.565   6.937  59.979  0.00  0.00     0.163 HD
BRANCH  15  17
ATOM     17  CA  GLU d   1       4.738   4.988  60.849  0.00  0.00     0.089 C 
ATOM     18  H92 GLU d   1       4.576   4.099  60.222  0.00  0.00     0.087 H 
BRANCH  17  19
ATOM     19  C   GLU d   1       4.152   4.721  62.229  0.00  0.00     0.241 C 
ATOM     20  O   GLU d   1       3.774   5.649  62.952  0.00  0.00    -0.271 OA
ATOM     21  N   GLU d   1       4.017   3.442  62.571  0.00  0.00    -0.346 N 
ATOM     22 4H10 GLU d   1       4.306   2.720  61.942  0.00  0.00     0.163 HD
BRANCH  21  23
ATOM     23  CA  GLU d   1       3.448   3.102  63.863  0.00  0.00     0.089 C 
ATOM     24 5H10 GLU d   1       2.446   3.551  63.930  0.00  0.00     0.087 H 
BRANCH  23  25
ATOM     25  C   GLU d   1       4.310   3.690  64.974  0.00  0.00     0.241 C 
ATOM     26  O   GLU d   1       5.521   3.880  64.819  0.00  0.00    -0.271 OA
ATOM     27  N   GLU d   1       3.661   4.013  66.095  0.00  0.00    -0.344 N 
ATOM     28 7H11 GLU d   1       2.727   3.686  66.239  0.00  0.00     0.163 HD
BRANCH  27  29
ATOM     29  CA  GLU d   1       4.303   4.840  67.113  0.00  0.00     0.109 C 
ATOM     30 8H11 GLU d   1       4.641   5.769  66.631  0.00  0.00     0.090 H 
BRANCH  29  31
ATOM     31  C   GLU d   1       5.521   4.162  67.723  0.00  0.00     0.243 C 
ATOM     32  O   GLU d   1       6.435   4.848  68.202  0.00  0.00    -0.271 OA
ATOM     33  N   GLU d   1       5.564   2.836  67.717  0.00  0.00    -0.342 N 
ATOM     34 2H12 GLU d   1       4.788   2.310  67.369  0.00  0.00     0.163 HD
BRANCH  33  35
ATOM     35  CA  GLU d   1       6.748   2.148  68.220  0.00  0.00     0.120 C 
ATOM     36 3H12 GLU d   1       7.001   2.583  69.198  0.00  0.00     0.093 H 
BRANCH  35  37
ATOM     37  C   GLU d   1       7.936   2.342  67.282  0.00  0.00     0.199 C 
ATOM     38  O   GLU d   1       9.051   1.912  67.584  0.00  0.00    -0.646 OA
ATOM     39  OXT GLU d   1       7.798   2.932  66.208  0.00  0.00    -0.646 OA
ENDBRANCH  35  37
BRANCH  35  40
ATOM     40  CB  GLU d   1       6.505   0.643  68.410  0.00  0.00     0.061 C 
ATOM     41 4H12 GLU d   1       7.458   0.167  68.686  0.00  0.00     0.086 H 
BRANCH  40  42
ATOM     42  OG1 GLU d   1       6.036   0.063  67.187  0.00  0.00    -0.393 OA
ATOM     43 5H12 GLU d   1       6.687   0.191  66.507  0.00  0.00     0.210 HD
ENDBRANCH  40  42
BRANCH  40  44
ATOM     44  CG2 GLU d   1       5.498   0.388  69.518  0.00  0.00    -0.050 C 
ATOM     45 6H12 GLU d   1       5.344  -0.695  69.631  0.00  0.00     0.031 H 
ATOM     46 7H12 GLU d   1       4.542   0.869  69.263  0.00  0.00     0.031 H 
ATOM     47 8H12 GLU d   1       5.878   0.805  70.462  0.00  0.00     0.031 H 
ENDBRANCH  40  44
ENDBRANCH  35  40
ENDBRANCH  33  35
ENDBRANCH  29  31
BRANCH  29  48
ATOM     48  CB  GLU d   1       3.293   5.203  68.200  0.00  0.00     0.044 C 
ATOM     49 9H11 GLU d   1       3.814   5.703  69.030  0.00  0.00     0.077 H 
ATOM     50 0H12 GLU d   1       2.810   4.287  68.570  0.00  0.00     0.077 H 
BRANCH  48  51
ATOM     51  OG  GLU d   1       2.309   6.072  67.671  0.00  0.00    -0.398 OA
ATOM     52 1H12 GLU d   1       2.726   6.864  67.352  0.00  0.00     0.209 HD
ENDBRANCH  48  51
ENDBRANCH  29  48
ENDBRANCH  27  29
ENDBRANCH  23  25
BRANCH  23  53
ATOM     53  CB  GLU d   1       3.297   1.584  64.008  0.00  0.00    -0.036 C 
ATOM     54 6H10 GLU d   1       2.644   1.230  63.196  0.00  0.00     0.036 H 
ATOM     55 7H10 GLU d   1       2.818   1.383  64.978  0.00  0.00     0.036 H 
BRANCH  53  56
ATOM     56  CG  GLU d   1       4.582   0.787  63.951  0.00  0.00    -0.048 C 
ATOM     57 8H10 GLU d   1       5.262   1.138  64.741  0.00  0.00     0.035 H 
ATOM     58 9H10 GLU d   1       5.055   0.931  62.969  0.00  0.00     0.035 H 
BRANCH  56  59
ATOM     59  CD  GLU d   1       4.293  -0.706  64.159  0.00  0.00     0.009 C 
ATOM     60 0H11 GLU d   1       3.834  -0.849  65.148  0.00  0.00     0.064 H 
ATOM     61 1H11 GLU d   1       5.239  -1.265  64.110  0.00  0.00     0.064 H 
BRANCH  59  62
ATOM     62  NE  GLU d   1       3.386  -1.213  63.135  0.00  0.00    -0.227 N 
ATOM     63  CZ  GLU d   1       2.290  -1.927  63.373  0.00  0.00     0.665 C 
ATOM     64  NH1 GLU d   1       1.947  -2.245  64.619  0.00  0.00    -0.235 N 
ATOM     65  NH2 GLU d   1       1.530  -2.322  62.360  0.00  0.00    -0.235 N 
ATOM     66 3H11 GLU d   1       1.096  -2.799  64.794  0.00  0.00     0.174 HD
ATOM     67 4H11 GLU d   1       2.533  -1.938  65.409  0.00  0.00     0.174 HD
ATOM     68 5H11 GLU d   1       1.792  -2.078  61.394  0.00  0.00     0.174 HD
ATOM     69 6H11 GLU d   1       0.678  -2.873  62.539  0.00  0.00     0.174 HD
ATOM     70 2H11 GLU d   1       3.612  -1.002  62.153  0.00  0.00     0.177 HD
ENDBRANCH  59  62
ENDBRANCH  56  59
ENDBRANCH  53  56
ENDBRANCH  23  53
ENDBRANCH  21  23
ENDBRANCH  17  19
BRANCH  17  71
ATOM     71  CB  GLU d   1       6.247   5.248  60.936  0.00  0.00    -0.038 C 
ATOM     72  H93 GLU d   1       6.570   5.685  59.980  0.00  0.00     0.036 H 
ATOM     73  H94 GLU d   1       6.748   4.280  61.085  0.00  0.00     0.036 H 
BRANCH  71  74
ATOM     74  CG  GLU d   1       6.691   6.178  62.046  0.00  0.00    -0.061 C 
ATOM     75  H95 GLU d   1       6.407   5.747  63.017  0.00  0.00     0.033 H 
ATOM     76  H96 GLU d   1       6.200   7.155  61.921  0.00  0.00     0.033 H 
BRANCH  74  77
ATOM     77  CD  GLU d   1       8.203   6.363  61.998  0.00  0.00    -0.043 C 
ATOM     78  H97 GLU d   1       8.489   6.688  60.987  0.00  0.00     0.035 H 
ATOM     79  H98 GLU d   1       8.686   5.401  62.224  0.00  0.00     0.035 H 
BRANCH  77  80
ATOM     80  CE  GLU d   1       8.679   7.399  63.000  0.00  0.00     0.080 C 
ATOM     81  H99 GLU d   1       8.563   6.994  64.016  0.00  0.00     0.075 H 
ATOM     82 0H10 GLU d   1       8.067   8.307  62.895  0.00  0.00     0.075 H 
BRANCH  80  83
ATOM     83  NZ  GLU d   1      10.112   7.750  62.777  0.00  0.00    -0.079 N 
ATOM     84 1H10 GLU d   1      10.399   8.438  63.456  0.00  0.00     0.274 HD
ATOM     85 2H10 GLU d   1      10.225   8.126  61.849  0.00  0.00     0.274 HD
ATOM     86 3H10 GLU d   1      10.680   6.923  62.876  0.00  0.00     0.274 HD
ENDBRANCH  80  83
ENDBRANCH  77  80
ENDBRANCH  74  77
ENDBRANCH  71  74
ENDBRANCH  17  71
ENDBRANCH  15  17
ENDBRANCH  11  13
BRANCH  11  87
ATOM     87  CB  GLU d   1       1.809   8.367  60.413  0.00  0.00    -0.036 C 
ATOM     88  H80 GLU d   1       1.216   7.917  61.223  0.00  0.00     0.036 H 
ATOM     89  H81 GLU d   1       1.217   9.151  59.918  0.00  0.00     0.036 H 
BRANCH  87  90
ATOM     90  CG  GLU d   1       3.020   9.019  61.031  0.00  0.00    -0.048 C 
ATOM     91  H82 GLU d   1       3.526   9.640  60.277  0.00  0.00     0.035 H 
ATOM     92  H83 GLU d   1       3.711   8.242  61.389  0.00  0.00     0.035 H 
BRANCH  90  93
ATOM     93  CD  GLU d   1       2.595   9.885  62.190  0.00  0.00     0.009 C 
ATOM     94  H84 GLU d   1       3.446  10.508  62.503  0.00  0.00     0.064 H 
ATOM     95  H85 GLU d   1       2.286   9.239  63.025  0.00  0.00     0.064 H 
BRANCH  93  96
ATOM     96  NE  GLU d   1       1.482  10.752  61.824  0.00  0.00    -0.227 N 
ATOM     97  CZ  GLU d   1       0.808  11.495  62.693  0.00  0.00     0.665 C 
ATOM     98  NH1 GLU d   1       1.139  11.471  63.978  0.00  0.00    -0.235 N 
ATOM     99  NH2 GLU d   1      -0.193  12.259  62.280  0.00  0.00    -0.235 N 
ATOM    100  H87 GLU d   1       0.618  12.046  64.655  0.00  0.00     0.174 HD
ATOM    101  H88 GLU d   1       1.917  10.877  64.298  0.00  0.00     0.174 HD
ATOM    102  H89 GLU d   1      -0.449  12.277  61.283  0.00  0.00     0.174 HD
ATOM    103  H90 GLU d   1      -0.715  12.835  62.956  0.00  0.00     0.174 HD
ATOM    104  H86 GLU d   1       1.202  10.790  60.833  0.00  0.00     0.177 HD
ENDBRANCH  93  96
ENDBRANCH  90  93
ENDBRANCH  87  90
ENDBRANCH  11  87
ENDBRANCH   9  11
ENDBRANCH   5   7
BRANCH   5 105
ATOM    105  CB  GLU d   1      -0.460   5.548  56.262  0.00  0.00    -0.036 C 
ATOM    106  H67 GLU d   1       0.094   4.875  56.932  0.00  0.00     0.036 H 
ATOM    107  H68 GLU d   1       0.187   5.845  55.423  0.00  0.00     0.036 H 
BRANCH 105 108
ATOM    108  CG  GLU d   1      -1.635   4.803  55.711  0.00  0.00    -0.048 C 
ATOM    109  H69 GLU d   1      -2.090   5.396  54.904  0.00  0.00     0.035 H 
ATOM    110  H70 GLU d   1      -2.372   4.650  56.514  0.00  0.00     0.035 H 
BRANCH 108 111
ATOM    111  CD  GLU d   1      -1.219   3.457  55.160  0.00  0.00     0.009 C 
ATOM    112  H71 GLU d   1      -0.758   2.868  55.967  0.00  0.00     0.064 H 
ATOM    113  H72 GLU d   1      -0.486   3.612  54.354  0.00  0.00     0.064 H 
BRANCH 111 114
ATOM    114  NE  GLU d   1      -2.359   2.721  54.628  0.00  0.00    -0.227 N 
ATOM    115  CZ  GLU d   1      -2.596   2.560  53.331  0.00  0.00     0.665 C 
ATOM    116  NH1 GLU d   1      -1.770   3.085  52.440  0.00  0.00    -0.235 N 
ATOM    117  NH2 GLU d   1      -3.653   1.874  52.923  0.00  0.00    -0.235 N 
ATOM    118  H74 GLU d   1      -1.952   2.962  51.434  0.00  0.00     0.174 HD
ATOM    119  H75 GLU d   1      -0.946   3.617  52.753  0.00  0.00     0.174 HD
ATOM    120  H76 GLU d   1      -4.298   1.464  53.613  0.00  0.00     0.174 HD
ATOM    121  H77 GLU d   1      -3.830   1.751  51.916  0.00  0.00     0.174 HD
ATOM    122  H73 GLU d   1      -3.020   2.301  55.297  0.00  0.00     0.177 HD
ENDBRANCH 111 114
ENDBRANCH 108 111
ENDBRANCH 105 108
ENDBRANCH   5 105
ENDBRANCH   3   5
BRANCH   1 123
ATOM    123  CA  GLU d   1      -3.273   9.254  55.408  0.00  0.00     0.089 C 
ATOM    124  H53 GLU d   1      -3.847   9.902  56.087  0.00  0.00     0.087 H 
BRANCH 123 125
ATOM    125  N   GLU d   1      -2.191  10.104  54.871  0.00  0.00    -0.346 N 
ATOM    126  C   GLU d   1      -1.887  11.322  55.306  0.00  0.00     0.241 C 
ATOM    127  O   GLU d   1      -2.533  11.958  56.141  0.00  0.00    -0.271 OA
ATOM    128  H52 GLU d   1      -1.644   9.733  54.120  0.00  0.00     0.163 HD
BRANCH 126 129
ATOM    129  CA  GLU d   1      -0.702  11.943  54.579  0.00  0.00     0.089 C 
ATOM    130  H40 GLU d   1      -0.611  11.476  53.587  0.00  0.00     0.087 H 
BRANCH 129 131
ATOM    131  N   GLU d   1      -0.920  13.372  54.399  0.00  0.00    -0.346 N 
ATOM    132  C   GLU d   1      -1.983  13.790  53.719  0.00  0.00     0.241 C 
ATOM    133  O   GLU d   1      -2.730  13.019  53.114  0.00  0.00    -0.271 OA
ATOM    134  H39 GLU d   1      -0.276  14.033  54.784  0.00  0.00     0.163 HD
BRANCH 132 135
ATOM    135  CA  GLU d   1      -2.217  15.296  53.721  0.00  0.00     0.090 C 
ATOM    136  H32 GLU d   1      -1.252  15.805  53.583  0.00  0.00     0.087 H 
BRANCH 135 137
ATOM    137  N   GLU d   1      -3.099  15.665  52.628  0.00  0.00    -0.346 N 
ATOM    138  C   GLU d   1      -2.649  15.682  51.381  0.00  0.00     0.241 C 
ATOM    139  O   GLU d   1      -1.466  15.492  51.087  0.00  0.00    -0.271 OA
ATOM    140  H31 GLU d   1      -4.051  15.908  52.817  0.00  0.00     0.163 HD
BRANCH 138 141
ATOM    141  CA  GLU d   1      -3.680  15.953  50.297  0.00  0.00     0.089 C 
ATOM    142  H19 GLU d   1      -4.684  15.763  50.704  0.00  0.00     0.087 H 
BRANCH 141 143
ATOM    143  N   GLU d   1      -3.583  17.357  49.910  0.00  0.00    -0.346 N 
ATOM    144  C   GLU d   1      -4.611  18.195  49.982  0.00  0.00     0.241 C 
ATOM    145  O   GLU d   1      -5.722  17.859  50.413  0.00  0.00    -0.271 OA
ATOM    146  H18 GLU d   1      -2.706  17.703  49.577  0.00  0.00     0.163 HD
BRANCH 144 147
ATOM    147  CA  GLU d   1      -4.358  19.618  49.510  0.00  0.00     0.092 C 
ATOM    148  H10 GLU d   1      -3.438  19.638  48.907  0.00  0.00     0.088 H 
BRANCH 147 149
ATOM    149  N   GLU d   1      -5.481  20.037  48.675  0.00  0.00    -0.346 N 
ATOM    150  C   GLU d   1      -5.499  19.889  47.346  0.00  0.00     0.249 C 
ATOM    151  O   GLU d   1      -4.542  19.474  46.684  0.00  0.00    -0.271 OA
ATOM    152  H9  GLU d   1      -6.274  20.454  49.118  0.00  0.00     0.163 HD
BRANCH 150 153
ATOM    153  CA  GLU d   1      -6.796  20.267  46.654  0.00  0.00     0.176 C 
ATOM    154  H4  GLU d   1      -7.176  21.193  47.110  0.00  0.00     0.099 H 
BRANCH 153 155
ATOM    155  N   GLU d   1      -6.592  20.511  45.229  0.00  0.00    -0.066 N 
ATOM    156  H1  GLU d   1      -7.471  20.759  44.801  0.00  0.00     0.275 HD
ATOM    157  H2  GLU d   1      -6.230  19.677  44.794  0.00  0.00     0.275 HD
ATOM    158  H3  GLU d   1      -5.935  21.266  45.108  0.00  0.00     0.275 HD
ENDBRANCH 153 155
BRANCH 153 159
ATOM    159  CB  GLU d   1      -7.830  19.158  46.865  0.00  0.00    -0.021 C 
ATOM    160  H5  GLU d   1      -7.931  18.977  47.945  0.00  0.00     0.037 H 
ATOM    161  H6  GLU d   1      -7.466  18.244  46.373  0.00  0.00     0.037 H 
BRANCH 159 162
ATOM    162  CG  GLU d   1      -9.201  19.494  46.303  0.00  0.00     0.018 C 
ATOM    163  H7  GLU d   1      -9.124  19.571  45.208  0.00  0.00     0.049 H 
ATOM    164  H8  GLU d   1      -9.525  20.460  46.717  0.00  0.00     0.049 H 
BRANCH 162 165
ATOM    165  CD  GLU d   1     -10.241  18.446  46.645  0.00  0.00     0.172 C 
ATOM    166  OE1 GLU d   1      -9.857  17.312  46.999  0.00  0.00    -0.648 OA
ATOM    167  OE2 GLU d   1     -11.445  18.764  46.569  0.00  0.00    -0.648 OA
ENDBRANCH 162 165
ENDBRANCH 159 162
ENDBRANCH 153 159
ENDBRANCH 150 153
ENDBRANCH 147 149
BRANCH 147 168
ATOM    168  CB  GLU d   1      -4.175  20.561  50.712  0.00  0.00    -0.033 C 
ATOM    169  H11 GLU d   1      -5.123  20.596  51.268  0.00  0.00     0.042 H 
BRANCH 168 170
ATOM    170  CG1 GLU d   1      -3.089  20.025  51.650  0.00  0.00    -0.071 C 
ATOM    171  H12 GLU d   1      -2.971  20.710  52.503  0.00  0.00     0.028 H 
ATOM    172  H13 GLU d   1      -2.137  19.951  51.104  0.00  0.00     0.028 H 
ATOM    173  H14 GLU d   1      -3.380  19.029  52.017  0.00  0.00     0.028 H 
ENDBRANCH 168 170
BRANCH 168 174
ATOM    174  CG2 GLU d   1      -3.844  21.972  50.254  0.00  0.00    -0.071 C 
ATOM    175  H15 GLU d   1      -4.636  22.335  49.583  0.00  0.00     0.028 H 
ATOM    176  H16 GLU d   1      -2.883  21.968  49.718  0.00  0.00     0.028 H 
ATOM    177  H17 GLU d   1      -3.773  22.634  51.129  0.00  0.00     0.028 H 
ENDBRANCH 168 174
ENDBRANCH 147 168
ENDBRANCH 144 147
ENDBRANCH 141 143
BRANCH 141 178
ATOM    178  CB  GLU d   1      -3.468  15.043  49.098  0.00  0.00    -0.036 C 
ATOM    179  H20 GLU d   1      -3.353  14.010  49.458  0.00  0.00     0.036 H 
ATOM    180  H21 GLU d   1      -2.550  15.355  48.579  0.00  0.00     0.036 H 
BRANCH 178 181
ATOM    181  CG  GLU d   1      -4.610  15.085  48.119  0.00  0.00    -0.048 C 
ATOM    182  H22 GLU d   1      -4.268  14.690  47.151  0.00  0.00     0.035 H 
ATOM    183  H23 GLU d   1      -4.938  16.128  47.995  0.00  0.00     0.035 H 
BRANCH 181 184
ATOM    184  CD  GLU d   1      -5.782  14.252  48.607  0.00  0.00     0.009 C 
ATOM    185  H24 GLU d   1      -6.231  14.737  49.486  0.00  0.00     0.064 H 
ATOM    186  H25 GLU d   1      -5.425  13.249  48.884  0.00  0.00     0.064 H 
BRANCH 184 187
ATOM    187  NE  GLU d   1      -6.787  14.132  47.557  0.00  0.00    -0.227 N 
ATOM    188  CZ  GLU d   1      -7.816  14.957  47.417  0.00  0.00     0.665 C 
ATOM    189  NH1 GLU d   1      -7.984  15.959  48.270  0.00  0.00    -0.235 N 
ATOM    190  NH2 GLU d   1      -8.681  14.778  46.427  0.00  0.00    -0.235 N 
ATOM    191  H27 GLU d   1      -8.783  16.600  48.161  0.00  0.00     0.174 HD
ATOM    192  H28 GLU d   1      -7.315  16.096  49.041  0.00  0.00     0.174 HD
ATOM    193  H29 GLU d   1      -8.551  14.000  45.764  0.00  0.00     0.174 HD
ATOM    194  H30 GLU d   1      -9.482  15.417  46.321  0.00  0.00     0.174 HD
ATOM    195  H26 GLU d   1      -6.692  13.359  46.883  0.00  0.00     0.177 HD
ENDBRANCH 184 187
ENDBRANCH 181 184
ENDBRANCH 178 181
ENDBRANCH 141 178
ENDBRANCH 138 141
ENDBRANCH 135 137
BRANCH 135 196
ATOM    196  CB  GLU d   1      -2.813  15.732  55.057  0.00  0.00    -0.030 C 
ATOM    197  H33 GLU d   1      -2.104  15.471  55.857  0.00  0.00     0.037 H 
ATOM    198  H34 GLU d   1      -3.757  15.188  55.212  0.00  0.00     0.037 H 
BRANCH 196 199
ATOM    199  CG  GLU d   1      -3.096  17.213  55.134  0.00  0.00     0.011 C 
ATOM    200  H35 GLU d   1      -3.950  17.444  54.480  0.00  0.00     0.047 H 
ATOM    201  H36 GLU d   1      -2.208  17.761  54.785  0.00  0.00     0.047 H 
BRANCH 199 202
ATOM    202  CD  GLU d   1      -3.424  17.667  56.537  0.00  0.00     0.215 C 
ATOM    203  OE1 GLU d   1      -2.791  17.246  57.506  0.00  0.00    -0.274 OA
ATOM    204  NE2 GLU d   1      -4.433  18.518  56.657  0.00  0.00    -0.370 N 
ATOM    205  H37 GLU d   1      -4.698  18.855  57.560  0.00  0.00     0.159 HD
ATOM    206  H38 GLU d   1      -4.929  18.823  55.844  0.00  0.00     0.159 HD
ENDBRANCH 199 202
ENDBRANCH 196 199
ENDBRANCH 135 196
ENDBRANCH 132 135
ENDBRANCH 129 131
BRANCH 129 207
ATOM    207  CB  GLU d   1       0.584  11.680  55.360  0.00  0.00    -0.038 C 
ATOM    208  H41 GLU d   1       0.546  10.652  55.749  0.00  0.00     0.036 H 
ATOM    209  H42 GLU d   1       0.627  12.389  56.200  0.00  0.00     0.036 H 
BRANCH 207 210
ATOM    210  CG  GLU d   1       1.849  11.831  54.551  0.00  0.00    -0.061 C 
ATOM    211  H43 GLU d   1       1.855  12.816  54.061  0.00  0.00     0.033 H 
ATOM    212  H44 GLU d   1       1.891  11.041  53.786  0.00  0.00     0.033 H 
BRANCH 210 213
ATOM    213  CD  GLU d   1       3.054  11.714  55.464  0.00  0.00    -0.043 C 
ATOM    214  H45 GLU d   1       2.924  12.400  56.314  0.00  0.00     0.035 H 
ATOM    215  H46 GLU d   1       3.955  11.996  54.900  0.00  0.00     0.035 H 
BRANCH 213 216
ATOM    216  CE  GLU d   1       3.231  10.296  55.999  0.00  0.00     0.080 C 
ATOM    217  H47 GLU d   1       3.342   9.606  55.150  0.00  0.00     0.075 H 
ATOM    218  H48 GLU d   1       2.339  10.021  56.581  0.00  0.00     0.075 H 
BRANCH 216 219
ATOM    219  NZ  GLU d   1       4.436  10.182  56.876  0.00  0.00    -0.079 N 
ATOM    220  H49 GLU d   1       4.520   9.235  57.210  0.00  0.00     0.274 HD
ATOM    221  H50 GLU d   1       4.341  10.807  57.661  0.00  0.00     0.274 HD
ATOM    222  H51 GLU d   1       5.260  10.427  56.349  0.00  0.00     0.274 HD
ENDBRANCH 216 219
ENDBRANCH 213 216
ENDBRANCH 210 213
ENDBRANCH 207 210
ENDBRANCH 129 207
ENDBRANCH 126 129
ENDBRANCH 123 125
BRANCH 123 223
ATOM    223  CB  GLU d   1      -4.267   8.695  54.365  0.00  0.00    -0.038 C 
ATOM    224  H54 GLU d   1      -5.205   8.482  54.898  0.00  0.00     0.036 H 
ATOM    225  H55 GLU d   1      -3.839   7.755  53.985  0.00  0.00     0.036 H 
BRANCH 223 226
ATOM    226  CG  GLU d   1      -4.623   9.531  53.167  0.00  0.00    -0.061 C 
ATOM    227  H56 GLU d   1      -3.717   9.723  52.574  0.00  0.00     0.033 H 
ATOM    228  H57 GLU d   1      -5.050  10.487  53.504  0.00  0.00     0.033 H 
BRANCH 226 229
ATOM    229  CD  GLU d   1      -5.635   8.804  52.314  0.00  0.00    -0.043 C 
ATOM    230  H58 GLU d   1      -6.599   9.331  52.370  0.00  0.00     0.035 H 
ATOM    231  H59 GLU d   1      -5.755   7.778  52.692  0.00  0.00     0.035 H 
BRANCH 229 232
ATOM    232  CE  GLU d   1      -5.183   8.753  50.883  0.00  0.00     0.080 C 
ATOM    233  H60 GLU d   1      -5.880   8.128  50.306  0.00  0.00     0.075 H 
ATOM    234  H61 GLU d   1      -4.175   8.316  50.838  0.00  0.00     0.075 H 
BRANCH 232 235
ATOM    235  NZ  GLU d   1      -5.151  10.114  50.298  0.00  0.00    -0.079 N 
ATOM    236  H62 GLU d   1      -4.846  10.060  49.339  0.00  0.00     0.274 HD
ATOM    237  H63 GLU d   1      -4.511  10.690  50.822  0.00  0.00     0.274 HD
ATOM    238  H64 GLU d   1      -6.074  10.517  50.335  0.00  0.00     0.274 HD
ENDBRANCH 232 235
ENDBRANCH 229 232
ENDBRANCH 226 229
ENDBRANCH 223 226
ENDBRANCH 123 223
ENDBRANCH   1 123
TORSDOF 69
