REMARK  20 active torsions:
REMARK  status: ('A' for Active; 'I' for Inactive)
REMARK    1  A    between atoms: N_1  and  CA_2 
REMARK    2  A    between atoms: CA_2  and  C_3 
REMARK       I    between atoms: C_3  and  N_5 
REMARK    3  A    between atoms: N_5  and  CA_6 
REMARK    4  A    between atoms: CA_6  and  C_7 
REMARK    5  A    between atoms: CA_6  and  CB_9 
REMARK       I    between atoms: C_7  and  N_13 
REMARK    6  A    between atoms: CB_9  and  CG_10 
REMARK    7  A    between atoms: CG_10  and  SD_11 
REMARK    8  A    between atoms: SD_11  and  CE_12 
REMARK    9  A    between atoms: CA_14  and  C_15 
REMARK       I    between atoms: C_15  and  N_20 
REMARK   10  A    between atoms: N_20  and  CA_21 
REMARK   11  A    between atoms: CA_21  and  C_22 
REMARK   12  A    between atoms: CA_21  and  CB_24 
REMARK       I    between atoms: C_22  and  N_31 
REMARK   13  A    between atoms: CB_24  and  CG_25 
REMARK   14  A    between atoms: CG_25  and  CD_26 
REMARK   15  A    between atoms: CD_26  and  NE_27 
REMARK       I    between atoms: NE_27  and  CZ_28 
REMARK       I    between atoms: CZ_28  and  NH1_29 
REMARK   16  A    between atoms: N_31  and  CA_32 
REMARK   17  A    between atoms: CA_32  and  C_33 
REMARK       I    between atoms: C_33  and  N_35 
REMARK   18  A    between atoms: N_35  and  CA_36 
REMARK   19  A    between atoms: CA_36  and  C_37 
REMARK   20  A    between atoms: CA_36  and  CB_39 
ROOT
ATOM      1  C   PRO d   1     -80.792 120.501 231.354  0.00  0.00     0.241 C 
ATOM      2  O   PRO d   1     -79.648 120.655 230.942  0.00  0.00    -0.271 OA
ATOM      3  N   ARG d   1     -81.111 119.606 232.285  0.00  0.00    -0.346 N 
ATOM      4  H22 ARG d   1     -82.047 119.599 232.638  0.00  0.00     0.163 HD
ENDROOT
BRANCH   3   5
ATOM      5  CA  ARG d   1     -80.164 118.637 232.814  0.00  0.00     0.089 C 
ATOM      6  H23 ARG d   1     -79.269 118.626 232.174  0.00  0.00     0.087 H 
BRANCH   5   7
ATOM      7  C   ARG d   1     -80.826 117.278 232.810  0.00  0.00     0.240 C 
ATOM      8  O   ARG d   1     -82.051 117.185 232.930  0.00  0.00    -0.271 OA
ATOM      9  N   GLY d   1     -80.007 116.228 232.716  0.00  0.00    -0.351 N 
ATOM     10  H35 GLY d   1     -79.024 116.371 232.601  0.00  0.00     0.163 HD
BRANCH   9  11
ATOM     11  CA  GLY d   1     -80.539 114.878 232.780  0.00  0.00     0.069 C 
ATOM     12  H36 GLY d   1     -81.179 114.703 231.902  0.00  0.00     0.078 H 
ATOM     13  H37 GLY d   1     -81.137 114.772 233.697  0.00  0.00     0.078 H 
BRANCH  11  14
ATOM     14  C   GLY d   1     -79.428 113.848 232.794  0.00  0.00     0.236 C 
ATOM     15  O   GLY d   1     -78.274 114.134 232.465  0.00  0.00    -0.272 OA
ATOM     16  N   ALA d   1     -79.814 112.629 233.143  0.00  0.00    -0.346 N 
ATOM     17  H38 ALA d   1     -80.766 112.483 233.412  0.00  0.00     0.163 HD
BRANCH  16  18
ATOM     18  CA  ALA d   1     -78.902 111.496 233.148  0.00  0.00     0.093 C 
ATOM     19  H39 ALA d   1     -78.195 111.607 232.313  0.00  0.00     0.089 H 
BRANCH  18  20
ATOM     20  C   ALA d   1     -79.682 110.215 232.962  0.00  0.00     0.196 C 
ATOM     21  O   ALA d   1     -79.128 109.188 232.563  0.00  0.00    -0.646 OA
ATOM     22  OXT ALA d   1     -80.886 110.191 233.243  0.00  0.00    -0.646 OA
ENDBRANCH  18  20
BRANCH  18  23
ATOM     23  CB  ALA d   1     -78.116 111.442 234.447  0.00  0.00    -0.048 C 
ATOM     24  H40 ALA d   1     -77.434 110.579 234.428  0.00  0.00     0.030 H 
ATOM     25  H41 ALA d   1     -78.812 111.341 235.293  0.00  0.00     0.030 H 
ATOM     26  H42 ALA d   1     -77.532 112.367 234.561  0.00  0.00     0.030 H 
ENDBRANCH  18  23
ENDBRANCH  16  18
ENDBRANCH  11  14
ENDBRANCH   9  11
ENDBRANCH   5   7
BRANCH   5  27
ATOM     27  CB  ARG d   1     -79.744 118.931 234.267  0.00  0.00    -0.036 C 
ATOM     28  H24 ARG d   1     -79.276 118.020 234.669  0.00  0.00     0.036 H 
ATOM     29  H25 ARG d   1     -80.657 119.157 234.838  0.00  0.00     0.036 H 
BRANCH  27  30
ATOM     30  CG  ARG d   1     -78.781 120.069 234.478  0.00  0.00    -0.048 C 
ATOM     31  H26 ARG d   1     -79.166 120.980 233.997  0.00  0.00     0.035 H 
ATOM     32  H27 ARG d   1     -77.801 119.814 234.049  0.00  0.00     0.035 H 
BRANCH  30  33
ATOM     33  CD  ARG d   1     -78.646 120.296 236.007  0.00  0.00     0.009 C 
ATOM     34  H28 ARG d   1     -78.700 119.319 236.510  0.00  0.00     0.064 H 
ATOM     35  H29 ARG d   1     -79.483 120.927 236.341  0.00  0.00     0.064 H 
BRANCH  33  36
ATOM     36  NE  ARG d   1     -77.401 120.942 236.389  0.00  0.00    -0.227 N 
ATOM     37  CZ  ARG d   1     -77.327 122.194 236.822  0.00  0.00     0.665 C 
ATOM     38  NH1 ARG d   1     -76.164 122.705 237.161  0.00  0.00    -0.235 N 
ATOM     39  NH2 ARG d   1     -78.426 122.934 236.886  0.00  0.00    -0.235 N 
ATOM     40  H31 ARG d   1     -76.107 123.677 237.497  0.00  0.00     0.174 HD
ATOM     41  H32 ARG d   1     -75.310 122.133 237.090  0.00  0.00     0.174 HD
ATOM     42  H33 ARG d   1     -79.335 122.530 236.619  0.00  0.00     0.174 HD
ATOM     43  H34 ARG d   1     -78.370 123.913 237.202  0.00  0.00     0.174 HD
ATOM     44  H30 ARG d   1     -76.529 120.398 236.320  0.00  0.00     0.177 HD
ENDBRANCH  33  36
ENDBRANCH  30  33
ENDBRANCH  27  30
ENDBRANCH   5  27
ENDBRANCH   3   5
BRANCH   1  45
ATOM     45  CA  PRO d   1     -81.925 121.387 230.868  0.00  0.00     0.091 C 
ATOM     46  N   PRO d   1     -81.442 122.752 230.645  0.00  0.00    -0.337 N 
ATOM     47  C   MET d   1     -81.122 123.506 231.690  0.00  0.00     0.243 C 
ATOM     48  CD  PRO d   1     -81.278 123.064 229.205  0.00  0.00    -0.001 C 
ATOM     49  O   MET d   1     -81.249 123.077 232.853  0.00  0.00    -0.271 OA
ATOM     50  CG  PRO d   1     -81.665 121.767 228.517  0.00  0.00    -0.048 C 
ATOM     51  H20 PRO d   1     -80.237 123.335 228.977  0.00  0.00     0.064 H 
ATOM     52  H21 PRO d   1     -81.945 123.885 228.902  0.00  0.00     0.064 H 
ATOM     53  CB  PRO d   1     -82.446 120.959 229.489  0.00  0.00    -0.036 C 
ATOM     54  H18 PRO d   1     -82.278 121.982 227.629  0.00  0.00     0.035 H 
ATOM     55  H19 PRO d   1     -80.761 121.219 228.214  0.00  0.00     0.035 H 
ATOM     56  H16 PRO d   1     -83.520 121.176 229.397  0.00  0.00     0.036 H 
ATOM     57  H17 PRO d   1     -82.273 119.885 229.326  0.00  0.00     0.036 H 
ATOM     58  H15 PRO d   1     -82.738 121.374 231.609  0.00  0.00     0.087 H 
BRANCH  47  59
ATOM     59  CA  MET d   1     -80.579 124.905 231.476  0.00  0.00     0.090 C 
ATOM     60  H7  MET d   1     -80.566 125.130 230.399  0.00  0.00     0.087 H 
BRANCH  59  61
ATOM     61  N   MET d   1     -81.442 125.875 232.159  0.00  0.00    -0.346 N 
ATOM     62  C   GLY d   1     -82.356 126.620 231.523  0.00  0.00     0.243 C 
ATOM     63  O   GLY d   1     -82.618 126.512 230.327  0.00  0.00    -0.272 OA
ATOM     64  H6  MET d   1     -81.343 125.986 233.148  0.00  0.00     0.163 HD
BRANCH  62  65
ATOM     65  CA  GLY d   1     -83.118 127.617 232.375  0.00  0.00     0.152 C 
ATOM     66  H4  GLY d   1     -83.344 127.151 233.346  0.00  0.00     0.090 H 
ATOM     67  H5  GLY d   1     -82.485 128.503 232.531  0.00  0.00     0.090 H 
BRANCH  65  68
ATOM     68  N   GLY d   1     -84.362 128.037 231.761  0.00  0.00    -0.071 N 
ATOM     69  H1  GLY d   1     -84.829 128.696 232.364  0.00  0.00     0.274 HD
ATOM     70  H2  GLY d   1     -84.955 127.234 231.619  0.00  0.00     0.274 HD
ATOM     71  H3  GLY d   1     -84.168 128.473 230.873  0.00  0.00     0.274 HD
ENDBRANCH  65  68
ENDBRANCH  62  65
ENDBRANCH  59  61
BRANCH  59  72
ATOM     72  CB  MET d   1     -79.157 124.985 232.022  0.00  0.00    -0.030 C 
ATOM     73  H8  MET d   1     -79.188 124.751 233.096  0.00  0.00     0.037 H 
ATOM     74  H9  MET d   1     -78.793 126.013 231.881  0.00  0.00     0.037 H 
BRANCH  72  75
ATOM     75  CG  MET d   1     -78.160 124.027 231.352  0.00  0.00    -0.021 C 
ATOM     76  H10 MET d   1     -78.043 124.340 230.304  0.00  0.00     0.049 H 
ATOM     77  H11 MET d   1     -78.589 123.015 231.387  0.00  0.00     0.049 H 
BRANCH  75  78
ATOM     78  SD  MET d   1     -76.507 123.957 232.100  0.00  0.00    -0.173 SA
BRANCH  78  79
ATOM     79  CE  MET d   1     -76.814 122.956 233.555  0.00  0.00    -0.035 C 
ATOM     80  H12 MET d   1     -75.877 122.829 234.117  0.00  0.00     0.041 H 
ATOM     81  H13 MET d   1     -77.195 121.971 233.249  0.00  0.00     0.041 H 
ATOM     82  H14 MET d   1     -77.559 123.455 234.193  0.00  0.00     0.041 H 
ENDBRANCH  78  79
ENDBRANCH  75  78
ENDBRANCH  72  75
ENDBRANCH  59  72
ENDBRANCH  47  59
ENDBRANCH   1  45
TORSDOF 20
