REMARK  8 active torsions:
REMARK  status: ('A' for Active; 'I' for Inactive)
REMARK    1  A    between atoms: N13_17  and  C17_1 
REMARK    2  A    between atoms: C22_4  and  S30_22 
REMARK    3  A    between atoms: C23_5  and  C26_7 
REMARK    4  A    between atoms: S12_16  and  C06_11 
REMARK    5  A    between atoms: S12_16  and  N13_17 
REMARK    6  A    between atoms: S30_22  and  N33_25 
REMARK    7  A    between atoms: N33_25  and  C35_26 
REMARK    8  A    between atoms: C42_31  and  C43_32 
ROOT
ATOM      1  C17 8L9 d   1      -2.359 126.821 157.854  0.00  0.00     0.043 A 
ATOM      2  C18 8L9 d   1      -1.295 126.663 158.738  0.00  0.00    -0.055 A 
ATOM      3  C20 8L9 d   1      -0.597 125.448 158.791  0.00  0.00    -0.057 A 
ATOM      4  C22 8L9 d   1      -0.951 124.359 157.961  0.00  0.00     0.097 A 
ATOM      5  C23 8L9 d   1      -2.022 124.508 157.049  0.00  0.00     0.066 A 
ATOM      6  C24 8L9 d   1      -2.708 125.740 157.013  0.00  0.00    -0.038 A 
ATOM      7  H1  8L9 d   1      -1.005 127.481 159.387  0.00  0.00     0.087 H 
ATOM      8  H2  8L9 d   1       0.231 125.341 159.482  0.00  0.00     0.086 H 
ATOM      9  H3  8L9 d   1      -3.530 125.862 156.317  0.00  0.00     0.088 H 
ENDROOT
BRANCH   4  10
ATOM     10  S30 8L9 d   1       0.004 122.857 158.063  0.00  0.00     0.264 S 
ATOM     11  O31 8L9 d   1       0.262 122.571 156.673  0.00  0.00    -0.200 OA
ATOM     12  O32 8L9 d   1       1.164 123.103 158.885  0.00  0.00    -0.200 OA
BRANCH  10  13
ATOM     13  N33 8L9 d   1      -0.966 121.624 158.791  0.00  0.00    -0.280 N 
ATOM     14  H8  8L9 d   1      -1.416 120.958 158.196  0.00  0.00     0.179 HD
BRANCH  13  15
ATOM     15  C35 8L9 d   1      -1.157 121.512 160.222  0.00  0.00     0.050 A 
ATOM     16  C36 8L9 d   1      -2.074 122.394 160.817  0.00  0.00    -0.036 A 
ATOM     17  C38 8L9 d   1      -2.309 122.342 162.197  0.00  0.00     0.051 A 
ATOM     18  H9  8L9 d   1      -2.602 123.118 160.206  0.00  0.00     0.089 H 
ATOM     19  C39 8L9 d   1      -1.644 121.414 163.006  0.00  0.00     0.134 A 
ATOM     20 BR1  8L9 d   1      -3.552 123.546 162.938  0.00  0.00    -0.048 Br
ATOM     21  C40 8L9 d   1      -0.734 120.527 162.432  0.00  0.00    -0.036 A 
ATOM     22  F1  8L9 d   1      -1.856 121.352 164.333  0.00  0.00    -0.205 F 
ATOM     23  C42 8L9 d   1      -0.480 120.557 161.043  0.00  0.00    -0.032 A 
ATOM     24  H10 8L9 d   1      -0.217 119.808 163.057  0.00  0.00     0.089 H 
BRANCH  23  25
ATOM     25  C43 8L9 d   1       0.511 119.571 160.513  0.00  0.00    -0.049 C 
ATOM     26  H11 8L9 d   1       0.613 119.702 159.426  0.00  0.00     0.033 H 
ATOM     27  H12 8L9 d   1       0.163 118.550 160.728  0.00  0.00     0.033 H 
ATOM     28  H13 8L9 d   1       1.486 119.735 160.995  0.00  0.00     0.033 H 
ENDBRANCH  23  25
ENDBRANCH  13  15
ENDBRANCH  10  13
ENDBRANCH   4  10
BRANCH   5  29
ATOM     29  C26 8L9 d   1      -2.516 123.472 156.107  0.00  0.00     0.211 C 
ATOM     30  O27 8L9 d   1      -3.400 122.647 156.731  0.00  0.00    -0.644 OA
ATOM     31  O29 8L9 d   1      -2.175 123.389 154.940  0.00  0.00    -0.644 OA
ENDBRANCH   5  29
BRANCH   1  32
ATOM     32  N13 8L9 d   1      -3.089 128.060 157.775  0.00  0.00    -0.281 N 
ATOM     33  H7  8L9 d   1      -2.567 128.904 157.654  0.00  0.00     0.179 HD
BRANCH  32  34
ATOM     34  S12 8L9 d   1      -4.788 128.179 157.875  0.00  0.00     0.263 S 
ATOM     35  O15 8L9 d   1      -5.385 126.873 158.088  0.00  0.00    -0.200 OA
ATOM     36  O16 8L9 d   1      -5.140 129.264 158.774  0.00  0.00    -0.200 OA
BRANCH  34  37
ATOM     37  C06 8L9 d   1      -5.236 128.679 156.232  0.00  0.00     0.083 A 
ATOM     38  C04 8L9 d   1      -6.333 129.538 156.049  0.00  0.00    -0.039 A 
ATOM     39  C03 8L9 d   1      -6.688 129.928 154.748  0.00  0.00     0.037 A 
ATOM     40  H5  8L9 d   1      -6.898 129.895 156.902  0.00  0.00     0.088 H 
ATOM     41  C01 8L9 d   1      -5.956 129.455 153.653  0.00  0.00    -0.041 A 
ATOM     42 CL2  8L9 d   1      -8.021 130.988 154.465  0.00  0.00    -0.084 Cl
ATOM     43  C09 8L9 d   1      -4.872 128.600 153.843  0.00  0.00     0.037 A 
ATOM     44  H4  8L9 d   1      -6.234 129.756 152.649  0.00  0.00     0.088 H 
ATOM     45  C07 8L9 d   1      -4.504 128.208 155.128  0.00  0.00    -0.039 A 
ATOM     46 CL1  8L9 d   1      -3.988 128.032 152.474  0.00  0.00    -0.084 Cl
ATOM     47  H6  8L9 d   1      -3.659 127.545 155.276  0.00  0.00     0.088 H 
ENDBRANCH  34  37
ENDBRANCH  32  34
ENDBRANCH   1  32
TORSDOF 8
