REMARK  3 active torsions:
REMARK  status: ('A' for Active; 'I' for Inactive)
REMARK    1  A    between atoms: C10_1  and  N07_10 
REMARK    2  A    between atoms: C11_13  and  C10_1 
REMARK    3  A    between atoms: C03_6  and  N21_21 
ROOT
ATOM      1  C10 8MF d   1       6.117   7.141  21.985  0.00  0.00     0.044 C 
ATOM      2  H1  8MF d   1       6.935   7.767  21.599  0.00  0.00     0.074 H 
ATOM      3  H2  8MF d   1       5.158   7.504  21.586  0.00  0.00     0.074 H 
ENDROOT
BRANCH   1   4
ATOM      4  N07 8MF d   1       6.099   7.193  23.436  0.00  0.00    -0.247 N 
ATOM      5  C05 8MF d   1       7.044   7.867  24.183  0.00  0.00     0.180 A 
ATOM      6  N04 8MF d   1       8.150   8.608  23.861  0.00  0.00    -0.043 NA
ATOM      7  C06 8MF d   1       6.694   7.696  25.534  0.00  0.00     0.072 A 
ATOM      8  C03 8MF d   1       8.904   9.184  24.809  0.00  0.00     0.723 A 
ATOM      9  N02 8MF d   1       8.617   9.033  26.121  0.00  0.00    -0.050 NA
ATOM     10  C01 8MF d   1       7.541   8.316  26.536  0.00  0.00     0.160 A 
ATOM     11 CL1  8MF d   1       7.138   8.125  28.208  0.00  0.00    -0.061 Cl
ATOM     12  C09 8MF d   1       5.480   6.876  25.503  0.00  0.00     0.039 A 
ATOM     13  N08 8MF d   1       5.215   6.634  24.208  0.00  0.00    -0.182 NA
ATOM     14  H4  8MF d   1       4.905   6.530  26.361  0.00  0.00     0.119 H 
BRANCH   8  15
ATOM     15  N21 8MF d   1      10.029   9.925  24.379  0.00  0.00    -0.231 N 
ATOM     16  H8  8MF d   1      10.638  10.385  25.071  0.00  0.00     0.174 HD
ATOM     17  H9  8MF d   1      10.240  10.005  23.374  0.00  0.00     0.174 HD
ENDBRANCH   8  15
ENDBRANCH   1   4
BRANCH   1  18
ATOM     18  C11 8MF d   1       6.331   5.711  21.575  0.00  0.00    -0.018 A 
ATOM     19  C12 8MF d   1       5.257   4.868  21.280  0.00  0.00     0.021 A 
ATOM     20  C13 8MF d   1       5.496   3.552  20.912  0.00  0.00    -0.030 A 
ATOM     21 BR1  8MF d   1       3.435   5.491  21.373  0.00  0.00    -0.050 Br
ATOM     22  C14 8MF d   1       6.815   3.070  20.839  0.00  0.00     0.106 A 
ATOM     23  H3  8MF d   1       4.665   2.895  20.681  0.00  0.00     0.090 H 
ATOM     24  C15 8MF d   1       7.863   3.893  21.128  0.00  0.00     0.105 A 
ATOM     25  O17 8MF d   1       7.325   1.802  20.492  0.00  0.00    -0.323 OA
ATOM     26  C16 8MF d   1       7.624   5.233  21.502  0.00  0.00    -0.039 A 
ATOM     27  O19 8MF d   1       9.066   3.150  20.968  0.00  0.00    -0.323 OA
ATOM     28  H5  8MF d   1       8.457   5.888  21.732  0.00  0.00     0.088 H 
ATOM     29  C18 8MF d   1       8.710   1.969  20.311  0.00  0.00     0.115 C 
ATOM     30  H6  8MF d   1       8.945   2.047  19.239  0.00  0.00     0.118 H 
ATOM     31  H7  8MF d   1       9.254   1.117  20.744  0.00  0.00     0.118 H 
ENDBRANCH   1  18
TORSDOF 3
