REMARK  7 active torsions:
REMARK  status: ('A' for Active; 'I' for Inactive)
REMARK    1  A    between atoms: C10_1  and  N09_14 
REMARK    2  A    between atoms: C11_15  and  C10_1 
REMARK    3  A    between atoms: C13_2  and  O18_19 
REMARK    4  A    between atoms: C12_16  and  C17_4 
REMARK    5  A    between atoms: C14_17  and  C20_5 
REMARK    6  A    between atoms: C02_7  and  N22_22 
REMARK    7  A    between atoms: O18_19  and  C19_20 
ROOT
ATOM      1  C13 8M9 d   1       7.721   3.933  21.034  0.00  0.00     0.083 A 
ATOM      2  C15 8M9 d   1       5.454   4.372  20.310  0.00  0.00     0.011 A 
ATOM      3  C11 8M9 d   1       6.688   6.154  21.155  0.00  0.00     0.062 A 
ATOM      4  C12 8M9 d   1       7.794   5.308  21.374  0.00  0.00    -0.002 A 
ATOM      5  C14 8M9 d   1       6.497   3.470  20.488  0.00  0.00    -0.011 A 
ATOM      6  N16 8M9 d   1       5.583   5.665  20.648  0.00  0.00    -0.263 NA
ATOM      7  H3  8M9 d   1       4.517   4.024  19.890  0.00  0.00     0.115 H 
ENDROOT
BRANCH   3   8
ATOM      8  C10 8M9 d   1       6.762   7.662  21.537  0.00  0.00     0.059 C 
ATOM      9  H1  8M9 d   1       7.717   8.095  21.206  0.00  0.00     0.077 H 
ATOM     10  H2  8M9 d   1       5.930   8.216  21.078  0.00  0.00     0.077 H 
BRANCH   8  11
ATOM     11  N09 8M9 d   1       6.661   7.704  22.988  0.00  0.00    -0.245 N 
ATOM     12  C06 8M9 d   1       7.541   8.358  23.816  0.00  0.00     0.180 A 
ATOM     13  N01 8M9 d   1       8.656   9.121  23.647  0.00  0.00    -0.043 NA
ATOM     14  C05 8M9 d   1       7.089   8.130  25.146  0.00  0.00     0.072 A 
ATOM     15  C02 8M9 d   1       9.323   9.651  24.682  0.00  0.00     0.723 A 
ATOM     16  N03 8M9 d   1       8.937   9.465  25.946  0.00  0.00    -0.050 NA
ATOM     17  C04 8M9 d   1       7.835   8.717  26.221  0.00  0.00     0.160 A 
ATOM     18 CL1  8M9 d   1       7.327   8.472  27.881  0.00  0.00    -0.061 Cl
ATOM     19  C07 8M9 d   1       5.896   7.293  24.997  0.00  0.00     0.039 A 
ATOM     20  N08 8M9 d   1       5.726   7.090  23.678  0.00  0.00    -0.182 NA
ATOM     21  H10 8M9 d   1       5.268   6.909  25.799  0.00  0.00     0.119 H 
BRANCH  15  22
ATOM     22  N22 8M9 d   1      10.474  10.433  24.425  0.00  0.00    -0.231 N 
ATOM     23  H14 8M9 d   1      10.786  10.587  23.456  0.00  0.00     0.174 HD
ATOM     24  H15 8M9 d   1      11.000  10.848  25.207  0.00  0.00     0.174 HD
ENDBRANCH  15  22
ENDBRANCH   8  11
ENDBRANCH   3   8
BRANCH   4  25
ATOM     25  C17 8M9 d   1       9.082   5.879  21.964  0.00  0.00    -0.047 C 
ATOM     26  H4  8M9 d   1       9.828   5.076  22.062  0.00  0.00     0.033 H 
ATOM     27  H5  8M9 d   1       8.873   6.308  22.955  0.00  0.00     0.033 H 
ATOM     28  H6  8M9 d   1       9.473   6.664  21.300  0.00  0.00     0.033 H 
ENDBRANCH   4  25
BRANCH   1  29
ATOM     29  O18 8M9 d   1       8.817   3.065  21.254  0.00  0.00    -0.355 OA
BRANCH  29  30
ATOM     30  C19 8M9 d   1       9.695   2.890  20.170  0.00  0.00     0.010 C 
ATOM     31  H11 8M9 d   1      10.501   2.199  20.459  0.00  0.00     0.066 H 
ATOM     32  H12 8M9 d   1      10.128   3.861  19.888  0.00  0.00     0.066 H 
ATOM     33  H13 8M9 d   1       9.143   2.473  19.315  0.00  0.00     0.066 H 
ENDBRANCH  29  30
ENDBRANCH   1  29
BRANCH   5  34
ATOM     34  C20 8M9 d   1       6.304   2.000  20.089  0.00  0.00    -0.047 C 
ATOM     35  H7  8M9 d   1       7.226   1.439  20.299  0.00  0.00     0.033 H 
ATOM     36  H8  8M9 d   1       6.074   1.939  19.015  0.00  0.00     0.033 H 
ATOM     37  H9  8M9 d   1       5.473   1.569  20.667  0.00  0.00     0.033 H 
ENDBRANCH   5  34
TORSDOF 7
