REMARK  0 active torsions:
REMARK  status: ('A' for Active; 'I' for Inactive)
ROOT
ATOM      1  N1  URA d   1      -8.094 -21.078  -1.559  0.00  0.00    -0.210 NA
ATOM      2  C2  URA d   1      -6.858 -21.480  -2.049  0.00  0.00     0.348 A 
ATOM      3  O2  URA d   1      -5.851 -21.600  -1.247  0.00  0.00    -0.245 OA
ATOM      4  N3  URA d   1      -6.703 -21.772  -3.380  0.00  0.00    -0.277 N 
ATOM      5  C4  URA d   1      -7.778 -21.667  -4.229  0.00  0.00     0.230 A 
ATOM      6  O4  URA d   1      -7.577 -21.961  -5.455  0.00  0.00    -0.273 OA
ATOM      7  C5  URA d   1      -9.033 -21.264  -3.726  0.00  0.00     0.040 A 
ATOM      8  C6  URA d   1      -9.191 -20.962  -2.335  0.00  0.00    -0.004 A 
ATOM      9  H1  URA d   1      -5.812 -22.060  -3.731  0.00  0.00     0.173 HD
ATOM     10  H2  URA d   1      -9.741 -22.074  -3.956  0.00  0.00     0.055 H 
ATOM     11  H3  URA d   1      -9.320 -20.358  -4.281  0.00  0.00     0.055 H 
ATOM     12  H4  URA d   1     -10.151 -20.654  -1.924  0.00  0.00     0.108 H 
ENDROOT
TORSDOF 0
