REMARK WARNING: 32 MAX_TORS EXCEEDED!!!
REMARK  41 active torsions:
REMARK  status: ('A' for Active; 'I' for Inactive)
REMARK    1  A    between atoms: N_1  and  CA_2 
REMARK    2  A    between atoms: CA_2  and  C_3 
REMARK    3  A    between atoms: CA_2  and  CB_5 
REMARK       I    between atoms: C_3  and  N_8 
REMARK    4  A    between atoms: CB_5  and  OG1_6 
REMARK    5  A    between atoms: CB_5  and  CG2_7 
REMARK    6  A    between atoms: N_8  and  CA_9 
REMARK    7  A    between atoms: CA_9  and  C_10 
REMARK    8  A    between atoms: CA_9  and  CB_12 
REMARK       I    between atoms: C_10  and  N_15 
REMARK    9  A    between atoms: CB_12  and  OG1_13 
REMARK   10  A    between atoms: CB_12  and  CG2_14 
REMARK   11  A    between atoms: N_15  and  CA_16 
REMARK   12  A    between atoms: CA_16  and  C_17 
REMARK   13  A    between atoms: CA_16  and  CB_19 
REMARK       I    between atoms: C_17  and  N_24 
REMARK   14  A    between atoms: CB_19  and  CG_20 
REMARK   15  A    between atoms: CG_20  and  CD_21 
REMARK       I    between atoms: CD_21  and  NE2_23 
REMARK   16  A    between atoms: N_24  and  CA_25 
REMARK   17  A    between atoms: CA_25  and  C_26 
REMARK   18  A    between atoms: CA_25  and  CB_28 
REMARK       I    between atoms: C_26  and  N_35 
REMARK   19  A    between atoms: CB_28  and  CG_29 
REMARK   20  A    between atoms: CG_29  and  CD_30 
REMARK   21  A    between atoms: CD_30  and  NE_31 
REMARK       I    between atoms: NE_31  and  CZ_32 
REMARK       I    between atoms: CZ_32  and  NH1_33 
REMARK       I    between atoms: CZ_32  and  NH2_34 
REMARK   22  A    between atoms: N_35  and  CA_36 
REMARK   23  A    between atoms: CA_36  and  C_37 
REMARK   24  A    between atoms: CA_36  and  CB_39 
REMARK       I    between atoms: C_37  and  N_44 
REMARK   25  A    between atoms: CB_39  and  CG_40 
REMARK   26  A    between atoms: CG_40  and  CD_41 
REMARK   27  A    between atoms: CD_41  and  CE_42 
REMARK   28  A    between atoms: CE_42  and  NZ_43 
REMARK   29  A    between atoms: N_44  and  CA_45 
REMARK   30  A    between atoms: CA_45  and  C_46 
REMARK   31  A    between atoms: CA_45  and  CB_48 
REMARK       I    between atoms: C_46  and  N_55 
REMARK   32  A    between atoms: CB_48  and  CG_49 
REMARK   33  A    between atoms: CG_49  and  CD_50 
REMARK   34  A    between atoms: CD_50  and  NE_51 
REMARK       I    between atoms: NE_51  and  CZ_52 
REMARK       I    between atoms: CZ_52  and  NH1_53 
REMARK   35  A    between atoms: N_55  and  CA_56 
REMARK   36  A    between atoms: CA_56  and  C_57 
REMARK   37  A    between atoms: CA_56  and  CB_59 
REMARK       I    between atoms: C_57  and  N_61 
REMARK   38  A    between atoms: CB_59  and  OG_60 
REMARK   39  A    between atoms: N_61  and  CA_62 
REMARK   40  A    between atoms: CA_62  and  C_63 
REMARK   41  A    between atoms: CA_62  and  CB_65 
ROOT
ATOM      1  C   THR d   1      -0.169   7.847  -8.601  0.00  0.00     0.241 C 
ATOM      2  O   THR d   1      -0.714   6.946  -7.955  0.00  0.00    -0.271 OA
ATOM      3  N   THR d   1       1.039   7.718  -9.149  0.00  0.00    -0.346 N 
ATOM      4  H38 THR d   1       1.415   8.457  -9.708  0.00  0.00     0.163 HD
ENDROOT
BRANCH   1   5
ATOM      5  CA  THR d   1      -0.843   9.197  -8.805  0.00  0.00     0.089 C 
ATOM      6  H26 THR d   1      -0.794   9.466  -9.871  0.00  0.00     0.087 H 
BRANCH   5   7
ATOM      7  N   THR d   1      -2.246   9.105  -8.417  0.00  0.00    -0.346 N 
ATOM      8  C   THR d   1      -3.223   9.690  -9.113  0.00  0.00     0.241 C 
ATOM      9  O   THR d   1      -3.022  10.501 -10.020  0.00  0.00    -0.271 OA
ATOM     10  H25 THR d   1      -2.485   8.584  -7.598  0.00  0.00     0.163 HD
BRANCH   8  11
ATOM     11  CA  THR d   1      -4.639   9.294  -8.735  0.00  0.00     0.090 C 
ATOM     12  H18 THR d   1      -4.698   9.099  -7.654  0.00  0.00     0.087 H 
BRANCH  11  13
ATOM     13  N   THR d   1      -5.516  10.406  -9.067  0.00  0.00    -0.346 N 
ATOM     14  C   THR d   1      -6.583  10.747  -8.346  0.00  0.00     0.243 C 
ATOM     15  O   THR d   1      -7.000  10.061  -7.403  0.00  0.00    -0.271 OA
ATOM     16  H17 THR d   1      -5.306  10.945  -9.883  0.00  0.00     0.163 HD
BRANCH  14  17
ATOM     17  CA  THR d   1      -7.304  12.034  -8.725  0.00  0.00     0.113 C 
ATOM     18  H11 THR d   1      -7.101  12.780  -7.943  0.00  0.00     0.091 H 
BRANCH  17  19
ATOM     19  N   THR d   1      -6.824  12.569  -9.994  0.00  0.00    -0.344 N 
ATOM     20  C   THR d   1      -6.264  13.773 -10.108  0.00  0.00     0.251 C 
ATOM     21  O   THR d   1      -6.184  14.569  -9.171  0.00  0.00    -0.271 OA
ATOM     22  H10 THR d   1      -6.919  12.007 -10.816  0.00  0.00     0.163 HD
BRANCH  20  23
ATOM     23  CA  THR d   1      -5.718  14.126 -11.494  0.00  0.00     0.199 C 
ATOM     24  H4  THR d   1      -6.303  13.584 -12.252  0.00  0.00     0.103 H 
BRANCH  23  25
ATOM     25  N   THR d   1      -5.858  15.557 -11.753  0.00  0.00    -0.064 N 
ATOM     26  H1  THR d   1      -6.829  15.818 -11.682  0.00  0.00     0.275 HD
ATOM     27  H2  THR d   1      -5.521  15.765 -12.680  0.00  0.00     0.275 HD
ATOM     28  H3  THR d   1      -5.321  16.075 -11.076  0.00  0.00     0.275 HD
ENDBRANCH  23  25
BRANCH  23  29
ATOM     29  CB  THR d   1      -4.246  13.656 -11.587  0.00  0.00     0.068 C 
ATOM     30  H5  THR d   1      -4.188  12.604 -11.272  0.00  0.00     0.086 H 
BRANCH  29  31
ATOM     31  OG1 THR d   1      -3.426  14.452 -10.714  0.00  0.00    -0.393 OA
ATOM     32  H6  THR d   1      -3.732  14.356  -9.820  0.00  0.00     0.210 HD
ENDBRANCH  29  31
BRANCH  29  33
ATOM     33  CG2 THR d   1      -3.735  13.771 -13.027  0.00  0.00    -0.050 C 
ATOM     34  H7  THR d   1      -2.689  13.433 -13.073  0.00  0.00     0.031 H 
ATOM     35  H8  THR d   1      -3.796  14.819 -13.355  0.00  0.00     0.031 H 
ATOM     36  H9  THR d   1      -4.352  13.143 -13.686  0.00  0.00     0.031 H 
ENDBRANCH  29  33
ENDBRANCH  23  29
ENDBRANCH  20  23
ENDBRANCH  17  19
BRANCH  17  37
ATOM     37  CB  THR d   1      -8.814  11.800  -8.784  0.00  0.00     0.060 C 
ATOM     38  H12 THR d   1      -9.128  11.254  -7.882  0.00  0.00     0.086 H 
BRANCH  37  39
ATOM     39  OG1 THR d   1      -9.128  11.023  -9.941  0.00  0.00    -0.393 OA
ATOM     40  H13 THR d   1     -10.066  10.877  -9.978  0.00  0.00     0.210 HD
ENDBRANCH  37  39
BRANCH  37  41
ATOM     41  CG2 THR d   1      -9.564  13.127  -8.849  0.00  0.00    -0.050 C 
ATOM     42  H14 THR d   1     -10.646  12.935  -8.891  0.00  0.00     0.031 H 
ATOM     43  H15 THR d   1      -9.255  13.679  -9.749  0.00  0.00     0.031 H 
ATOM     44  H16 THR d   1      -9.332  13.724  -7.955  0.00  0.00     0.031 H 
ENDBRANCH  37  41
ENDBRANCH  17  37
ENDBRANCH  14  17
ENDBRANCH  11  13
BRANCH  11  45
ATOM     45  CB  THR d   1      -5.001   8.015  -9.493  0.00  0.00    -0.030 C 
ATOM     46  H19 THR d   1      -4.146   7.326  -9.421  0.00  0.00     0.037 H 
ATOM     47  H20 THR d   1      -5.169   8.282 -10.547  0.00  0.00     0.037 H 
BRANCH  45  48
ATOM     48  CG  THR d   1      -6.213   7.295  -9.004  0.00  0.00     0.011 C 
ATOM     49  H21 THR d   1      -7.074   7.980  -9.029  0.00  0.00     0.047 H 
ATOM     50  H22 THR d   1      -6.041   6.960  -7.971  0.00  0.00     0.047 H 
BRANCH  48  51
ATOM     51  CD  THR d   1      -6.512   6.091  -9.873  0.00  0.00     0.215 C 
ATOM     52  OE1 THR d   1      -6.450   6.175 -11.102  0.00  0.00    -0.274 OA
ATOM     53  NE2 THR d   1      -6.822   4.963  -9.245  0.00  0.00    -0.370 N 
ATOM     54  H23 THR d   1      -7.028   4.138  -9.771  0.00  0.00     0.159 HD
ATOM     55  H24 THR d   1      -6.849   4.938  -8.246  0.00  0.00     0.159 HD
ENDBRANCH  48  51
ENDBRANCH  45  48
ENDBRANCH  11  45
ENDBRANCH   8  11
ENDBRANCH   5   7
BRANCH   5  56
ATOM     56  CB  THR d   1      -0.090  10.256  -8.003  0.00  0.00    -0.036 C 
ATOM     57  H27 THR d   1       0.957  10.258  -8.341  0.00  0.00     0.036 H 
ATOM     58  H28 THR d   1      -0.132   9.971  -6.941  0.00  0.00     0.036 H 
BRANCH  56  59
ATOM     59  CG  THR d   1      -0.620  11.654  -8.129  0.00  0.00    -0.048 C 
ATOM     60  H29 THR d   1      -1.646  11.701  -7.736  0.00  0.00     0.035 H 
ATOM     61  H30 THR d   1      -0.617  11.960  -9.185  0.00  0.00     0.035 H 
BRANCH  59  62
ATOM     62  CD  THR d   1       0.274  12.566  -7.331  0.00  0.00     0.009 C 
ATOM     63  H31 THR d   1       1.089  12.921  -7.979  0.00  0.00     0.064 H 
ATOM     64  H32 THR d   1       0.696  12.001  -6.487  0.00  0.00     0.064 H 
BRANCH  62  65
ATOM     65  NE  THR d   1      -0.447  13.712  -6.815  0.00  0.00    -0.227 N 
ATOM     66  CZ  THR d   1      -0.042  14.411  -5.763  0.00  0.00     0.665 C 
ATOM     67  NH1 THR d   1       1.078  14.069  -5.141  0.00  0.00    -0.235 N 
ATOM     68  NH2 THR d   1      -0.751  15.447  -5.342  0.00  0.00    -0.235 N 
ATOM     69  H34 THR d   1       1.398  14.608  -4.324  0.00  0.00     0.174 HD
ATOM     70  H35 THR d   1       1.628  13.265  -5.475  0.00  0.00     0.174 HD
ATOM     71  H36 THR d   1      -1.620  15.708  -5.829  0.00  0.00     0.174 HD
ATOM     72  H37 THR d   1      -0.433  15.992  -4.528  0.00  0.00     0.174 HD
ATOM     73  H33 THR d   1      -1.316  13.998  -7.288  0.00  0.00     0.177 HD
ENDBRANCH  62  65
ENDBRANCH  59  62
ENDBRANCH  56  59
ENDBRANCH   5  56
ENDBRANCH   1   5
BRANCH   3  74
ATOM     74  CA  THR d   1       1.813   6.504  -8.936  0.00  0.00     0.089 C 
ATOM     75  H39 THR d   1       1.224   5.646  -9.292  0.00  0.00     0.087 H 
BRANCH  74  76
ATOM     76  C   THR d   1       2.098   6.314  -7.449  0.00  0.00     0.241 C 
ATOM     77  O   THR d   1       2.371   7.276  -6.721  0.00  0.00    -0.271 OA
ATOM     78  N   THR d   1       2.014   5.069  -6.989  0.00  0.00    -0.346 N 
ATOM     79  H51 THR d   1       1.795   4.316  -7.609  0.00  0.00     0.163 HD
BRANCH  78  80
ATOM     80  CA  THR d   1       2.244   4.812  -5.575  0.00  0.00     0.089 C 
ATOM     81  H52 THR d   1       1.560   5.449  -4.994  0.00  0.00     0.087 H 
BRANCH  80  82
ATOM     82  C   THR d   1       3.675   5.188  -5.201  0.00  0.00     0.241 C 
ATOM     83  O   THR d   1       4.605   5.077  -6.006  0.00  0.00    -0.271 OA
ATOM     84  N   THR d   1       3.831   5.695  -3.985  0.00  0.00    -0.344 N 
ATOM     85  H64 THR d   1       3.044   5.751  -3.371  0.00  0.00     0.163 HD
BRANCH  84  86
ATOM     86  CA  THR d   1       5.129   6.171  -3.531  0.00  0.00     0.109 C 
ATOM     87  H65 THR d   1       5.513   6.897  -4.263  0.00  0.00     0.090 H 
BRANCH  86  88
ATOM     88  C   THR d   1       6.114   5.013  -3.435  0.00  0.00     0.243 C 
ATOM     89  O   THR d   1       5.744   3.895  -3.068  0.00  0.00    -0.271 OA
ATOM     90  N   THR d   1       7.371   5.288  -3.782  0.00  0.00    -0.345 N 
ATOM     91  H69 THR d   1       7.601   6.218  -4.067  0.00  0.00     0.163 HD
BRANCH  90  92
ATOM     92  CA  THR d   1       8.427   4.272  -3.760  0.00  0.00     0.093 C 
ATOM     93  H70 THR d   1       8.085   3.412  -4.355  0.00  0.00     0.089 H 
BRANCH  92  94
ATOM     94  C   THR d   1       8.717   3.782  -2.342  0.00  0.00     0.196 C 
ATOM     95  O   THR d   1       8.885   4.582  -1.418  0.00  0.00    -0.646 OA
ATOM     96  OXT THR d   1       8.789   2.576  -2.092  0.00  0.00    -0.646 OA
ENDBRANCH  92  94
BRANCH  92  97
ATOM     97  CB  THR d   1       9.700   4.820  -4.395  0.00  0.00    -0.048 C 
ATOM     98  H71 THR d   1      10.483   4.048  -4.372  0.00  0.00     0.030 H 
ATOM     99  H72 THR d   1      10.039   5.703  -3.834  0.00  0.00     0.030 H 
ATOM    100  H73 THR d   1       9.496   5.104  -5.438  0.00  0.00     0.030 H 
ENDBRANCH  92  97
ENDBRANCH  90  92
ENDBRANCH  86  88
BRANCH  86 101
ATOM    101  CB  THR d   1       4.989   6.869  -2.178  0.00  0.00     0.044 C 
ATOM    102  H66 THR d   1       5.942   7.350  -1.913  0.00  0.00     0.077 H 
ATOM    103  H67 THR d   1       4.725   6.128  -1.409  0.00  0.00     0.077 H 
BRANCH 101 104
ATOM    104  OG  THR d   1       3.962   7.859  -2.258  0.00  0.00    -0.398 OA
ATOM    105  H68 THR d   1       4.191   8.498  -2.923  0.00  0.00     0.209 HD
ENDBRANCH 101 104
ENDBRANCH  86 101
ENDBRANCH  84  86
ENDBRANCH  80  82
BRANCH  80 106
ATOM    106  CB  THR d   1       1.938   3.351  -5.226  0.00  0.00    -0.036 C 
ATOM    107  H53 THR d   1       1.073   3.044  -5.832  0.00  0.00     0.036 H 
ATOM    108  H54 THR d   1       1.669   3.318  -4.160  0.00  0.00     0.036 H 
BRANCH 106 109
ATOM    109  CG  THR d   1       3.018   2.337  -5.445  0.00  0.00    -0.048 C 
ATOM    110  H55 THR d   1       3.970   2.715  -5.044  0.00  0.00     0.035 H 
ATOM    111  H56 THR d   1       3.127   2.136  -6.521  0.00  0.00     0.035 H 
BRANCH 109 112
ATOM    112  CD  THR d   1       2.623   1.048  -4.715  0.00  0.00     0.009 C 
ATOM    113  H57 THR d   1       2.766   1.182  -3.633  0.00  0.00     0.064 H 
ATOM    114  H58 THR d   1       3.254   0.219  -5.068  0.00  0.00     0.064 H 
BRANCH 112 115
ATOM    115  NE  THR d   1       1.225   0.742  -4.985  0.00  0.00    -0.227 N 
ATOM    116  CZ  THR d   1       0.391   0.128  -4.152  0.00  0.00     0.665 C 
ATOM    117  NH1 THR d   1       0.790  -0.297  -2.951  0.00  0.00    -0.235 N 
ATOM    118  NH2 THR d   1      -0.857  -0.067  -4.540  0.00  0.00    -0.235 N 
ATOM    119  H60 THR d   1       0.123  -0.770  -2.325  0.00  0.00     0.174 HD
ATOM    120  H61 THR d   1       1.765  -0.152  -2.651  0.00  0.00     0.174 HD
ATOM    121  H62 THR d   1      -1.165   0.261  -5.466  0.00  0.00     0.174 HD
ATOM    122  H63 THR d   1      -1.521  -0.547  -3.916  0.00  0.00     0.174 HD
ATOM    123  H59 THR d   1       0.850   1.026  -5.901  0.00  0.00     0.177 HD
ENDBRANCH 112 115
ENDBRANCH 109 112
ENDBRANCH 106 109
ENDBRANCH  80 106
ENDBRANCH  78  80
ENDBRANCH  74  76
BRANCH  74 124
ATOM    124  CB  THR d   1       3.120   6.561  -9.731  0.00  0.00    -0.038 C 
ATOM    125  H40 THR d   1       3.864   5.933  -9.219  0.00  0.00     0.036 H 
ATOM    126  H41 THR d   1       3.469   7.604  -9.747  0.00  0.00     0.036 H 
BRANCH 124 127
ATOM    127  CG  THR d   1       2.996   6.079 -11.164  0.00  0.00    -0.061 C 
ATOM    128  H42 THR d   1       2.319   6.751 -11.712  0.00  0.00     0.033 H 
ATOM    129  H43 THR d   1       2.582   5.060 -11.166  0.00  0.00     0.033 H 
BRANCH 127 130
ATOM    130  CD  THR d   1       4.357   6.067 -11.857  0.00  0.00    -0.043 C 
ATOM    131  H44 THR d   1       4.637   7.100 -12.111  0.00  0.00     0.035 H 
ATOM    132  H45 THR d   1       4.284   5.470 -12.778  0.00  0.00     0.035 H 
BRANCH 130 133
ATOM    133  CE  THR d   1       5.441   5.465 -10.959  0.00  0.00     0.080 C 
ATOM    134  H46 THR d   1       5.484   6.047 -10.027  0.00  0.00     0.075 H 
ATOM    135  H47 THR d   1       6.406   5.538 -11.481  0.00  0.00     0.075 H 
BRANCH 133 136
ATOM    136  NZ  THR d   1       5.198   4.029 -10.611  0.00  0.00    -0.079 N 
ATOM    137  H48 THR d   1       5.944   3.695 -10.021  0.00  0.00     0.274 HD
ATOM    138  H49 THR d   1       5.166   3.479 -11.455  0.00  0.00     0.274 HD
ATOM    139  H50 THR d   1       4.320   3.946 -10.122  0.00  0.00     0.274 HD
ENDBRANCH 133 136
ENDBRANCH 130 133
ENDBRANCH 127 130
ENDBRANCH 124 127
ENDBRANCH  74 124
ENDBRANCH   3  74
TORSDOF 41
