REMARK WARNING: 32 MAX_TORS EXCEEDED!!!
REMARK  65 active torsions:
REMARK  status: ('A' for Active; 'I' for Inactive)
REMARK    1  A    between atoms: N_1  and  CA_2 
REMARK    2  A    between atoms: CA_2  and  C_3 
REMARK    3  A    between atoms: CA_2  and  CB_5 
REMARK       I    between atoms: C_3  and  N_9 
REMARK    4  A    between atoms: CB_5  and  CG_6 
REMARK       I    between atoms: CG_6  and  ND2_8 
REMARK    5  A    between atoms: N_9  and  CA_10 
REMARK    6  A    between atoms: CA_10  and  C_11 
REMARK    7  A    between atoms: CA_10  and  CB_13 
REMARK       I    between atoms: C_11  and  N_15 
REMARK    8  A    between atoms: CB_13  and  OG_14 
REMARK    9  A    between atoms: N_15  and  CA_16 
REMARK   10  A    between atoms: CA_16  and  C_17 
REMARK   11  A    between atoms: CA_16  and  CB_19 
REMARK       I    between atoms: C_17  and  N_24 
REMARK   12  A    between atoms: CB_19  and  CG_20 
REMARK   13  A    between atoms: CG_20  and  CD_21 
REMARK   14  A    between atoms: CD_21  and  CE_22 
REMARK   15  A    between atoms: CE_22  and  NZ_23 
REMARK   16  A    between atoms: N_24  and  CA_25 
REMARK   17  A    between atoms: CA_25  and  C_26 
REMARK   18  A    between atoms: CA_25  and  CB_28 
REMARK       I    between atoms: C_26  and  N_32 
REMARK   19  A    between atoms: CB_28  and  CG_29 
REMARK   20  A    between atoms: CG_29  and  CD1_30 
REMARK   21  A    between atoms: CG_29  and  CD2_31 
REMARK   22  A    between atoms: N_32  and  CA_33 
REMARK   23  A    between atoms: CA_33  and  C_34 
REMARK   24  A    between atoms: CA_33  and  CB_36 
REMARK       I    between atoms: C_34  and  N_40 
REMARK   25  A    between atoms: CB_36  and  CG_37 
REMARK   26  A    between atoms: CG_37  and  CD1_38 
REMARK   27  A    between atoms: CG_37  and  CD2_39 
REMARK   28  A    between atoms: N_40  and  CA_41 
REMARK   29  A    between atoms: CA_41  and  C_42 
REMARK   30  A    between atoms: CA_41  and  CB_44 
REMARK       I    between atoms: C_42  and  N_46 
REMARK   31  A    between atoms: CB_44  and  OG_45 
REMARK   32  A    between atoms: N_46  and  CA_47 
REMARK   33  A    between atoms: CA_47  and  C_48 
REMARK   34  A    between atoms: CA_47  and  CB_50 
REMARK       I    between atoms: C_48  and  N_54 
REMARK   35  A    between atoms: CB_50  and  CG_51 
REMARK   36  A    between atoms: CG_51  and  CD1_52 
REMARK   37  A    between atoms: CG_51  and  CD2_53 
REMARK   38  A    between atoms: N_54  and  CA_55 
REMARK   39  A    between atoms: CA_55  and  C_56 
REMARK   40  A    between atoms: CA_55  and  CB_58 
REMARK       I    between atoms: C_56  and  N_62 
REMARK   41  A    between atoms: CB_58  and  CG_59 
REMARK   42  A    between atoms: CG_59  and  CD1_60 
REMARK   43  A    between atoms: CG_59  and  CD2_61 
REMARK   44  A    between atoms: N_62  and  CA_63 
REMARK   45  A    between atoms: CA_63  and  C_64 
REMARK   46  A    between atoms: CA_63  and  CB_66 
REMARK       I    between atoms: C_64  and  N_73 
REMARK   47  A    between atoms: CB_66  and  CG_67 
REMARK   48  A    between atoms: CG_67  and  CD_68 
REMARK   49  A    between atoms: CD_68  and  NE_69 
REMARK       I    between atoms: NE_69  and  CZ_70 
REMARK       I    between atoms: CZ_70  and  NH1_71 
REMARK   50  A    between atoms: N_73  and  CA_74 
REMARK   51  A    between atoms: CA_74  and  C_75 
REMARK   52  A    between atoms: CA_74  and  CB_77 
REMARK       I    between atoms: C_75  and  N_79 
REMARK   53  A    between atoms: CB_77  and  OG_78 
REMARK   54  A    between atoms: N_79  and  CA_80 
REMARK   55  A    between atoms: CA_80  and  C_81 
REMARK   56  A    between atoms: CA_80  and  CB_83 
REMARK       I    between atoms: C_81  and  N_88 
REMARK   57  A    between atoms: CB_83  and  CG_84 
REMARK   58  A    between atoms: CG_84  and  CD_85 
REMARK   59  A    between atoms: CD_85  and  CE_86 
REMARK   60  A    between atoms: CE_86  and  NZ_87 
REMARK   61  A    between atoms: N_88  and  CA_89 
REMARK   62  A    between atoms: CA_89  and  C_90 
REMARK   63  A    between atoms: CA_89  and  CB_92 
REMARK   64  A    between atoms: CB_92  and  OG1_93 
REMARK   65  A    between atoms: CB_92  and  CG2_94 
ROOT
ATOM      1  CA  LEU d   1      35.804  11.267 -25.433  0.00  0.00     0.089 C 
ATOM      2  H55 LEU d   1      35.587  11.016 -26.482  0.00  0.00     0.087 H 
ENDROOT
BRANCH   1   3
ATOM      3  N   LEU d   1      37.220  11.027 -25.195  0.00  0.00    -0.346 N 
ATOM      4  C   SER d   1      38.175  11.608 -25.913  0.00  0.00     0.243 C 
ATOM      5  O   SER d   1      37.943  12.347 -26.878  0.00  0.00    -0.271 OA
ATOM      6  H54 LEU d   1      37.484  10.400 -24.462  0.00  0.00     0.163 HD
BRANCH   4   7
ATOM      7  CA  SER d   1      39.604  11.326 -25.449  0.00  0.00     0.109 C 
ATOM      8  H50 SER d   1      40.244  12.161 -25.769  0.00  0.00     0.090 H 
BRANCH   7   9
ATOM      9  N   SER d   1      39.648  11.243 -23.985  0.00  0.00    -0.344 N 
ATOM     10  C   LEU d   1      39.612  12.347 -23.241  0.00  0.00     0.241 C 
ATOM     11  O   LEU d   1      39.551  13.472 -23.742  0.00  0.00    -0.271 OA
ATOM     12  H49 SER d   1      39.706  10.349 -23.541  0.00  0.00     0.163 HD
BRANCH  10  13
ATOM     13  CA  LEU d   1      39.658  12.181 -21.710  0.00  0.00     0.089 C 
ATOM     14  H39 LEU d   1      39.194  13.072 -21.262  0.00  0.00     0.087 H 
BRANCH  13  15
ATOM     15  N   LEU d   1      38.915  11.011 -21.242  0.00  0.00    -0.346 N 
ATOM     16  C   LEU d   1      37.592  10.913 -21.368  0.00  0.00     0.241 C 
ATOM     17  O   LEU d   1      36.903  11.754 -21.954  0.00  0.00    -0.271 OA
ATOM     18  H38 LEU d   1      39.417  10.260 -20.813  0.00  0.00     0.163 HD
BRANCH  16  19
ATOM     19  CA  LEU d   1      36.945   9.682 -20.741  0.00  0.00     0.089 C 
ATOM     20  H28 LEU d   1      35.929   9.582 -21.151  0.00  0.00     0.087 H 
BRANCH  19  21
ATOM     21  N   LEU d   1      37.676   8.453 -21.046  0.00  0.00    -0.346 N 
ATOM     22  C   LYS d   1      37.980   8.095 -22.296  0.00  0.00     0.241 C 
ATOM     23  O   LYS d   1      37.624   8.738 -23.292  0.00  0.00    -0.271 OA
ATOM     24  H27 LEU d   1      37.958   7.860 -20.292  0.00  0.00     0.163 HD
BRANCH  22  25
ATOM     25  CA  LYS d   1      38.812   6.813 -22.456  0.00  0.00     0.089 C 
ATOM     26  H15 LYS d   1      39.127   6.743 -23.508  0.00  0.00     0.087 H 
BRANCH  25  27
ATOM     27  N   LYS d   1      40.019   6.817 -21.627  0.00  0.00    -0.346 N 
ATOM     28  C   SER d   1      40.926   7.789 -21.716  0.00  0.00     0.243 C 
ATOM     29  O   SER d   1      40.820   8.728 -22.504  0.00  0.00    -0.271 OA
ATOM     30  H14 LYS d   1      40.166   6.071 -20.977  0.00  0.00     0.163 HD
BRANCH  28  31
ATOM     31  CA  SER d   1      42.131   7.701 -20.774  0.00  0.00     0.109 C 
ATOM     32  H10 SER d   1      42.658   8.666 -20.814  0.00  0.00     0.090 H 
BRANCH  31  33
ATOM     33  N   SER d   1      41.741   7.459 -19.389  0.00  0.00    -0.344 N 
ATOM     34  C   ASN d   1      41.058   8.341 -18.665  0.00  0.00     0.249 C 
ATOM     35  O   ASN d   1      40.603   9.392 -19.124  0.00  0.00    -0.271 OA
ATOM     36  H9  SER d   1      41.999   6.591 -18.965  0.00  0.00     0.163 HD
BRANCH  34  37
ATOM     37  CA  ASN d   1      40.871   7.972 -17.200  0.00  0.00     0.183 C 
ATOM     38  H4  ASN d   1      40.266   8.756 -16.721  0.00  0.00     0.099 H 
BRANCH  37  39
ATOM     39  N   ASN d   1      40.170   6.701 -17.040  0.00  0.00    -0.066 N 
ATOM     40  H1  ASN d   1      40.068   6.495 -16.059  0.00  0.00     0.275 HD
ATOM     41  H2  ASN d   1      40.700   5.967 -17.484  0.00  0.00     0.275 HD
ATOM     42  H3  ASN d   1      39.259   6.764 -17.467  0.00  0.00     0.275 HD
ENDBRANCH  37  39
BRANCH  37  43
ATOM     43  CB  ASN d   1      42.242   7.927 -16.517  0.00  0.00     0.044 C 
ATOM     44  H5  ASN d   1      42.905   7.275 -17.104  0.00  0.00     0.051 H 
ATOM     45  H6  ASN d   1      42.117   7.510 -15.507  0.00  0.00     0.051 H 
BRANCH  43  46
ATOM     46  CG  ASN d   1      42.890   9.298 -16.399  0.00  0.00     0.217 C 
ATOM     47  OD1 ASN d   1      42.206  10.316 -16.274  0.00  0.00    -0.274 OA
ATOM     48  ND2 ASN d   1      44.221   9.329 -16.444  0.00  0.00    -0.370 N 
ATOM     49  H7  ASN d   1      44.703  10.202 -16.371  0.00  0.00     0.159 HD
ATOM     50  H8  ASN d   1      44.738   8.479 -16.550  0.00  0.00     0.159 HD
ENDBRANCH  43  46
ENDBRANCH  37  43
ENDBRANCH  34  37
ENDBRANCH  31  33
BRANCH  31  51
ATOM     51  CB  SER d   1      43.099   6.606 -21.231  0.00  0.00     0.044 C 
ATOM     52  H11 SER d   1      43.959   6.577 -20.546  0.00  0.00     0.077 H 
ATOM     53  H12 SER d   1      43.448   6.835 -22.249  0.00  0.00     0.077 H 
BRANCH  51  54
ATOM     54  OG  SER d   1      42.462   5.338 -21.232  0.00  0.00    -0.398 OA
ATOM     55  H13 SER d   1      43.079   4.675 -21.518  0.00  0.00     0.209 HD
ENDBRANCH  51  54
ENDBRANCH  31  51
ENDBRANCH  28  31
ENDBRANCH  25  27
BRANCH  25  56
ATOM     56  CB  LYS d   1      37.945   5.595 -22.131  0.00  0.00    -0.038 C 
ATOM     57  H16 LYS d   1      36.990   5.697 -22.668  0.00  0.00     0.036 H 
ATOM     58  H17 LYS d   1      37.757   5.583 -21.047  0.00  0.00     0.036 H 
BRANCH  56  59
ATOM     59  CG  LYS d   1      38.569   4.275 -22.519  0.00  0.00    -0.061 C 
ATOM     60  H18 LYS d   1      39.531   4.165 -21.996  0.00  0.00     0.033 H 
ATOM     61  H19 LYS d   1      38.739   4.264 -23.606  0.00  0.00     0.033 H 
BRANCH  59  62
ATOM     62  CD  LYS d   1      37.670   3.113 -22.148  0.00  0.00    -0.043 C 
ATOM     63  H20 LYS d   1      36.702   3.232 -22.656  0.00  0.00     0.035 H 
ATOM     64  H21 LYS d   1      37.515   3.112 -21.059  0.00  0.00     0.035 H 
BRANCH  62  65
ATOM     65  CE  LYS d   1      38.291   1.784 -22.564  0.00  0.00     0.080 C 
ATOM     66  H22 LYS d   1      39.269   1.678 -22.071  0.00  0.00     0.075 H 
ATOM     67  H23 LYS d   1      38.429   1.782 -23.655  0.00  0.00     0.075 H 
BRANCH  65  68
ATOM     68  NZ  LYS d   1      37.431   0.625 -22.184  0.00  0.00    -0.079 N 
ATOM     69  H24 LYS d   1      37.874  -0.232 -22.475  0.00  0.00     0.274 HD
ATOM     70  H25 LYS d   1      36.534   0.710 -22.636  0.00  0.00     0.274 HD
ATOM     71  H26 LYS d   1      37.304   0.615 -21.184  0.00  0.00     0.274 HD
ENDBRANCH  65  68
ENDBRANCH  62  65
ENDBRANCH  59  62
ENDBRANCH  56  59
ENDBRANCH  25  56
ENDBRANCH  22  25
ENDBRANCH  19  21
BRANCH  19  72
ATOM     72  CB  LEU d   1      36.841   9.887 -19.227  0.00  0.00    -0.035 C 
ATOM     73  H29 LEU d   1      36.456  10.905 -19.067  0.00  0.00     0.037 H 
ATOM     74  H30 LEU d   1      37.861   9.812 -18.822  0.00  0.00     0.037 H 
BRANCH  72  75
ATOM     75  CG  LEU d   1      35.964   8.944 -18.403  0.00  0.00    -0.059 C 
ATOM     76  H31 LEU d   1      36.274   7.908 -18.606  0.00  0.00     0.038 H 
BRANCH  75  77
ATOM     77  CD1 LEU d   1      36.167   9.228 -16.923  0.00  0.00    -0.073 C 
ATOM     78  H32 LEU d   1      35.536   8.550 -16.330  0.00  0.00     0.028 H 
ATOM     79  H33 LEU d   1      35.888  10.270 -16.708  0.00  0.00     0.028 H 
ATOM     80  H34 LEU d   1      37.223   9.069 -16.661  0.00  0.00     0.028 H 
ENDBRANCH  75  77
BRANCH  75  81
ATOM     81  CD2 LEU d   1      34.503   9.089 -18.795  0.00  0.00    -0.073 C 
ATOM     82  H35 LEU d   1      34.389   8.878 -19.869  0.00  0.00     0.028 H 
ATOM     83  H36 LEU d   1      34.167  10.115 -18.585  0.00  0.00     0.028 H 
ATOM     84  H37 LEU d   1      33.895   8.379 -18.215  0.00  0.00     0.028 H 
ENDBRANCH  75  81
ENDBRANCH  72  75
ENDBRANCH  19  72
ENDBRANCH  16  19
ENDBRANCH  13  15
BRANCH  13  85
ATOM     85  CB  LEU d   1      41.116  12.110 -21.240  0.00  0.00    -0.035 C 
ATOM     86  H40 LEU d   1      41.583  11.259 -21.758  0.00  0.00     0.037 H 
ATOM     87  H41 LEU d   1      41.099  11.915 -20.158  0.00  0.00     0.037 H 
BRANCH  85  88
ATOM     88  CG  LEU d   1      42.021  13.328 -21.465  0.00  0.00    -0.059 C 
ATOM     89  H42 LEU d   1      41.384  14.225 -21.448  0.00  0.00     0.038 H 
BRANCH  88  90
ATOM     90  CD1 LEU d   1      43.026  13.439 -20.335  0.00  0.00    -0.073 C 
ATOM     91  H43 LEU d   1      43.671  14.314 -20.503  0.00  0.00     0.028 H 
ATOM     92  H44 LEU d   1      43.643  12.529 -20.303  0.00  0.00     0.028 H 
ATOM     93  H45 LEU d   1      42.493  13.555 -19.380  0.00  0.00     0.028 H 
ENDBRANCH  88  90
BRANCH  88  94
ATOM     94  CD2 LEU d   1      42.738  13.299 -22.807  0.00  0.00    -0.073 C 
ATOM     95  H46 LEU d   1      41.998  13.218 -23.617  0.00  0.00     0.028 H 
ATOM     96  H47 LEU d   1      43.416  12.433 -22.842  0.00  0.00     0.028 H 
ATOM     97  H48 LEU d   1      43.319  14.225 -22.932  0.00  0.00     0.028 H 
ENDBRANCH  88  94
ENDBRANCH  85  88
ENDBRANCH  13  85
ENDBRANCH  10  13
ENDBRANCH   7   9
BRANCH   7  98
ATOM     98  CB  SER d   1      40.140  10.041 -26.084  0.00  0.00     0.044 C 
ATOM     99  H51 SER d   1      40.083  10.130 -27.179  0.00  0.00     0.077 H 
ATOM    100  H52 SER d   1      39.525   9.192 -25.752  0.00  0.00     0.077 H 
BRANCH  98 101
ATOM    101  OG  SER d   1      41.491   9.812 -25.706  0.00  0.00    -0.398 OA
ATOM    102  H53 SER d   1      41.545   9.731 -24.761  0.00  0.00     0.209 HD
ENDBRANCH  98 101
ENDBRANCH   7  98
ENDBRANCH   4   7
ENDBRANCH   1   3
BRANCH   1 103
ATOM    103  C   LEU d   1      35.416  12.739 -25.210  0.00  0.00     0.241 C 
ATOM    104  O   LEU d   1      34.481  13.242 -25.842  0.00  0.00    -0.271 OA
ATOM    105  N   LEU d   1      36.138  13.427 -24.322  0.00  0.00    -0.346 N 
ATOM    106  H65 LEU d   1      36.859  12.954 -23.816  0.00  0.00     0.163 HD
BRANCH 105 107
ATOM    107  CA  LEU d   1      35.909  14.853 -24.064  0.00  0.00     0.089 C 
ATOM    108  H66 LEU d   1      34.828  15.040 -24.140  0.00  0.00     0.087 H 
BRANCH 107 109
ATOM    109  C   LEU d   1      36.617  15.750 -25.097  0.00  0.00     0.241 C 
ATOM    110  O   LEU d   1      36.088  16.796 -25.492  0.00  0.00    -0.271 OA
ATOM    111  N   ARG d   1      37.814  15.343 -25.517  0.00  0.00    -0.346 N 
ATOM    112  H76 ARG d   1      38.224  14.534 -25.095  0.00  0.00     0.163 HD
BRANCH 111 113
ATOM    113  CA  ARG d   1      38.550  16.038 -26.574  0.00  0.00     0.089 C 
ATOM    114  H77 ARG d   1      38.638  17.100 -26.300  0.00  0.00     0.087 H 
BRANCH 113 115
ATOM    115  C   ARG d   1      37.785  15.934 -27.887  0.00  0.00     0.241 C 
ATOM    116  O   ARG d   1      37.761  16.869 -28.690  0.00  0.00    -0.271 OA
ATOM    117  N   SER d   1      37.167  14.775 -28.088  0.00  0.00    -0.344 N 
ATOM    118  H89 SER d   1      37.350  14.023 -27.455  0.00  0.00     0.163 HD
BRANCH 117 119
ATOM    119  CA  SER d   1      36.238  14.547 -29.183  0.00  0.00     0.109 C 
ATOM    120  H90 SER d   1      36.798  14.592 -30.129  0.00  0.00     0.090 H 
BRANCH 119 121
ATOM    121  C   SER d   1      35.145  15.610 -29.223  0.00  0.00     0.243 C 
ATOM    122  O   SER d   1      34.791  16.111 -30.288  0.00  0.00    -0.271 OA
ATOM    123  N   LYS d   1      34.617  15.949 -28.053  0.00  0.00    -0.346 N 
ATOM    124  H94 LYS d   1      34.959  15.517 -27.219  0.00  0.00     0.163 HD
BRANCH 123 125
ATOM    125  CA  LYS d   1      33.553  16.933 -27.958  0.00  0.00     0.089 C 
ATOM    126  H95 LYS d   1      32.941  16.807 -28.863  0.00  0.00     0.087 H 
BRANCH 125 127
ATOM    127  C   LYS d   1      34.008  18.371 -27.969  0.00  0.00     0.241 C 
ATOM    128  O   LYS d   1      33.196  19.260 -28.047  0.00  0.00    -0.271 OA
ATOM    129  N   THR d   1      35.306  18.609 -27.923  0.00  0.00    -0.343 N 
ATOM    130 7H10 THR d   1      35.945  17.847 -27.821  0.00  0.00     0.163 HD
BRANCH 129 131
ATOM    131  CA  THR d   1      35.819  19.977 -28.020  0.00  0.00     0.120 C 
ATOM    132 8H10 THR d   1      34.957  20.660 -28.001  0.00  0.00     0.093 H 
BRANCH 131 133
ATOM    133  C   THR d   1      36.572  20.188 -29.321  0.00  0.00     0.199 C 
ATOM    134  O   THR d   1      35.985  20.580 -30.330  0.00  0.00    -0.646 OA
ATOM    135  OXT THR d   1      37.782  19.971 -29.389  0.00  0.00    -0.646 OA
ENDBRANCH 131 133
BRANCH 131 136
ATOM    136  CB  THR d   1      36.748  20.341 -26.846  0.00  0.00     0.061 C 
ATOM    137 9H10 THR d   1      37.483  19.536 -26.701  0.00  0.00     0.086 H 
BRANCH 136 138
ATOM    138  OG1 THR d   1      35.967  20.500 -25.659  0.00  0.00    -0.393 OA
ATOM    139 0H11 THR d   1      36.538  20.724 -24.933  0.00  0.00     0.210 HD
ENDBRANCH 136 138
BRANCH 136 140
ATOM    140  CG2 THR d   1      37.480  21.654 -27.126  0.00  0.00    -0.050 C 
ATOM    141 1H11 THR d   1      38.137  21.896 -26.277  0.00  0.00     0.031 H 
ATOM    142 2H11 THR d   1      36.745  22.461 -27.263  0.00  0.00     0.031 H 
ATOM    143 3H11 THR d   1      38.084  21.549 -28.039  0.00  0.00     0.031 H 
ENDBRANCH 136 140
ENDBRANCH 131 136
ENDBRANCH 129 131
ENDBRANCH 125 127
BRANCH 125 144
ATOM    144  CB  LYS d   1      32.659  16.632 -26.788  0.00  0.00    -0.038 C 
ATOM    145  H96 LYS d   1      31.806  17.326 -26.814  0.00  0.00     0.036 H 
ATOM    146  H97 LYS d   1      33.232  16.789 -25.862  0.00  0.00     0.036 H 
BRANCH 144 147
ATOM    147  CG  LYS d   1      32.124  15.214 -26.787  0.00  0.00    -0.061 C 
ATOM    148  H98 LYS d   1      32.022  14.876 -25.745  0.00  0.00     0.033 H 
ATOM    149  H99 LYS d   1      32.839  14.566 -27.315  0.00  0.00     0.033 H 
BRANCH 147 150
ATOM    150  CD  LYS d   1      30.775  15.105 -27.468  0.00  0.00    -0.043 C 
ATOM    151 0H10 LYS d   1      30.842  15.533 -28.479  0.00  0.00     0.035 H 
ATOM    152 1H10 LYS d   1      30.026  15.660 -26.884  0.00  0.00     0.035 H 
BRANCH 150 153
ATOM    153  CE  LYS d   1      30.359  13.653 -27.565  0.00  0.00     0.080 C 
ATOM    154 2H10 LYS d   1      30.054  13.309 -26.566  0.00  0.00     0.075 H 
ATOM    155 3H10 LYS d   1      31.223  13.064 -27.908  0.00  0.00     0.075 H 
BRANCH 153 156
ATOM    156  NZ  LYS d   1      29.234  13.429 -28.503  0.00  0.00    -0.079 N 
ATOM    157 4H10 LYS d   1      29.004  12.448 -28.524  0.00  0.00     0.274 HD
ATOM    158 5H10 LYS d   1      29.501  13.731 -29.427  0.00  0.00     0.274 HD
ATOM    159 6H10 LYS d   1      28.431  13.956 -28.197  0.00  0.00     0.274 HD
ENDBRANCH 153 156
ENDBRANCH 150 153
ENDBRANCH 147 150
ENDBRANCH 144 147
ENDBRANCH 125 144
ENDBRANCH 123 125
ENDBRANCH 119 121
BRANCH 119 160
ATOM    160  CB  SER d   1      35.616  13.155 -29.047  0.00  0.00     0.044 C 
ATOM    161  H91 SER d   1      35.115  13.081 -28.071  0.00  0.00     0.077 H 
ATOM    162  H92 SER d   1      36.413  12.399 -29.108  0.00  0.00     0.077 H 
BRANCH 160 163
ATOM    163  OG  SER d   1      34.671  12.910 -30.068  0.00  0.00    -0.398 OA
ATOM    164  H93 SER d   1      34.304  12.041 -29.956  0.00  0.00     0.209 HD
ENDBRANCH 160 163
ENDBRANCH 119 160
ENDBRANCH 117 119
ENDBRANCH 113 115
BRANCH 113 165
ATOM    165  CB  ARG d   1      39.959  15.459 -26.730  0.00  0.00    -0.036 C 
ATOM    166  H78 ARG d   1      39.867  14.395 -26.994  0.00  0.00     0.036 H 
ATOM    167  H79 ARG d   1      40.480  15.554 -25.766  0.00  0.00     0.036 H 
BRANCH 165 168
ATOM    168  CG  ARG d   1      40.802  16.146 -27.798  0.00  0.00    -0.048 C 
ATOM    169  H80 ARG d   1      40.861  17.220 -27.569  0.00  0.00     0.035 H 
ATOM    170  H81 ARG d   1      40.321  16.005 -28.777  0.00  0.00     0.035 H 
BRANCH 168 171
ATOM    171  CD  ARG d   1      42.224  15.571 -27.855  0.00  0.00     0.009 C 
ATOM    172  H82 ARG d   1      42.675  15.644 -26.855  0.00  0.00     0.064 H 
ATOM    173  H83 ARG d   1      42.816  16.163 -28.568  0.00  0.00     0.064 H 
BRANCH 171 174
ATOM    174  NE  ARG d   1      42.240  14.170 -28.278  0.00  0.00    -0.227 N 
ATOM    175  CZ  ARG d   1      42.199  13.769 -29.546  0.00  0.00     0.665 C 
ATOM    176  NH1 ARG d   1      42.137  14.667 -30.528  0.00  0.00    -0.235 N 
ATOM    177  NH2 ARG d   1      42.221  12.471 -29.834  0.00  0.00    -0.235 N 
ATOM    178  H85 ARG d   1      42.105  14.356 -31.509  0.00  0.00     0.174 HD
ATOM    179  H86 ARG d   1      42.121  15.673 -30.306  0.00  0.00     0.174 HD
ATOM    180  H87 ARG d   1      42.269  11.776 -29.075  0.00  0.00     0.174 HD
ATOM    181  H88 ARG d   1      42.190  12.161 -30.816  0.00  0.00     0.174 HD
ATOM    182  H84 ARG d   1      42.286  13.447 -27.546  0.00  0.00     0.177 HD
ENDBRANCH 171 174
ENDBRANCH 168 171
ENDBRANCH 165 168
ENDBRANCH 113 165
ENDBRANCH 111 113
ENDBRANCH 107 109
BRANCH 107 183
ATOM    183  CB  LEU d   1      36.360  15.217 -22.641  0.00  0.00    -0.035 C 
ATOM    184  H67 LEU d   1      37.364  14.792 -22.497  0.00  0.00     0.037 H 
ATOM    185  H68 LEU d   1      35.656  14.741 -21.942  0.00  0.00     0.037 H 
BRANCH 183 186
ATOM    186  CG  LEU d   1      36.436  16.701 -22.271  0.00  0.00    -0.059 C 
ATOM    187  H69 LEU d   1      37.136  17.191 -22.964  0.00  0.00     0.038 H 
BRANCH 186 188
ATOM    188  CD1 LEU d   1      35.084  17.377 -22.413  0.00  0.00    -0.073 C 
ATOM    189  H70 LEU d   1      35.175  18.439 -22.140  0.00  0.00     0.028 H 
ATOM    190  H71 LEU d   1      34.358  16.888 -21.747  0.00  0.00     0.028 H 
ATOM    191  H72 LEU d   1      34.740  17.294 -23.455  0.00  0.00     0.028 H 
ENDBRANCH 186 188
BRANCH 186 192
ATOM    192  CD2 LEU d   1      36.969  16.866 -20.864  0.00  0.00    -0.073 C 
ATOM    193  H73 LEU d   1      37.947  16.370 -20.782  0.00  0.00     0.028 H 
ATOM    194  H74 LEU d   1      36.267  16.411 -20.150  0.00  0.00     0.028 H 
ATOM    195  H75 LEU d   1      37.080  17.937 -20.637  0.00  0.00     0.028 H 
ENDBRANCH 186 192
ENDBRANCH 183 186
ENDBRANCH 107 183
ENDBRANCH 105 107
ENDBRANCH   1 103
BRANCH   1 196
ATOM    196  CB  LEU d   1      34.976  10.349 -24.536  0.00  0.00    -0.035 C 
ATOM    197  H56 LEU d   1      35.156  10.651 -23.494  0.00  0.00     0.037 H 
ATOM    198  H57 LEU d   1      35.337   9.321 -24.688  0.00  0.00     0.037 H 
BRANCH 196 199
ATOM    199  CG  LEU d   1      33.472  10.347 -24.761  0.00  0.00    -0.059 C 
ATOM    200  H58 LEU d   1      33.052  11.283 -24.364  0.00  0.00     0.038 H 
BRANCH 199 201
ATOM    201  CD1 LEU d   1      33.146  10.261 -26.236  0.00  0.00    -0.073 C 
ATOM    202  H59 LEU d   1      32.054  10.261 -26.371  0.00  0.00     0.028 H 
ATOM    203  H60 LEU d   1      33.566   9.333 -26.651  0.00  0.00     0.028 H 
ATOM    204  H61 LEU d   1      33.580  11.126 -26.759  0.00  0.00     0.028 H 
ENDBRANCH 199 201
BRANCH 199 205
ATOM    205  CD2 LEU d   1      32.865   9.179 -24.012  0.00  0.00    -0.073 C 
ATOM    206  H62 LEU d   1      33.113   9.260 -22.943  0.00  0.00     0.028 H 
ATOM    207  H63 LEU d   1      33.269   8.237 -24.412  0.00  0.00     0.028 H 
ATOM    208  H64 LEU d   1      31.772   9.191 -24.137  0.00  0.00     0.028 H 
ENDBRANCH 199 205
ENDBRANCH 196 199
ENDBRANCH   1 196
TORSDOF 65
