REMARK  7 active torsions:
REMARK  status: ('A' for Active; 'I' for Inactive)
REMARK       I    between atoms: C7_2  and  N9_3 
REMARK    1  A    between atoms: C7_2  and  C5_4 
REMARK    2  A    between atoms: C4_7  and  N10_10 
REMARK    3  A    between atoms: N10_10  and  C11_11 
REMARK    4  A    between atoms: C15_13  and  O11_17 
REMARK    5  A    between atoms: O11_17  and  C17_18 
REMARK    6  A    between atoms: C17_18  and  C18_19 
REMARK    7  A    between atoms: C18_19  and  C24_20 
ROOT
ATOM      1  C11 8NO d   1      50.740  56.134  23.100  0.00  0.00     0.035 A 
ATOM      2  C16 8NO d   1      50.001  57.325  23.305  0.00  0.00    -0.025 A 
ATOM      3  C15 8NO d   1      50.569  58.405  23.998  0.00  0.00     0.070 A 
ATOM      4  C14 8NO d   1      51.841  58.277  24.566  0.00  0.00    -0.051 A 
ATOM      5  C13 8NO d   1      52.593  57.114  24.331  0.00  0.00    -0.078 A 
ATOM      6  C12 8NO d   1      52.031  56.045  23.614  0.00  0.00    -0.057 A 
ATOM      7  H8  8NO d   1      48.989  57.403  22.924  0.00  0.00     0.091 H 
ATOM      8  H9  8NO d   1      52.244  59.071  25.184  0.00  0.00     0.087 H 
ATOM      9  H10 8NO d   1      53.608  57.041  24.703  0.00  0.00     0.083 H 
ATOM     10  H11 8NO d   1      52.609  55.141  23.459  0.00  0.00     0.086 H 
ENDROOT
BRANCH   3  11
ATOM     11  O11 8NO d   1      49.866  59.602  24.111  0.00  0.00    -0.351 OA
BRANCH  11  12
ATOM     12  C17 8NO d   1      48.886  59.510  25.143  0.00  0.00     0.030 C 
ATOM     13  H12 8NO d   1      49.390  59.353  26.108  0.00  0.00     0.075 H 
ATOM     14  H13 8NO d   1      48.220  58.660  24.935  0.00  0.00     0.075 H 
BRANCH  12  15
ATOM     15  C18 8NO d   1      48.050  60.805  25.211  0.00  0.00    -0.021 C 
ATOM     16  H14 8NO d   1      48.370  61.481  24.405  0.00  0.00     0.043 H 
ATOM     17  H15 8NO d   1      48.218  61.289  26.184  0.00  0.00     0.043 H 
BRANCH  15  18
ATOM     18  C24 8NO d   1      46.564  60.511  25.052  0.00  0.00    -0.056 A 
ATOM     19  C23 8NO d   1      46.133  59.243  24.638  0.00  0.00    -0.077 A 
ATOM     20  C22 8NO d   1      44.768  58.997  24.443  0.00  0.00    -0.082 A 
ATOM     21  H16 8NO d   1      46.856  58.453  24.469  0.00  0.00     0.084 H 
ATOM     22  C21 8NO d   1      43.830  59.986  24.751  0.00  0.00    -0.083 A 
ATOM     23  H17 8NO d   1      44.440  58.040  24.053  0.00  0.00     0.083 H 
ATOM     24  C20 8NO d   1      44.257  61.263  25.131  0.00  0.00    -0.082 A 
ATOM     25  H18 8NO d   1      42.770  59.764  24.695  0.00  0.00     0.083 H 
ATOM     26  C19 8NO d   1      45.622  61.517  25.306  0.00  0.00    -0.077 A 
ATOM     27  H19 8NO d   1      43.532  62.053  25.289  0.00  0.00     0.083 H 
ATOM     28  H20 8NO d   1      45.952  62.495  25.639  0.00  0.00     0.084 H 
ENDBRANCH  15  18
ENDBRANCH  12  15
ENDBRANCH  11  12
ENDBRANCH   3  11
BRANCH   1  29
ATOM     29  N10 8NO d   1      50.129  55.143  22.348  0.00  0.00    -0.355 N 
ATOM     30  H7  8NO d   1      49.382  55.434  21.702  0.00  0.00     0.166 HD
BRANCH  29  31
ATOM     31  C4  8NO d   1      50.445  53.770  22.394  0.00  0.00     0.048 A 
ATOM     32  C5  8NO d   1      49.866  52.974  21.388  0.00  0.00     0.058 A 
ATOM     33  C6  8NO d   1      50.111  51.566  21.418  0.00  0.00    -0.066 A 
ATOM     34  C1  8NO d   1      50.906  51.009  22.416  0.00  0.00    -0.082 A 
ATOM     35  H3  8NO d   1      49.675  50.928  20.658  0.00  0.00     0.085 H 
ATOM     36  C2  8NO d   1      51.480  51.829  23.394  0.00  0.00    -0.081 A 
ATOM     37  H4  8NO d   1      51.081  49.939  22.436  0.00  0.00     0.083 H 
ATOM     38  C3  8NO d   1      51.253  53.218  23.371  0.00  0.00    -0.056 A 
ATOM     39  H6  8NO d   1      52.100  51.394  24.170  0.00  0.00     0.083 H 
ATOM     40  H5  8NO d   1      51.712  53.855  24.119  0.00  0.00     0.086 H 
BRANCH  32  41
ATOM     41  C7  8NO d   1      49.042  53.510  20.346  0.00  0.00     0.251 C 
ATOM     42  O8  8NO d   1      49.096  54.718  19.991  0.00  0.00    -0.268 OA
ATOM     43  N9  8NO d   1      48.173  52.696  19.732  0.00  0.00    -0.366 N 
ATOM     44  H1  8NO d   1      48.115  51.734  19.999  0.00  0.00     0.159 HD
ATOM     45  H2  8NO d   1      47.583  53.050  19.007  0.00  0.00     0.159 HD
ENDBRANCH  32  41
ENDBRANCH  29  31
ENDBRANCH   1  29
TORSDOF 7
