REMARK  6 active torsions:
REMARK  status: ('A' for Active; 'I' for Inactive)
REMARK    1  A    between atoms: SBD_7  and  CAA_6 
REMARK    2  A    between atoms: CAV_10  and  SBD_7 
REMARK    3  A    between atoms: CAU_15  and  NAR_16 
REMARK    4  A    between atoms: C2_22  and  NAS_23 
REMARK    5  A    between atoms: NAS_23  and  CBC_24 
REMARK    6  A    between atoms: CBB_29  and  NAB_30 
ROOT
ATOM      1  C4  8OR d   1      11.988  -2.248  12.128  0.00  0.00     0.078 A 
ATOM      2  C5  8OR d   1      12.728  -1.264  12.811  0.00  0.00     0.106 A 
ATOM      3  C6  8OR d   1      14.137  -1.213  12.594  0.00  0.00     0.165 A 
ATOM      4  N1  8OR d   1      14.704  -2.134  11.751  0.00  0.00    -0.044 NA
ATOM      5  N3  8OR d   1      12.617  -3.103  11.310  0.00  0.00    -0.066 NA
ATOM      6  NAR 8OR d   1      14.874  -0.274  13.248  0.00  0.00    -0.340 N 
ATOM      7  CAY 8OR d   1      12.034  -0.375  13.673  0.00  0.00     0.282 A 
ATOM      8  OAC 8OR d   1      12.613   0.508  14.313  0.00  0.00    -0.265 OA
ATOM      9  NAT 8OR d   1      10.662  -0.499  13.812  0.00  0.00    -0.226 NA
ATOM     10  CAO 8OR d   1       9.951  -1.489  13.128  0.00  0.00    -0.009 A 
ATOM     11  CAJ 8OR d   1      10.601  -2.374  12.275  0.00  0.00     0.008 A 
ATOM     12  C2  8OR d   1      13.953  -3.077  11.126  0.00  0.00     0.725 A 
ATOM     13  H8  8OR d   1      14.342   0.349  13.873  0.00  0.00     0.167 HD
ATOM     14  H9  8OR d   1       8.874  -1.568  13.265  0.00  0.00     0.108 H 
ATOM     15  H10 8OR d   1      10.402  -3.390  12.646  0.00  0.00     0.050 H 
ATOM     16  H11 8OR d   1      10.154  -2.254  11.277  0.00  0.00     0.050 H 
ENDROOT
BRANCH  12  17
ATOM     17  NAS 8OR d   1      14.436  -4.001  10.275  0.00  0.00    -0.216 N 
ATOM     18  H12 8OR d   1      13.763  -4.383   9.595  0.00  0.00     0.178 HD
BRANCH  17  19
ATOM     19  CBC 8OR d   1      15.817  -4.539  10.193  0.00  0.00     0.053 C 
ATOM     20  CAN 8OR d   1      16.793  -3.466   9.686  0.00  0.00    -0.044 C 
ATOM     21  CAL 8OR d   1      18.162  -4.103   9.393  0.00  0.00    -0.063 C 
ATOM     22  H14 8OR d   1      16.910  -2.687  10.454  0.00  0.00     0.036 H 
ATOM     23  H15 8OR d   1      16.395  -3.016   8.764  0.00  0.00     0.036 H 
ATOM     24  CAK 8OR d   1      18.715  -4.795  10.649  0.00  0.00    -0.063 C 
ATOM     25  H16 8OR d   1      18.864  -3.320   9.073  0.00  0.00     0.033 H 
ATOM     26  H17 8OR d   1      18.051  -4.846   8.590  0.00  0.00     0.033 H 
ATOM     27  CAM 8OR d   1      17.742  -5.848  11.212  0.00  0.00    -0.037 C 
ATOM     28  H18 8OR d   1      18.898  -4.033  11.421  0.00  0.00     0.033 H 
ATOM     29  H19 8OR d   1      19.663  -5.291  10.392  0.00  0.00     0.033 H 
ATOM     30  CBB 8OR d   1      16.330  -5.252  11.476  0.00  0.00     0.120 C 
ATOM     31  H20 8OR d   1      18.147  -6.236  12.159  0.00  0.00     0.036 H 
ATOM     32  H21 8OR d   1      17.651  -6.671  10.488  0.00  0.00     0.036 H 
ATOM     33  H22 8OR d   1      16.404  -4.502  12.278  0.00  0.00     0.087 H 
ATOM     34  H13 8OR d   1      15.787  -5.319   9.418  0.00  0.00     0.076 H 
BRANCH  30  35
ATOM     35  NAB 8OR d   1      15.423  -6.338  11.937  0.00  0.00    -0.073 N 
ATOM     36  H23 8OR d   1      14.505  -5.958  12.110  0.00  0.00     0.274 HD
ATOM     37  H24 8OR d   1      15.786  -6.741  12.787  0.00  0.00     0.274 HD
ATOM     38  H25 8OR d   1      15.363  -7.050  11.226  0.00  0.00     0.274 HD
ENDBRANCH  30  35
ENDBRANCH  17  19
ENDBRANCH  12  17
BRANCH   6  39
ATOM     39  CAU 8OR d   1      16.212  -0.042  13.193  0.00  0.00     0.033 A 
ATOM     40  CAG 8OR d   1      16.714   1.036  13.952  0.00  0.00    -0.056 A 
ATOM     41  CAI 8OR d   1      18.085   1.327  13.944  0.00  0.00    -0.060 A 
ATOM     42  H5  8OR d   1      16.037   1.641  14.544  0.00  0.00     0.087 H 
ATOM     43  CAV 8OR d   1      18.958   0.538  13.193  0.00  0.00     0.059 A 
ATOM     44  H4  8OR d   1      18.466   2.163  14.520  0.00  0.00     0.085 H 
ATOM     45  CAH 8OR d   1      18.491  -0.524  12.444  0.00  0.00    -0.060 A 
ATOM     46  CAF 8OR d   1      17.125  -0.810  12.450  0.00  0.00    -0.056 A 
ATOM     47  H6  8OR d   1      19.176  -1.127  11.859  0.00  0.00     0.085 H 
ATOM     48  H7  8OR d   1      16.759  -1.647  11.866  0.00  0.00     0.087 H 
BRANCH  43  49
ATOM     49  SBD 8OR d   1      20.686   0.862  13.169  0.00  0.00     0.171 S 
ATOM     50  OAD 8OR d   1      21.074   1.471  14.477  0.00  0.00    -0.223 OA
ATOM     51  OAE 8OR d   1      21.392  -0.445  12.895  0.00  0.00    -0.223 OA
BRANCH  49  52
ATOM     52  CAA 8OR d   1      21.028   2.041  11.881  0.00  0.00     0.020 C 
ATOM     53  H1  8OR d   1      20.506   2.984  12.099  0.00  0.00     0.049 H 
ATOM     54  H2  8OR d   1      20.678   1.643  10.917  0.00  0.00     0.049 H 
ATOM     55  H3  8OR d   1      22.111   2.225  11.831  0.00  0.00     0.049 H 
ENDBRANCH  49  52
ENDBRANCH  43  49
ENDBRANCH   6  39
TORSDOF 6
