REMARK  5 active torsions:
REMARK  status: ('A' for Active; 'I' for Inactive)
REMARK    1  A    between atoms: C6_3  and  NAQ_19 
REMARK    2  A    between atoms: CBA_8  and  OAC_9 
REMARK    3  A    between atoms: NBB_12  and  C2_13 
REMARK    4  A    between atoms: NAQ_19  and  CAS_20 
REMARK    5  A    between atoms: NBC_25  and  CAA_26 
ROOT
ATOM      1  C4  8OU d   1       3.735  -7.109  -2.282  0.00  0.00     0.096 A 
ATOM      2  C5  8OU d   1       3.070  -6.232  -1.388  0.00  0.00     0.107 A 
ATOM      3  C6  8OU d   1       1.701  -6.486  -1.266  0.00  0.00     0.161 A 
ATOM      4  N1  8OU d   1       1.176  -7.552  -1.859  0.00  0.00    -0.044 NA
ATOM      5  N3  8OU d   1       3.096  -8.142  -2.899  0.00  0.00    -0.062 NA
ATOM      6  C2  8OU d   1       1.787  -8.368  -2.679  0.00  0.00     0.727 A 
ATOM      7  CAF 8OU d   1       5.090  -6.931  -2.559  0.00  0.00    -0.038 A 
ATOM      8  CAD 8OU d   1       5.789  -5.888  -1.958  0.00  0.00    -0.018 A 
ATOM      9  NAR 8OU d   1       5.171  -5.062  -1.133  0.00  0.00    -0.333 N 
ATOM     10  CAV 8OU d   1       3.810  -5.201  -0.823  0.00  0.00     0.261 A 
ATOM     11  OAB 8OU d   1       3.326  -4.386  -0.058  0.00  0.00    -0.267 OA
ATOM     12  H11 8OU d   1       5.600  -7.606  -3.244  0.00  0.00     0.089 H 
ATOM     13  H12 8OU d   1       6.849  -5.753  -2.169  0.00  0.00     0.111 H 
ATOM     14  H13 8OU d   1       5.689  -4.315  -0.717  0.00  0.00     0.168 HD
ENDROOT
BRANCH   3  15
ATOM     15  NAQ 8OU d   1       0.741  -6.054  -0.463  0.00  0.00    -0.365 N 
ATOM     16  H14 8OU d   1       0.414  -6.839   0.118  0.00  0.00     0.161 HD
BRANCH  15  17
ATOM     17  CAS 8OU d   1       0.047  -4.960  -0.141  0.00  0.00     0.031 C 
ATOM     18  CAI 8OU d   1      -1.087  -5.787  -0.464  0.00  0.00    -0.015 C 
ATOM     19  CAW 8OU d   1      -2.384  -5.582  -0.307  0.00  0.00    -0.008 A 
ATOM     20  H16 8OU d   1      -0.899  -6.719   0.089  0.00  0.00     0.043 H 
ATOM     21  H17 8OU d   1      -0.979  -5.973  -1.543  0.00  0.00     0.043 H 
ATOM     22  CAH 8OU d   1      -3.446  -6.253  -0.726  0.00  0.00     0.030 A 
ATOM     23  CAY 8OU d   1      -2.842  -4.554   0.348  0.00  0.00     0.060 A 
ATOM     24  NAN 8OU d   1      -4.521  -5.587  -0.300  0.00  0.00    -0.184 NA
ATOM     25  H18 8OU d   1      -3.443  -7.174  -1.308  0.00  0.00     0.118 H 
ATOM     26  NBC 8OU d   1      -4.170  -4.589   0.329  0.00  0.00    -0.274 N 
ATOM     27  CAG 8OU d   1      -1.945  -3.745   0.840  0.00  0.00    -0.057 C 
ATOM     28  CAE 8OU d   1      -0.594  -4.039   0.720  0.00  0.00    -0.079 C 
ATOM     29  H22 8OU d   1      -2.258  -2.834   1.348  0.00  0.00     0.086 H 
ATOM     30  H23 8OU d   1       0.066  -3.482   1.383  0.00  0.00     0.080 H 
ATOM     31  H15 8OU d   1       0.358  -4.267  -0.937  0.00  0.00     0.079 H 
BRANCH  26  32
ATOM     32  CAA 8OU d   1      -5.084  -3.597   0.963  0.00  0.00     0.003 C 
ATOM     33  H19 8OU d   1      -4.490  -2.813   1.455  0.00  0.00     0.059 H 
ATOM     34  H20 8OU d   1      -5.713  -4.103   1.710  0.00  0.00     0.059 H 
ATOM     35  H21 8OU d   1      -5.724  -3.143   0.192  0.00  0.00     0.059 H 
ENDBRANCH  26  32
ENDBRANCH  15  17
ENDBRANCH   3  15
BRANCH   6  36
ATOM     36  NBB 8OU d   1       0.992  -9.315  -3.218  0.00  0.00    -0.214 N 
ATOM     37  CAL 8OU d   1      -0.419  -9.533  -2.757  0.00  0.00     0.014 C 
ATOM     38  CAJ 8OU d   1      -1.314  -8.987  -3.741  0.00  0.00    -0.026 C 
ATOM     39  H1  8OU d   1      -0.609 -10.610  -2.641  0.00  0.00     0.065 H 
ATOM     40  H2  8OU d   1      -0.576  -9.027  -1.793  0.00  0.00     0.065 H 
ATOM     41  CBA 8OU d   1      -0.964  -9.510  -5.176  0.00  0.00     0.038 C 
ATOM     42  H3  8OU d   1      -1.234  -7.890  -3.729  0.00  0.00     0.039 H 
ATOM     43  H4  8OU d   1      -2.344  -9.282  -3.493  0.00  0.00     0.039 H 
ATOM     44  CAK 8OU d   1       0.470  -9.300  -5.572  0.00  0.00    -0.026 C 
ATOM     45  H5  8OU d   1      -1.191 -10.585  -5.225  0.00  0.00     0.083 H 
ATOM     46  CAM 8OU d   1       1.298 -10.002  -4.478  0.00  0.00     0.014 C 
ATOM     47  H7  8OU d   1       0.708  -8.226  -5.606  0.00  0.00     0.039 H 
ATOM     48  H8  8OU d   1       0.669  -9.751  -6.555  0.00  0.00     0.039 H 
ATOM     49  H9  8OU d   1       2.372  -9.921  -4.704  0.00  0.00     0.065 H 
ATOM     50  H10 8OU d   1       1.016 -11.063  -4.410  0.00  0.00     0.065 H 
BRANCH  41  51
ATOM     51  OAC 8OU d   1      -1.786  -8.786  -6.119  0.00  0.00    -0.395 OA
ATOM     52  H6  8OU d   1      -1.593  -9.085  -7.000  0.00  0.00     0.210 HD
ENDBRANCH  41  51
ENDBRANCH   6  36
TORSDOF 5
