REMARK  31 active torsions:
REMARK  status: ('A' for Active; 'I' for Inactive)
REMARK    1  A    between atoms: N_1  and  CA_2 
REMARK    2  A    between atoms: CA_2  and  C_3 
REMARK    3  A    between atoms: CA_2  and  CB_5 
REMARK       I    between atoms: C_3  and  N_12 
REMARK    4  A    between atoms: CB_5  and  CG_6 
REMARK    5  A    between atoms: CG_6  and  CD_7 
REMARK    6  A    between atoms: CD_7  and  NE_8 
REMARK       I    between atoms: NE_8  and  CZ_9 
REMARK       I    between atoms: CZ_9  and  NH1_10 
REMARK       I    between atoms: CZ_9  and  NH2_11 
REMARK    7  A    between atoms: N_12  and  CA_13 
REMARK    8  A    between atoms: CA_13  and  C_14 
REMARK    9  A    between atoms: CA_13  and  CB_16 
REMARK       I    between atoms: C_14  and  N_22 
REMARK   10  A    between atoms: CB_16  and  CG_17 
REMARK   11  A    between atoms: N_22  and  CA_23 
REMARK   12  A    between atoms: CA_23  and  C_24 
REMARK   13  A    between atoms: CA_23  and  CB_26 
REMARK       I    between atoms: C_24  and  N_33 
REMARK   14  A    between atoms: CB_26  and  CG_27 
REMARK   15  A    between atoms: CG_27  and  CD_28 
REMARK   16  A    between atoms: CD_28  and  NE_29 
REMARK       I    between atoms: NE_29  and  CZ_30 
REMARK       I    between atoms: CZ_30  and  NH1_31 
REMARK   17  A    between atoms: N_33  and  CA_34 
REMARK   18  A    between atoms: CA_34  and  CB_35 
REMARK   19  A    between atoms: CA_34  and  C_40 
REMARK   20  A    between atoms: CB_35  and  CG_36 
REMARK   21  A    between atoms: CG_36  and  CD_37 
REMARK   22  A    between atoms: CD_37  and  CE_38 
REMARK   23  A    between atoms: CE_38  and  NZ_39 
REMARK   24  A    between atoms: NZ_39  and  CM1_42 
REMARK   25  A    between atoms: NZ_39  and  CM2_43 
REMARK   26  A    between atoms: NZ_39  and  CM3_44 
REMARK       I    between atoms: C_40  and  N_45 
REMARK   27  A    between atoms: N_45  and  CA_46 
REMARK   28  A    between atoms: CA_46  and  C_47 
REMARK   29  A    between atoms: CA_46  and  CB_49 
REMARK   30  A    between atoms: CB_49  and  CG1_50 
REMARK   31  A    between atoms: CB_49  and  CG2_51 
ROOT
ATOM      1  CA  ARG d   1      -6.895   9.848 -31.417  0.00  0.00     0.089 C 
ATOM      2  H24 ARG d   1      -7.200  10.799 -31.878  0.00  0.00     0.087 H 
ENDROOT
BRANCH   1   3
ATOM      3  N   ARG d   1      -5.709   9.372 -32.083  0.00  0.00    -0.346 N 
ATOM      4  C   ARG d   1      -4.843  10.221 -32.608  0.00  0.00     0.241 C 
ATOM      5  O   ARG d   1      -4.973  11.450 -32.558  0.00  0.00    -0.271 OA
ATOM      6  H23 ARG d   1      -5.540   8.389 -32.149  0.00  0.00     0.163 HD
BRANCH   4   7
ATOM      7  CA  ARG d   1      -3.619   9.599 -33.227  0.00  0.00     0.094 C 
ATOM      8  H17 ARG d   1      -3.727   8.505 -33.254  0.00  0.00     0.088 H 
BRANCH   7   9
ATOM      9  N   ARG d   1      -3.411  10.093 -34.591  0.00  0.00    -0.346 N 
ATOM     10  C   ARG d   1      -3.726   9.399 -35.688  0.00  0.00     0.249 C 
ATOM     11  O   ARG d   1      -4.264   8.284 -35.651  0.00  0.00    -0.271 OA
ATOM     12  H16 ARG d   1      -3.010  11.002 -34.707  0.00  0.00     0.163 HD
BRANCH  10  13
ATOM     13  CA  ARG d   1      -3.424  10.086 -37.039  0.00  0.00     0.176 C 
ATOM     14  H4  ARG d   1      -4.240  10.799 -37.229  0.00  0.00     0.099 H 
BRANCH  13  15
ATOM     15  N   ARG d   1      -2.144  10.872 -37.036  0.00  0.00    -0.067 N 
ATOM     16  H1  ARG d   1      -2.006  11.293 -37.941  0.00  0.00     0.275 HD
ATOM     17  H2  ARG d   1      -1.372  10.257 -36.830  0.00  0.00     0.275 HD
ATOM     18  H3  ARG d   1      -2.195  11.594 -36.334  0.00  0.00     0.275 HD
ENDBRANCH  13  15
BRANCH  13  19
ATOM     19  CB  ARG d   1      -3.429   9.052 -38.189  0.00  0.00    -0.029 C 
ATOM     20  H5  ARG d   1      -3.070   8.090 -37.795  0.00  0.00     0.036 H 
ATOM     21  H6  ARG d   1      -2.747   9.403 -38.978  0.00  0.00     0.036 H 
BRANCH  19  22
ATOM     22  CG  ARG d   1      -4.809   8.841 -38.800  0.00  0.00    -0.047 C 
ATOM     23  H7  ARG d   1      -4.988   9.629 -39.546  0.00  0.00     0.035 H 
ATOM     24  H8  ARG d   1      -5.562   8.914 -38.002  0.00  0.00     0.035 H 
BRANCH  22  25
ATOM     25  CD  ARG d   1      -4.948   7.492 -39.476  0.00  0.00     0.009 C 
ATOM     26  H9  ARG d   1      -4.113   7.358 -40.179  0.00  0.00     0.064 H 
ATOM     27  H10 ARG d   1      -5.899   7.466 -40.027  0.00  0.00     0.064 H 
BRANCH  25  28
ATOM     28  NE  ARG d   1      -4.932   6.399 -38.511  0.00  0.00    -0.227 N 
ATOM     29  CZ  ARG d   1      -5.109   5.111 -38.807  0.00  0.00     0.665 C 
ATOM     30  NH1 ARG d   1      -5.326   4.714 -40.064  0.00  0.00    -0.235 N 
ATOM     31  NH2 ARG d   1      -5.069   4.207 -37.830  0.00  0.00    -0.235 N 
ATOM     32  H12 ARG d   1      -5.460   3.714 -40.272  0.00  0.00     0.174 HD
ATOM     33  H13 ARG d   1      -5.359   5.408 -40.825  0.00  0.00     0.174 HD
ATOM     34  H14 ARG d   1      -4.902   4.506 -36.858  0.00  0.00     0.174 HD
ATOM     35  H15 ARG d   1      -5.205   3.209 -38.046  0.00  0.00     0.174 HD
ATOM     36  H11 ARG d   1      -4.771   6.641 -37.523  0.00  0.00     0.177 HD
ENDBRANCH  25  28
ENDBRANCH  22  25
ENDBRANCH  19  22
ENDBRANCH  13  19
ENDBRANCH  10  13
ENDBRANCH   7   9
BRANCH   7  37
ATOM     37  CB  ARG d   1      -2.452   9.986 -32.331  0.00  0.00     0.004 C 
ATOM     38  H18 ARG d   1      -2.798   9.970 -31.287  0.00  0.00     0.046 H 
ATOM     39  H19 ARG d   1      -2.135  11.005 -32.597  0.00  0.00     0.046 H 
BRANCH  37  40
ATOM     40  CG  ARG d   1      -1.274   9.086 -32.446  0.00  0.00     0.053 A 
ATOM     41  ND1 ARG d   1      -1.371   7.724 -32.322  0.00  0.00    -0.247 NA
ATOM     42  CE1 ARG d   1      -0.175   7.193 -32.467  0.00  0.00     0.064 A 
ATOM     43  NE2 ARG d   1       0.694   8.167 -32.653  0.00  0.00    -0.359 N 
ATOM     44  H21 ARG d   1       0.057   6.129 -32.438  0.00  0.00     0.143 H 
ATOM     45  CD2 ARG d   1       0.031   9.361 -32.641  0.00  0.00     0.002 A 
ATOM     46  H22 ARG d   1       1.708   8.047 -32.786  0.00  0.00     0.166 HD
ATOM     47  H20 ARG d   1       0.473  10.348 -32.765  0.00  0.00     0.114 H 
ENDBRANCH  37  40
ENDBRANCH   7  37
ENDBRANCH   4   7
ENDBRANCH   1   3
BRANCH   1  48
ATOM     48  C   ARG d   1      -6.582  10.105 -29.951  0.00  0.00     0.241 C 
ATOM     49  O   ARG d   1      -5.904   9.318 -29.316  0.00  0.00    -0.271 OA
ATOM     50  N   ARG d   1      -7.055  11.238 -29.445  0.00  0.00    -0.346 N 
ATOM     51  H36 ARG d   1      -7.403  11.935 -30.072  0.00  0.00     0.163 HD
BRANCH  50  52
ATOM     52  CA  ARG d   1      -7.088  11.507 -28.017  0.00  0.00     0.089 C 
ATOM     53  H37 ARG d   1      -6.177  11.101 -27.552  0.00  0.00     0.087 H 
BRANCH  52  54
ATOM     54  CB  ARG d   1      -7.125  13.007 -27.765  0.00  0.00    -0.038 C 
ATOM     55  H38 ARG d   1      -7.557  13.201 -26.772  0.00  0.00     0.036 H 
ATOM     56  H39 ARG d   1      -7.742  13.493 -28.535  0.00  0.00     0.036 H 
BRANCH  54  57
ATOM     57  CG  ARG d   1      -5.703  13.569 -27.821  0.00  0.00    -0.061 C 
ATOM     58  H40 ARG d   1      -5.735  14.549 -28.320  0.00  0.00     0.033 H 
ATOM     59  H41 ARG d   1      -5.079  12.879 -28.407  0.00  0.00     0.033 H 
BRANCH  57  60
ATOM     60  CD  ARG d   1      -5.062  13.749 -26.438  0.00  0.00    -0.042 C 
ATOM     61  H42 ARG d   1      -5.803  13.462 -25.678  0.00  0.00     0.035 H 
ATOM     62  H43 ARG d   1      -4.804  14.811 -26.316  0.00  0.00     0.035 H 
BRANCH  60  63
ATOM     63  CE  ARG d   1      -3.792  12.920 -26.203  0.00  0.00     0.084 C 
ATOM     64  H44 ARG d   1      -3.509  12.467 -27.165  0.00  0.00     0.076 H 
ATOM     65  H45 ARG d   1      -4.043  12.127 -25.483  0.00  0.00     0.076 H 
BRANCH  63  66
ATOM     66  NZ  ARG d   1      -2.607  13.636 -25.682  0.00  0.00    -0.079 N 
BRANCH  66  67
ATOM     67  CM1 ARG d   1      -2.801  14.090 -24.307  0.00  0.00     0.067 C 
ATOM     68  H46 ARG d   1      -1.897  14.615 -23.963  0.00  0.00     0.068 H 
ATOM     69  H47 ARG d   1      -2.990  13.223 -23.658  0.00  0.00     0.068 H 
ATOM     70  H48 ARG d   1      -3.661  14.774 -24.265  0.00  0.00     0.068 H 
ENDBRANCH  66  67
BRANCH  66  71
ATOM     71  CM2 ARG d   1      -2.214  14.795 -26.463  0.00  0.00     0.067 C 
ATOM     72  H49 ARG d   1      -2.057  14.496 -27.510  0.00  0.00     0.068 H 
ATOM     73  H50 ARG d   1      -1.280  15.211 -26.057  0.00  0.00     0.068 H 
ATOM     74  H51 ARG d   1      -3.007  15.556 -26.414  0.00  0.00     0.068 H 
ENDBRANCH  66  71
BRANCH  66  75
ATOM     75  CM3 ARG d   1      -1.500  12.696 -25.694  0.00  0.00     0.067 C 
ATOM     76  H52 ARG d   1      -1.769  11.805 -25.108  0.00  0.00     0.068 H 
ATOM     77  H53 ARG d   1      -0.611  13.170 -25.252  0.00  0.00     0.068 H 
ATOM     78  H54 ARG d   1      -1.281  12.401 -26.731  0.00  0.00     0.068 H 
ENDBRANCH  66  75
ENDBRANCH  63  66
ENDBRANCH  60  63
ENDBRANCH  57  60
ENDBRANCH  54  57
ENDBRANCH  52  54
BRANCH  52  79
ATOM     79  C   ARG d   1      -8.288  10.796 -27.433  0.00  0.00     0.241 C 
ATOM     80  O   ARG d   1      -9.343  10.681 -28.066  0.00  0.00    -0.271 OA
ATOM     81  N   ARG d   1      -8.106  10.279 -26.220  0.00  0.00    -0.344 N 
ATOM     82  H55 ARG d   1      -7.266  10.511 -25.730  0.00  0.00     0.163 HD
BRANCH  81  83
ATOM     83  CA  ARG d   1      -9.067   9.390 -25.562  0.00  0.00     0.099 C 
ATOM     84  H56 ARG d   1      -9.271   8.566 -26.262  0.00  0.00     0.090 H 
BRANCH  83  85
ATOM     85  C   ARG d   1     -10.417  10.051 -25.252  0.00  0.00     0.197 C 
ATOM     86  O   ARG d   1     -10.486  11.187 -24.771  0.00  0.00    -0.646 OA
ATOM     87  OXT ARG d   1     -11.486   9.472 -25.472  0.00  0.00    -0.646 OA
ENDBRANCH  83  85
BRANCH  83  88
ATOM     88  CB  ARG d   1      -8.438   8.767 -24.277  0.00  0.00    -0.032 C 
ATOM     89  H57 ARG d   1      -7.430   8.418 -24.545  0.00  0.00     0.042 H 
BRANCH  88  90
ATOM     90  CG1 ARG d   1      -8.278   9.789 -23.148  0.00  0.00    -0.071 C 
ATOM     91  H58 ARG d   1      -7.832   9.299 -22.270  0.00  0.00     0.028 H 
ATOM     92  H59 ARG d   1      -9.264  10.196 -22.879  0.00  0.00     0.028 H 
ATOM     93  H60 ARG d   1      -7.623  10.607 -23.483  0.00  0.00     0.028 H 
ENDBRANCH  88  90
BRANCH  88  94
ATOM     94  CG2 ARG d   1      -9.232   7.556 -23.807  0.00  0.00    -0.071 C 
ATOM     95  H61 ARG d   1      -9.332   6.839 -24.635  0.00  0.00     0.028 H 
ATOM     96  H62 ARG d   1     -10.231   7.878 -23.478  0.00  0.00     0.028 H 
ATOM     97  H63 ARG d   1      -8.707   7.076 -22.968  0.00  0.00     0.028 H 
ENDBRANCH  88  94
ENDBRANCH  83  88
ENDBRANCH  81  83
ENDBRANCH  52  79
ENDBRANCH  50  52
ENDBRANCH   1  48
BRANCH   1  98
ATOM     98  CB  ARG d   1      -8.037   8.850 -31.586  0.00  0.00    -0.036 C 
ATOM     99  H25 ARG d   1      -8.774   9.027 -30.789  0.00  0.00     0.036 H 
ATOM    100  H26 ARG d   1      -7.628   7.833 -31.489  0.00  0.00     0.036 H 
BRANCH  98 101
ATOM    101  CG  ARG d   1      -8.747   8.959 -32.935  0.00  0.00    -0.048 C 
ATOM    102  H27 ARG d   1      -8.157   9.610 -33.597  0.00  0.00     0.035 H 
ATOM    103  H28 ARG d   1      -9.743   9.400 -32.779  0.00  0.00     0.035 H 
BRANCH 101 104
ATOM    104  CD  ARG d   1      -8.908   7.601 -33.596  0.00  0.00     0.009 C 
ATOM    105  H29 ARG d   1      -7.927   7.269 -33.965  0.00  0.00     0.064 H 
ATOM    106  H30 ARG d   1      -9.604   7.699 -34.442  0.00  0.00     0.064 H 
BRANCH 104 107
ATOM    107  NE  ARG d   1      -9.430   6.592 -32.670  0.00  0.00    -0.227 N 
ATOM    108  CZ  ARG d   1      -9.666   5.316 -32.975  0.00  0.00     0.665 C 
ATOM    109  NH1 ARG d   1      -9.448   4.840 -34.203  0.00  0.00    -0.235 N 
ATOM    110  NH2 ARG d   1     -10.134   4.507 -32.034  0.00  0.00    -0.235 N 
ATOM    111  H32 ARG d   1      -9.639   3.850 -34.413  0.00  0.00     0.174 HD
ATOM    112  H33 ARG d   1      -9.089   5.463 -34.941  0.00  0.00     0.174 HD
ATOM    113  H34 ARG d   1     -10.305   4.867 -31.084  0.00  0.00     0.174 HD
ATOM    114  H35 ARG d   1     -10.327   3.519 -32.253  0.00  0.00     0.174 HD
ATOM    115  H31 ARG d   1      -9.631   6.893 -31.706  0.00  0.00     0.177 HD
ENDBRANCH 104 107
ENDBRANCH 101 104
ENDBRANCH  98 101
ENDBRANCH   1  98
TORSDOF 31
