REMARK  7 active torsions:
REMARK  status: ('A' for Active; 'I' for Inactive)
REMARK    1  A    between atoms: P_1  and  O5'_5 
REMARK    2  A    between atoms: O5'_5  and  C5'_6 
REMARK    3  A    between atoms: C5'_6  and  C4'_7 
REMARK    4  A    between atoms: C3'_9  and  O3'_10 
REMARK    5  A    between atoms: C2'_11  and  O2'_12 
REMARK    6  A    between atoms: C1'_13  and  N9_14 
REMARK    7  A    between atoms: C2_21  and  N2_22 
ROOT
ATOM      1  C4' 5GP d   1     -51.600   5.828  -1.882  0.00  0.00     0.089 C 
ATOM      2  O4' 5GP d   1     -52.991   5.491  -1.806  0.00  0.00    -0.353 OA
ATOM      3  C3' 5GP d   1     -50.947   4.858  -0.998  0.00  0.00     0.091 C 
ATOM      4  C2' 5GP d   1     -51.970   3.814  -0.790  0.00  0.00     0.105 C 
ATOM      5  C1' 5GP d   1     -53.132   4.677  -0.632  0.00  0.00     0.139 C 
ATOM      6  H3  5GP d   1     -51.440   6.843  -1.489  0.00  0.00     0.090 H 
ATOM      7  H4  5GP d   1     -50.016   4.447  -1.414  0.00  0.00     0.091 H 
ATOM      8  H6  5GP d   1     -52.047   3.127  -1.645  0.00  0.00     0.093 H 
ATOM      9  H8  5GP d   1     -53.109   5.262   0.299  0.00  0.00     0.122 H 
ENDROOT
BRANCH   5  10
ATOM     10  N9  5GP d   1     -54.286   3.921  -0.712  0.00  0.00    -0.295 N 
ATOM     11  C8  5GP d   1     -55.391   4.423  -1.214  0.00  0.00     0.071 A 
ATOM     12  N7  5GP d   1     -56.362   3.502  -1.186  0.00  0.00    -0.234 NA
ATOM     13  H9  5GP d   1     -55.501   5.437  -1.596  0.00  0.00     0.144 H 
ATOM     14  C5  5GP d   1     -55.853   2.373  -0.647  0.00  0.00     0.171 A 
ATOM     15  C6  5GP d   1     -56.454   1.130  -0.401  0.00  0.00     0.292 A 
ATOM     16  C4  5GP d   1     -54.507   2.599  -0.322  0.00  0.00     0.161 A 
ATOM     17  O6  5GP d   1     -57.641   0.930  -0.689  0.00  0.00    -0.265 OA
ATOM     18  N1  5GP d   1     -55.702   0.189   0.120  0.00  0.00    -0.154 N 
ATOM     19  C2  5GP d   1     -54.461   0.406   0.426  0.00  0.00     0.680 A 
ATOM     20  H10 5GP d   1     -56.095  -0.716   0.285  0.00  0.00     0.187 HD
ATOM     21  N3  5GP d   1     -53.843   1.565   0.228  0.00  0.00    -0.174 N 
ATOM     22  H13 5GP d   1     -52.854   1.673   0.496  0.00  0.00     0.186 HD
BRANCH  19  23
ATOM     23  N2  5GP d   1     -53.798  -0.644   0.999  0.00  0.00    -0.234 N 
ATOM     24  H11 5GP d   1     -52.809  -0.543   1.268  0.00  0.00     0.174 HD
ATOM     25  H12 5GP d   1     -54.288  -1.536   1.161  0.00  0.00     0.174 HD
ENDBRANCH  19  23
ENDBRANCH   5  10
BRANCH   4  26
ATOM     26  O2' 5GP d   1     -51.793   3.098   0.403  0.00  0.00    -0.388 OA
ATOM     27  H7  5GP d   1     -51.838   3.696   1.140  0.00  0.00     0.210 HD
ENDBRANCH   4  26
BRANCH   1  28
ATOM     28  C5' 5GP d   1     -51.109   5.799  -3.276  0.00  0.00     0.059 C 
ATOM     29  H1  5GP d   1     -50.123   5.312  -3.313  0.00  0.00     0.079 H 
ATOM     30  H2  5GP d   1     -51.817   5.243  -3.908  0.00  0.00     0.079 H 
BRANCH  28  31
ATOM     31  O5' 5GP d   1     -51.000   7.157  -3.744  0.00  0.00    -0.280 OA
BRANCH  31  32
ATOM     32  P   5GP d   1     -50.533   7.440  -5.236  0.00  0.00     0.422 P 
ATOM     33  O1P 5GP d   1     -51.745   7.754  -6.074  0.00  0.00    -0.617 OA
ATOM     34  O2P 5GP d   1     -49.773   6.288  -5.811  0.00  0.00    -0.617 OA
ATOM     35  O3P 5GP d   1     -49.643   8.640  -5.313  0.00  0.00    -0.617 OA
ENDBRANCH  31  32
ENDBRANCH  28  31
ENDBRANCH   1  28
BRANCH   3  36
ATOM     36  O3' 5GP d   1     -50.722   5.574   0.203  0.00  0.00    -0.390 OA
ATOM     37  H5  5GP d   1     -50.296   5.006   0.834  0.00  0.00     0.210 HD
ENDBRANCH   3  36
TORSDOF 7
