REMARK  7 active torsions:
REMARK  status: ('A' for Active; 'I' for Inactive)
REMARK    1  A    between atoms: P_1  and  O5'_5 
REMARK    2  A    between atoms: O5'_5  and  C5'_6 
REMARK    3  A    between atoms: C5'_6  and  C4'_7 
REMARK    4  A    between atoms: C3'_9  and  O3'_10 
REMARK    5  A    between atoms: C2'_11  and  O2'_12 
REMARK    6  A    between atoms: C1'_13  and  N9_14 
REMARK    7  A    between atoms: C2_21  and  N2_22 
ROOT
ATOM      1  C4' 5GP d   1      10.612 -11.223  -0.824  0.00  0.00     0.089 C 
ATOM      2  O4' 5GP d   1      10.586 -10.932   0.581  0.00  0.00    -0.353 OA
ATOM      3  C3' 5GP d   1       9.176 -11.489  -1.033  0.00  0.00     0.091 C 
ATOM      4  C2' 5GP d   1       8.925 -12.406   0.059  0.00  0.00     0.105 C 
ATOM      5  C1' 5GP d   1       9.620 -11.796   1.173  0.00  0.00     0.139 C 
ATOM      6  H3  5GP d   1      11.204 -12.123  -1.046  0.00  0.00     0.090 H 
ATOM      7  H4  5GP d   1       8.576 -10.568  -0.994  0.00  0.00     0.091 H 
ATOM      8  H6  5GP d   1       7.846 -12.499   0.250  0.00  0.00     0.093 H 
ATOM      9  H8  5GP d   1      10.110 -12.562   1.792  0.00  0.00     0.122 H 
ENDROOT
BRANCH   5  10
ATOM     10  N9  5GP d   1       8.726 -11.051   1.960  0.00  0.00    -0.295 N 
ATOM     11  C8  5GP d   1       8.019 -10.005   1.551  0.00  0.00     0.071 A 
ATOM     12  N7  5GP d   1       7.259  -9.533   2.582  0.00  0.00    -0.234 NA
ATOM     13  H9  5GP d   1       8.042  -9.587   0.546  0.00  0.00     0.144 H 
ATOM     14  C5  5GP d   1       7.495 -10.310   3.688  0.00  0.00     0.171 A 
ATOM     15  C6  5GP d   1       7.014 -10.318   5.035  0.00  0.00     0.292 A 
ATOM     16  C4  5GP d   1       8.435 -11.291   3.307  0.00  0.00     0.161 A 
ATOM     17  O6  5GP d   1       6.190  -9.491   5.420  0.00  0.00    -0.265 OA
ATOM     18  N1  5GP d   1       7.488 -11.266   5.867  0.00  0.00    -0.154 N 
ATOM     19  C2  5GP d   1       8.373 -12.173   5.471  0.00  0.00     0.680 A 
ATOM     20  H10 5GP d   1       7.163 -11.287   6.812  0.00  0.00     0.187 HD
ATOM     21  N3  5GP d   1       8.849 -12.204   4.223  0.00  0.00    -0.174 N 
ATOM     22  H13 5GP d   1       9.534 -12.925   3.954  0.00  0.00     0.186 HD
BRANCH  19  23
ATOM     23  N2  5GP d   1       8.815 -13.116   6.380  0.00  0.00    -0.234 N 
ATOM     24  H11 5GP d   1       9.501 -13.828   6.091  0.00  0.00     0.174 HD
ATOM     25  H12 5GP d   1       8.458 -13.107   7.346  0.00  0.00     0.174 HD
ENDBRANCH  19  23
ENDBRANCH   5  10
BRANCH   4  26
ATOM     26  O2' 5GP d   1       9.489 -13.686  -0.153  0.00  0.00    -0.388 OA
ATOM     27  H7  5GP d   1       9.120 -14.067  -0.941  0.00  0.00     0.210 HD
ENDBRANCH   4  26
BRANCH   1  28
ATOM     28  C5' 5GP d   1      11.209 -10.069  -1.573  0.00  0.00     0.059 C 
ATOM     29  H1  5GP d   1      10.598  -9.850  -2.461  0.00  0.00     0.079 H 
ATOM     30  H2  5GP d   1      11.240  -9.183  -0.922  0.00  0.00     0.079 H 
BRANCH  28  31
ATOM     31  O5' 5GP d   1      12.553 -10.416  -1.983  0.00  0.00    -0.280 OA
BRANCH  31  32
ATOM     32  P   5GP d   1      13.666  -9.361  -2.476  0.00  0.00     0.422 P 
ATOM     33  O1P 5GP d   1      14.408  -9.863  -3.699  0.00  0.00    -0.617 OA
ATOM     34  O2P 5GP d   1      14.697  -9.123  -1.410  0.00  0.00    -0.617 OA
ATOM     35  O3P 5GP d   1      13.008  -8.047  -2.800  0.00  0.00    -0.617 OA
ENDBRANCH  31  32
ENDBRANCH  28  31
ENDBRANCH   1  28
BRANCH   3  36
ATOM     36  O3' 5GP d   1       8.884 -12.240  -2.194  0.00  0.00    -0.390 OA
ATOM     37  H5  5GP d   1       9.318 -13.084  -2.142  0.00  0.00     0.210 HD
ENDBRANCH   3  36
TORSDOF 7
