REMARK  7 active torsions:
REMARK  status: ('A' for Active; 'I' for Inactive)
REMARK    1  A    between atoms: C01_1  and  C02_2 
REMARK    2  A    between atoms: C01_1  and  N09_9 
REMARK    3  A    between atoms: C01_1  and  C16_16 
REMARK       I    between atoms: N09_9  and  C10_10 
REMARK    4  A    between atoms: C10_10  and  C12_12 
REMARK    5  A    between atoms: C12_12  and  C13_13 
REMARK    6  A    between atoms: C12_12  and  C15_15 
REMARK    7  A    between atoms: C13_13  and  S14_14 
ROOT
ATOM      1  C01 8PL d   1     122.070  38.535 132.373  0.00  0.00     0.122 C 
ATOM      2  H1  8PL d   1     123.019  38.912 131.965  0.00  0.00     0.097 H 
ENDROOT
BRANCH   1   3
ATOM      3  C02 8PL d   1     121.934  37.064 132.004  0.00  0.00    -0.025 A 
ATOM      4  C03 8PL d   1     120.724  36.413 132.167  0.00  0.00    -0.071 A 
ATOM      5  C04 8PL d   1     120.622  35.070 131.848  0.00  0.00    -0.045 A 
ATOM      6  H2  8PL d   1     119.861  36.951 132.542  0.00  0.00     0.084 H 
ATOM      7  C05 8PL d   1     121.739  34.380 131.404  0.00  0.00     0.116 A 
ATOM      8  H3  8PL d   1     119.671  34.559 131.945  0.00  0.00     0.088 H 
ATOM      9  C06 8PL d   1     122.954  35.034 131.259  0.00  0.00    -0.045 A 
ATOM     10  F08 8PL d   1     121.610  33.052 131.109  0.00  0.00    -0.206 F 
ATOM     11  C07 8PL d   1     123.057  36.377 131.559  0.00  0.00    -0.071 A 
ATOM     12  H4  8PL d   1     123.824  34.489 130.910  0.00  0.00     0.088 H 
ATOM     13  H5  8PL d   1     124.005  36.891 131.449  0.00  0.00     0.084 H 
ENDBRANCH   1   3
BRANCH   1  14
ATOM     14  N09 8PL d   1     121.014  39.419 131.971  0.00  0.00    -0.342 N 
ATOM     15  C10 8PL d   1     121.391  40.639 131.336  0.00  0.00     0.223 C 
ATOM     16  O11 8PL d   1     122.537  40.904 131.126  0.00  0.00    -0.273 OA
ATOM     17  H6  8PL d   1     120.054  39.189 132.129  0.00  0.00     0.163 HD
BRANCH  15  18
ATOM     18  C12 8PL d   1     120.285  41.598 131.002  0.00  0.00     0.028 C 
ATOM     19  H7  8PL d   1     119.308  41.093 130.992  0.00  0.00     0.055 H 
BRANCH  18  20
ATOM     20  C13 8PL d   1     120.344  42.683 132.075  0.00  0.00    -0.015 C 
ATOM     21  H8  8PL d   1     119.443  43.309 131.993  0.00  0.00     0.049 H 
ATOM     22  H9  8PL d   1     121.237  43.301 131.902  0.00  0.00     0.049 H 
BRANCH  20  23
ATOM     23  S14 8PL d   1     120.427  41.997 133.760  0.00  0.00    -0.181 SA
ATOM     24  H10 8PL d   1     120.464  42.752 134.427  0.00  0.00     0.101 HD
ENDBRANCH  20  23
ENDBRANCH  18  20
BRANCH  18  25
ATOM     25  C15 8PL d   1     120.572  42.243 129.661  0.00  0.00    -0.064 C 
ATOM     26  H11 8PL d   1     120.535  41.478 128.871  0.00  0.00     0.028 H 
ATOM     27  H12 8PL d   1     121.572  42.701 129.681  0.00  0.00     0.028 H 
ATOM     28  H13 8PL d   1     119.818  43.017 129.458  0.00  0.00     0.028 H 
ENDBRANCH  18  25
ENDBRANCH  15  18
ENDBRANCH   1  14
BRANCH   1  29
ATOM     29  C16 8PL d   1     122.072  38.580 133.907  0.00  0.00     0.201 C 
ATOM     30  O17 8PL d   1     121.031  38.882 134.541  0.00  0.00    -0.646 OA
ATOM     31  O18 8PL d   1     123.115  38.289 134.552  0.00  0.00    -0.646 OA
ENDBRANCH   1  29
TORSDOF 7
