REMARK  8 active torsions:
REMARK  status: ('A' for Active; 'I' for Inactive)
REMARK    1  A    between atoms: C12_3  and  C13_1 
REMARK    2  A    between atoms: C13_1  and  S14_15 
REMARK    3  A    between atoms: C10_4  and  C12_3 
REMARK    4  A    between atoms: C12_3  and  C15_16 
REMARK       I    between atoms: N09_13  and  C10_4 
REMARK    5  A    between atoms: C01_5  and  C02_6 
REMARK    6  A    between atoms: C01_5  and  N09_13 
REMARK    7  A    between atoms: C01_5  and  C16_17 
REMARK    8  A    between atoms: C05_9  and  O08_12 
ROOT
ATOM      1  C01 8PO d   1      -6.297 -17.118   0.712  0.00  0.00     0.122 C 
ATOM      2  H4  8PO d   1      -5.711 -16.574  -0.043  0.00  0.00     0.097 H 
ENDROOT
BRANCH   1   3
ATOM      3  C02 8PO d   1      -5.375 -17.932   1.597  0.00  0.00    -0.025 A 
ATOM      4  C03 8PO d   1      -4.022 -17.628   1.596  0.00  0.00    -0.072 A 
ATOM      5  C04 8PO d   1      -3.171 -18.317   2.432  0.00  0.00    -0.050 A 
ATOM      6  H5  8PO d   1      -3.637 -16.854   0.942  0.00  0.00     0.084 H 
ATOM      7  C05 8PO d   1      -3.662 -19.322   3.258  0.00  0.00     0.065 A 
ATOM      8  H6  8PO d   1      -2.115 -18.075   2.446  0.00  0.00     0.087 H 
ATOM      9  C06 8PO d   1      -5.020 -19.616   3.258  0.00  0.00    -0.050 A 
ATOM     10  C07 8PO d   1      -5.876 -18.927   2.418  0.00  0.00    -0.072 A 
ATOM     11  H7  8PO d   1      -5.408 -20.385   3.916  0.00  0.00     0.087 H 
ATOM     12  H8  8PO d   1      -6.933 -19.165   2.403  0.00  0.00     0.084 H 
BRANCH   7  13
ATOM     13  O08 8PO d   1      -2.768 -20.027   4.078  0.00  0.00    -0.361 OA
ATOM     14  H9  8PO d   1      -3.018 -19.914   4.987  0.00  0.00     0.217 HD
ENDBRANCH   7  13
ENDBRANCH   1   3
BRANCH   1  15
ATOM     15  N09 8PO d   1      -7.351 -17.872   0.086  0.00  0.00    -0.342 N 
ATOM     16  C10 8PO d   1      -7.729 -17.614  -1.264  0.00  0.00     0.223 C 
ATOM     17  O11 8PO d   1      -7.152 -16.829  -1.926  0.00  0.00    -0.273 OA
ATOM     18  H10 8PO d   1      -7.824 -18.585   0.604  0.00  0.00     0.163 HD
BRANCH  16  19
ATOM     19  C12 8PO d   1      -8.901 -18.367  -1.839  0.00  0.00     0.028 C 
ATOM     20  H3  8PO d   1      -9.224 -19.165  -1.154  0.00  0.00     0.055 H 
BRANCH  19  21
ATOM     21  C13 8PO d   1     -10.032 -17.355  -2.044  0.00  0.00    -0.015 C 
ATOM     22  H1  8PO d   1     -10.906 -17.865  -2.475  0.00  0.00     0.049 H 
ATOM     23  H2  8PO d   1      -9.695 -16.563  -2.729  0.00  0.00     0.049 H 
BRANCH  21  24
ATOM     24  S14 8PO d   1     -10.493 -16.613  -0.438  0.00  0.00    -0.181 SA
ATOM     25  H11 8PO d   1     -11.237 -15.948  -0.578  0.00  0.00     0.101 HD
ENDBRANCH  21  24
ENDBRANCH  19  21
BRANCH  19  26
ATOM     26  C15 8PO d   1      -8.471 -18.972  -3.191  0.00  0.00    -0.064 C 
ATOM     27  H12 8PO d   1      -7.659 -19.696  -3.027  0.00  0.00     0.028 H 
ATOM     28  H13 8PO d   1      -8.118 -18.170  -3.856  0.00  0.00     0.028 H 
ATOM     29  H14 8PO d   1      -9.329 -19.482  -3.654  0.00  0.00     0.028 H 
ENDBRANCH  19  26
ENDBRANCH  16  19
ENDBRANCH   1  15
BRANCH   1  30
ATOM     30  C16 8PO d   1      -7.055 -16.173   1.659  0.00  0.00     0.201 C 
ATOM     31  O18 8PO d   1      -8.185 -16.515   2.092  0.00  0.00    -0.646 OA
ATOM     32  O17 8PO d   1      -6.573 -15.071   2.009  0.00  0.00    -0.646 OA
ENDBRANCH   1  30
TORSDOF 8
