REMARK  6 active torsions:
REMARK  status: ('A' for Active; 'I' for Inactive)
REMARK    1  A    between atoms: C2'_10  and  O2'_11 
REMARK    2  A    between atoms: C1'_12  and  N9_13 
REMARK    3  A    between atoms: C2_20  and  N2_21 
REMARK    4  A    between atoms: C2A_33  and  O2A_34 
REMARK    5  A    between atoms: C1A_35  and  N91_36 
REMARK    6  A    between atoms: C21_43  and  N21_44 
ROOT
ATOM      1  P1  C2E d   1      -6.913  -8.380  30.101  0.00  0.00     0.408 P 
ATOM      2  O2P C2E d   1      -7.381  -9.625  29.206  0.00  0.00    -0.624 OA
ATOM      3  O1P C2E d   1      -5.490  -8.087  29.859  0.00  0.00    -0.624 OA
ATOM      4  O5' C2E d   1      -7.875  -7.153  29.796  0.00  0.00    -0.287 OA
ATOM      5  C5' C2E d   1      -7.385  -5.901  30.255  0.00  0.00     0.058 C 
ATOM      6  C4' C2E d   1      -8.493  -4.871  30.451  0.00  0.00     0.090 C 
ATOM      7  O4' C2E d   1      -9.106  -4.556  29.208  0.00  0.00    -0.353 OA
ATOM      8  C3' C2E d   1      -9.632  -5.405  31.336  0.00  0.00     0.106 C 
ATOM      9  O3' C2E d   1      -9.423  -5.098  32.706  0.00  0.00    -0.279 OA
ATOM     10  C2' C2E d   1     -10.842  -4.628  30.829  0.00  0.00     0.106 C 
ATOM     11  C1' C2E d   1     -10.538  -4.529  29.321  0.00  0.00     0.139 C 
ATOM     12  P11 C2E d   1     -10.261  -5.898  33.864  0.00  0.00     0.408 P 
ATOM     13  O21 C2E d   1     -11.778  -5.855  33.402  0.00  0.00    -0.624 OA
ATOM     14  O11 C2E d   1      -9.928  -5.269  35.160  0.00  0.00    -0.624 OA
ATOM     15  O5A C2E d   1      -9.834  -7.455  33.818  0.00  0.00    -0.287 OA
ATOM     16  C5A C2E d   1      -8.497  -7.795  34.190  0.00  0.00     0.058 C 
ATOM     17  C4A C2E d   1      -8.232  -9.224  33.722  0.00  0.00     0.090 C 
ATOM     18  O4A C2E d   1      -9.317 -10.067  34.083  0.00  0.00    -0.353 OA
ATOM     19  C3A C2E d   1      -8.230  -9.327  32.182  0.00  0.00     0.106 C 
ATOM     20  O3A C2E d   1      -7.032  -8.772  31.662  0.00  0.00    -0.279 OA
ATOM     21  C2A C2E d   1      -8.297 -10.836  31.992  0.00  0.00     0.106 C 
ATOM     22  C1A C2E d   1      -9.201 -11.209  33.212  0.00  0.00     0.139 C 
ATOM     23  H1  C2E d   1      -6.669  -5.511  29.517  0.00  0.00     0.079 H 
ATOM     24  H2  C2E d   1      -6.873  -6.054  31.216  0.00  0.00     0.079 H 
ATOM     25  H3  C2E d   1      -8.061  -3.966  30.902  0.00  0.00     0.090 H 
ATOM     26  H4  C2E d   1      -9.761  -6.490  31.209  0.00  0.00     0.092 H 
ATOM     27  H5  C2E d   1     -11.803  -5.110  31.063  0.00  0.00     0.093 H 
ATOM     28  H7  C2E d   1     -10.919  -3.568  28.944  0.00  0.00     0.122 H 
ATOM     29  H13 C2E d   1      -8.385  -7.732  35.282  0.00  0.00     0.079 H 
ATOM     30  H14 C2E d   1      -7.788  -7.106  33.708  0.00  0.00     0.079 H 
ATOM     31  H15 C2E d   1      -7.283  -9.583  34.146  0.00  0.00     0.090 H 
ATOM     32  H16 C2E d   1      -9.099  -8.824  31.733  0.00  0.00     0.092 H 
ATOM     33  H17 C2E d   1      -8.731 -11.139  31.028  0.00  0.00     0.093 H 
ATOM     34  H19 C2E d   1      -8.806 -12.091  33.737  0.00  0.00     0.122 H 
ENDROOT
BRANCH  11  35
ATOM     35  N9  C2E d   1     -11.136  -5.594  28.521  0.00  0.00    -0.295 N 
ATOM     36  C8  C2E d   1     -10.483  -6.671  27.996  0.00  0.00     0.071 A 
ATOM     37  N7  C2E d   1     -11.325  -7.404  27.322  0.00  0.00    -0.234 NA
ATOM     38  H8  C2E d   1      -9.423  -6.885  28.121  0.00  0.00     0.144 H 
ATOM     39  C5  C2E d   1     -12.572  -6.827  27.390  0.00  0.00     0.171 A 
ATOM     40  C6  C2E d   1     -13.854  -7.139  26.883  0.00  0.00     0.292 A 
ATOM     41  C4  C2E d   1     -12.443  -5.674  28.158  0.00  0.00     0.161 A 
ATOM     42  O6  C2E d   1     -14.118  -8.108  26.182  0.00  0.00    -0.265 OA
ATOM     43  N1  C2E d   1     -14.846  -6.301  27.172  0.00  0.00    -0.154 N 
ATOM     44  C2  C2E d   1     -14.652  -5.221  27.943  0.00  0.00     0.680 A 
ATOM     45  H9  C2E d   1     -15.759  -6.481  26.805  0.00  0.00     0.187 HD
ATOM     46  N3  C2E d   1     -13.494  -4.914  28.431  0.00  0.00    -0.174 N 
ATOM     47  H12 C2E d   1     -13.389  -4.082  29.029  0.00  0.00     0.186 HD
BRANCH  44  48
ATOM     48  N2  C2E d   1     -15.736  -4.459  28.203  0.00  0.00    -0.234 N 
ATOM     49  H10 C2E d   1     -15.645  -3.617  28.790  0.00  0.00     0.174 HD
ATOM     50  H11 C2E d   1     -16.654  -4.719  27.814  0.00  0.00     0.174 HD
ENDBRANCH  44  48
ENDBRANCH  11  35
BRANCH  10  51
ATOM     51  O2' C2E d   1     -10.761  -3.306  31.321  0.00  0.00    -0.388 OA
ATOM     52  H6  C2E d   1     -10.759  -3.322  32.271  0.00  0.00     0.210 HD
ENDBRANCH  10  51
BRANCH  21  53
ATOM     53  O2A C2E d   1      -7.000 -11.355  32.154  0.00  0.00    -0.388 OA
ATOM     54  H18 C2E d   1      -7.021 -12.298  32.039  0.00  0.00     0.210 HD
ENDBRANCH  21  53
BRANCH  22  55
ATOM     55  N91 C2E d   1     -10.541 -11.409  32.761  0.00  0.00    -0.295 N 
ATOM     56  C81 C2E d   1     -11.580 -10.534  32.937  0.00  0.00     0.071 A 
ATOM     57  N71 C2E d   1     -12.670 -11.023  32.385  0.00  0.00    -0.234 NA
ATOM     58  H20 C2E d   1     -11.514  -9.579  33.455  0.00  0.00     0.144 H 
ATOM     59  C51 C2E d   1     -12.340 -12.251  31.868  0.00  0.00     0.171 A 
ATOM     60  C61 C2E d   1     -13.057 -13.173  31.172  0.00  0.00     0.292 A 
ATOM     61  C41 C2E d   1     -10.999 -12.484  32.076  0.00  0.00     0.161 A 
ATOM     62  O61 C2E d   1     -14.246 -12.998  30.922  0.00  0.00    -0.265 OA
ATOM     63  N11 C2E d   1     -12.397 -14.239  30.755  0.00  0.00    -0.154 N 
ATOM     64  C21 C2E d   1     -11.096 -14.424  31.022  0.00  0.00     0.680 A 
ATOM     65  H21 C2E d   1     -12.884 -14.931  30.222  0.00  0.00     0.187 HD
ATOM     66  N31 C2E d   1     -10.405 -13.559  31.667  0.00  0.00    -0.174 N 
ATOM     67  H24 C2E d   1      -9.404 -13.715  31.855  0.00  0.00     0.186 HD
BRANCH  64  68
ATOM     68  N21 C2E d   1     -10.494 -15.573  30.578  0.00  0.00    -0.234 N 
ATOM     69  H22 C2E d   1      -9.496 -15.739  30.770  0.00  0.00     0.174 HD
ATOM     70  H23 C2E d   1     -11.040 -16.270  30.052  0.00  0.00     0.174 HD
ENDBRANCH  64  68
ENDBRANCH  22  55
TORSDOF 6
