REMARK  6 active torsions:
REMARK  status: ('A' for Active; 'I' for Inactive)
REMARK    1  A    between atoms: C2'_10  and  O2'_11 
REMARK    2  A    between atoms: C1'_12  and  N9_13 
REMARK    3  A    between atoms: C2_20  and  N2_21 
REMARK    4  A    between atoms: C2A_33  and  O2A_34 
REMARK    5  A    between atoms: C1A_35  and  N91_36 
REMARK    6  A    between atoms: C21_43  and  N21_44 
ROOT
ATOM      1  P1  C2E d   1     -29.599  40.911 -17.299  0.00  0.00     0.408 P 
ATOM      2  O2P C2E d   1     -29.231  39.702 -16.312  0.00  0.00    -0.624 OA
ATOM      3  O1P C2E d   1     -29.928  40.380 -18.645  0.00  0.00    -0.624 OA
ATOM      4  O5' C2E d   1     -30.840  41.747 -16.715  0.00  0.00    -0.287 OA
ATOM      5  C5' C2E d   1     -31.421  42.833 -17.429  0.00  0.00     0.058 C 
ATOM      6  C4' C2E d   1     -32.362  43.638 -16.529  0.00  0.00     0.090 C 
ATOM      7  O4' C2E d   1     -33.374  42.797 -15.964  0.00  0.00    -0.353 OA
ATOM      8  C3' C2E d   1     -31.623  44.235 -15.323  0.00  0.00     0.106 C 
ATOM      9  O3' C2E d   1     -30.941  45.447 -15.649  0.00  0.00    -0.279 OA
ATOM     10  C2' C2E d   1     -32.796  44.485 -14.364  0.00  0.00     0.106 C 
ATOM     11  C1' C2E d   1     -33.691  43.272 -14.646  0.00  0.00     0.139 C 
ATOM     12  P11 C2E d   1     -29.666  45.957 -14.812  0.00  0.00     0.408 P 
ATOM     13  O21 C2E d   1     -30.003  45.881 -13.240  0.00  0.00    -0.624 OA
ATOM     14  O11 C2E d   1     -29.362  47.352 -15.202  0.00  0.00    -0.624 OA
ATOM     15  O5A C2E d   1     -28.403  45.010 -15.127  0.00  0.00    -0.287 OA
ATOM     16  C5A C2E d   1     -27.836  44.937 -16.431  0.00  0.00     0.058 C 
ATOM     17  C4A C2E d   1     -26.933  43.709 -16.556  0.00  0.00     0.090 C 
ATOM     18  O4A C2E d   1     -25.883  43.757 -15.587  0.00  0.00    -0.353 OA
ATOM     19  C3A C2E d   1     -27.682  42.406 -16.262  0.00  0.00     0.106 C 
ATOM     20  O3A C2E d   1     -28.339  41.905 -17.421  0.00  0.00    -0.279 OA
ATOM     21  C2A C2E d   1     -26.533  41.473 -15.863  0.00  0.00     0.106 C 
ATOM     22  C1A C2E d   1     -25.610  42.434 -15.109  0.00  0.00     0.139 C 
ATOM     23  H1  C2E d   1     -31.990  42.439 -18.284  0.00  0.00     0.079 H 
ATOM     24  H2  C2E d   1     -30.620  43.493 -17.795  0.00  0.00     0.079 H 
ATOM     25  H3  C2E d   1     -32.823  44.440 -17.124  0.00  0.00     0.090 H 
ATOM     26  H4  C2E d   1     -30.904  43.518 -14.900  0.00  0.00     0.092 H 
ATOM     27  H5  C2E d   1     -32.461  44.509 -13.316  0.00  0.00     0.093 H 
ATOM     28  H7  C2E d   1     -34.752  43.557 -14.595  0.00  0.00     0.122 H 
ATOM     29  H13 C2E d   1     -27.242  45.843 -16.618  0.00  0.00     0.079 H 
ATOM     30  H14 C2E d   1     -28.645  44.868 -17.174  0.00  0.00     0.079 H 
ATOM     31  H15 C2E d   1     -26.513  43.679 -17.572  0.00  0.00     0.090 H 
ATOM     32  H16 C2E d   1     -28.409  42.533 -15.446  0.00  0.00     0.092 H 
ATOM     33  H17 C2E d   1     -26.879  40.651 -15.219  0.00  0.00     0.093 H 
ATOM     34  H19 C2E d   1     -24.557  42.175 -15.291  0.00  0.00     0.122 H 
ENDROOT
BRANCH  11  35
ATOM     35  N9  C2E d   1     -33.404  42.248 -13.642  0.00  0.00    -0.295 N 
ATOM     36  C8  C2E d   1     -32.662  41.117 -13.821  0.00  0.00     0.071 A 
ATOM     37  N7  C2E d   1     -32.624  40.443 -12.711  0.00  0.00    -0.234 NA
ATOM     38  H8  C2E d   1     -32.176  40.824 -14.751  0.00  0.00     0.144 H 
ATOM     39  C5  C2E d   1     -33.334  41.095 -11.759  0.00  0.00     0.171 A 
ATOM     40  C6  C2E d   1     -33.624  40.834 -10.401  0.00  0.00     0.292 A 
ATOM     41  C4  C2E d   1     -33.840  42.258 -12.345  0.00  0.00     0.161 A 
ATOM     42  O6  C2E d   1     -33.198  39.830  -9.851  0.00  0.00    -0.265 OA
ATOM     43  N1  C2E d   1     -34.385  41.726  -9.730  0.00  0.00    -0.154 N 
ATOM     44  C2  C2E d   1     -34.854  42.844 -10.355  0.00  0.00     0.680 A 
ATOM     45  H9  C2E d   1     -34.606  41.566  -8.768  0.00  0.00     0.187 HD
ATOM     46  N3  C2E d   1     -34.588  43.098 -11.618  0.00  0.00    -0.174 N 
ATOM     47  H12 C2E d   1     -34.960  43.954 -12.053  0.00  0.00     0.186 HD
BRANCH  44  48
ATOM     48  N2  C2E d   1     -35.625  43.730  -9.644  0.00  0.00    -0.234 N 
ATOM     49  H10 C2E d   1     -35.987  44.579 -10.101  0.00  0.00     0.174 HD
ATOM     50  H11 C2E d   1     -35.841  43.545  -8.654  0.00  0.00     0.174 HD
ENDBRANCH  44  48
ENDBRANCH  11  35
BRANCH  10  51
ATOM     51  O2' C2E d   1     -33.485  45.696 -14.679  0.00  0.00    -0.388 OA
ATOM     52  H6  C2E d   1     -32.883  46.428 -14.614  0.00  0.00     0.210 HD
ENDBRANCH  10  51
BRANCH  21  53
ATOM     53  O2A C2E d   1     -25.885  40.944 -17.024  0.00  0.00    -0.388 OA
ATOM     54  H18 C2E d   1     -26.514  40.454 -17.541  0.00  0.00     0.210 HD
ENDBRANCH  21  53
BRANCH  22  55
ATOM     55  N91 C2E d   1     -25.903  42.352 -13.678  0.00  0.00    -0.295 N 
ATOM     56  C81 C2E d   1     -26.608  43.269 -12.954  0.00  0.00     0.071 A 
ATOM     57  N71 C2E d   1     -26.683  42.883 -11.716  0.00  0.00    -0.234 NA
ATOM     58  H20 C2E d   1     -27.042  44.185 -13.353  0.00  0.00     0.144 H 
ATOM     59  C51 C2E d   1     -26.040  41.700 -11.571  0.00  0.00     0.171 A 
ATOM     60  C61 C2E d   1     -25.806  40.838 -10.475  0.00  0.00     0.292 A 
ATOM     61  C41 C2E d   1     -25.535  41.344 -12.827  0.00  0.00     0.161 A 
ATOM     62  O61 C2E d   1     -26.226  41.108  -9.361  0.00  0.00    -0.265 OA
ATOM     63  N11 C2E d   1     -25.106  39.705 -10.690  0.00  0.00    -0.154 N 
ATOM     64  C21 C2E d   1     -24.641  39.411 -11.937  0.00  0.00     0.680 A 
ATOM     65  H21 C2E d   1     -24.928  39.078  -9.931  0.00  0.00     0.187 HD
ATOM     66  N31 C2E d   1     -24.847  40.204 -12.966  0.00  0.00    -0.174 N 
ATOM     67  H24 C2E d   1     -24.474  39.945 -13.890  0.00  0.00     0.186 HD
BRANCH  64  68
ATOM     68  N21 C2E d   1     -23.931  38.251 -12.117  0.00  0.00    -0.234 N 
ATOM     69  H22 C2E d   1     -23.570  38.008 -13.050  0.00  0.00     0.174 HD
ATOM     70  H23 C2E d   1     -23.759  37.623 -11.319  0.00  0.00     0.174 HD
ENDBRANCH  64  68
ENDBRANCH  22  55
TORSDOF 6
