REMARK  15 active torsions:
REMARK  status: ('A' for Active; 'I' for Inactive)
REMARK    1  A    between atoms: C32_6  and  N34_7 
REMARK    2  A    between atoms: C23_11  and  C28_12 
REMARK    3  A    between atoms: C22_13  and  C21_14 
REMARK    4  A    between atoms: C21_14  and  C19_15 
REMARK       I    between atoms: C19_15  and  N18_17 
REMARK    5  A    between atoms: N18_17  and  C17_18 
REMARK    6  A    between atoms: C17_18  and  C16_19 
REMARK    7  A    between atoms: C16_19  and  C15_20 
REMARK    8  A    between atoms: C15_20  and  C14_21 
REMARK    9  A    between atoms: C14_21  and  C6_22 
REMARK   10  A    between atoms: C6_22  and  C7_23 
REMARK   11  A    between atoms: C6_22  and  N1_26 
REMARK   12  A    between atoms: N1_26  and  C2_27 
REMARK   13  A    between atoms: N1_26  and  C10_31 
REMARK   14  A    between atoms: C2_27  and  C3_28 
REMARK   15  A    between atoms: C10_31  and  C11_32 
ROOT
ATOM      1  C17 8R6 d   1       6.221  13.515   3.596  0.00  0.00    -0.005 C 
ATOM      2  H12 8R6 d   1       6.425  12.937   2.683  0.00  0.00     0.064 H 
ATOM      3  H13 8R6 d   1       5.167  13.829   3.603  0.00  0.00     0.064 H 
ENDROOT
BRANCH   1   4
ATOM      4  N18 8R6 d   1       7.055  14.693   3.594  0.00  0.00    -0.361 N 
ATOM      5  C19 8R6 d   1       7.997  14.878   2.730  0.00  0.00     0.222 C 
ATOM      6  O20 8R6 d   1       8.845  15.799   2.824  0.00  0.00    -0.273 OA
ATOM      7  H11 8R6 d   1       6.897  15.394   4.290  0.00  0.00     0.162 HD
BRANCH   5   8
ATOM      8  C21 8R6 d   1       8.067  13.891   1.590  0.00  0.00     0.039 C 
ATOM      9  H9  8R6 d   1       7.070  13.480   1.373  0.00  0.00     0.054 H 
ATOM     10  H10 8R6 d   1       8.470  14.372   0.686  0.00  0.00     0.054 H 
BRANCH   8  11
ATOM     11  C22 8R6 d   1       8.984  12.817   2.063  0.00  0.00     0.033 A 
ATOM     12  C27 8R6 d   1      10.425  13.147   2.376  0.00  0.00     0.295 A 
ATOM     13  O29 8R6 d   1      10.906  14.314   2.227  0.00  0.00    -0.259 OA
ATOM     14  O26 8R6 d   1      11.251  12.128   2.827  0.00  0.00    -0.274 OA
ATOM     15  C25 8R6 d   1      10.793  10.839   3.016  0.00  0.00     0.092 A 
ATOM     16  C33 8R6 d   1      11.643   9.847   3.487  0.00  0.00    -0.024 A 
ATOM     17  C24 8R6 d   1       9.379  10.462   2.726  0.00  0.00     0.005 A 
ATOM     18  C32 8R6 d   1      11.154   8.594   3.672  0.00  0.00     0.028 A 
ATOM     19  H1  8R6 d   1      12.681  10.070   3.704  0.00  0.00     0.091 H 
ATOM     20  C31 8R6 d   1       9.843   8.262   3.405  0.00  0.00    -0.057 A 
ATOM     21  C30 8R6 d   1       8.940   9.178   2.934  0.00  0.00    -0.068 A 
ATOM     22  H4  8R6 d   1       9.516   7.242   3.573  0.00  0.00     0.086 H 
ATOM     23  H5  8R6 d   1       7.912   8.898   2.732  0.00  0.00     0.085 H 
ATOM     24  C23 8R6 d   1       8.470  11.479   2.246  0.00  0.00    -0.036 A 
BRANCH  18  25
ATOM     25  N34 8R6 d   1      11.987   7.661   4.075  0.00  0.00    -0.399 N 
ATOM     26  H2  8R6 d   1      11.650   6.699   4.225  0.00  0.00     0.156 HD
ATOM     27  H3  8R6 d   1      12.977   7.891   4.240  0.00  0.00     0.156 HD
ENDBRANCH  18  25
BRANCH  24  28
ATOM     28  C28 8R6 d   1       7.057  11.109   1.971  0.00  0.00    -0.050 C 
ATOM     29  H6  8R6 d   1       6.910  10.040   2.185  0.00  0.00     0.033 H 
ATOM     30  H7  8R6 d   1       6.825  11.307   0.914  0.00  0.00     0.033 H 
ATOM     31  H8  8R6 d   1       6.390  11.706   2.611  0.00  0.00     0.033 H 
ENDBRANCH  24  28
ENDBRANCH   8  11
ENDBRANCH   5   8
ENDBRANCH   1   4
BRANCH   1  32
ATOM     32  C16 8R6 d   1       6.470  12.633   4.792  0.00  0.00    -0.050 C 
ATOM     33  H14 8R6 d   1       7.244  11.895   4.533  0.00  0.00     0.035 H 
ATOM     34  H15 8R6 d   1       5.536  12.111   5.047  0.00  0.00     0.035 H 
BRANCH  32  35
ATOM     35  C15 8R6 d   1       6.929  13.414   5.988  0.00  0.00    -0.061 C 
ATOM     36  H16 8R6 d   1       6.138  14.135   6.241  0.00  0.00     0.033 H 
ATOM     37  H17 8R6 d   1       7.842  13.957   5.703  0.00  0.00     0.033 H 
BRANCH  35  38
ATOM     38  C14 8R6 d   1       7.238  12.614   7.233  0.00  0.00    -0.028 C 
ATOM     39  H18 8R6 d   1       6.342  12.010   7.440  0.00  0.00     0.036 H 
ATOM     40  H19 8R6 d   1       7.381  13.347   8.041  0.00  0.00     0.036 H 
BRANCH  38  41
ATOM     41  C6  8R6 d   1       8.417  11.663   7.311  0.00  0.00     0.187 C 
ATOM     42  H20 8R6 d   1       8.469  11.346   8.363  0.00  0.00     0.102 H 
BRANCH  41  43
ATOM     43  C7  8R6 d   1       8.241  10.370   6.503  0.00  0.00     0.205 C 
ATOM     44  O8  8R6 d   1       7.276  10.236   5.713  0.00  0.00    -0.646 OA
ATOM     45  O9  8R6 d   1       9.061   9.408   6.669  0.00  0.00    -0.646 OA
ENDBRANCH  41  43
BRANCH  41  46
ATOM     46  N1  8R6 d   1       9.680  12.326   7.035  0.00  0.00    -0.038 N 
ATOM     47  H21 8R6 d   1       9.765  13.120   7.650  0.00  0.00     0.282 HD
BRANCH  46  48
ATOM     48  C2  8R6 d   1       9.814  12.807   5.665  0.00  0.00     0.164 C 
ATOM     49  H22 8R6 d   1       8.909  12.543   5.099  0.00  0.00     0.093 H 
ATOM     50  H23 8R6 d   1      10.690  12.332   5.199  0.00  0.00     0.093 H 
BRANCH  48  51
ATOM     51  C3  8R6 d   1       9.992  14.296   5.644  0.00  0.00     0.199 C 
ATOM     52  O4  8R6 d   1       9.094  15.025   5.197  0.00  0.00    -0.647 OA
ATOM     53  O5  8R6 d   1      11.044  14.782   6.060  0.00  0.00    -0.647 OA
ENDBRANCH  48  51
ENDBRANCH  46  48
BRANCH  46  54
ATOM     54  C10 8R6 d   1      10.753  11.348   7.346  0.00  0.00     0.164 C 
ATOM     55  H24 8R6 d   1      10.414  10.362   6.995  0.00  0.00     0.093 H 
ATOM     56  H25 8R6 d   1      10.874  11.326   8.439  0.00  0.00     0.093 H 
BRANCH  54  57
ATOM     57  C11 8R6 d   1      12.095  11.598   6.752  0.00  0.00     0.199 C 
ATOM     58  O12 8R6 d   1      12.856  10.678   6.697  0.00  0.00    -0.647 OA
ATOM     59  O13 8R6 d   1      12.438  12.693   6.320  0.00  0.00    -0.647 OA
ENDBRANCH  54  57
ENDBRANCH  46  54
ENDBRANCH  41  46
ENDBRANCH  38  41
ENDBRANCH  35  38
ENDBRANCH  32  35
ENDBRANCH   1  32
TORSDOF 15
