REMARK  5 active torsions:
REMARK  status: ('A' for Active; 'I' for Inactive)
REMARK    1  A    between atoms: C09_12  and  C10_1 
REMARK       I    between atoms: C10_1  and  N11_13 
REMARK    2  A    between atoms: C07_10  and  C04_7 
REMARK    3  A    between atoms: C08_11  and  C07_10 
REMARK    4  A    between atoms: C08_11  and  C09_12 
REMARK    5  A    between atoms: C08_11  and  N19_19 
ROOT
ATOM      1  C08 MOL d   1      51.095  62.679  53.162  0.00  0.00     0.112 C 
ATOM      2  H9  MOL d   1      50.183  63.281  53.289  0.00  0.00     0.085 H 
ENDROOT
BRANCH   1   3
ATOM      3  C07 MOL d   1      50.822  61.252  53.646  0.00  0.00    -0.011 C 
ATOM      4  H7  MOL d   1      49.950  60.847  53.111  0.00  0.00     0.043 H 
ATOM      5  H8  MOL d   1      51.702  60.624  53.441  0.00  0.00     0.043 H 
BRANCH   3   6
ATOM      6  C04 MOL d   1      50.538  61.250  55.150  0.00  0.00    -0.015 A 
ATOM      7  C03 MOL d   1      51.311  60.490  56.012  0.00  0.00     0.125 A 
ATOM      8  C02 MOL d   1      51.045  60.490  57.368  0.00  0.00    -0.005 A 
ATOM      9  F22 MOL d   1      52.343  59.739  55.532  0.00  0.00    -0.205 F 
ATOM     10  C01 MOL d   1      49.998  61.244  57.872  0.00  0.00     0.157 A 
ATOM     11  H5  MOL d   1      51.657  59.898  58.039  0.00  0.00     0.093 H 
ATOM     12  C06 MOL d   1      49.221  62.002  57.014  0.00  0.00     0.155 A 
ATOM     13  F21 MOL d   1      49.730  61.244  59.210  0.00  0.00    -0.203 F 
ATOM     14  C05 MOL d   1      49.488  62.005  55.654  0.00  0.00    -0.034 A 
ATOM     15  F20 MOL d   1      48.191  62.745  57.512  0.00  0.00    -0.203 F 
ATOM     16  H6  MOL d   1      48.876  62.597  54.983  0.00  0.00     0.089 H 
ENDBRANCH   3   6
ENDBRANCH   1   3
BRANCH   1  17
ATOM     17  C09 MOL d   1      51.483  62.667  51.682  0.00  0.00     0.036 C 
ATOM     18  H10 MOL d   1      51.853  63.661  51.392  0.00  0.00     0.050 H 
ATOM     19  H11 MOL d   1      52.272  61.919  51.516  0.00  0.00     0.050 H 
BRANCH  17  20
ATOM     20  C10 MOL d   1      50.258  62.313  50.839  0.00  0.00     0.222 C 
ATOM     21  N11 MOL d   1      50.324  62.214  49.388  0.00  0.00    -0.342 N 
ATOM     22  C13 MOL d   1      51.576  62.456  48.682  0.00  0.00     0.071 C 
ATOM     23  C17 MOL d   1      49.104  61.866  48.673  0.00  0.00     0.013 C 
ATOM     24  C14 MOL d   1      51.340  62.605  47.176  0.00  0.00     0.235 C 
ATOM     25  H1  MOL d   1      52.257  61.610  48.857  0.00  0.00     0.079 H 
ATOM     26  H2  MOL d   1      52.033  63.380  49.067  0.00  0.00     0.079 H 
ATOM     27  N15 MOL d   1      50.219  61.938  46.545  0.00  0.00    -0.358 N 
ATOM     28  O18 MOL d   1      52.070  63.272  46.525  0.00  0.00    -0.272 OA
ATOM     29  C16 MOL d   1      49.341  61.130  47.365  0.00  0.00     0.010 C 
ATOM     30  H12 MOL d   1      50.055  62.034  45.563  0.00  0.00     0.162 HD
ATOM     31  H13 MOL d   1      48.384  60.976  46.846  0.00  0.00     0.066 H 
ATOM     32  H14 MOL d   1      49.811  60.156  47.566  0.00  0.00     0.066 H 
ATOM     33  H3  MOL d   1      48.556  62.794  48.453  0.00  0.00     0.066 H 
ATOM     34  H4  MOL d   1      48.493  61.224  49.325  0.00  0.00     0.066 H 
ATOM     35  O12 MOL d   1      49.223  62.108  51.381  0.00  0.00    -0.273 OA
ENDBRANCH  17  20
ENDBRANCH   1  17
BRANCH   1  36
ATOM     36  N19 MOL d   1      52.168  63.270  53.946  0.00  0.00    -0.074 N 
ATOM     37  H15 MOL d   1      51.908  63.276  54.920  0.00  0.00     0.274 HD
ATOM     38  H16 MOL d   1      52.330  64.215  53.636  0.00  0.00     0.274 HD
ATOM     39  H17 MOL d   1      53.010  62.728  53.826  0.00  0.00     0.274 HD
ENDBRANCH   1  36
TORSDOF 5
