REMARK  11 active torsions:
REMARK  status: ('A' for Active; 'I' for Inactive)
REMARK    1  A    between atoms: C10_1  and  C09_14 
REMARK       I    between atoms: N11_15  and  C10_1 
REMARK    2  A    between atoms: C23_25  and  C13_2 
REMARK    3  A    between atoms: C25_27  and  C26_4 
REMARK    4  A    between atoms: C25_27  and  C28_5 
REMARK    5  A    between atoms: C07_12  and  C04_9 
REMARK    6  A    between atoms: C08_13  and  C07_12 
REMARK    7  A    between atoms: C09_14  and  C08_13 
REMARK    8  A    between atoms: C08_13  and  N19_21 
REMARK    9  A    between atoms: O24_26  and  C23_25 
REMARK   10  A    between atoms: O24_26  and  C25_27 
REMARK   11  A    between atoms: C25_27  and  C27_28 
ROOT
ATOM      1  C10 MOL d   1      42.960  12.895  33.430  0.00  0.00     0.222 C 
ATOM      2  C13 MOL d   1      41.036  11.573  32.292  0.00  0.00     0.112 C 
ATOM      3  C17 MOL d   1      43.293  10.494  32.691  0.00  0.00     0.013 C 
ATOM      4  N11 MOL d   1      42.405  11.651  32.800  0.00  0.00    -0.335 N 
ATOM      5  O12 MOL d   1      44.085  12.881  33.814  0.00  0.00    -0.273 OA
ATOM      6  C14 MOL d   1      40.390  10.318  32.735  0.00  0.00     0.242 C 
ATOM      7  N15 MOL d   1      41.176   9.098  32.723  0.00  0.00    -0.358 N 
ATOM      8  C16 MOL d   1      42.597   9.152  32.280  0.00  0.00     0.010 C 
ATOM      9  O18 MOL d   1      39.250  10.311  33.081  0.00  0.00    -0.271 OA
ATOM     10  H1  MOL d   1      40.447  12.443  32.619  0.00  0.00     0.091 H 
ATOM     11  H2  MOL d   1      43.774  10.342  33.668  0.00  0.00     0.066 H 
ATOM     12  H3  MOL d   1      44.060  10.724  31.937  0.00  0.00     0.066 H 
ATOM     13  H17 MOL d   1      40.768   8.231  33.009  0.00  0.00     0.162 HD
ATOM     14  H18 MOL d   1      43.143   8.315  32.738  0.00  0.00     0.066 H 
ATOM     15  H19 MOL d   1      42.631   9.056  31.185  0.00  0.00     0.066 H 
ENDROOT
BRANCH   1  16
ATOM     16  C09 MOL d   1      42.114  14.180  33.583  0.00  0.00     0.036 C 
ATOM     17  H15 MOL d   1      41.502  14.108  34.494  0.00  0.00     0.050 H 
ATOM     18  H16 MOL d   1      41.457  14.291  32.708  0.00  0.00     0.050 H 
BRANCH  16  19
ATOM     19  C08 MOL d   1      43.043  15.407  33.686  0.00  0.00     0.112 C 
ATOM     20  H14 MOL d   1      44.026  15.087  34.062  0.00  0.00     0.085 H 
BRANCH  19  21
ATOM     21  C07 MOL d   1      43.223  16.063  32.308  0.00  0.00    -0.011 C 
ATOM     22  H12 MOL d   1      43.902  15.457  31.690  0.00  0.00     0.043 H 
ATOM     23  H13 MOL d   1      42.249  16.151  31.804  0.00  0.00     0.043 H 
BRANCH  21  24
ATOM     24  C04 MOL d   1      43.835  17.484  32.537  0.00  0.00    -0.015 A 
ATOM     25  C03 MOL d   1      43.035  18.621  32.423  0.00  0.00     0.125 A 
ATOM     26  C02 MOL d   1      43.590  19.890  32.639  0.00  0.00    -0.005 A 
ATOM     27  F22 MOL d   1      41.716  18.503  32.095  0.00  0.00    -0.205 F 
ATOM     28  C01 MOL d   1      44.934  20.013  32.973  0.00  0.00     0.157 A 
ATOM     29  H10 MOL d   1      42.971  20.775  32.546  0.00  0.00     0.093 H 
ATOM     30  C06 MOL d   1      45.733  18.876  33.094  0.00  0.00     0.155 A 
ATOM     31  F21 MOL d   1      45.472  21.252  33.183  0.00  0.00    -0.203 F 
ATOM     32  C05 MOL d   1      45.182  17.608  32.879  0.00  0.00    -0.034 A 
ATOM     33  F20 MOL d   1      47.055  19.000  33.423  0.00  0.00    -0.203 F 
ATOM     34  H11 MOL d   1      45.801  16.723  32.978  0.00  0.00     0.089 H 
ENDBRANCH  21  24
ENDBRANCH  19  21
BRANCH  19  35
ATOM     35  N19 MOL d   1      42.461  16.355  34.609  0.00  0.00    -0.074 N 
ATOM     36  H20 MOL d   1      43.060  17.162  34.684  0.00  0.00     0.274 HD
ATOM     37  H21 MOL d   1      42.362  15.924  35.515  0.00  0.00     0.274 HD
ATOM     38  H22 MOL d   1      41.555  16.640  34.271  0.00  0.00     0.274 HD
ENDBRANCH  19  35
ENDBRANCH  16  19
ENDBRANCH   1  16
BRANCH   2  39
ATOM     39  C23 MOL d   1      41.165  11.527  30.748  0.00  0.00     0.048 C 
ATOM     40  H23 MOL d   1      40.901  10.518  30.398  0.00  0.00     0.078 H 
ATOM     41  H24 MOL d   1      42.206  11.751  30.471  0.00  0.00     0.078 H 
BRANCH  39  42
ATOM     42  O24 MOL d   1      40.294  12.486  30.109  0.00  0.00    -0.379 OA
BRANCH  42  43
ATOM     43  C25 MOL d   1      40.586  12.772  28.711  0.00  0.00     0.050 C 
BRANCH  43  44
ATOM     44  C26 MOL d   1      41.298  14.140  28.628  0.00  0.00    -0.048 C 
ATOM     45  H4  MOL d   1      41.526  14.371  27.577  0.00  0.00     0.031 H 
ATOM     46  H5  MOL d   1      42.233  14.102  29.206  0.00  0.00     0.031 H 
ATOM     47  H6  MOL d   1      40.642  14.920  29.041  0.00  0.00     0.031 H 
ENDBRANCH  43  44
BRANCH  43  48
ATOM     48  C28 MOL d   1      39.251  12.839  27.950  0.00  0.00    -0.048 C 
ATOM     49  H7  MOL d   1      38.745  11.864  28.010  0.00  0.00     0.031 H 
ATOM     50  H8  MOL d   1      39.442  13.088  26.896  0.00  0.00     0.031 H 
ATOM     51  H9  MOL d   1      38.611  13.612  28.400  0.00  0.00     0.031 H 
ENDBRANCH  43  48
BRANCH  43  52
ATOM     52  C27 MOL d   1      41.464  11.704  28.043  0.00  0.00    -0.048 C 
ATOM     53  H25 MOL d   1      42.427  11.638  28.571  0.00  0.00     0.031 H 
ATOM     54  H26 MOL d   1      41.640  11.979  26.993  0.00  0.00     0.031 H 
ATOM     55  H27 MOL d   1      40.954  10.730  28.087  0.00  0.00     0.031 H 
ENDBRANCH  43  52
ENDBRANCH  42  43
ENDBRANCH  39  42
ENDBRANCH   2  39
TORSDOF 11
