REMARK  11 active torsions:
REMARK  status: ('A' for Active; 'I' for Inactive)
REMARK    1  A    between atoms: C10_1  and  C09_14 
REMARK       I    between atoms: N11_15  and  C10_1 
REMARK    2  A    between atoms: C23_25  and  C13_2 
REMARK    3  A    between atoms: C25_27  and  C26_4 
REMARK    4  A    between atoms: C25_27  and  C28_5 
REMARK    5  A    between atoms: C07_12  and  C04_9 
REMARK    6  A    between atoms: C08_13  and  C07_12 
REMARK    7  A    between atoms: C09_14  and  C08_13 
REMARK    8  A    between atoms: C08_13  and  N19_21 
REMARK    9  A    between atoms: O24_26  and  C23_25 
REMARK   10  A    between atoms: O24_26  and  C25_27 
REMARK   11  A    between atoms: C25_27  and  C27_28 
ROOT
ATOM      1  C10 MOL d   1      47.653 -17.205  49.537  0.00  0.00     0.222 C 
ATOM      2  C13 MOL d   1      45.423 -16.189  50.270  0.00  0.00     0.112 C 
ATOM      3  C17 MOL d   1      46.210 -18.325  51.356  0.00  0.00     0.013 C 
ATOM      4  N11 MOL d   1      46.423 -17.238  50.394  0.00  0.00    -0.335 N 
ATOM      5  O12 MOL d   1      47.795 -16.331  48.758  0.00  0.00    -0.273 OA
ATOM      6  C14 MOL d   1      44.146 -16.862  49.861  0.00  0.00     0.242 C 
ATOM      7  N15 MOL d   1      43.825 -18.162  50.449  0.00  0.00    -0.358 N 
ATOM      8  C16 MOL d   1      44.721 -18.777  51.445  0.00  0.00     0.010 C 
ATOM      9  O18 MOL d   1      43.423 -16.358  49.069  0.00  0.00    -0.271 OA
ATOM     10  H1  MOL d   1      45.730 -15.450  49.516  0.00  0.00     0.091 H 
ATOM     11  H2  MOL d   1      46.532 -17.981  52.350  0.00  0.00     0.066 H 
ATOM     12  H3  MOL d   1      46.820 -19.188  51.051  0.00  0.00     0.066 H 
ATOM     13  H17 MOL d   1      42.990 -18.638  50.173  0.00  0.00     0.162 HD
ATOM     14  H18 MOL d   1      44.345 -18.521  52.447  0.00  0.00     0.066 H 
ATOM     15  H19 MOL d   1      44.686 -19.868  51.308  0.00  0.00     0.066 H 
ENDROOT
BRANCH   1  16
ATOM     16  C09 MOL d   1      48.691 -18.361  49.704  0.00  0.00     0.036 C 
ATOM     17  H15 MOL d   1      48.300 -19.244  49.178  0.00  0.00     0.050 H 
ATOM     18  H16 MOL d   1      48.780 -18.583  50.778  0.00  0.00     0.050 H 
BRANCH  16  19
ATOM     19  C08 MOL d   1      50.115 -18.072  49.158  0.00  0.00     0.112 C 
ATOM     20  H14 MOL d   1      50.154 -18.386  48.104  0.00  0.00     0.085 H 
BRANCH  19  21
ATOM     21  C07 MOL d   1      50.588 -16.606  49.236  0.00  0.00    -0.011 C 
ATOM     22  H12 MOL d   1      49.921 -15.950  48.658  0.00  0.00     0.043 H 
ATOM     23  H13 MOL d   1      50.624 -16.263  50.281  0.00  0.00     0.043 H 
BRANCH  21  24
ATOM     24  C04 MOL d   1      52.016 -16.628  48.613  0.00  0.00    -0.015 A 
ATOM     25  C03 MOL d   1      53.139 -16.397  49.395  0.00  0.00     0.125 A 
ATOM     26  C02 MOL d   1      54.406 -16.436  48.820  0.00  0.00    -0.005 A 
ATOM     27  F22 MOL d   1      53.034 -16.124  50.728  0.00  0.00    -0.205 F 
ATOM     28  C01 MOL d   1      54.548 -16.711  47.466  0.00  0.00     0.157 A 
ATOM     29  H10 MOL d   1      55.283 -16.252  49.430  0.00  0.00     0.093 H 
ATOM     30  C06 MOL d   1      53.426 -16.948  46.681  0.00  0.00     0.155 A 
ATOM     31  F21 MOL d   1      55.804 -16.745  46.920  0.00  0.00    -0.203 F 
ATOM     32  C05 MOL d   1      52.156 -16.908  47.256  0.00  0.00    -0.034 A 
ATOM     33  F20 MOL d   1      53.563 -17.216  45.363  0.00  0.00    -0.203 F 
ATOM     34  H11 MOL d   1      51.279 -17.095  46.647  0.00  0.00     0.089 H 
ENDBRANCH  21  24
ENDBRANCH  19  21
BRANCH  19  35
ATOM     35  N19 MOL d   1      51.007 -18.876  49.944  0.00  0.00    -0.074 N 
ATOM     36  H20 MOL d   1      51.954 -18.729  49.633  0.00  0.00     0.274 HD
ATOM     37  H21 MOL d   1      50.765 -19.849  49.837  0.00  0.00     0.274 HD
ATOM     38  H22 MOL d   1      50.928 -18.615  50.914  0.00  0.00     0.274 HD
ENDBRANCH  19  35
ENDBRANCH  16  19
ENDBRANCH   1  16
BRANCH   2  39
ATOM     39  C23 MOL d   1      45.226 -15.498  51.638  0.00  0.00     0.048 C 
ATOM     40  H23 MOL d   1      45.836 -16.001  52.403  0.00  0.00     0.078 H 
ATOM     41  H24 MOL d   1      44.166 -15.539  51.929  0.00  0.00     0.078 H 
BRANCH  39  42
ATOM     42  O24 MOL d   1      45.644 -14.129  51.501  0.00  0.00    -0.379 OA
BRANCH  42  43
ATOM     43  C25 MOL d   1      46.911 -13.689  52.020  0.00  0.00     0.050 C 
BRANCH  43  44
ATOM     44  C26 MOL d   1      47.698 -13.034  50.855  0.00  0.00    -0.048 C 
ATOM     45  H4  MOL d   1      48.675 -12.686  51.222  0.00  0.00     0.031 H 
ATOM     46  H5  MOL d   1      47.128 -12.179  50.463  0.00  0.00     0.031 H 
ATOM     47  H6  MOL d   1      47.849 -13.772  50.054  0.00  0.00     0.031 H 
ENDBRANCH  43  44
BRANCH  43  48
ATOM     48  C28 MOL d   1      47.788 -14.789  52.597  0.00  0.00    -0.048 C 
ATOM     49  H7  MOL d   1      47.261 -15.279  53.429  0.00  0.00     0.031 H 
ATOM     50  H8  MOL d   1      48.729 -14.353  52.964  0.00  0.00     0.031 H 
ATOM     51  H9  MOL d   1      48.008 -15.531  51.815  0.00  0.00     0.031 H 
ENDBRANCH  43  48
BRANCH  43  52
ATOM     52  C27 MOL d   1      46.662 -12.647  53.102  0.00  0.00    -0.048 C 
ATOM     53  H25 MOL d   1      46.028 -11.844  52.699  0.00  0.00     0.031 H 
ATOM     54  H26 MOL d   1      47.623 -12.225  53.433  0.00  0.00     0.031 H 
ATOM     55  H27 MOL d   1      46.156 -13.120  53.957  0.00  0.00     0.031 H 
ENDBRANCH  43  52
ENDBRANCH  42  43
ENDBRANCH  39  42
ENDBRANCH   2  39
TORSDOF 11
