REMARK WARNING: 32 MAX_TORS EXCEEDED!!!
REMARK  59 active torsions:
REMARK  status: ('A' for Active; 'I' for Inactive)
REMARK    1  A    between atoms: CA_2  and  N_1 
REMARK    2  A    between atoms: C_3  and  CA_2 
REMARK    3  A    between atoms: CA_2  and  CB_5 
REMARK       I    between atoms: N_9  and  C_3 
REMARK    4  A    between atoms: CB_5  and  CG_6 
REMARK    5  A    between atoms: CG_6  and  CD1_7 
REMARK    6  A    between atoms: CG_6  and  CD2_8 
REMARK    7  A    between atoms: CA_10  and  N_9 
REMARK    8  A    between atoms: C_11  and  CA_10 
REMARK    9  A    between atoms: CA_10  and  CB_13 
REMARK       I    between atoms: N_17  and  C_11 
REMARK   10  A    between atoms: CB_13  and  CG_14 
REMARK   11  A    between atoms: CG_14  and  CD1_15 
REMARK   12  A    between atoms: CG_14  and  CD2_16 
REMARK   13  A    between atoms: C_19  and  CA_18 
REMARK       I    between atoms: N_24  and  C_19 
REMARK   14  A    between atoms: C_26  and  CA_25 
REMARK       I    between atoms: N_31  and  C_26 
REMARK   15  A    between atoms: CA_32  and  N_31 
REMARK   16  A    between atoms: C_33  and  CA_32 
REMARK   17  A    between atoms: CA_32  and  CB_35 
REMARK       I    between atoms: N_38  and  C_33 
REMARK   18  A    between atoms: CB_35  and  OG1_36 
REMARK   19  A    between atoms: CB_35  and  CG2_37 
REMARK   20  A    between atoms: CA_39  and  N_38 
REMARK   21  A    between atoms: C_40  and  CA_39 
REMARK   22  A    between atoms: CA_39  and  CB_42 
REMARK       I    between atoms: N_47  and  C_40 
REMARK   23  A    between atoms: CB_42  and  CG_43 
REMARK   24  A    between atoms: CG_43  and  CD_44 
REMARK   25  A    between atoms: CA_48  and  N_47 
REMARK   26  A    between atoms: C_49  and  CA_48 
REMARK   27  A    between atoms: CA_48  and  CB_51 
REMARK       I    between atoms: N_56  and  C_49 
REMARK   28  A    between atoms: CB_51  and  CG_52 
REMARK   29  A    between atoms: CG_52  and  CD_53 
REMARK       I    between atoms: CD_53  and  NE2_55 
REMARK   30  A    between atoms: CA_57  and  N_56 
REMARK   31  A    between atoms: C_58  and  CA_57 
REMARK   32  A    between atoms: CA_57  and  CB_60 
REMARK       I    between atoms: N_64  and  C_58 
REMARK   33  A    between atoms: CB_60  and  CG_61 
REMARK   34  A    between atoms: CA_65  and  N_64 
REMARK   35  A    between atoms: C_66  and  CA_65 
REMARK   36  A    between atoms: CA_65  and  CB_68 
REMARK       I    between atoms: N_73  and  C_66 
REMARK   37  A    between atoms: CB_68  and  CG_69 
REMARK   38  A    between atoms: CG_69  and  CD1_70 
REMARK   39  A    between atoms: CG_69  and  CD2_71 
REMARK   40  A    between atoms: CA_75  and  N_73 
REMARK   41  A    between atoms: CA_75  and  CB1_80 
REMARK   42  A    between atoms: CA_82  and  CB_85 
REMARK   43  A    between atoms: CB_85  and  CG_86 
REMARK   44  A    between atoms: CG_86  and  CD_87 
REMARK   45  A    between atoms: CD_87  and  CE_88 
REMARK   46  A    between atoms: CE_88  and  NZ_89 
REMARK   47  A    between atoms: CA_91  and  CB_94 
REMARK   48  A    between atoms: CB_94  and  CG_95 
REMARK   49  A    between atoms: CG_95  and  CD1_96 
REMARK   50  A    between atoms: CG_95  and  CD2_97 
REMARK   51  A    between atoms: CA_99  and  CB_102 
REMARK   52  A    between atoms: CB_102  and  CG_103 
REMARK   53  A    between atoms: CA_112  and  C_109 
REMARK       I    between atoms: C_109  and  N_118 
REMARK   54  A    between atoms: CA_112  and  CB1_117 
REMARK   55  A    between atoms: N_118  and  CA_119 
REMARK   56  A    between atoms: CA_119  and  C_120 
REMARK   57  A    between atoms: CA_119  and  CB_122 
REMARK       I    between atoms: C_120  and  N_130 
REMARK   58  A    between atoms: CB_122  and  CG_123 
REMARK   59  A    between atoms: CZ_128  and  OH_129 
ROOT
ATOM      1  CA  LEU d   1      37.529   8.168 -30.733  0.00  0.00     0.089 C 
ATOM      2  H65 LEU d   1      37.446   7.178 -30.262  0.00  0.00     0.087 H 
ENDROOT
BRANCH   1   3
ATOM      3  N   LEU d   1      38.927   8.540 -30.769  0.00  0.00    -0.346 N 
ATOM      4  C   ASP d   1      39.849   7.750 -31.318  0.00  0.00     0.241 C 
ATOM      5  O   ASP d   1      39.575   6.652 -31.821  0.00  0.00    -0.271 OA
ATOM      6  H64 LEU d   1      39.209   9.413 -30.371  0.00  0.00     0.163 HD
BRANCH   4   7
ATOM      7  CA  ASP d   1      41.276   8.250 -31.278  0.00  0.00     0.098 C 
ATOM      8  H61 ASP d   1      41.893   7.625 -31.940  0.00  0.00     0.088 H 
BRANCH   7   9
ATOM      9  N   ASP d   1      41.350   9.633 -31.748  0.00  0.00    -0.346 N 
ATOM     10  C   GLN d   1      40.931   9.961 -32.980  0.00  0.00     0.241 C 
ATOM     11  O   GLN d   1      40.542   9.118 -33.795  0.00  0.00    -0.271 OA
ATOM     12  H60 ASP d   1      41.717  10.342 -31.145  0.00  0.00     0.163 HD
BRANCH  10  13
ATOM     13  CA  GLN d   1      40.933  11.434 -33.363  0.00  0.00     0.090 C 
ATOM     14  H53 GLN d   1      40.175  11.585 -34.146  0.00  0.00     0.087 H 
BRANCH  13  15
ATOM     15  N   GLN d   1      40.584  12.274 -32.226  0.00  0.00    -0.346 N 
ATOM     16  C   GLU d   1      39.318  12.326 -31.805  0.00  0.00     0.241 C 
ATOM     17  O   GLU d   1      38.400  11.745 -32.397  0.00  0.00    -0.271 OA
ATOM     18  H52 GLN d   1      41.290  12.810 -31.762  0.00  0.00     0.163 HD
BRANCH  16  19
ATOM     19  CA  GLU d   1      39.028  13.162 -30.562  0.00  0.00     0.090 C 
ATOM     20  H47 GLU d   1      38.180  12.698 -30.037  0.00  0.00     0.087 H 
BRANCH  19  21
ATOM     21  N   GLU d   1      40.160  13.198 -29.638  0.00  0.00    -0.346 N 
ATOM     22  C   THR d   1      40.611  12.074 -29.082  0.00  0.00     0.243 C 
ATOM     23  O   THR d   1      40.104  10.973 -29.305  0.00  0.00    -0.271 OA
ATOM     24  H46 GLU d   1      40.598  14.070 -29.422  0.00  0.00     0.163 HD
BRANCH  22  25
ATOM     25  CA  THR d   1      41.830  12.225 -28.177  0.00  0.00     0.113 C 
ATOM     26  H40 THR d   1      41.661  13.052 -27.472  0.00  0.00     0.091 H 
BRANCH  25  27
ATOM     27  N   THR d   1      42.025  10.999 -27.432  0.00  0.00    -0.344 N 
ATOM     28  C   PRO d   1      41.251  10.684 -26.403  0.00  0.00     0.241 C 
ATOM     29  O   PRO d   1      40.477  11.481 -25.872  0.00  0.00    -0.271 OA
ATOM     30  H39 THR d   1      42.760  10.376 -27.700  0.00  0.00     0.163 HD
BRANCH  28  31
ATOM     31  CA  PRO d   1      41.405   9.266 -25.882  0.00  0.00     0.091 C 
ATOM     32  N   PRO d   1      41.424   9.263 -24.423  0.00  0.00    -0.337 N 
ATOM     33  C   PRO d   1      42.414   9.874 -23.789  0.00  0.00     0.243 C 
ATOM     34  CD  PRO d   1      40.209   8.649 -23.852  0.00  0.00    -0.001 C 
ATOM     35  O   PRO d   1      43.393  10.325 -24.407  0.00  0.00    -0.271 OA
ATOM     36  CG  PRO d   1      39.293   8.551 -25.040  0.00  0.00    -0.048 C 
ATOM     37  H37 PRO d   1      39.774   9.287 -23.068  0.00  0.00     0.064 H 
ATOM     38  H38 PRO d   1      40.426   7.654 -23.436  0.00  0.00     0.064 H 
ATOM     39  CB  PRO d   1      40.188   8.399 -26.221  0.00  0.00    -0.036 C 
ATOM     40  H35 PRO d   1      38.631   7.678 -24.944  0.00  0.00     0.035 H 
ATOM     41  H36 PRO d   1      38.685   9.463 -25.133  0.00  0.00     0.035 H 
ATOM     42  H33 PRO d   1      40.483   7.348 -26.355  0.00  0.00     0.036 H 
ATOM     43  H34 PRO d   1      39.694   8.760 -27.135  0.00  0.00     0.036 H 
ATOM     44  H32 PRO d   1      42.325   8.824 -26.291  0.00  0.00     0.087 H 
BRANCH  33  45
ATOM     45  CA  PRO d   1      42.333   9.978 -22.280  0.00  0.00     0.092 C 
ATOM     46  N   PRO d   1      43.671  10.081 -21.710  0.00  0.00    -0.337 N 
ATOM     47  C   LEU d   1      44.490   9.034 -21.782  0.00  0.00     0.243 C 
ATOM     48  CD  PRO d   1      43.892  11.375 -21.056  0.00  0.00    -0.001 C 
ATOM     49  O   LEU d   1      44.093   7.935 -22.186  0.00  0.00    -0.271 OA
ATOM     50  CG  PRO d   1      42.491  11.772 -20.683  0.00  0.00    -0.048 C 
ATOM     51  H30 PRO d   1      44.344  12.102 -21.747  0.00  0.00     0.064 H 
ATOM     52  H31 PRO d   1      44.529  11.271 -20.166  0.00  0.00     0.064 H 
ATOM     53  CB  PRO d   1      41.664  11.297 -21.840  0.00  0.00    -0.036 C 
ATOM     54  H28 PRO d   1      42.179  11.279 -19.750  0.00  0.00     0.035 H 
ATOM     55  H29 PRO d   1      42.411  12.863 -20.566  0.00  0.00     0.035 H 
ATOM     56  H26 PRO d   1      40.624  11.120 -21.527  0.00  0.00     0.036 H 
ATOM     57  H27 PRO d   1      41.681  12.033 -22.657  0.00  0.00     0.036 H 
ATOM     58  H25 PRO d   1      41.793   9.108 -21.878  0.00  0.00     0.087 H 
BRANCH  47  59
ATOM     59  CA  LEU d   1      45.938   9.201 -21.381  0.00  0.00     0.090 C 
ATOM     60  H15 LEU d   1      46.059  10.146 -20.831  0.00  0.00     0.087 H 
BRANCH  59  61
ATOM     61  N   LEU d   1      46.340   8.094 -20.523  0.00  0.00    -0.346 N 
ATOM     62  C   LEU d   1      46.348   8.125 -19.174  0.00  0.00     0.249 C 
ATOM     63  O   LEU d   1      46.070   9.134 -18.516  0.00  0.00    -0.271 OA
ATOM     64  H14 LEU d   1      46.632   7.247 -20.968  0.00  0.00     0.163 HD
BRANCH  62  65
ATOM     65  CA  LEU d   1      46.740   6.823 -18.482  0.00  0.00     0.176 C 
ATOM     66  H4  LEU d   1      47.677   6.462 -18.931  0.00  0.00     0.099 H 
BRANCH  65  67
ATOM     67  N   LEU d   1      46.973   7.044 -17.057  0.00  0.00    -0.066 N 
ATOM     68  H1  LEU d   1      47.230   6.173 -16.620  0.00  0.00     0.275 HD
ATOM     69  H2  LEU d   1      46.132   7.399 -16.630  0.00  0.00     0.275 HD
ATOM     70  H3  LEU d   1      47.718   7.713 -16.938  0.00  0.00     0.275 HD
ENDBRANCH  65  67
BRANCH  65  71
ATOM     71  CB  LEU d   1      45.655   5.750 -18.699  0.00  0.00    -0.028 C 
ATOM     72  H5  LEU d   1      45.844   4.962 -17.955  0.00  0.00     0.037 H 
ATOM     73  H6  LEU d   1      45.816   5.346 -19.710  0.00  0.00     0.037 H 
BRANCH  71  74
ATOM     74  CG  LEU d   1      44.158   6.089 -18.600  0.00  0.00    -0.059 C 
ATOM     75  H7  LEU d   1      43.945   6.915 -19.294  0.00  0.00     0.038 H 
BRANCH  74  76
ATOM     76  CD1 LEU d   1      43.303   4.902 -18.975  0.00  0.00    -0.073 C 
ATOM     77  H8  LEU d   1      42.241   5.175 -18.895  0.00  0.00     0.028 H 
ATOM     78  H9  LEU d   1      43.519   4.065 -18.295  0.00  0.00     0.028 H 
ATOM     79  H10 LEU d   1      43.527   4.601 -20.009  0.00  0.00     0.028 H 
ENDBRANCH  74  76
BRANCH  74  80
ATOM     80  CD2 LEU d   1      43.792   6.509 -17.231  0.00  0.00    -0.073 C 
ATOM     81  H11 LEU d   1      44.404   7.374 -16.937  0.00  0.00     0.028 H 
ATOM     82  H12 LEU d   1      43.971   5.679 -16.532  0.00  0.00     0.028 H 
ATOM     83  H13 LEU d   1      42.728   6.787 -17.205  0.00  0.00     0.028 H 
ENDBRANCH  74  80
ENDBRANCH  71  74
ENDBRANCH  65  71
ENDBRANCH  62  65
ENDBRANCH  59  61
BRANCH  59  84
ATOM     84  CB  LEU d   1      46.795   9.237 -22.637  0.00  0.00    -0.035 C 
ATOM     85  H16 LEU d   1      46.270   9.851 -23.383  0.00  0.00     0.037 H 
ATOM     86  H17 LEU d   1      46.886   8.206 -23.010  0.00  0.00     0.037 H 
BRANCH  84  87
ATOM     87  CG  LEU d   1      48.195   9.797 -22.481  0.00  0.00    -0.059 C 
ATOM     88  H18 LEU d   1      48.632   9.464 -21.528  0.00  0.00     0.038 H 
BRANCH  87  89
ATOM     89  CD1 LEU d   1      49.048   9.310 -23.625  0.00  0.00    -0.073 C 
ATOM     90  H19 LEU d   1      50.067   9.712 -23.520  0.00  0.00     0.028 H 
ATOM     91  H20 LEU d   1      48.615   9.652 -24.577  0.00  0.00     0.028 H 
ATOM     92  H21 LEU d   1      49.084   8.211 -23.613  0.00  0.00     0.028 H 
ENDBRANCH  87  89
BRANCH  87  93
ATOM     93  CD2 LEU d   1      48.095  11.278 -22.498  0.00  0.00    -0.073 C 
ATOM     94  H22 LEU d   1      47.470  11.613 -21.657  0.00  0.00     0.028 H 
ATOM     95  H23 LEU d   1      47.641  11.604 -23.445  0.00  0.00     0.028 H 
ATOM     96  H24 LEU d   1      49.100  11.714 -22.404  0.00  0.00     0.028 H 
ENDBRANCH  87  93
ENDBRANCH  84  87
ENDBRANCH  59  84
ENDBRANCH  47  59
ENDBRANCH  33  45
ENDBRANCH  28  31
ENDBRANCH  25  27
BRANCH  25  97
ATOM     97  CB  THR d   1      43.062  12.539 -29.032  0.00  0.00     0.060 C 
ATOM     98  H41 THR d   1      42.970  13.558 -29.436  0.00  0.00     0.086 H 
BRANCH  97  99
ATOM     99  OG1 THR d   1      43.126  11.593 -30.112  0.00  0.00    -0.393 OA
ATOM    100  H42 THR d   1      43.194  10.714 -29.758  0.00  0.00     0.210 HD
ENDBRANCH  97  99
BRANCH  97 101
ATOM    101  CG2 THR d   1      44.360  12.436 -28.217  0.00  0.00    -0.050 C 
ATOM    102  H43 THR d   1      45.219  12.668 -28.864  0.00  0.00     0.031 H 
ATOM    103  H44 THR d   1      44.464  11.415 -27.821  0.00  0.00     0.031 H 
ATOM    104  H45 THR d   1      44.327  13.151 -27.382  0.00  0.00     0.031 H 
ENDBRANCH  97 101
ENDBRANCH  25  97
ENDBRANCH  22  25
ENDBRANCH  19  21
BRANCH  19 105
ATOM    105  CB  GLU d   1      38.625  14.592 -30.956  0.00  0.00    -0.029 C 
ATOM    106  H48 GLU d   1      39.227  14.898 -31.824  0.00  0.00     0.037 H 
ATOM    107  H49 GLU d   1      38.837  15.261 -30.109  0.00  0.00     0.037 H 
BRANCH 105 108
ATOM    108  CG  GLU d   1      37.140  14.722 -31.321  0.00  0.00     0.018 C 
ATOM    109  H50 GLU d   1      36.904  13.973 -32.091  0.00  0.00     0.049 H 
ATOM    110  H51 GLU d   1      36.968  15.730 -31.726  0.00  0.00     0.049 H 
BRANCH 108 111
ATOM    111  CD  GLU d   1      36.197  14.510 -30.135  0.00  0.00     0.172 C 
ATOM    112  OE1 GLU d   1      35.366  13.585 -30.171  0.00  0.00    -0.648 OA
ATOM    113  OE2 GLU d   1      36.299  15.283 -29.162  0.00  0.00    -0.648 OA
ENDBRANCH 108 111
ENDBRANCH 105 108
ENDBRANCH  19 105
ENDBRANCH  16  19
ENDBRANCH  13  15
BRANCH  13 114
ATOM    114  CB  GLN d   1      42.294  11.843 -33.928  0.00  0.00    -0.030 C 
ATOM    115  H54 GLN d   1      42.959  12.072 -33.082  0.00  0.00     0.037 H 
ATOM    116  H55 GLN d   1      42.151  12.748 -34.537  0.00  0.00     0.037 H 
BRANCH 114 117
ATOM    117  CG  GLN d   1      42.988  10.780 -34.807  0.00  0.00     0.011 C 
ATOM    118  H56 GLN d   1      42.900  11.094 -35.858  0.00  0.00     0.047 H 
ATOM    119  H57 GLN d   1      42.464   9.823 -34.665  0.00  0.00     0.047 H 
BRANCH 117 120
ATOM    120  CD  GLN d   1      44.491  10.559 -34.494  0.00  0.00     0.215 C 
ATOM    121  OE1 GLN d   1      44.904  10.382 -33.332  0.00  0.00    -0.274 OA
ATOM    122  NE2 GLN d   1      45.306  10.554 -35.550  0.00  0.00    -0.370 N 
ATOM    123  H58 GLN d   1      46.288  10.417 -35.423  0.00  0.00     0.159 HD
ATOM    124  H59 GLN d   1      44.935  10.687 -36.469  0.00  0.00     0.159 HD
ENDBRANCH 117 120
ENDBRANCH 114 117
ENDBRANCH  13 114
ENDBRANCH  10  13
ENDBRANCH   7   9
BRANCH   7 125
ATOM    125  CB  ASP d   1      41.798   8.117 -29.847  0.00  0.00     0.043 C 
ATOM    126  H62 ASP d   1      41.542   7.114 -29.474  0.00  0.00     0.052 H 
ATOM    127  H63 ASP d   1      41.305   8.877 -29.224  0.00  0.00     0.052 H 
BRANCH 125 128
ATOM    128  CG  ASP d   1      43.290   8.302 -29.735  0.00  0.00     0.175 C 
ATOM    129  OD1 ASP d   1      44.030   7.856 -30.651  0.00  0.00    -0.648 OA
ATOM    130  OD2 ASP d   1      43.718   8.875 -28.698  0.00  0.00    -0.648 OA
ENDBRANCH 125 128
ENDBRANCH   7 125
ENDBRANCH   4   7
ENDBRANCH   1   3
BRANCH   1 131
ATOM    131  C   LEU d   1      36.987   8.073 -32.143  0.00  0.00     0.241 C 
ATOM    132  O   LEU d   1      36.325   7.097 -32.480  0.00  0.00    -0.271 OA
ATOM    133  N   MK8 d   1      37.288   9.070 -32.970  0.00  0.00    -0.342 N 
ATOM    134  H75 MK8 d   1      37.817   9.849 -32.633  0.00  0.00     0.163 HD
BRANCH 133 135
ATOM    135  CA  MK8 d   1      36.851   9.040 -34.376  0.00  0.00     0.110 C 
ATOM    136  C   MK8 d   1      37.201   7.640 -35.011  0.00  0.00     0.246 C 
ATOM    137  O   MK8 d   1      36.316   6.967 -35.596  0.00  0.00    -0.271 OA
ATOM    138  N   LYS d   1      38.452   7.230 -34.862  0.00  0.00    -0.346 N 
ATOM    139  CA  LYS d   1      38.908   5.962 -35.392  0.00  0.00     0.089 C 
ATOM    140  H87 LYS d   1      39.099   7.812 -34.370  0.00  0.00     0.163 HD
ATOM    141  C   LYS d   1      38.136   4.771 -34.811  0.00  0.00     0.241 C 
ATOM    142  H88 LYS d   1      38.752   5.970 -36.481  0.00  0.00     0.087 H 
ATOM    143  O   LYS d   1      37.819   3.816 -35.522  0.00  0.00    -0.271 OA
ATOM    144  N   LEU d   1      37.821   4.837 -33.521  0.00  0.00    -0.346 N 
ATOM    145  CA  LEU d   1      37.135   3.742 -32.859  0.00  0.00     0.089 C 
ATOM    146 0H10 LEU d   1      38.061   5.655 -32.998  0.00  0.00     0.163 HD
ATOM    147  C   LEU d   1      35.747   3.552 -33.437  0.00  0.00     0.241 C 
ATOM    148 1H10 LEU d   1      37.711   2.820 -33.029  0.00  0.00     0.087 H 
ATOM    149  O   LEU d   1      35.251   2.434 -33.500  0.00  0.00    -0.271 OA
ATOM    150  N   ALC d   1      35.121   4.641 -33.873  0.00  0.00    -0.346 N 
ATOM    151  CA  ALC d   1      33.823   4.536 -34.505  0.00  0.00     0.089 C 
ATOM    152 1H11 ALC d   1      35.550   5.538 -33.764  0.00  0.00     0.163 HD
ATOM    153  C   ALC d   1      33.936   4.186 -35.991  0.00  0.00     0.241 C 
ATOM    154 2H11 ALC d   1      33.280   3.725 -33.997  0.00  0.00     0.087 H 
ATOM    155  O   ALC d   1      33.169   3.385 -36.525  0.00  0.00    -0.271 OA
ATOM    156  N   MK8 d   1      34.915   4.796 -36.671  0.00  0.00    -0.342 N 
ATOM    157  CA  MK8 d   1      35.099   4.597 -38.126  0.00  0.00     0.110 C 
ATOM    158 6H12 MK8 d   1      35.540   5.404 -36.181  0.00  0.00     0.163 HD
ATOM    159  CB  MK8 d   1      36.383   5.196 -38.700  0.00  0.00    -0.033 C 
ATOM    160  CG  MK8 d   1      36.312   6.641 -39.120  0.00  0.00    -0.062 C 
ATOM    161 7H12 MK8 d   1      36.665   4.603 -39.583  0.00  0.00     0.037 H 
ATOM    162 8H12 MK8 d   1      37.167   5.107 -37.933  0.00  0.00     0.037 H 
ATOM    163  CD  MK8 d   1      37.715   7.091 -39.494  0.00  0.00    -0.065 C 
ATOM    164 3H13 MK8 d   1      35.933   7.253 -38.288  0.00  0.00     0.033 H 
ATOM    165 4H13 MK8 d   1      35.643   6.745 -39.987  0.00  0.00     0.033 H 
ATOM    166  CE  MK8 d   1      37.723   8.539 -39.750  0.00  0.00    -0.065 C 
ATOM    167 9H12 MK8 d   1      38.404   6.863 -38.667  0.00  0.00     0.033 H 
ATOM    168 0H13 MK8 d   1      38.040   6.558 -40.400  0.00  0.00     0.033 H 
ATOM    169  CE  MK8 d   1      37.993   9.780 -38.971  0.00  0.00    -0.065 C 
ATOM    170 1H13 MK8 d   1      38.438   8.625 -40.581  0.00  0.00     0.033 H 
ATOM    171 2H13 MK8 d   1      36.704   8.715 -40.124  0.00  0.00     0.033 H 
ATOM    172  CD  MK8 d   1      38.187   9.426 -37.553  0.00  0.00    -0.065 C 
ATOM    173  H80 MK8 d   1      38.901  10.267 -39.357  0.00  0.00     0.033 H 
ATOM    174  H81 MK8 d   1      37.140  10.467 -39.066  0.00  0.00     0.033 H 
ATOM    175  CG  MK8 d   1      37.139  10.132 -36.694  0.00  0.00    -0.062 C 
ATOM    176  H78 MK8 d   1      39.192   9.739 -37.233  0.00  0.00     0.033 H 
ATOM    177  H79 MK8 d   1      38.085   8.338 -37.431  0.00  0.00     0.033 H 
ATOM    178  CB  MK8 d   1      37.550  10.125 -35.230  0.00  0.00    -0.033 C 
ATOM    179  H82 MK8 d   1      37.035  11.173 -37.035  0.00  0.00     0.033 H 
ATOM    180  H83 MK8 d   1      36.175   9.613 -36.801  0.00  0.00     0.033 H 
ATOM    181  H76 MK8 d   1      38.636   9.957 -35.178  0.00  0.00     0.037 H 
ATOM    182  H77 MK8 d   1      37.310  11.109 -34.800  0.00  0.00     0.037 H 
BRANCH 139 183
ATOM    183  CB  LYS d   1      40.394   5.802 -35.116  0.00  0.00    -0.038 C 
ATOM    184  H89 LYS d   1      40.648   4.735 -35.201  0.00  0.00     0.036 H 
ATOM    185  H90 LYS d   1      40.593   6.146 -34.090  0.00  0.00     0.036 H 
BRANCH 183 186
ATOM    186  CG  LYS d   1      41.281   6.573 -36.052  0.00  0.00    -0.061 C 
ATOM    187  H91 LYS d   1      41.742   7.411 -35.508  0.00  0.00     0.033 H 
ATOM    188  H92 LYS d   1      40.678   6.964 -36.885  0.00  0.00     0.033 H 
BRANCH 186 189
ATOM    189  CD  LYS d   1      42.371   5.673 -36.603  0.00  0.00    -0.043 C 
ATOM    190  H93 LYS d   1      42.522   5.901 -37.668  0.00  0.00     0.035 H 
ATOM    191  H94 LYS d   1      42.061   4.623 -36.493  0.00  0.00     0.035 H 
BRANCH 189 192
ATOM    192  CE  LYS d   1      43.667   5.884 -35.865  0.00  0.00     0.080 C 
ATOM    193  H95 LYS d   1      43.461   5.906 -34.785  0.00  0.00     0.075 H 
ATOM    194  H96 LYS d   1      44.100   6.847 -36.175  0.00  0.00     0.075 H 
BRANCH 192 195
ATOM    195  NZ  LYS d   1      44.654   4.799 -36.146  0.00  0.00    -0.079 N 
ATOM    196  H97 LYS d   1      45.504   4.978 -35.635  0.00  0.00     0.274 HD
ATOM    197  H98 LYS d   1      44.855   4.775 -37.133  0.00  0.00     0.274 HD
ATOM    198  H99 LYS d   1      44.270   3.912 -35.859  0.00  0.00     0.274 HD
ENDBRANCH 192 195
ENDBRANCH 189 192
ENDBRANCH 186 189
ENDBRANCH 183 186
ENDBRANCH 139 183
BRANCH 145 199
ATOM    199  CB  LEU d   1      37.052   3.987 -31.358  0.00  0.00    -0.035 C 
ATOM    200 2H10 LEU d   1      36.358   3.255 -30.919  0.00  0.00     0.037 H 
ATOM    201 3H10 LEU d   1      36.669   5.004 -31.187  0.00  0.00     0.037 H 
BRANCH 199 202
ATOM    202  CG  LEU d   1      38.407   3.852 -30.668  0.00  0.00    -0.059 C 
ATOM    203 4H10 LEU d   1      39.146   4.396 -31.274  0.00  0.00     0.038 H 
BRANCH 202 204
ATOM    204  CD1 LEU d   1      38.363   4.514 -29.287  0.00  0.00    -0.073 C 
ATOM    205 5H10 LEU d   1      39.344   4.411 -28.799  0.00  0.00     0.028 H 
ATOM    206 6H10 LEU d   1      37.594   4.026 -28.671  0.00  0.00     0.028 H 
ATOM    207 7H10 LEU d   1      38.120   5.581 -29.399  0.00  0.00     0.028 H 
ENDBRANCH 202 204
BRANCH 202 208
ATOM    208  CD2 LEU d   1      38.867   2.383 -30.597  0.00  0.00    -0.073 C 
ATOM    209 8H10 LEU d   1      38.882   1.954 -31.610  0.00  0.00     0.028 H 
ATOM    210 9H10 LEU d   1      38.170   1.811 -29.967  0.00  0.00     0.028 H 
ATOM    211 0H11 LEU d   1      39.877   2.336 -30.164  0.00  0.00     0.028 H 
ENDBRANCH 202 208
ENDBRANCH 199 202
ENDBRANCH 145 199
BRANCH 151 212
ATOM    212  CB  ALC d   1      32.977   5.810 -34.403  0.00  0.00    -0.035 C 
ATOM    213 3H11 ALC d   1      31.951   5.589 -34.731  0.00  0.00     0.037 H 
ATOM    214 4H11 ALC d   1      33.411   6.585 -35.052  0.00  0.00     0.037 H 
BRANCH 212 215
ATOM    215  CG  ALC d   1      32.945   6.317 -32.977  0.00  0.00    -0.052 C 
ATOM    216  CD2 ALC d   1      32.173   7.634 -32.940  0.00  0.00    -0.062 C 
ATOM    217  CE2 ALC d   1      32.028   8.141 -31.529  0.00  0.00    -0.065 C 
ATOM    218 6H11 ALC d   1      31.172   7.476 -33.369  0.00  0.00     0.033 H 
ATOM    219 7H11 ALC d   1      32.713   8.384 -33.537  0.00  0.00     0.033 H 
ATOM    220  CZ  ALC d   1      31.310   7.092 -30.712  0.00  0.00    -0.065 C 
ATOM    221 8H11 ALC d   1      31.445   9.074 -31.528  0.00  0.00     0.033 H 
ATOM    222 9H11 ALC d   1      33.023   8.329 -31.099  0.00  0.00     0.033 H 
ATOM    223  CE1 ALC d   1      32.109   5.801 -30.665  0.00  0.00    -0.065 C 
ATOM    224 0H12 ALC d   1      30.328   6.892 -31.166  0.00  0.00     0.033 H 
ATOM    225 1H12 ALC d   1      31.171   7.467 -29.687  0.00  0.00     0.033 H 
ATOM    226  CD1 ALC d   1      32.346   5.257 -32.061  0.00  0.00    -0.062 C 
ATOM    227 2H12 ALC d   1      31.553   5.055 -30.078  0.00  0.00     0.033 H 
ATOM    228 3H12 ALC d   1      33.080   5.996 -30.185  0.00  0.00     0.033 H 
ATOM    229 4H12 ALC d   1      33.038   4.404 -32.000  0.00  0.00     0.033 H 
ATOM    230 5H12 ALC d   1      31.387   4.921 -32.482  0.00  0.00     0.033 H 
ATOM    231 5H11 ALC d   1      33.976   6.511 -32.645  0.00  0.00     0.040 H 
ENDBRANCH 212 215
ENDBRANCH 151 212
BRANCH 157 232
ATOM    232  C   MK8 d   1      35.337   3.092 -38.505  0.00  0.00     0.246 C 
ATOM    233  O   MK8 d   1      34.754   2.607 -39.505  0.00  0.00    -0.271 OA
ATOM    234  N   TYR d   1      36.185   2.404 -37.749  0.00  0.00    -0.345 N 
ATOM    235 8H13 TYR d   1      36.556   2.816 -36.916  0.00  0.00     0.163 HD
BRANCH 234 236
ATOM    236  CA  TYR d   1      36.576   1.058 -38.125  0.00  0.00     0.093 C 
ATOM    237 9H13 TYR d   1      36.216   0.878 -39.148  0.00  0.00     0.088 H 
BRANCH 236 238
ATOM    238  C   TYR d   1      35.950  -0.019 -37.220  0.00  0.00     0.238 C 
ATOM    239  O   TYR d   1      35.284   0.283 -36.219  0.00  0.00    -0.271 OA
ATOM    240  N   NH2 d   1      36.154  -1.279 -37.596  0.00  0.00    -0.368 N 
ATOM    241 7H14 NH2 d   1      35.776  -2.030 -37.054  0.00  0.00     0.159 HD
ATOM    242 8H14 NH2 d   1      36.685  -1.475 -38.420  0.00  0.00     0.159 HD
ENDBRANCH 236 238
BRANCH 236 243
ATOM    243  CB  TYR d   1      38.104   0.955 -38.135  0.00  0.00    -0.014 C 
ATOM    244 0H14 TYR d   1      38.383  -0.069 -38.425  0.00  0.00     0.043 H 
ATOM    245 1H14 TYR d   1      38.474   1.163 -37.120  0.00  0.00     0.043 H 
BRANCH 243 246
ATOM    246  CG  TYR d   1      38.763   1.922 -39.094  0.00  0.00    -0.056 A 
ATOM    247  CD1 TYR d   1      39.559   2.963 -38.626  0.00  0.00    -0.074 A 
ATOM    248  CE1 TYR d   1      40.173   3.862 -39.510  0.00  0.00    -0.051 A 
ATOM    249 2H14 TYR d   1      39.707   3.081 -37.559  0.00  0.00     0.084 H 
ATOM    250  CZ  TYR d   1      39.990   3.720 -40.874  0.00  0.00     0.065 A 
ATOM    251 4H14 TYR d   1      40.790   4.666 -39.126  0.00  0.00     0.087 H 
ATOM    252  CE2 TYR d   1      39.211   2.688 -41.364  0.00  0.00    -0.051 A 
ATOM    253  CD2 TYR d   1      38.595   1.797 -40.466  0.00  0.00    -0.074 A 
ATOM    254 5H14 TYR d   1      39.076   2.566 -42.433  0.00  0.00     0.087 H 
ATOM    255 3H14 TYR d   1      37.976   0.996 -40.854  0.00  0.00     0.084 H 
BRANCH 250 256
ATOM    256  OH  TYR d   1      40.599   4.615 -41.739  0.00  0.00    -0.361 OA
ATOM    257 6H14 TYR d   1      41.091   5.254 -41.237  0.00  0.00     0.217 HD
ENDBRANCH 250 256
ENDBRANCH 243 246
ENDBRANCH 236 243
ENDBRANCH 234 236
ENDBRANCH 157 232
BRANCH 157 258
ATOM    258  CB1 MK8 d   1      33.901   5.105 -38.929  0.00  0.00    -0.044 C 
ATOM    259 5H13 MK8 d   1      34.081   4.937 -40.001  0.00  0.00     0.031 H 
ATOM    260 6H13 MK8 d   1      33.765   6.181 -38.744  0.00  0.00     0.031 H 
ATOM    261 7H13 MK8 d   1      32.996   4.562 -38.620  0.00  0.00     0.031 H 
ENDBRANCH 157 258
BRANCH 135 262
ATOM    262  CB1 MK8 d   1      35.333   9.173 -34.505  0.00  0.00    -0.044 C 
ATOM    263  H84 MK8 d   1      35.052   9.146 -35.568  0.00  0.00     0.031 H 
ATOM    264  H85 MK8 d   1      35.010  10.128 -34.065  0.00  0.00     0.031 H 
ATOM    265  H86 MK8 d   1      34.846   8.341 -33.975  0.00  0.00     0.031 H 
ENDBRANCH 135 262
ENDBRANCH 133 135
ENDBRANCH   1 131
BRANCH   1 266
ATOM    266  CB  LEU d   1      36.716   9.163 -29.899  0.00  0.00    -0.035 C 
ATOM    267  H66 LEU d   1      35.685   9.215 -30.279  0.00  0.00     0.037 H 
ATOM    268  H67 LEU d   1      37.177  10.160 -29.953  0.00  0.00     0.037 H 
BRANCH 266 269
ATOM    269  CG  LEU d   1      36.712   8.671 -28.455  0.00  0.00    -0.059 C 
ATOM    270  H68 LEU d   1      37.699   8.234 -28.241  0.00  0.00     0.038 H 
BRANCH 269 271
ATOM    271  CD1 LEU d   1      36.489   9.807 -27.480  0.00  0.00    -0.073 C 
ATOM    272  H69 LEU d   1      36.492   9.414 -26.453  0.00  0.00     0.028 H 
ATOM    273  H70 LEU d   1      35.519  10.283 -27.687  0.00  0.00     0.028 H 
ATOM    274  H71 LEU d   1      37.293  10.549 -27.592  0.00  0.00     0.028 H 
ENDBRANCH 269 271
BRANCH 269 275
ATOM    275  CD2 LEU d   1      35.661   7.577 -28.280  0.00  0.00    -0.073 C 
ATOM    276  H72 LEU d   1      35.850   6.768 -29.001  0.00  0.00     0.028 H 
ATOM    277  H73 LEU d   1      34.660   7.998 -28.456  0.00  0.00     0.028 H 
ATOM    278  H74 LEU d   1      35.715   7.176 -27.257  0.00  0.00     0.028 H 
ENDBRANCH 269 275
ENDBRANCH 266 269
ENDBRANCH   1 266
TORSDOF 59
