REMARK  9 active torsions:
REMARK  status: ('A' for Active; 'I' for Inactive)
REMARK    1  A    between atoms: NBE_6  and  CAN_7 
REMARK    2  A    between atoms: CAN_7  and  CAJ_8 
REMARK    3  A    between atoms: CAJ_8  and  CAK_9 
REMARK    4  A    between atoms: CAK_9  and  OAV_10 
REMARK    5  A    between atoms: OAV_10  and  CBA_11 
REMARK    6  A    between atoms: CAZ_12  and  OAT_14 
REMARK    7  A    between atoms: OAT_14  and  CAA_15 
REMARK    8  A    between atoms: C6_22  and  NAS_23 
REMARK    9  A    between atoms: NAS_23  and  CAY_24 
ROOT
ATOM      1  CBA IRE d   1     -13.290 -14.851  18.682  0.00  0.00     0.103 A 
ATOM      2  CAZ IRE d   1     -13.199 -15.499  17.381  0.00  0.00     0.103 A 
ATOM      3  CAH IRE d   1     -14.359 -15.762  16.665  0.00  0.00    -0.019 A 
ATOM      4  CAI IRE d   1     -14.582 -14.531  19.121  0.00  0.00    -0.032 A 
ATOM      5  C5  IRE d   1     -15.806 -14.788  18.402  0.00  0.00     0.042 A 
ATOM      6  C4  IRE d   1     -15.689 -15.422  17.136  0.00  0.00     0.075 A 
ATOM      7  N3  IRE d   1     -16.832 -15.715  16.364  0.00  0.00    -0.241 NA
ATOM      8  C2  IRE d   1     -18.024 -15.370  16.869  0.00  0.00     0.089 A 
ATOM      9  N1  IRE d   1     -18.256 -14.746  18.093  0.00  0.00    -0.224 NA
ATOM     10  C6  IRE d   1     -17.172 -14.448  18.867  0.00  0.00     0.142 A 
ATOM     11  H16 IRE d   1     -14.266 -16.248  15.701  0.00  0.00     0.091 H 
ATOM     12  H20 IRE d   1     -14.669 -14.047  20.087  0.00  0.00     0.089 H 
ATOM     13  H21 IRE d   1     -18.895 -15.599  16.265  0.00  0.00     0.146 H 
ENDROOT
BRANCH   1  14
ATOM     14  OAV IRE d   1     -12.186 -14.540  19.483  0.00  0.00    -0.348 OA
BRANCH  14  15
ATOM     15  CAK IRE d   1     -12.394 -13.947  20.781  0.00  0.00     0.028 C 
ATOM     16  H14 IRE d   1     -13.448 -13.640  20.854  0.00  0.00     0.075 H 
ATOM     17  H15 IRE d   1     -12.180 -14.709  21.545  0.00  0.00     0.075 H 
BRANCH  15  18
ATOM     18  CAJ IRE d   1     -11.509 -12.711  21.068  0.00  0.00    -0.022 C 
ATOM     19  H12 IRE d   1     -10.615 -12.747  20.428  0.00  0.00     0.038 H 
ATOM     20  H13 IRE d   1     -12.080 -11.796  20.850  0.00  0.00     0.038 H 
BRANCH  18  21
ATOM     21  CAN IRE d   1     -11.076 -12.701  22.547  0.00  0.00     0.086 C 
ATOM     22  H10 IRE d   1     -11.415 -11.778  23.041  0.00  0.00     0.076 H 
ATOM     23  H11 IRE d   1     -11.490 -13.573  23.075  0.00  0.00     0.076 H 
BRANCH  21  24
ATOM     24  NBE IRE d   1      -9.593 -12.763  22.525  0.00  0.00    -0.067 N 
ATOM     25  CAO IRE d   1      -9.165 -11.568  23.273  0.00  0.00     0.103 C 
ATOM     26  CAL IRE d   1      -7.653 -11.541  23.159  0.00  0.00     0.042 C 
ATOM     27  H1  IRE d   1      -9.601 -10.660  22.830  0.00  0.00     0.079 H 
ATOM     28  H2  IRE d   1      -9.470 -11.644  24.327  0.00  0.00     0.079 H 
ATOM     29  OAU IRE d   1      -7.107 -12.673  23.815  0.00  0.00    -0.388 OA
ATOM     30  H3  IRE d   1      -7.267 -10.624  23.628  0.00  0.00     0.076 H 
ATOM     31  H4  IRE d   1      -7.365 -11.559  22.097  0.00  0.00     0.076 H 
ATOM     32  CAM IRE d   1      -7.649 -13.901  23.359  0.00  0.00     0.042 C 
ATOM     33  CAP IRE d   1      -9.177 -13.884  23.395  0.00  0.00     0.103 C 
ATOM     34  H5  IRE d   1      -7.285 -14.714  24.004  0.00  0.00     0.076 H 
ATOM     35  H6  IRE d   1      -7.317 -14.076  22.325  0.00  0.00     0.076 H 
ATOM     36  H7  IRE d   1      -9.533 -13.722  24.423  0.00  0.00     0.079 H 
ATOM     37  H8  IRE d   1      -9.579 -14.834  23.013  0.00  0.00     0.079 H 
ATOM     38  H9  IRE d   1      -9.213 -12.820  21.593  0.00  0.00     0.280 HD
ENDBRANCH  21  24
ENDBRANCH  18  21
ENDBRANCH  15  18
ENDBRANCH  14  15
ENDBRANCH   1  14
BRANCH   2  39
ATOM     39  OAT IRE d   1     -11.940 -15.834  16.912  0.00  0.00    -0.353 OA
BRANCH  39  40
ATOM     40  CAA IRE d   1     -11.769 -17.094  16.237  0.00  0.00     0.010 C 
ATOM     41  H17 IRE d   1     -10.719 -17.206  15.930  0.00  0.00     0.066 H 
ATOM     42  H18 IRE d   1     -12.416 -17.125  15.348  0.00  0.00     0.066 H 
ATOM     43  H19 IRE d   1     -12.042 -17.914  16.917  0.00  0.00     0.066 H 
ENDBRANCH  39  40
ENDBRANCH   2  39
BRANCH  10  44
ATOM     44  NAS IRE d   1     -17.418 -13.814  20.117  0.00  0.00    -0.340 N 
ATOM     45  H22 IRE d   1     -16.615 -13.326  20.539  0.00  0.00     0.167 HD
BRANCH  44  46
ATOM     46  CAY IRE d   1     -18.661 -13.767  20.876  0.00  0.00     0.035 A 
ATOM     47  CAG IRE d   1     -19.556 -14.848  20.928  0.00  0.00    -0.033 A 
ATOM     48  CAX IRE d   1     -20.742 -14.828  21.639  0.00  0.00     0.074 A 
ATOM     49  H23 IRE d   1     -19.303 -15.748  20.380  0.00  0.00     0.089 H 
ATOM     50 CL   IRE d   1     -21.805 -16.215  21.645  0.00  0.00    -0.081 Cl
ATOM     51  CAW IRE d   1     -21.124 -13.692  22.378  0.00  0.00     0.138 A 
ATOM     52  FAB IRE d   1     -22.214 -13.633  23.053  0.00  0.00    -0.204 F 
ATOM     53  CAD IRE d   1     -20.241 -12.609  22.341  0.00  0.00    -0.042 A 
ATOM     54  CAE IRE d   1     -19.052 -12.639  21.618  0.00  0.00    -0.054 A 
ATOM     55  H24 IRE d   1     -20.492 -11.712  22.896  0.00  0.00     0.088 H 
ATOM     56  H25 IRE d   1     -18.409 -11.767  21.627  0.00  0.00     0.087 H 
ENDBRANCH  44  46
ENDBRANCH  10  44
TORSDOF 9
