REMARK  8 active torsions:
REMARK  status: ('A' for Active; 'I' for Inactive)
REMARK    1  A    between atoms: CAM_1  and  OAL_2 
REMARK    2  A    between atoms: OAL_2  and  CAB_3 
REMARK    3  A    between atoms: CAI_8  and  CAJ_9 
REMARK    4  A    between atoms: CAA_12  and  NAK_13 
REMARK    5  A    between atoms: NAK_13  and  SAN_14 
REMARK    6  A    between atoms: SAN_14  and  CAQ_17 
REMARK    7  A    between atoms: CAR_23  and  OAW_24 
REMARK    8  A    between atoms: OAW_24  and  CAX_25 
ROOT
ATOM      1  CAB 8P9 d   1      12.799   8.427   2.177  0.00  0.00     0.098 A 
ATOM      2  CAC 8P9 d   1      13.802   7.504   1.877  0.00  0.00    -0.013 A 
ATOM      3  CAD 8P9 d   1      13.621   6.668   0.857  0.00  0.00     0.116 A 
ATOM      4  OAG 8P9 d   1      14.509   5.709   0.403  0.00  0.00    -0.212 OA
ATOM      5  NAH 8P9 d   1      13.771   5.046  -0.706  0.00  0.00    -0.132 NA
ATOM      6  CAI 8P9 d   1      12.606   5.682  -0.812  0.00  0.00     0.071 A 
ATOM      7  CAE 8P9 d   1      12.477   6.634   0.112  0.00  0.00     0.029 A 
ATOM      8  CAF 8P9 d   1      11.488   7.534   0.352  0.00  0.00    -0.039 A 
ATOM      9  CAA 8P9 d   1      11.621   8.441   1.419  0.00  0.00     0.077 A 
ATOM     10  H4  8P9 d   1      14.712   7.468   2.464  0.00  0.00     0.092 H 
ATOM     11  H8  8P9 d   1      10.603   7.553  -0.274  0.00  0.00     0.088 H 
ENDROOT
BRANCH   9  12
ATOM     12  NAK 8P9 d   1      10.718   9.415   1.742  0.00  0.00    -0.278 N 
ATOM     13  H9  8P9 d   1      10.982  10.377   1.677  0.00  0.00     0.179 HD
BRANCH  12  14
ATOM     14  SAN 8P9 d   1       9.169   9.010   2.247  0.00  0.00     0.266 S 
ATOM     15  OAO 8P9 d   1       8.648   8.015   1.290  0.00  0.00    -0.200 OA
ATOM     16  OAP 8P9 d   1       8.364  10.243   2.403  0.00  0.00    -0.200 OA
BRANCH  14  17
ATOM     17  CAQ 8P9 d   1       9.332   8.230   3.788  0.00  0.00     0.114 A 
ATOM     18  CAV 8P9 d   1       8.951   6.903   3.907  0.00  0.00    -0.037 A 
ATOM     19  CAU 8P9 d   1       9.086   6.266   5.114  0.00  0.00     0.035 A 
ATOM     20  H10 8P9 d   1       8.549   6.372   3.052  0.00  0.00     0.088 H 
ATOM     21 CLAY 8P9 d   1       8.604   4.655   5.244  0.00  0.00    -0.084 Cl
ATOM     22  CAT 8P9 d   1       9.599   6.919   6.222  0.00  0.00    -0.059 A 
ATOM     23  CAS 8P9 d   1       9.990   8.238   6.112  0.00  0.00    -0.048 A 
ATOM     24  H11 8P9 d   1       9.693   6.398   7.168  0.00  0.00     0.086 H 
ATOM     25  CAR 8P9 d   1       9.868   8.904   4.881  0.00  0.00     0.091 A 
ATOM     26  H12 8P9 d   1      10.391   8.759   6.974  0.00  0.00     0.087 H 
BRANCH  25  27
ATOM     27  OAW 8P9 d   1      10.207  10.221   4.693  0.00  0.00    -0.354 OA
BRANCH  27  28
ATOM     28  CAX 8P9 d   1      10.798  10.966   5.774  0.00  0.00     0.010 C 
ATOM     29  H13 8P9 d   1      11.001  11.995   5.442  0.00  0.00     0.066 H 
ATOM     30  H14 8P9 d   1      11.740  10.486   6.078  0.00  0.00     0.066 H 
ATOM     31  H15 8P9 d   1      10.105  10.986   6.628  0.00  0.00     0.066 H 
ENDBRANCH  27  28
ENDBRANCH  25  27
ENDBRANCH  14  17
ENDBRANCH  12  14
ENDBRANCH   9  12
BRANCH   1  32
ATOM     32  OAL 8P9 d   1      12.853   9.346   3.185  0.00  0.00    -0.354 OA
BRANCH  32  33
ATOM     33  CAM 8P9 d   1      13.924   9.230   4.156  0.00  0.00     0.010 C 
ATOM     34  H1  8P9 d   1      13.834  10.036   4.899  0.00  0.00     0.066 H 
ATOM     35  H2  8P9 d   1      14.894   9.311   3.643  0.00  0.00     0.066 H 
ATOM     36  H3  8P9 d   1      13.857   8.255   4.662  0.00  0.00     0.066 H 
ENDBRANCH  32  33
ENDBRANCH   1  32
BRANCH   6  37
ATOM     37  CAJ 8P9 d   1      11.571   5.298  -1.855  0.00  0.00    -0.033 C 
ATOM     38  H5  8P9 d   1      10.693   5.954  -1.759  0.00  0.00     0.035 H 
ATOM     39  H6  8P9 d   1      11.266   4.252  -1.702  0.00  0.00     0.035 H 
ATOM     40  H7  8P9 d   1      12.004   5.410  -2.860  0.00  0.00     0.035 H 
ENDBRANCH   6  37
TORSDOF 8
