REMARK  7 active torsions:
REMARK  status: ('A' for Active; 'I' for Inactive)
REMARK    1  A    between atoms: CAX_1  and  CAB_2 
REMARK    2  A    between atoms: CAI_7  and  CAW_8 
REMARK    3  A    between atoms: CAA_11  and  NAJ_12 
REMARK    4  A    between atoms: NAJ_12  and  SAK_13 
REMARK    5  A    between atoms: SAK_13  and  CAN_16 
REMARK    6  A    between atoms: CAO_22  and  OAT_23 
REMARK    7  A    between atoms: OAT_23  and  CAU_24 
ROOT
ATOM      1  NAJ 8Q3 d   1      -6.342  11.693   1.655  0.00  0.00    -0.280 N 
ATOM      2  H9  8Q3 d   1      -6.472  12.680   1.755  0.00  0.00     0.179 HD
ENDROOT
BRANCH   1   3
ATOM      3  CAA 8Q3 d   1      -7.430  10.861   1.610  0.00  0.00     0.049 A 
ATOM      4  CAB 8Q3 d   1      -8.365  11.005   0.561  0.00  0.00    -0.032 A 
ATOM      5  CAC 8Q3 d   1      -9.491  10.176   0.570  0.00  0.00    -0.039 A 
ATOM      6  CAD 8Q3 d   1      -9.688   9.271   1.546  0.00  0.00     0.114 A 
ATOM      7  H4  8Q3 d   1     -10.221  10.264  -0.227  0.00  0.00     0.088 H 
ATOM      8  OAG 8Q3 d   1     -10.749   8.353   1.719  0.00  0.00    -0.212 OA
ATOM      9  CAE 8Q3 d   1      -8.799   9.127   2.572  0.00  0.00     0.029 A 
ATOM     10  NAH 8Q3 d   1     -10.368   7.604   3.007  0.00  0.00    -0.132 NA
ATOM     11  CAI 8Q3 d   1      -9.209   8.149   3.399  0.00  0.00     0.071 A 
ATOM     12  CAF 8Q3 d   1      -7.699   9.913   2.611  0.00  0.00    -0.041 A 
ATOM     13  H8  8Q3 d   1      -7.006   9.809   3.438  0.00  0.00     0.088 H 
BRANCH   4  14
ATOM     14  CAX 8Q3 d   1      -8.235  11.940  -0.500  0.00  0.00    -0.049 C 
ATOM     15  H1  8Q3 d   1      -9.095  11.846  -1.179  0.00  0.00     0.033 H 
ATOM     16  H2  8Q3 d   1      -7.307  11.739  -1.054  0.00  0.00     0.033 H 
ATOM     17  H3  8Q3 d   1      -8.203  12.960  -0.088  0.00  0.00     0.033 H 
ENDBRANCH   4  14
BRANCH  11  18
ATOM     18  CAW 8Q3 d   1      -8.473   7.678   4.645  0.00  0.00    -0.033 C 
ATOM     19  H5  8Q3 d   1      -7.551   8.265   4.770  0.00  0.00     0.035 H 
ATOM     20  H6  8Q3 d   1      -8.219   6.613   4.540  0.00  0.00     0.035 H 
ATOM     21  H7  8Q3 d   1      -9.117   7.816   5.526  0.00  0.00     0.035 H 
ENDBRANCH  11  18
ENDBRANCH   1   3
BRANCH   1  22
ATOM     22  SAK 8Q3 d   1      -4.822  11.071   1.544  0.00  0.00     0.266 S 
ATOM     23  OAL 8Q3 d   1      -4.672   9.892   2.461  0.00  0.00    -0.200 OA
ATOM     24  OAM 8Q3 d   1      -3.833  12.196   1.766  0.00  0.00    -0.200 OA
BRANCH  22  25
ATOM     25  CAN 8Q3 d   1      -4.621  10.524  -0.128  0.00  0.00     0.114 A 
ATOM     26  CAS 8Q3 d   1      -4.331   9.181  -0.334  0.00  0.00    -0.041 A 
ATOM     27  CAR 8Q3 d   1      -4.170   8.668  -1.620  0.00  0.00     0.012 A 
ATOM     28  H10 8Q3 d   1      -4.228   8.521   0.520  0.00  0.00     0.088 H 
ATOM     29 BRAV 8Q3 d   1      -3.830   6.852  -1.873  0.00  0.00    -0.051 Br
ATOM     30  CAQ 8Q3 d   1      -4.259   9.518  -2.712  0.00  0.00    -0.063 A 
ATOM     31  CAP 8Q3 d   1      -4.514  10.871  -2.528  0.00  0.00    -0.048 A 
ATOM     32  H11 8Q3 d   1      -4.129   9.125  -3.714  0.00  0.00     0.085 H 
ATOM     33  CAO 8Q3 d   1      -4.699  11.389  -1.229  0.00  0.00     0.091 A 
ATOM     34  H12 8Q3 d   1      -4.571  11.531  -3.386  0.00  0.00     0.087 H 
BRANCH  33  35
ATOM     35  OAT 8Q3 d   1      -4.907  12.719  -0.990  0.00  0.00    -0.354 OA
BRANCH  35  36
ATOM     36  CAU 8Q3 d   1      -5.252  13.618  -2.117  0.00  0.00     0.010 C 
ATOM     37  H13 8Q3 d   1      -5.382  14.644  -1.741  0.00  0.00     0.066 H 
ATOM     38  H14 8Q3 d   1      -6.188  13.277  -2.585  0.00  0.00     0.066 H 
ATOM     39  H15 8Q3 d   1      -4.442  13.600  -2.861  0.00  0.00     0.066 H 
ENDBRANCH  35  36
ENDBRANCH  33  35
ENDBRANCH  22  25
ENDBRANCH   1  22
TORSDOF 7
