REMARK  12 active torsions:
REMARK  status: ('A' for Active; 'I' for Inactive)
REMARK    1  A    between atoms: NAW_6  and  CAV_7 
REMARK    2  A    between atoms: CAV_7  and  CAU_8 
REMARK    3  A    between atoms: CAU_8  and  NAT_9 
REMARK       I    between atoms: NAT_9  and  CAR_10 
REMARK    4  A    between atoms: CAR_10  and  CAQ_12 
REMARK    5  A    between atoms: CAQ_12  and  OAL_13 
REMARK    6  A    between atoms: OAL_13  and  CAB_14 
REMARK    7  A    between atoms: CAI_19  and  CAJ_20 
REMARK    8  A    between atoms: CAA_23  and  NAK_24 
REMARK    9  A    between atoms: NAK_24  and  SAM_25 
REMARK   10  A    between atoms: SAM_25  and  CAP_28 
REMARK   11  A    between atoms: CBC_34  and  OBH_35 
REMARK   12  A    between atoms: OBH_35  and  CBI_36 
ROOT
ATOM      1  CAB 8Q9 d   1     -12.805   8.542  -2.179  0.00  0.00     0.099 A 
ATOM      2  CAC 8Q9 d   1     -13.807   7.602  -1.852  0.00  0.00    -0.013 A 
ATOM      3  CAD 8Q9 d   1     -13.608   6.718  -0.843  0.00  0.00     0.116 A 
ATOM      4  OAG 8Q9 d   1     -14.426   5.750  -0.373  0.00  0.00    -0.212 OA
ATOM      5  NAH 8Q9 d   1     -13.661   5.061   0.714  0.00  0.00    -0.132 NA
ATOM      6  CAI 8Q9 d   1     -12.513   5.700   0.776  0.00  0.00     0.071 A 
ATOM      7  CAE 8Q9 d   1     -12.439   6.682  -0.141  0.00  0.00     0.029 A 
ATOM      8  CAF 8Q9 d   1     -11.449   7.562  -0.426  0.00  0.00    -0.039 A 
ATOM      9  CAA 8Q9 d   1     -11.607   8.509  -1.449  0.00  0.00     0.077 A 
ATOM     10  H17 8Q9 d   1     -14.737   7.587  -2.409  0.00  0.00     0.092 H 
ATOM     11  H21 8Q9 d   1     -10.526   7.534   0.142  0.00  0.00     0.088 H 
ENDROOT
BRANCH   1  12
ATOM     12  OAL 8Q9 d   1     -12.892   9.527  -3.163  0.00  0.00    -0.340 OA
BRANCH  12  13
ATOM     13  CAQ 8Q9 d   1     -14.151   9.576  -3.904  0.00  0.00     0.099 C 
ATOM     14  H15 8Q9 d   1     -14.253   8.660  -4.505  0.00  0.00     0.089 H 
ATOM     15  H16 8Q9 d   1     -14.987   9.643  -3.193  0.00  0.00     0.089 H 
BRANCH  13  16
ATOM     16  CAR 8Q9 d   1     -14.180  10.777  -4.819  0.00  0.00     0.241 C 
ATOM     17  NAT 8Q9 d   1     -13.380  11.813  -4.505  0.00  0.00    -0.358 N 
ATOM     18  H14 8Q9 d   1     -12.797  11.726  -3.697  0.00  0.00     0.162 HD
ATOM     19  OAS 8Q9 d   1     -14.992  10.795  -5.753  0.00  0.00    -0.271 OA
BRANCH  17  20
ATOM     20  CAU 8Q9 d   1     -13.308  13.074  -5.280  0.00  0.00     0.018 C 
ATOM     21  H12 8Q9 d   1     -12.308  13.523  -5.188  0.00  0.00     0.066 H 
ATOM     22  H13 8Q9 d   1     -13.528  12.884  -6.341  0.00  0.00     0.066 H 
BRANCH  20  23
ATOM     23  CAV 8Q9 d   1     -14.348  13.985  -4.684  0.00  0.00     0.098 C 
ATOM     24  H10 8Q9 d   1     -15.348  13.537  -4.787  0.00  0.00     0.078 H 
ATOM     25  H11 8Q9 d   1     -14.133  14.161  -3.620  0.00  0.00     0.078 H 
BRANCH  23  26
ATOM     26  NAW 8Q9 d   1     -14.280  15.250  -5.431  0.00  0.00    -0.066 N 
ATOM     27  CAX 8Q9 d   1     -15.573  15.956  -5.289  0.00  0.00     0.103 C 
ATOM     28  CAY 8Q9 d   1     -15.653  17.232  -6.125  0.00  0.00     0.042 C 
ATOM     29  H1  8Q9 d   1     -16.379  15.278  -5.607  0.00  0.00     0.079 H 
ATOM     30  H2  8Q9 d   1     -15.713  16.221  -4.231  0.00  0.00     0.079 H 
ATOM     31  OAZ 8Q9 d   1     -14.294  17.511  -6.630  0.00  0.00    -0.388 OA
ATOM     32  H3  8Q9 d   1     -16.003  18.069  -5.502  0.00  0.00     0.076 H 
ATOM     33  H4  8Q9 d   1     -16.345  17.087  -6.967  0.00  0.00     0.076 H 
ATOM     34  CBA 8Q9 d   1     -13.276  17.528  -5.584  0.00  0.00     0.042 C 
ATOM     35  CBB 8Q9 d   1     -13.207  16.139  -4.919  0.00  0.00     0.103 C 
ATOM     36  H5  8Q9 d   1     -13.537  18.284  -4.829  0.00  0.00     0.076 H 
ATOM     37  H6  8Q9 d   1     -12.299  17.773  -6.026  0.00  0.00     0.076 H 
ATOM     38  H7  8Q9 d   1     -13.324  16.255  -3.831  0.00  0.00     0.079 H 
ATOM     39  H8  8Q9 d   1     -12.229  15.684  -5.136  0.00  0.00     0.079 H 
ATOM     40  H9  8Q9 d   1     -14.106  15.049  -6.403  0.00  0.00     0.280 HD
ENDBRANCH  23  26
ENDBRANCH  20  23
ENDBRANCH  17  20
ENDBRANCH  13  16
ENDBRANCH  12  13
ENDBRANCH   1  12
BRANCH   9  41
ATOM     41  NAK 8Q9 d   1     -10.710   9.480  -1.768  0.00  0.00    -0.278 N 
ATOM     42  H22 8Q9 d   1     -10.986  10.439  -1.697  0.00  0.00     0.179 HD
BRANCH  41  43
ATOM     43  SAM 8Q9 d   1      -9.131   9.110  -2.285  0.00  0.00     0.266 S 
ATOM     44  OAN 8Q9 d   1      -8.510   8.143  -1.336  0.00  0.00    -0.200 OA
ATOM     45  OAO 8Q9 d   1      -8.367  10.359  -2.519  0.00  0.00    -0.200 OA
BRANCH  43  46
ATOM     46  CAP 8Q9 d   1      -9.308   8.255  -3.828  0.00  0.00     0.114 A 
ATOM     47  CBG 8Q9 d   1      -8.891   6.931  -3.929  0.00  0.00    -0.041 A 
ATOM     48  CBF 8Q9 d   1      -9.015   6.243  -5.109  0.00  0.00     0.012 A 
ATOM     49  H23 8Q9 d   1      -8.463   6.437  -3.064  0.00  0.00     0.088 H 
ATOM     50 BRBJ 8Q9 d   1      -8.452   4.469  -5.114  0.00  0.00    -0.051 Br
ATOM     51  CBE 8Q9 d   1      -9.536   6.877  -6.243  0.00  0.00    -0.063 A 
ATOM     52  CBD 8Q9 d   1      -9.949   8.198  -6.175  0.00  0.00    -0.048 A 
ATOM     53  H24 8Q9 d   1      -9.617   6.333  -7.177  0.00  0.00     0.085 H 
ATOM     54  CBC 8Q9 d   1      -9.833   8.905  -4.950  0.00  0.00     0.091 A 
ATOM     55  H25 8Q9 d   1     -10.358   8.688  -7.051  0.00  0.00     0.087 H 
BRANCH  54  56
ATOM     56  OBH 8Q9 d   1     -10.188  10.216  -4.796  0.00  0.00    -0.354 OA
BRANCH  56  57
ATOM     57  CBI 8Q9 d   1     -10.568  10.982  -5.949  0.00  0.00     0.010 C 
ATOM     58  H26 8Q9 d   1     -10.820  12.008  -5.641  0.00  0.00     0.066 H 
ATOM     59  H27 8Q9 d   1     -11.444  10.517  -6.426  0.00  0.00     0.066 H 
ATOM     60  H28 8Q9 d   1      -9.732  11.008  -6.663  0.00  0.00     0.066 H 
ENDBRANCH  56  57
ENDBRANCH  54  56
ENDBRANCH  43  46
ENDBRANCH  41  43
ENDBRANCH   9  41
BRANCH   6  61
ATOM     61  CAJ 8Q9 d   1     -11.419   5.325   1.765  0.00  0.00    -0.033 C 
ATOM     62  H18 8Q9 d   1     -10.558   5.996   1.631  0.00  0.00     0.035 H 
ATOM     63  H19 8Q9 d   1     -11.105   4.286   1.588  0.00  0.00     0.035 H 
ATOM     64  H20 8Q9 d   1     -11.803   5.423   2.791  0.00  0.00     0.035 H 
ENDBRANCH   6  61
TORSDOF 12
