REMARK  11 active torsions:
REMARK  status: ('A' for Active; 'I' for Inactive)
REMARK    1  A    between atoms: C26_6  and  C31_4 
REMARK    2  A    between atoms: N20_12  and  C21_11 
REMARK       I    between atoms: C19_13  and  N20_12 
REMARK    3  A    between atoms: C17_15  and  C19_13 
REMARK    4  A    between atoms: C17_15  and  N16_16 
REMARK    5  A    between atoms: N14_19  and  N62_20 
REMARK    6  A    between atoms: N62_20  and  C68_21 
REMARK    7  A    between atoms: N62_20  and  C63_22 
REMARK    8  A    between atoms: C3_25  and  C4_26 
REMARK    9  A    between atoms: C4_26  and  C5_27 
REMARK   10  A    between atoms: C6_29  and  O23_30 
REMARK   11  A    between atoms: O23_30  and  C24_31 
ROOT
ATOM      1  C1  8R3 d   1      18.986  39.582  21.814  0.00  0.00     0.226 C 
ATOM      2  O2  8R3 d   1      17.917  39.588  22.464  0.00  0.00    -0.273 OA
ATOM      3  N16 8R3 d   1      20.177  40.082  22.352  0.00  0.00    -0.336 N 
ATOM      4  C15 8R3 d   1      21.472  40.152  21.647  0.00  0.00     0.053 C 
ATOM      5  C13 8R3 d   1      22.062  38.792  21.249  0.00  0.00     0.132 C 
ATOM      6  N14 8R3 d   1      23.340  38.624  21.464  0.00  0.00    -0.185 NA
ATOM      7  N12 8R3 d   1      21.289  37.794  20.715  0.00  0.00    -0.375 N 
ATOM      8  C11 8R3 d   1      19.893  37.730  20.398  0.00  0.00     0.005 C 
ATOM      9  C3  8R3 d   1      19.073  39.015  20.387  0.00  0.00     0.043 C 
ATOM     10  H8  8R3 d   1      22.193  40.658  22.305  0.00  0.00     0.076 H 
ATOM     11  H9  8R3 d   1      21.332  40.745  20.731  0.00  0.00     0.076 H 
ATOM     12  H16 8R3 d   1      21.808  36.930  20.502  0.00  0.00     0.160 HD
ATOM     13  H17 8R3 d   1      19.427  37.058  21.133  0.00  0.00     0.065 H 
ATOM     14  H18 8R3 d   1      19.811  37.288  19.394  0.00  0.00     0.065 H 
ATOM     15  H19 8R3 d   1      19.598  39.758  19.769  0.00  0.00     0.057 H 
ENDROOT
BRANCH   3  16
ATOM     16  C17 8R3 d   1      20.112  40.619  23.714  0.00  0.00     0.072 C 
ATOM     17  H6  8R3 d   1      19.513  39.952  24.351  0.00  0.00     0.079 H 
ATOM     18  H7  8R3 d   1      21.127  40.709  24.129  0.00  0.00     0.079 H 
BRANCH  16  19
ATOM     19  C19 8R3 d   1      19.451  42.005  23.642  0.00  0.00     0.240 C 
ATOM     20  N20 8R3 d   1      18.609  42.326  24.712  0.00  0.00    -0.326 N 
ATOM     21  H5  8R3 d   1      18.506  41.626  25.419  0.00  0.00     0.169 HD
ATOM     22  O30 8R3 d   1      19.712  42.695  22.647  0.00  0.00    -0.271 OA
BRANCH  20  23
ATOM     23  C21 8R3 d   1      17.887  43.524  24.911  0.00  0.00     0.035 A 
ATOM     24  C25 8R3 d   1      17.890  44.631  24.036  0.00  0.00    -0.041 A 
ATOM     25  C26 8R3 d   1      17.152  45.796  24.272  0.00  0.00     0.043 A 
ATOM     26  H1  8R3 d   1      18.494  44.576  23.137  0.00  0.00     0.088 H 
ATOM     27  C27 8R3 d   1      16.392  45.836  25.453  0.00  0.00    -0.066 A 
ATOM     28  C28 8R3 d   1      16.371  44.753  26.328  0.00  0.00    -0.080 A 
ATOM     29  H2  8R3 d   1      15.814  46.723  25.686  0.00  0.00     0.085 H 
ATOM     30  C29 8R3 d   1      17.109  43.606  26.062  0.00  0.00    -0.057 A 
ATOM     31  H3  8R3 d   1      15.771  44.805  27.229  0.00  0.00     0.083 H 
ATOM     32  H4  8R3 d   1      17.079  42.772  26.754  0.00  0.00     0.086 H 
BRANCH  25  33
ATOM     33  C31 8R3 d   1      17.197  46.962  23.307  0.00  0.00     0.209 C 
ATOM     34  O32 8R3 d   1      16.527  48.014  23.565  0.00  0.00    -0.644 OA
ATOM     35  O33 8R3 d   1      17.889  46.902  22.243  0.00  0.00    -0.644 OA
ENDBRANCH  25  33
ENDBRANCH  20  23
ENDBRANCH  16  19
ENDBRANCH   3  16
BRANCH   9  36
ATOM     36  C4  8R3 d   1      17.703  38.742  19.721  0.00  0.00    -0.025 C 
ATOM     37  H20 8R3 d   1      17.218  39.715  19.553  0.00  0.00     0.041 H 
ATOM     38  H21 8R3 d   1      17.104  38.151  20.429  0.00  0.00     0.041 H 
BRANCH  36  39
ATOM     39  C5  8R3 d   1      17.704  38.000  18.396  0.00  0.00    -0.022 A 
ATOM     40  C10 8R3 d   1      17.138  36.699  18.338  0.00  0.00    -0.053 A 
ATOM     41  C9  8R3 d   1      17.105  35.964  17.140  0.00  0.00     0.034 A 
ATOM     42  H22 8R3 d   1      16.722  36.262  19.238  0.00  0.00     0.087 H 
ATOM     43  C8  8R3 d   1      17.635  36.530  15.980  0.00  0.00    -0.059 A 
ATOM     44 CL2  8R3 d   1      16.416  34.371  17.067  0.00  0.00    -0.084 Cl
ATOM     45  C7  8R3 d   1      18.211  37.812  16.020  0.00  0.00    -0.049 A 
ATOM     46  H27 8R3 d   1      17.603  35.980  15.046  0.00  0.00     0.086 H 
ATOM     47  C6  8R3 d   1      18.255  38.575  17.216  0.00  0.00     0.074 A 
ATOM     48  H26 8R3 d   1      18.633  38.229  15.113  0.00  0.00     0.087 H 
BRANCH  47  49
ATOM     49  O23 8R3 d   1      18.780  39.850  17.372  0.00  0.00    -0.355 OA
BRANCH  49  50
ATOM     50  C24 8R3 d   1      19.399  40.635  16.339  0.00  0.00     0.010 C 
ATOM     51  H23 8R3 d   1      19.719  41.602  16.755  0.00  0.00     0.066 H 
ATOM     52  H24 8R3 d   1      18.677  40.806  15.527  0.00  0.00     0.066 H 
ATOM     53  H25 8R3 d   1      20.274  40.098  15.945  0.00  0.00     0.066 H 
ENDBRANCH  49  50
ENDBRANCH  47  49
ENDBRANCH  36  39
ENDBRANCH   9  36
BRANCH   6  54
ATOM     54  N62 8R3 d   1      23.800  37.402  21.072  0.00  0.00    -0.215 NA
BRANCH  54  55
ATOM     55  C68 8R3 d   1      24.215  36.441  22.109  0.00  0.00    -0.014 C 
ATOM     56  H10 8R3 d   1      24.558  35.511  21.631  0.00  0.00     0.051 H 
ATOM     57  H11 8R3 d   1      23.362  36.222  22.768  0.00  0.00     0.051 H 
ATOM     58  H12 8R3 d   1      25.035  36.873  22.702  0.00  0.00     0.051 H 
ENDBRANCH  54  55
BRANCH  54  59
ATOM     59  C63 8R3 d   1      24.766  37.539  19.964  0.00  0.00    -0.014 C 
ATOM     60  H13 8R3 d   1      25.124  36.543  19.664  0.00  0.00     0.051 H 
ATOM     61  H14 8R3 d   1      25.619  38.151  20.294  0.00  0.00     0.051 H 
ATOM     62  H15 8R3 d   1      24.276  38.026  19.108  0.00  0.00     0.051 H 
ENDBRANCH  54  59
ENDBRANCH   6  54
TORSDOF 11
