REMARK  23 active torsions:
REMARK  status: ('A' for Active; 'I' for Inactive)
REMARK    1  A    between atoms: N_1  and  CA_2 
REMARK    2  A    between atoms: CA_2  and  C_3 
REMARK    3  A    between atoms: CA_2  and  CB_5 
REMARK       I    between atoms: C_3  and  N_13 
REMARK    4  A    between atoms: CB_5  and  CG_6 
REMARK    5  A    between atoms: CZ_11  and  OH_12 
REMARK    6  A    between atoms: N_13  and  CA_14 
REMARK    7  A    between atoms: CA_14  and  C_15 
REMARK       I    between atoms: C_15  and  N_17 
REMARK    8  A    between atoms: CA_18  and  C_19 
REMARK       I    between atoms: C_19  and  N_24 
REMARK    9  A    between atoms: N_24  and  CA_25 
REMARK   10  A    between atoms: CA_25  and  C_26 
REMARK   11  A    between atoms: CA_25  and  CB_28 
REMARK       I    between atoms: C_26  and  N_33 
REMARK   12  A    between atoms: CB_28  and  CG_29 
REMARK   13  A    between atoms: CG_29  and  CD_30 
REMARK   14  A    between atoms: CD_30  and  CE_31 
REMARK   15  A    between atoms: CE_31  and  NZ_32 
REMARK   16  A    between atoms: N_33  and  CA_34 
REMARK   17  A    between atoms: CA_34  and  C_35 
REMARK   18  A    between atoms: CA_34  and  CB_37 
REMARK       I    between atoms: C_35  and  N_47 
REMARK   19  A    between atoms: CB_37  and  CG_38 
REMARK   20  A    between atoms: N_47  and  CA_48 
REMARK   21  A    between atoms: CA_48  and  C_49 
REMARK   22  A    between atoms: CA_48  and  CB_51 
REMARK   23  A    between atoms: CB_51  and  CG_52 
REMARK       I    between atoms: CG_52  and  ND2_54 
ROOT
ATOM      1  CA  LYS d   1      -1.814   4.664  -2.320  0.00  0.00     0.089 C 
ATOM      2  H23 LYS d   1      -1.790   3.588  -2.094  0.00  0.00     0.087 H 
ENDROOT
BRANCH   1   3
ATOM      3  N   LYS d   1      -2.898   5.275  -1.555  0.00  0.00    -0.346 N 
ATOM      4  C   PRO d   1      -3.364   4.766  -0.416  0.00  0.00     0.241 C 
ATOM      5  O   PRO d   1      -2.933   3.726   0.082  0.00  0.00    -0.271 OA
ATOM      6  H22 LYS d   1      -3.310   6.117  -1.904  0.00  0.00     0.163 HD
BRANCH   4   7
ATOM      7  CA  PRO d   1      -4.471   5.559   0.254  0.00  0.00     0.091 C 
ATOM      8  N   PRO d   1      -5.460   4.676   0.871  0.00  0.00    -0.337 N 
ATOM      9  C   GLY d   1      -6.406   4.103   0.127  0.00  0.00     0.238 C 
ATOM     10  CD  PRO d   1      -5.326   4.652   2.339  0.00  0.00    -0.001 C 
ATOM     11  O   GLY d   1      -6.449   4.253  -1.098  0.00  0.00    -0.272 OA
ATOM     12  CG  PRO d   1      -4.033   5.390   2.581  0.00  0.00    -0.048 C 
ATOM     13  H20 PRO d   1      -5.266   3.619   2.712  0.00  0.00     0.064 H 
ATOM     14  H21 PRO d   1      -6.170   5.168   2.820  0.00  0.00     0.064 H 
ATOM     15  CB  PRO d   1      -3.934   6.356   1.447  0.00  0.00    -0.036 C 
ATOM     16  H18 PRO d   1      -4.064   5.922   3.543  0.00  0.00     0.035 H 
ATOM     17  H19 PRO d   1      -3.181   4.694   2.574  0.00  0.00     0.035 H 
ATOM     18  H16 PRO d   1      -4.551   7.247   1.634  0.00  0.00     0.036 H 
ATOM     19  H17 PRO d   1      -2.890   6.660   1.279  0.00  0.00     0.036 H 
ATOM     20  H15 PRO d   1      -4.942   6.223  -0.485  0.00  0.00     0.087 H 
BRANCH   9  21
ATOM     21  CA  GLY d   1      -7.419   3.239   0.845  0.00  0.00     0.069 C 
ATOM     22  H13 GLY d   1      -6.890   2.564   1.534  0.00  0.00     0.078 H 
ATOM     23  H14 GLY d   1      -8.101   3.886   1.417  0.00  0.00     0.078 H 
BRANCH  21  24
ATOM     24  N   GLY d   1      -8.189   2.451  -0.089  0.00  0.00    -0.351 N 
ATOM     25  C   TYR d   1      -8.180   1.121  -0.075  0.00  0.00     0.248 C 
ATOM     26  O   TYR d   1      -7.597   0.454   0.783  0.00  0.00    -0.271 OA
ATOM     27  H12 GLY d   1      -8.749   2.922  -0.770  0.00  0.00     0.163 HD
BRANCH  25  28
ATOM     28  CA  TYR d   1      -8.965   0.437  -1.190  0.00  0.00     0.179 C 
ATOM     29  H4  TYR d   1      -9.212   1.187  -1.956  0.00  0.00     0.099 H 
BRANCH  28  30
ATOM     30  N   TYR d   1      -8.157  -0.611  -1.813  0.00  0.00    -0.066 N 
ATOM     31  H1  TYR d   1      -8.688  -1.053  -2.547  0.00  0.00     0.275 HD
ATOM     32  H2  TYR d   1      -7.905  -1.298  -1.120  0.00  0.00     0.275 HD
ATOM     33  H3  TYR d   1      -7.321  -0.204  -2.202  0.00  0.00     0.275 HD
ENDBRANCH  28  30
BRANCH  28  34
ATOM     34  CB  TYR d   1     -10.271  -0.136  -0.633  0.00  0.00    -0.006 C 
ATOM     35  H5  TYR d   1     -10.032  -0.721   0.267  0.00  0.00     0.043 H 
ATOM     36  H6  TYR d   1     -10.707  -0.798  -1.395  0.00  0.00     0.043 H 
BRANCH  34  37
ATOM     37  CG  TYR d   1     -11.319   0.908  -0.256  0.00  0.00    -0.056 A 
ATOM     38  CD1 TYR d   1     -12.328   1.253  -1.144  0.00  0.00    -0.074 A 
ATOM     39  CE1 TYR d   1     -13.292   2.197  -0.814  0.00  0.00    -0.051 A 
ATOM     40  H7  TYR d   1     -12.365   0.775  -2.116  0.00  0.00     0.084 H 
ATOM     41  CZ  TYR d   1     -13.256   2.809   0.420  0.00  0.00     0.065 A 
ATOM     42  H9  TYR d   1     -14.070   2.451  -1.525  0.00  0.00     0.087 H 
ATOM     43  CE2 TYR d   1     -12.262   2.485   1.325  0.00  0.00    -0.051 A 
ATOM     44  CD2 TYR d   1     -11.300   1.539   0.986  0.00  0.00    -0.074 A 
ATOM     45  H10 TYR d   1     -12.232   2.967   2.296  0.00  0.00     0.087 H 
ATOM     46  H8  TYR d   1     -10.523   1.289   1.700  0.00  0.00     0.084 H 
BRANCH  41  47
ATOM     47  OH  TYR d   1     -14.231   3.745   0.729  0.00  0.00    -0.361 OA
ATOM     48  H11 TYR d   1     -14.824   3.837  -0.007  0.00  0.00     0.217 HD
ENDBRANCH  41  47
ENDBRANCH  34  37
ENDBRANCH  28  34
ENDBRANCH  25  28
ENDBRANCH  21  24
ENDBRANCH   9  21
ENDBRANCH   4   7
ENDBRANCH   1   3
BRANCH   1  49
ATOM     49  C   LYS d   1      -0.470   5.277  -1.925  0.00  0.00     0.241 C 
ATOM     50  O   LYS d   1      -0.392   6.440  -1.520  0.00  0.00    -0.271 OA
ATOM     51  N   TRP d   1       0.599   4.487  -2.036  0.00  0.00    -0.346 N 
ATOM     52  H35 TRP d   1       0.482   3.534  -2.314  0.00  0.00     0.163 HD
BRANCH  51  53
ATOM     53  CA  TRP d   1       1.938   4.998  -1.756  0.00  0.00     0.093 C 
ATOM     54  H36 TRP d   1       1.847   5.838  -1.052  0.00  0.00     0.088 H 
BRANCH  53  55
ATOM     55  C   TRP d   1       2.565   5.511  -3.051  0.00  0.00     0.241 C 
ATOM     56  O   TRP d   1       2.731   4.746  -4.011  0.00  0.00    -0.271 OA
ATOM     57  N   ASN d   1       2.908   6.805  -3.073  0.00  0.00    -0.344 N 
ATOM     58  H45 ASN d   1       2.594   7.393  -2.327  0.00  0.00     0.163 HD
BRANCH  57  59
ATOM     59  CA  ASN d   1       3.725   7.405  -4.142  0.00  0.00     0.104 C 
ATOM     60  H46 ASN d   1       3.914   6.636  -4.905  0.00  0.00     0.090 H 
BRANCH  59  61
ATOM     61  C   ASN d   1       5.060   7.876  -3.570  0.00  0.00     0.197 C 
ATOM     62  O   ASN d   1       5.228   9.061  -3.268  0.00  0.00    -0.646 OA
ATOM     63  OXT ASN d   1       5.986   7.077  -3.403  0.00  0.00    -0.646 OA
ENDBRANCH  59  61
BRANCH  59  64
ATOM     64  CB  ASN d   1       3.023   8.597  -4.815  0.00  0.00     0.037 C 
ATOM     65  H47 ASN d   1       3.671   8.976  -5.619  0.00  0.00     0.051 H 
ATOM     66  H48 ASN d   1       2.873   9.385  -4.062  0.00  0.00     0.051 H 
BRANCH  64  67
ATOM     67  CG  ASN d   1       1.668   8.234  -5.415  0.00  0.00     0.217 C 
ATOM     68  OD1 ASN d   1       1.118   7.172  -5.137  0.00  0.00    -0.274 OA
ATOM     69  ND2 ASN d   1       1.123   9.127  -6.241  0.00  0.00    -0.370 N 
ATOM     70  H49 ASN d   1       0.236   8.941  -6.663  0.00  0.00     0.159 HD
ATOM     71  H50 ASN d   1       1.601   9.983  -6.439  0.00  0.00     0.159 HD
ENDBRANCH  64  67
ENDBRANCH  59  64
ENDBRANCH  57  59
ENDBRANCH  53  55
BRANCH  53  72
ATOM     72  CB  TRP d   1       2.839   3.937  -1.117  0.00  0.00    -0.012 C 
ATOM     73  H37 TRP d   1       2.781   3.013  -1.711  0.00  0.00     0.044 H 
ATOM     74  H38 TRP d   1       2.488   3.738  -0.094  0.00  0.00     0.044 H 
BRANCH  72  75
ATOM     75  CG  TRP d   1       4.288   4.401  -1.063  0.00  0.00    -0.028 A 
ATOM     76  CD1 TRP d   1       5.215   4.327  -2.076  0.00  0.00    -0.015 A 
ATOM     77  NE1 TRP d   1       6.412   4.873  -1.668  0.00  0.00    -0.365 N 
ATOM     78  H39 TRP d   1       5.029   3.898  -3.060  0.00  0.00     0.112 H 
ATOM     79  CE2 TRP d   1       6.283   5.312  -0.375  0.00  0.00     0.042 A 
ATOM     80  H40 TRP d   1       7.265   4.941  -2.241  0.00  0.00     0.165 HD
ATOM     81  CD2 TRP d   1       4.959   5.037   0.040  0.00  0.00    -0.002 A 
ATOM     82  CZ2 TRP d   1       7.219   5.929   0.464  0.00  0.00    -0.056 A 
ATOM     83  CE3 TRP d   1       4.575   5.388   1.337  0.00  0.00    -0.070 A 
ATOM     84  CZ3 TRP d   1       5.512   6.003   2.175  0.00  0.00    -0.082 A 
ATOM     85  H41 TRP d   1       3.569   5.187   1.688  0.00  0.00     0.084 H 
ATOM     86  CH2 TRP d   1       6.810   6.268   1.732  0.00  0.00    -0.081 A 
ATOM     87  H43 TRP d   1       5.226   6.278   3.184  0.00  0.00     0.083 H 
ATOM     88  H44 TRP d   1       7.511   6.752   2.403  0.00  0.00     0.083 H 
ATOM     89  H42 TRP d   1       8.229   6.132   0.126  0.00  0.00     0.086 H 
ENDBRANCH  72  75
ENDBRANCH  53  72
ENDBRANCH  51  53
ENDBRANCH   1  49
BRANCH   1  90
ATOM     90  CB  LYS d   1      -2.047   4.844  -3.828  0.00  0.00    -0.038 C 
ATOM     91  H24 LYS d   1      -3.075   4.526  -4.054  0.00  0.00     0.036 H 
ATOM     92  H25 LYS d   1      -1.336   4.196  -4.362  0.00  0.00     0.036 H 
BRANCH  90  93
ATOM     93  CG  LYS d   1      -1.866   6.290  -4.352  0.00  0.00    -0.061 C 
ATOM     94  H26 LYS d   1      -1.767   6.255  -5.447  0.00  0.00     0.033 H 
ATOM     95  H27 LYS d   1      -0.948   6.709  -3.913  0.00  0.00     0.033 H 
BRANCH  93  96
ATOM     96  CD  LYS d   1      -3.039   7.210  -3.998  0.00  0.00    -0.043 C 
ATOM     97  H28 LYS d   1      -3.298   7.069  -2.938  0.00  0.00     0.035 H 
ATOM     98  H29 LYS d   1      -3.903   6.946  -4.625  0.00  0.00     0.035 H 
BRANCH  96  99
ATOM     99  CE  LYS d   1      -2.686   8.669  -4.231  0.00  0.00     0.080 C 
ATOM    100  H30 LYS d   1      -2.310   8.795  -5.257  0.00  0.00     0.075 H 
ATOM    101  H31 LYS d   1      -1.909   8.976  -3.516  0.00  0.00     0.075 H 
BRANCH  99 102
ATOM    102  NZ  LYS d   1      -3.891   9.512  -4.041  0.00  0.00    -0.079 N 
ATOM    103  H32 LYS d   1      -3.652  10.479  -4.197  0.00  0.00     0.274 HD
ATOM    104  H33 LYS d   1      -4.236   9.398  -3.101  0.00  0.00     0.274 HD
ATOM    105  H34 LYS d   1      -4.604   9.232  -4.697  0.00  0.00     0.274 HD
ENDBRANCH  99 102
ENDBRANCH  96  99
ENDBRANCH  93  96
ENDBRANCH  90  93
ENDBRANCH   1  90
TORSDOF 23
