REMARK WARNING: 32 MAX_TORS EXCEEDED!!!
REMARK  95 active torsions:
REMARK  status: ('A' for Active; 'I' for Inactive)
REMARK    1  A    between atoms: CA_2  and  C_3 
REMARK       I    between atoms: C_3  and  N_8 
REMARK    2  A    between atoms: N_8  and  CA_9 
REMARK    3  A    between atoms: CA_9  and  C_10 
REMARK    4  A    between atoms: CA_9  and  CB_12 
REMARK       I    between atoms: C_10  and  N_17 
REMARK    5  A    between atoms: CB_12  and  CG_13 
REMARK    6  A    between atoms: CG_13  and  CD_14 
REMARK    7  A    between atoms: CD_14  and  CE_15 
REMARK    8  A    between atoms: CE_15  and  NZ_16 
REMARK    9  A    between atoms: N_17  and  CA_18 
REMARK   10  A    between atoms: CA_18  and  C_19 
REMARK   11  A    between atoms: CA_18  and  CB_21 
REMARK       I    between atoms: C_19  and  N_25 
REMARK   12  A    between atoms: CB_21  and  CG_22 
REMARK       I    between atoms: CG_22  and  ND2_24 
REMARK   13  A    between atoms: N_25  and  CA_26 
REMARK   14  A    between atoms: CA_26  and  C_27 
REMARK   15  A    between atoms: CA_26  and  CB_29 
REMARK       I    between atoms: C_27  and  N_34 
REMARK   16  A    between atoms: CB_29  and  CG_30 
REMARK   17  A    between atoms: CG_30  and  CD_31 
REMARK   18  A    between atoms: CD_31  and  CE_32 
REMARK   19  A    between atoms: CE_32  and  NZ_33 
REMARK   20  A    between atoms: N_34  and  CA_35 
REMARK   21  A    between atoms: CA_35  and  C_36 
REMARK   22  A    between atoms: CA_35  and  CB_38 
REMARK       I    between atoms: C_36  and  N_39 
REMARK   23  A    between atoms: N_39  and  CA_40 
REMARK   24  A    between atoms: CA_40  and  C_41 
REMARK   25  A    between atoms: CA_40  and  CB_43 
REMARK       I    between atoms: C_41  and  N_50 
REMARK   26  A    between atoms: CB_43  and  CG_44 
REMARK   27  A    between atoms: CG_44  and  CD_45 
REMARK   28  A    between atoms: CD_45  and  NE_46 
REMARK       I    between atoms: NE_46  and  CZ_47 
REMARK       I    between atoms: CZ_47  and  NH1_48 
REMARK       I    between atoms: CZ_47  and  NH2_49 
REMARK   29  A    between atoms: N_50  and  CA_51 
REMARK   30  A    between atoms: CA_51  and  C_52 
REMARK   31  A    between atoms: CA_51  and  CB_54 
REMARK       I    between atoms: C_52  and  N_61 
REMARK   32  A    between atoms: CB_54  and  CG_55 
REMARK   33  A    between atoms: CG_55  and  CD_56 
REMARK   34  A    between atoms: CD_56  and  NE_57 
REMARK       I    between atoms: NE_57  and  CZ_58 
REMARK       I    between atoms: CZ_58  and  NH1_59 
REMARK       I    between atoms: CZ_58  and  NH2_60 
REMARK   35  A    between atoms: N_61  and  CA_62 
REMARK   36  A    between atoms: CA_62  and  C_63 
REMARK   37  A    between atoms: CA_62  and  CB_65 
REMARK       I    between atoms: C_63  and  N_72 
REMARK   38  A    between atoms: CB_65  and  CG_66 
REMARK   39  A    between atoms: CG_66  and  CD_67 
REMARK   40  A    between atoms: CD_67  and  NE_68 
REMARK       I    between atoms: NE_68  and  CZ_69 
REMARK       I    between atoms: CZ_69  and  NH1_70 
REMARK   41  A    between atoms: N_72  and  CA_73 
REMARK   42  A    between atoms: CA_73  and  C_74 
REMARK   43  A    between atoms: CA_73  and  CB_76 
REMARK       I    between atoms: C_74  and  N_79 
REMARK   44  A    between atoms: CB_76  and  OG1_77 
REMARK   45  A    between atoms: CB_76  and  CG2_78 
REMARK   46  A    between atoms: N_79  and  CA_80 
REMARK   47  A    between atoms: CA_80  and  C_81 
REMARK   48  A    between atoms: CA_80  and  CB_83 
REMARK       I    between atoms: C_81  and  N_86 
REMARK   49  A    between atoms: CB_83  and  OG1_84 
REMARK   50  A    between atoms: CB_83  and  CG2_85 
REMARK   51  A    between atoms: N_86  and  CA_87 
REMARK   52  A    between atoms: CA_87  and  C_88 
REMARK   53  A    between atoms: CA_87  and  CB_90 
REMARK       I    between atoms: C_88  and  N_93 
REMARK   54  A    between atoms: CB_90  and  OG1_91 
REMARK   55  A    between atoms: CB_90  and  CG2_92 
REMARK   56  A    between atoms: N_93  and  CA_94 
REMARK   57  A    between atoms: CA_94  and  C_95 
REMARK   58  A    between atoms: CA_94  and  CB_97 
REMARK       I    between atoms: C_95  and  N_102 
REMARK   59  A    between atoms: CB_97  and  CG_98 
REMARK   60  A    between atoms: CG_98  and  CD_99 
REMARK       I    between atoms: CD_99  and  NE2_101 
REMARK   61  A    between atoms: N_102  and  CA_103 
REMARK   62  A    between atoms: CA_103  and  C_104 
REMARK   63  A    between atoms: CA_103  and  CB_106 
REMARK       I    between atoms: C_104  and  N_110 
REMARK   64  A    between atoms: CB_106  and  CG_107 
REMARK   65  A    between atoms: CG_107  and  SD_108 
REMARK   66  A    between atoms: SD_108  and  CE_109 
REMARK   67  A    between atoms: N_110  and  CA_111 
REMARK   68  A    between atoms: CA_111  and  C_112 
REMARK   69  A    between atoms: CA_111  and  CB_114 
REMARK       I    between atoms: C_112  and  N_119 
REMARK   70  A    between atoms: CB_114  and  CG_115 
REMARK   71  A    between atoms: CG_115  and  CD_116 
REMARK   72  A    between atoms: N_119  and  CA_120 
REMARK   73  A    between atoms: CA_120  and  C_121 
REMARK   74  A    between atoms: CA_120  and  CB_123 
REMARK       I    between atoms: C_121  and  N_127 
REMARK   75  A    between atoms: CB_123  and  CG_124 
REMARK   76  A    between atoms: CG_124  and  CD1_125 
REMARK   77  A    between atoms: CG_124  and  CD2_126 
REMARK   78  A    between atoms: N_127  and  CA_128 
REMARK   79  A    between atoms: CA_128  and  C_129 
REMARK   80  A    between atoms: CA_128  and  CB_131 
REMARK       I    between atoms: C_129  and  N_135 
REMARK   81  A    between atoms: CB_131  and  CG_132 
REMARK   82  A    between atoms: CG_132  and  CD1_133 
REMARK   83  A    between atoms: CG_132  and  CD2_134 
REMARK   84  A    between atoms: N_135  and  CA_136 
REMARK   85  A    between atoms: CA_136  and  C_137 
REMARK   86  A    between atoms: CA_136  and  CB_139 
REMARK       I    between atoms: C_137  and  N_147 
REMARK   87  A    between atoms: CB_139  and  CG_140 
REMARK   88  A    between atoms: CZ_145  and  OH_146 
REMARK   89  A    between atoms: N_147  and  CA_148 
REMARK   90  A    between atoms: CA_148  and  C_149 
REMARK   91  A    between atoms: CA_148  and  CB_151 
REMARK       I    between atoms: C_149  and  N_152 
REMARK   92  A    between atoms: N_152  and  CA_153 
REMARK   93  A    between atoms: CA_153  and  C_154 
REMARK   94  A    between atoms: CA_153  and  CB_156 
REMARK   95  A    between atoms: CB_156  and  CG_157 
ROOT
ATOM      1  CA  THR d   1      37.913   2.616 121.116  0.00  0.00     0.113 C 
ATOM      2  H87 THR d   1      36.834   2.691 121.319  0.00  0.00     0.091 H 
ENDROOT
BRANCH   1   3
ATOM      3  N   THR d   1      38.422   1.346 121.620  0.00  0.00    -0.344 N 
ATOM      4  C   ARG d   1      37.695   0.475 122.303  0.00  0.00     0.241 C 
ATOM      5  O   ARG d   1      36.549   0.718 122.695  0.00  0.00    -0.271 OA
ATOM      6  H86 THR d   1      39.379   1.119 121.439  0.00  0.00     0.163 HD
BRANCH   4   7
ATOM      7  CA  ARG d   1      38.401  -0.846 122.606  0.00  0.00     0.089 C 
ATOM      8  H74 ARG d   1      39.439  -0.620 122.891  0.00  0.00     0.087 H 
BRANCH   7   9
ATOM      9  N   ARG d   1      37.778  -1.566 123.709  0.00  0.00    -0.346 N 
ATOM     10  C   ARG d   1      38.004  -1.205 124.971  0.00  0.00     0.241 C 
ATOM     11  O   ARG d   1      38.758  -0.264 125.283  0.00  0.00    -0.271 OA
ATOM     12  H73 ARG d   1      37.174  -2.340 123.516  0.00  0.00     0.163 HD
BRANCH  10  13
ATOM     13  CA  ARG d   1      37.287  -1.985 126.059  0.00  0.00     0.089 C 
ATOM     14  H61 ARG d   1      36.895  -1.261 126.789  0.00  0.00     0.087 H 
BRANCH  13  15
ATOM     15  N   ARG d   1      36.154  -2.752 125.543  0.00  0.00    -0.346 N 
ATOM     16  C   ARG d   1      34.946  -2.178 125.501  0.00  0.00     0.241 C 
ATOM     17  O   ARG d   1      34.768  -1.028 125.904  0.00  0.00    -0.271 OA
ATOM     18  H60 ARG d   1      36.280  -3.692 125.226  0.00  0.00     0.163 HD
BRANCH  16  19
ATOM     19  CA  ARG d   1      33.767  -2.950 124.907  0.00  0.00     0.089 C 
ATOM     20  H48 ARG d   1      33.215  -2.256 124.257  0.00  0.00     0.087 H 
BRANCH  19  21
ATOM     21  N   ARG d   1      34.187  -4.078 124.081  0.00  0.00    -0.346 N 
ATOM     22  C   ALA d   1      34.853  -3.876 122.941  0.00  0.00     0.240 C 
ATOM     23  O   ALA d   1      35.200  -2.749 122.574  0.00  0.00    -0.271 OA
ATOM     24  H47 ARG d   1      33.974  -5.011 124.371  0.00  0.00     0.163 HD
BRANCH  22  25
ATOM     25  CA  ALA d   1      35.212  -5.102 122.107  0.00  0.00     0.086 C 
ATOM     26  H43 ALA d   1      36.055  -4.833 121.453  0.00  0.00     0.086 H 
BRANCH  25  27
ATOM     27  N   ALA d   1      35.636  -6.217 122.951  0.00  0.00    -0.346 N 
ATOM     28  C   LYS d   1      36.635  -6.056 123.831  0.00  0.00     0.241 C 
ATOM     29  O   LYS d   1      37.179  -4.964 124.056  0.00  0.00    -0.271 OA
ATOM     30  H42 ALA d   1      35.180  -7.103 122.872  0.00  0.00     0.163 HD
BRANCH  28  31
ATOM     31  CA  LYS d   1      37.093  -7.307 124.571  0.00  0.00     0.089 C 
ATOM     32  H30 LYS d   1      36.796  -8.198 123.998  0.00  0.00     0.087 H 
BRANCH  31  33
ATOM     33  N   LYS d   1      38.548  -7.270 124.658  0.00  0.00    -0.346 N 
ATOM     34  C   ASN d   1      39.306  -8.367 124.604  0.00  0.00     0.241 C 
ATOM     35  O   ASN d   1      38.816  -9.498 124.585  0.00  0.00    -0.271 OA
ATOM     36  H29 LYS d   1      38.998  -6.383 124.763  0.00  0.00     0.163 HD
BRANCH  34  37
ATOM     37  CA  ASN d   1      40.826  -8.177 124.561  0.00  0.00     0.097 C 
ATOM     38  H24 ASN d   1      41.125  -8.141 123.503  0.00  0.00     0.088 H 
BRANCH  37  39
ATOM     39  N   ASN d   1      41.242  -6.918 125.177  0.00  0.00    -0.346 N 
ATOM     40  C   LYS d   1      41.875  -5.969 124.476  0.00  0.00     0.241 C 
ATOM     41  O   LYS d   1      42.240  -6.141 123.306  0.00  0.00    -0.271 OA
ATOM     42  H23 ASN d   1      41.049  -6.762 126.146  0.00  0.00     0.163 HD
BRANCH  40  43
ATOM     43  CA  LYS d   1      42.114  -4.645 125.208  0.00  0.00     0.089 C 
ATOM     44  H11 LYS d   1      41.159  -4.307 125.636  0.00  0.00     0.087 H 
BRANCH  43  45
ATOM     45  N   LYS d   1      43.079  -4.813 126.312  0.00  0.00    -0.346 N 
ATOM     46  C   PRO d   1      42.738  -5.185 127.554  0.00  0.00     0.249 C 
ATOM     47  O   PRO d   1      41.613  -5.584 127.874  0.00  0.00    -0.271 OA
ATOM     48  H10 LYS d   1      44.045  -4.639 126.122  0.00  0.00     0.163 HD
BRANCH  46  49
ATOM     49  CA  PRO d   1      43.826  -5.073 128.626  0.00  0.00     0.178 C 
ATOM     50  N   PRO d   1      43.772  -3.759 129.292  0.00  0.00    -0.062 N 
ATOM     51  CD  PRO d   1      43.138  -3.839 130.612  0.00  0.00     0.083 C 
ATOM     52  H1  PRO d   1      43.244  -3.123 128.715  0.00  0.00     0.278 HD
ATOM     53  H2  PRO d   1      44.712  -3.411 129.403  0.00  0.00     0.278 HD
ATOM     54  CG  PRO d   1      43.475  -5.233 131.023  0.00  0.00    -0.040 C 
ATOM     55  H8  PRO d   1      42.050  -3.693 130.544  0.00  0.00     0.075 H 
ATOM     56  H9  PRO d   1      43.565  -3.101 131.308  0.00  0.00     0.075 H 
ATOM     57  CB  PRO d   1      43.579  -6.065 129.766  0.00  0.00    -0.028 C 
ATOM     58  H6  PRO d   1      44.434  -5.244 131.561  0.00  0.00     0.035 H 
ATOM     59  H7  PRO d   1      42.684  -5.634 131.674  0.00  0.00     0.035 H 
ATOM     60  H4  PRO d   1      44.416  -6.774 129.845  0.00  0.00     0.036 H 
ATOM     61  H5  PRO d   1      42.644  -6.619 129.595  0.00  0.00     0.036 H 
ATOM     62  H3  PRO d   1      44.811  -5.241 128.167  0.00  0.00     0.099 H 
ENDBRANCH  46  49
ENDBRANCH  43  45
BRANCH  43  63
ATOM     63  CB  LYS d   1      42.601  -3.587 124.210  0.00  0.00    -0.038 C 
ATOM     64  H12 LYS d   1      41.736  -3.285 123.602  0.00  0.00     0.036 H 
ATOM     65  H13 LYS d   1      43.354  -4.064 123.565  0.00  0.00     0.036 H 
BRANCH  63  66
ATOM     66  CG  LYS d   1      43.229  -2.310 124.782  0.00  0.00    -0.061 C 
ATOM     67  H14 LYS d   1      43.806  -1.817 123.986  0.00  0.00     0.033 H 
ATOM     68  H15 LYS d   1      43.904  -2.590 125.604  0.00  0.00     0.033 H 
BRANCH  66  69
ATOM     69  CD  LYS d   1      42.196  -1.323 125.316  0.00  0.00    -0.043 C 
ATOM     70  H16 LYS d   1      41.651  -1.786 126.151  0.00  0.00     0.035 H 
ATOM     71  H17 LYS d   1      41.489  -1.069 124.513  0.00  0.00     0.035 H 
BRANCH  69  72
ATOM     72  CE  LYS d   1      42.876  -0.055 125.804  0.00  0.00     0.080 C 
ATOM     73  H18 LYS d   1      42.112   0.661 126.141  0.00  0.00     0.075 H 
ATOM     74  H19 LYS d   1      43.455   0.387 124.980  0.00  0.00     0.075 H 
BRANCH  72  75
ATOM     75  NZ  LYS d   1      43.801  -0.370 126.948  0.00  0.00    -0.079 N 
ATOM     76  H20 LYS d   1      44.246   0.478 127.263  0.00  0.00     0.274 HD
ATOM     77  H21 LYS d   1      44.504  -1.024 126.642  0.00  0.00     0.274 HD
ATOM     78  H22 LYS d   1      43.273  -0.774 127.706  0.00  0.00     0.274 HD
ENDBRANCH  72  75
ENDBRANCH  69  72
ENDBRANCH  66  69
ENDBRANCH  63  66
ENDBRANCH  43  63
ENDBRANCH  40  43
ENDBRANCH  37  39
BRANCH  37  79
ATOM     79  CB  ASN d   1      41.539  -9.365 125.205  0.00  0.00     0.036 C 
ATOM     80  H25 ASN d   1      42.589  -9.361 124.879  0.00  0.00     0.051 H 
ATOM     81  H26 ASN d   1      41.053 -10.291 124.864  0.00  0.00     0.051 H 
BRANCH  79  82
ATOM     82  CG  ASN d   1      41.506  -9.335 126.727  0.00  0.00     0.217 C 
ATOM     83  OD1 ASN d   1      40.775  -8.546 127.320  0.00  0.00    -0.274 OA
ATOM     84  ND2 ASN d   1      42.311 -10.213 127.374  0.00  0.00    -0.370 N 
ATOM     85  H27 ASN d   1      42.327 -10.234 128.374  0.00  0.00     0.159 HD
ATOM     86  H28 ASN d   1      42.889 -10.840 126.852  0.00  0.00     0.159 HD
ENDBRANCH  79  82
ENDBRANCH  37  79
ENDBRANCH  34  37
ENDBRANCH  31  33
BRANCH  31  87
ATOM     87  CB  LYS d   1      36.418  -7.373 125.957  0.00  0.00    -0.038 C 
ATOM     88  H31 LYS d   1      35.337  -7.511 125.804  0.00  0.00     0.036 H 
ATOM     89  H32 LYS d   1      36.597  -6.416 126.469  0.00  0.00     0.036 H 
BRANCH  87  90
ATOM     90  CG  LYS d   1      36.911  -8.489 126.859  0.00  0.00    -0.061 C 
ATOM     91  H33 LYS d   1      37.858  -8.181 127.326  0.00  0.00     0.033 H 
ATOM     92  H34 LYS d   1      37.077  -9.392 126.254  0.00  0.00     0.033 H 
BRANCH  90  93
ATOM     93  CD  LYS d   1      35.907  -8.800 127.942  0.00  0.00    -0.043 C 
ATOM     94  H35 LYS d   1      34.894  -8.751 127.515  0.00  0.00     0.035 H 
ATOM     95  H36 LYS d   1      36.004  -8.053 128.744  0.00  0.00     0.035 H 
BRANCH  93  96
ATOM     96  CE  LYS d   1      36.133 -10.206 128.536  0.00  0.00     0.080 C 
ATOM     97  H37 LYS d   1      36.233 -10.127 129.629  0.00  0.00     0.075 H 
ATOM     98  H38 LYS d   1      37.053 -10.635 128.114  0.00  0.00     0.075 H 
BRANCH  96  99
ATOM     99  NZ  LYS d   1      34.978 -11.096 128.209  0.00  0.00    -0.079 N 
ATOM    100  H39 LYS d   1      35.137 -12.011 128.602  0.00  0.00     0.274 HD
ATOM    101  H40 LYS d   1      34.885 -11.172 127.208  0.00  0.00     0.274 HD
ATOM    102  H41 LYS d   1      34.133 -10.706 128.596  0.00  0.00     0.274 HD
ENDBRANCH  96  99
ENDBRANCH  93  96
ENDBRANCH  90  93
ENDBRANCH  87  90
ENDBRANCH  31  87
ENDBRANCH  28  31
ENDBRANCH  25  27
BRANCH  25 103
ATOM    103  CB  ALA d   1      34.028  -5.514 121.215  0.00  0.00    -0.049 C 
ATOM    104  H44 ALA d   1      33.726  -4.661 120.590  0.00  0.00     0.030 H 
ATOM    105  H45 ALA d   1      33.182  -5.822 121.847  0.00  0.00     0.030 H 
ATOM    106  H46 ALA d   1      34.329  -6.353 120.570  0.00  0.00     0.030 H 
ENDBRANCH  25 103
ENDBRANCH  22  25
ENDBRANCH  19  21
BRANCH  19 107
ATOM    107  CB  ARG d   1      32.811  -3.413 126.016  0.00  0.00    -0.036 C 
ATOM    108  H49 ARG d   1      31.904  -3.810 125.537  0.00  0.00     0.036 H 
ATOM    109  H50 ARG d   1      32.550  -2.535 126.626  0.00  0.00     0.036 H 
BRANCH 107 110
ATOM    110  CG  ARG d   1      33.360  -4.498 126.960  0.00  0.00    -0.048 C 
ATOM    111  H51 ARG d   1      34.442  -4.350 127.090  0.00  0.00     0.035 H 
ATOM    112  H52 ARG d   1      33.176  -5.488 126.518  0.00  0.00     0.035 H 
BRANCH 110 113
ATOM    113  CD  ARG d   1      32.683  -4.424 128.311  0.00  0.00     0.009 C 
ATOM    114  H53 ARG d   1      31.675  -4.856 128.220  0.00  0.00     0.064 H 
ATOM    115  H54 ARG d   1      32.603  -3.366 128.603  0.00  0.00     0.064 H 
BRANCH 113 116
ATOM    116  NE  ARG d   1      33.406  -5.147 129.370  0.00  0.00    -0.227 N 
ATOM    117  CZ  ARG d   1      33.223  -6.429 129.664  0.00  0.00     0.665 C 
ATOM    118  NH1 ARG d   1      32.331  -7.167 128.975  0.00  0.00    -0.235 N 
ATOM    119  NH2 ARG d   1      33.927  -6.974 130.652  0.00  0.00    -0.235 N 
ATOM    120  H56 ARG d   1      32.195  -8.161 129.209  0.00  0.00     0.174 HD
ATOM    121  H57 ARG d   1      31.785  -6.737 128.214  0.00  0.00     0.174 HD
ATOM    122  H58 ARG d   1      34.607  -6.404 131.175  0.00  0.00     0.174 HD
ATOM    123  H59 ARG d   1      33.792  -7.966 130.894  0.00  0.00     0.174 HD
ATOM    124  H55 ARG d   1      34.101  -4.623 129.920  0.00  0.00     0.177 HD
ENDBRANCH 113 116
ENDBRANCH 110 113
ENDBRANCH 107 110
ENDBRANCH  19 107
ENDBRANCH  16  19
ENDBRANCH  13  15
BRANCH  13 125
ATOM    125  CB  ARG d   1      38.278  -2.904 126.783  0.00  0.00    -0.036 C 
ATOM    126  H62 ARG d   1      39.130  -2.304 127.136  0.00  0.00     0.036 H 
ATOM    127  H63 ARG d   1      38.636  -3.669 126.078  0.00  0.00     0.036 H 
BRANCH 125 128
ATOM    128  CG  ARG d   1      37.636  -3.590 127.969  0.00  0.00    -0.048 C 
ATOM    129  H64 ARG d   1      37.202  -4.540 127.625  0.00  0.00     0.035 H 
ATOM    130  H65 ARG d   1      36.836  -2.939 128.352  0.00  0.00     0.035 H 
BRANCH 128 131
ATOM    131  CD  ARG d   1      38.600  -3.891 129.116  0.00  0.00     0.009 C 
ATOM    132  H66 ARG d   1      38.058  -3.818 130.070  0.00  0.00     0.064 H 
ATOM    133  H67 ARG d   1      39.417  -3.155 129.102  0.00  0.00     0.064 H 
BRANCH 131 134
ATOM    134  NE  ARG d   1      39.163  -5.232 128.988  0.00  0.00    -0.227 N 
ATOM    135  CZ  ARG d   1      38.875  -6.268 129.774  0.00  0.00     0.665 C 
ATOM    136  NH1 ARG d   1      38.021  -6.148 130.801  0.00  0.00    -0.235 N 
ATOM    137  NH2 ARG d   1      39.462  -7.438 129.523  0.00  0.00    -0.235 N 
ATOM    138  H69 ARG d   1      37.813  -6.963 131.396  0.00  0.00     0.174 HD
ATOM    139  H70 ARG d   1      37.573  -5.241 130.995  0.00  0.00     0.174 HD
ATOM    140  H71 ARG d   1      40.117  -7.527 128.733  0.00  0.00     0.174 HD
ATOM    141  H72 ARG d   1      39.260  -8.254 130.119  0.00  0.00     0.174 HD
ATOM    142  H68 ARG d   1      39.839  -5.390 128.227  0.00  0.00     0.177 HD
ENDBRANCH 131 134
ENDBRANCH 128 131
ENDBRANCH 125 128
ENDBRANCH  13 125
ENDBRANCH  10  13
ENDBRANCH   7   9
BRANCH   7 143
ATOM    143  CB  ARG d   1      38.421  -1.714 121.367  0.00  0.00    -0.036 C 
ATOM    144  H75 ARG d   1      38.806  -1.126 120.520  0.00  0.00     0.036 H 
ATOM    145  H76 ARG d   1      37.398  -2.050 121.145  0.00  0.00     0.036 H 
BRANCH 143 146
ATOM    146  CG  ARG d   1      39.297  -2.909 121.574  0.00  0.00    -0.048 C 
ATOM    147  H77 ARG d   1      38.868  -3.545 122.363  0.00  0.00     0.035 H 
ATOM    148  H78 ARG d   1      40.302  -2.578 121.875  0.00  0.00     0.035 H 
BRANCH 146 149
ATOM    149  CD  ARG d   1      39.390  -3.682 120.314  0.00  0.00     0.009 C 
ATOM    150  H79 ARG d   1      38.373  -3.908 119.959  0.00  0.00     0.064 H 
ATOM    151  H80 ARG d   1      39.926  -4.622 120.512  0.00  0.00     0.064 H 
BRANCH 149 152
ATOM    152  NE  ARG d   1      40.102  -2.942 119.270  0.00  0.00    -0.227 N 
ATOM    153  CZ  ARG d   1      41.425  -2.865 119.206  0.00  0.00     0.665 C 
ATOM    154  NH1 ARG d   1      42.159  -3.475 120.124  0.00  0.00    -0.235 N 
ATOM    155  NH2 ARG d   1      42.005  -2.178 118.224  0.00  0.00    -0.235 N 
ATOM    156  H82 ARG d   1      43.187  -3.420 120.082  0.00  0.00     0.174 HD
ATOM    157  H83 ARG d   1      41.702  -4.004 120.880  0.00  0.00     0.174 HD
ATOM    158  H84 ARG d   1      41.427  -1.706 117.514  0.00  0.00     0.174 HD
ATOM    159  H85 ARG d   1      43.032  -2.118 118.174  0.00  0.00     0.174 HD
ATOM    160  H81 ARG d   1      39.548  -2.457 118.549  0.00  0.00     0.177 HD
ENDBRANCH 149 152
ENDBRANCH 146 149
ENDBRANCH 143 146
ENDBRANCH   7 143
ENDBRANCH   4   7
ENDBRANCH   1   3
BRANCH   1 161
ATOM    161  C   THR d   1      38.156   2.573 119.611  0.00  0.00     0.243 C 
ATOM    162  O   THR d   1      39.211   2.991 119.137  0.00  0.00    -0.271 OA
ATOM    163  N   THR d   1      37.184   2.065 118.865  0.00  0.00    -0.344 N 
ATOM    164  H93 THR d   1      36.303   1.843 119.284  0.00  0.00     0.163 HD
BRANCH 163 165
ATOM    165  CA  THR d   1      37.385   1.827 117.445  0.00  0.00     0.113 C 
ATOM    166  H94 THR d   1      38.277   1.195 117.325  0.00  0.00     0.091 H 
BRANCH 165 167
ATOM    167  C   THR d   1      37.621   3.138 116.680  0.00  0.00     0.243 C 
ATOM    168  O   THR d   1      37.344   4.240 117.155  0.00  0.00    -0.271 OA
ATOM    169  N   THR d   1      38.154   3.000 115.477  0.00  0.00    -0.344 N 
ATOM    170 0H10 THR d   1      38.262   2.074 115.115  0.00  0.00     0.163 HD
BRANCH 169 171
ATOM    171  CA  THR d   1      38.591   4.110 114.651  0.00  0.00     0.113 C 
ATOM    172 1H10 THR d   1      38.644   5.024 115.261  0.00  0.00     0.091 H 
BRANCH 171 173
ATOM    173  C   THR d   1      37.592   4.343 113.519  0.00  0.00     0.243 C 
ATOM    174  O   THR d   1      36.852   3.427 113.130  0.00  0.00    -0.271 OA
ATOM    175  N   GLN d   1      37.512   5.593 113.033  0.00  0.00    -0.346 N 
ATOM    176 7H10 GLN d   1      37.995   6.339 113.492  0.00  0.00     0.163 HD
BRANCH 175 177
ATOM    177  CA  GLN d   1      36.721   5.865 111.834  0.00  0.00     0.090 C 
ATOM    178 8H10 GLN d   1      35.674   5.600 112.042  0.00  0.00     0.087 H 
BRANCH 177 179
ATOM    179  C   GLN d   1      37.208   5.039 110.660  0.00  0.00     0.241 C 
ATOM    180  O   GLN d   1      36.402   4.496 109.893  0.00  0.00    -0.271 OA
ATOM    181  N   MET d   1      38.529   4.934 110.498  0.00  0.00    -0.346 N 
ATOM    182 5H11 MET d   1      39.148   5.368 111.153  0.00  0.00     0.163 HD
BRANCH 181 183
ATOM    183  CA  MET d   1      39.071   4.191 109.373  0.00  0.00     0.090 C 
ATOM    184 6H11 MET d   1      38.599   4.570 108.454  0.00  0.00     0.087 H 
BRANCH 183 185
ATOM    185  C   MET d   1      38.744   2.711 109.483  0.00  0.00     0.241 C 
ATOM    186  O   MET d   1      38.461   2.064 108.463  0.00  0.00    -0.271 OA
ATOM    187  N   GLU d   1      38.751   2.172 110.710  0.00  0.00    -0.346 N 
ATOM    188 4H12 GLU d   1      39.043   2.724 111.491  0.00  0.00     0.163 HD
BRANCH 187 189
ATOM    189  CA  GLU d   1      38.337   0.787 110.917  0.00  0.00     0.090 C 
ATOM    190 5H12 GLU d   1      38.992   0.142 110.313  0.00  0.00     0.087 H 
BRANCH 189 191
ATOM    191  C   GLU d   1      36.898   0.568 110.477  0.00  0.00     0.241 C 
ATOM    192  O   GLU d   1      36.556  -0.522 110.002  0.00  0.00    -0.271 OA
ATOM    193  N   LEU d   1      36.024   1.585 110.626  0.00  0.00    -0.346 N 
ATOM    194 0H13 LEU d   1      36.327   2.451 111.023  0.00  0.00     0.163 HD
BRANCH 193 195
ATOM    195  CA  LEU d   1      34.633   1.419 110.207  0.00  0.00     0.089 C 
ATOM    196 1H13 LEU d   1      34.289   0.433 110.552  0.00  0.00     0.087 H 
BRANCH 195 197
ATOM    197  C   LEU d   1      34.507   1.457 108.681  0.00  0.00     0.241 C 
ATOM    198  O   LEU d   1      33.647   0.784 108.109  0.00  0.00    -0.271 OA
ATOM    199  N   LEU d   1      35.375   2.174 107.998  0.00  0.00    -0.346 N 
ATOM    200 1H14 LEU d   1      36.139   2.622 108.462  0.00  0.00     0.163 HD
BRANCH 199 201
ATOM    201  CA  LEU d   1      35.206   2.305 106.558  0.00  0.00     0.089 C 
ATOM    202 2H14 LEU d   1      34.130   2.244 106.337  0.00  0.00     0.087 H 
BRANCH 201 203
ATOM    203  C   LEU d   1      35.902   1.187 105.773  0.00  0.00     0.241 C 
ATOM    204  O   LEU d   1      35.382   0.734 104.735  0.00  0.00    -0.271 OA
ATOM    205  N   TYR d   1      37.055   0.710 106.243  0.00  0.00    -0.346 N 
ATOM    206 2H15 TYR d   1      37.378   1.018 107.138  0.00  0.00     0.163 HD
BRANCH 205 207
ATOM    207  CA  TYR d   1      37.865  -0.252 105.488  0.00  0.00     0.093 C 
ATOM    208 3H15 TYR d   1      37.242  -0.662 104.680  0.00  0.00     0.088 H 
BRANCH 207 209
ATOM    209  C   TYR d   1      38.353  -1.406 106.367  0.00  0.00     0.241 C 
ATOM    210  O   TYR d   1      38.790  -1.199 107.505  0.00  0.00    -0.271 OA
ATOM    211  N   ALA d   1      38.293  -2.625 105.827  0.00  0.00    -0.346 N 
ATOM    212 1H16 ALA d   1      37.770  -2.771 104.987  0.00  0.00     0.163 HD
BRANCH 211 213
ATOM    213  CA  ALA d   1      38.981  -3.739 106.449  0.00  0.00     0.086 C 
ATOM    214 2H16 ALA d   1      39.539  -3.368 107.321  0.00  0.00     0.086 H 
BRANCH 213 215
ATOM    215  C   ALA d   1      39.987  -4.274 105.428  0.00  0.00     0.240 C 
ATOM    216  O   ALA d   1      40.929  -3.554 105.073  0.00  0.00    -0.271 OA
ATOM    217  N   ASP d   1      39.805  -5.496 104.921  0.00  0.00    -0.344 N 
ATOM    218 6H16 ASP d   1      39.039  -6.061 105.228  0.00  0.00     0.163 HD
BRANCH 217 219
ATOM    219  CA  ASP d   1      40.738  -6.002 103.910  0.00  0.00     0.105 C 
ATOM    220 7H16 ASP d   1      41.644  -5.380 103.946  0.00  0.00     0.090 H 
BRANCH 219 221
ATOM    221  C   ASP d   1      40.146  -5.898 102.488  0.00  0.00     0.197 C 
ATOM    222  O   ASP d   1      39.007  -5.397 102.286  0.00  0.00    -0.646 OA
ATOM    223  OXT ASP d   1      40.803  -6.305 101.507  0.00  0.00    -0.646 OA
ENDBRANCH 219 221
BRANCH 219 224
ATOM    224  CB  ASP d   1      41.142  -7.451 104.217  0.00  0.00     0.044 C 
ATOM    225 8H16 ASP d   1      40.355  -8.123 103.843  0.00  0.00     0.053 H 
ATOM    226 9H16 ASP d   1      41.236  -7.567 105.307  0.00  0.00     0.053 H 
BRANCH 224 227
ATOM    227  CG  ASP d   1      42.487  -7.848 103.558  0.00  0.00     0.175 C 
ATOM    228  OD1 ASP d   1      42.835  -7.302 102.492  0.00  0.00    -0.648 OA
ATOM    229  OD2 ASP d   1      43.212  -8.717 104.105  0.00  0.00    -0.648 OA
ENDBRANCH 224 227
ENDBRANCH 219 224
ENDBRANCH 217 219
ENDBRANCH 213 215
BRANCH 213 230
ATOM    230  CB  ALA d   1      37.989  -4.793 106.952  0.00  0.00    -0.049 C 
ATOM    231 3H16 ALA d   1      38.541  -5.623 107.418  0.00  0.00     0.030 H 
ATOM    232 4H16 ALA d   1      37.398  -5.174 106.106  0.00  0.00     0.030 H 
ATOM    233 5H16 ALA d   1      37.316  -4.338 107.694  0.00  0.00     0.030 H 
ENDBRANCH 213 230
ENDBRANCH 211 213
ENDBRANCH 207 209
BRANCH 207 234
ATOM    234  CB  TYR d   1      39.089   0.412 104.878  0.00  0.00    -0.014 C 
ATOM    235 4H15 TYR d   1      39.661  -0.366 104.351  0.00  0.00     0.043 H 
ATOM    236 5H15 TYR d   1      39.694   0.816 105.703  0.00  0.00     0.043 H 
BRANCH 234 237
ATOM    237  CG  TYR d   1      38.844   1.526 103.911  0.00  0.00    -0.056 A 
ATOM    238  CD1 TYR d   1      38.334   1.282 102.643  0.00  0.00    -0.074 A 
ATOM    239  CE1 TYR d   1      38.138   2.335 101.736  0.00  0.00    -0.051 A 
ATOM    240 6H15 TYR d   1      38.085   0.268 102.351  0.00  0.00     0.084 H 
ATOM    241  CZ  TYR d   1      38.493   3.606 102.115  0.00  0.00     0.065 A 
ATOM    242 8H15 TYR d   1      37.715   2.148 100.756  0.00  0.00     0.087 H 
ATOM    243  CE2 TYR d   1      39.018   3.853 103.347  0.00  0.00    -0.051 A 
ATOM    244  CD2 TYR d   1      39.200   2.826 104.232  0.00  0.00    -0.074 A 
ATOM    245 9H15 TYR d   1      39.292   4.864 103.626  0.00  0.00     0.087 H 
ATOM    246 7H15 TYR d   1      39.632   3.034 105.204  0.00  0.00     0.084 H 
BRANCH 241 247
ATOM    247  OH  TYR d   1      38.296   4.657 101.272  0.00  0.00    -0.361 OA
ATOM    248 0H16 TYR d   1      37.928   4.342 100.455  0.00  0.00     0.217 HD
ENDBRANCH 241 247
ENDBRANCH 234 237
ENDBRANCH 207 234
ENDBRANCH 205 207
ENDBRANCH 201 203
BRANCH 201 249
ATOM    249  CB  LEU d   1      35.710   3.686 106.115  0.00  0.00    -0.035 C 
ATOM    250 3H14 LEU d   1      36.807   3.659 106.189  0.00  0.00     0.037 H 
ATOM    251 4H14 LEU d   1      35.311   4.413 106.838  0.00  0.00     0.037 H 
BRANCH 249 252
ATOM    252  CG  LEU d   1      35.377   4.230 104.715  0.00  0.00    -0.059 C 
ATOM    253 5H14 LEU d   1      35.856   3.594 103.957  0.00  0.00     0.038 H 
BRANCH 252 254
ATOM    254  CD1 LEU d   1      33.834   4.239 104.465  0.00  0.00    -0.073 C 
ATOM    255 6H14 LEU d   1      33.628   4.632 103.459  0.00  0.00     0.028 H 
ATOM    256 7H14 LEU d   1      33.345   4.878 105.215  0.00  0.00     0.028 H 
ATOM    257 8H14 LEU d   1      33.444   3.214 104.545  0.00  0.00     0.028 H 
ENDBRANCH 252 254
BRANCH 252 258
ATOM    258  CD2 LEU d   1      35.926   5.644 104.609  0.00  0.00    -0.073 C 
ATOM    259 9H14 LEU d   1      37.012   5.630 104.786  0.00  0.00     0.028 H 
ATOM    260 0H15 LEU d   1      35.440   6.283 105.361  0.00  0.00     0.028 H 
ATOM    261 1H15 LEU d   1      35.724   6.042 103.604  0.00  0.00     0.028 H 
ENDBRANCH 252 258
ENDBRANCH 249 252
ENDBRANCH 201 249
ENDBRANCH 199 201
ENDBRANCH 195 197
BRANCH 195 262
ATOM    262  CB  LEU d   1      33.738   2.489 110.853  0.00  0.00    -0.035 C 
ATOM    263 2H13 LEU d   1      32.719   2.318 110.475  0.00  0.00     0.037 H 
ATOM    264 3H13 LEU d   1      34.103   3.463 110.496  0.00  0.00     0.037 H 
BRANCH 262 265
ATOM    265  CG  LEU d   1      33.627   2.594 112.396  0.00  0.00    -0.059 C 
ATOM    266 4H13 LEU d   1      34.502   3.162 112.744  0.00  0.00     0.038 H 
BRANCH 265 267
ATOM    267  CD1 LEU d   1      32.388   3.343 112.810  0.00  0.00    -0.073 C 
ATOM    268 5H13 LEU d   1      32.342   3.398 113.908  0.00  0.00     0.028 H 
ATOM    269 6H13 LEU d   1      31.498   2.818 112.432  0.00  0.00     0.028 H 
ATOM    270 7H13 LEU d   1      32.418   4.360 112.393  0.00  0.00     0.028 H 
ENDBRANCH 265 267
BRANCH 265 271
ATOM    271  CD2 LEU d   1      33.636   1.262 113.102  0.00  0.00    -0.073 C 
ATOM    272 8H13 LEU d   1      34.535   0.699 112.812  0.00  0.00     0.028 H 
ATOM    273 9H13 LEU d   1      32.739   0.691 112.819  0.00  0.00     0.028 H 
ATOM    274 0H14 LEU d   1      33.640   1.424 114.190  0.00  0.00     0.028 H 
ENDBRANCH 265 271
ENDBRANCH 262 265
ENDBRANCH 195 262
ENDBRANCH 193 195
ENDBRANCH 189 191
BRANCH 189 275
ATOM    275  CB  GLU d   1      38.464   0.373 112.383  0.00  0.00    -0.029 C 
ATOM    276 6H12 GLU d   1      37.828  -0.510 112.546  0.00  0.00     0.037 H 
ATOM    277 7H12 GLU d   1      38.104   1.205 113.006  0.00  0.00     0.037 H 
BRANCH 275 278
ATOM    278  CG  GLU d   1      39.861   0.031 112.821  0.00  0.00     0.018 C 
ATOM    279 8H12 GLU d   1      40.557   0.748 112.360  0.00  0.00     0.049 H 
ATOM    280 9H12 GLU d   1      40.097  -0.985 112.472  0.00  0.00     0.049 H 
BRANCH 278 281
ATOM    281  CD  GLU d   1      40.050   0.080 114.354  0.00  0.00     0.172 C 
ATOM    282  OE1 GLU d   1      39.196  -0.344 115.081  0.00  0.00    -0.648 OA
ATOM    283  OE2 GLU d   1      41.066   0.514 114.829  0.00  0.00    -0.648 OA
ENDBRANCH 278 281
ENDBRANCH 275 278
ENDBRANCH 189 275
ENDBRANCH 187 189
ENDBRANCH 183 185
BRANCH 183 284
ATOM    284  CB  MET d   1      40.575   4.434 109.265  0.00  0.00    -0.030 C 
ATOM    285 7H11 MET d   1      41.032   3.608 108.701  0.00  0.00     0.037 H 
ATOM    286 8H11 MET d   1      41.006   4.470 110.276  0.00  0.00     0.037 H 
BRANCH 284 287
ATOM    287  CG  MET d   1      40.877   5.761 108.544  0.00  0.00    -0.021 C 
ATOM    288 9H11 MET d   1      41.943   5.774 108.274  0.00  0.00     0.049 H 
ATOM    289 0H12 MET d   1      40.664   6.588 109.237  0.00  0.00     0.049 H 
BRANCH 287 290
ATOM    290  SD  MET d   1      39.884   6.021 107.005  0.00  0.00    -0.173 SA
BRANCH 290 291
ATOM    291  CE  MET d   1      38.661   7.293 107.464  0.00  0.00    -0.035 C 
ATOM    292 1H12 MET d   1      38.019   7.513 106.599  0.00  0.00     0.041 H 
ATOM    293 2H12 MET d   1      39.184   8.209 107.775  0.00  0.00     0.041 H 
ATOM    294 3H12 MET d   1      38.042   6.924 108.295  0.00  0.00     0.041 H 
ENDBRANCH 290 291
ENDBRANCH 287 290
ENDBRANCH 284 287
ENDBRANCH 183 284
ENDBRANCH 181 183
ENDBRANCH 177 179
BRANCH 177 295
ATOM    295  CB  GLN d   1      36.789   7.341 111.464  0.00  0.00    -0.030 C 
ATOM    296 9H10 GLN d   1      36.537   7.445 110.398  0.00  0.00     0.037 H 
ATOM    297 0H11 GLN d   1      37.816   7.696 111.635  0.00  0.00     0.037 H 
BRANCH 295 298
ATOM    298  CG  GLN d   1      35.840   8.210 112.269  0.00  0.00     0.011 C 
ATOM    299 1H11 GLN d   1      36.232   8.316 113.291  0.00  0.00     0.047 H 
ATOM    300 2H11 GLN d   1      34.853   7.726 112.303  0.00  0.00     0.047 H 
BRANCH 298 301
ATOM    301  CD  GLN d   1      35.694   9.591 111.648  0.00  0.00     0.215 C 
ATOM    302  OE1 GLN d   1      36.451  10.495 112.018  0.00  0.00    -0.274 OA
ATOM    303  NE2 GLN d   1      34.744   9.760 110.668  0.00  0.00    -0.370 N 
ATOM    304 3H11 GLN d   1      34.622  10.655 110.239  0.00  0.00     0.159 HD
ATOM    305 4H11 GLN d   1      34.175   8.988 110.385  0.00  0.00     0.159 HD
ENDBRANCH 298 301
ENDBRANCH 295 298
ENDBRANCH 177 295
ENDBRANCH 175 177
ENDBRANCH 171 173
BRANCH 171 306
ATOM    306  CB  THR d   1      39.994   3.767 114.145  0.00  0.00     0.060 C 
ATOM    307 2H10 THR d   1      40.005   2.719 113.812  0.00  0.00     0.086 H 
BRANCH 306 308
ATOM    308  OG1 THR d   1      40.912   3.937 115.239  0.00  0.00    -0.393 OA
ATOM    309 3H10 THR d   1      41.792   3.729 114.948  0.00  0.00     0.210 HD
ENDBRANCH 306 308
BRANCH 306 310
ATOM    310  CG2 THR d   1      40.416   4.605 113.047  0.00  0.00    -0.050 C 
ATOM    311 4H10 THR d   1      41.427   4.311 112.729  0.00  0.00     0.031 H 
ATOM    312 5H10 THR d   1      40.424   5.656 113.370  0.00  0.00     0.031 H 
ATOM    313 6H10 THR d   1      39.718   4.486 112.205  0.00  0.00     0.031 H 
ENDBRANCH 306 310
ENDBRANCH 171 306
ENDBRANCH 169 171
ENDBRANCH 165 167
BRANCH 165 314
ATOM    314  CB  THR d   1      36.189   1.087 116.866  0.00  0.00     0.060 C 
ATOM    315  H95 THR d   1      36.073   0.117 117.372  0.00  0.00     0.086 H 
BRANCH 314 316
ATOM    316  OG1 THR d   1      36.396   0.875 115.460  0.00  0.00    -0.393 OA
ATOM    317  H96 THR d   1      37.183   0.358 115.331  0.00  0.00     0.210 HD
ENDBRANCH 314 316
BRANCH 314 318
ATOM    318  CG2 THR d   1      34.937   1.924 117.074  0.00  0.00    -0.050 C 
ATOM    319  H97 THR d   1      34.068   1.394 116.657  0.00  0.00     0.031 H 
ATOM    320  H98 THR d   1      35.054   2.892 116.565  0.00  0.00     0.031 H 
ATOM    321  H99 THR d   1      34.782   2.092 118.150  0.00  0.00     0.031 H 
ENDBRANCH 314 318
ENDBRANCH 165 314
ENDBRANCH 163 165
ENDBRANCH   1 161
BRANCH   1 322
ATOM    322  CB  THR d   1      38.615   3.817 121.763  0.00  0.00     0.060 C 
ATOM    323  H88 THR d   1      39.689   3.765 121.532  0.00  0.00     0.086 H 
BRANCH 322 324
ATOM    324  OG1 THR d   1      38.438   3.781 123.192  0.00  0.00    -0.393 OA
ATOM    325  H89 THR d   1      38.811   2.978 123.536  0.00  0.00     0.210 HD
ENDBRANCH 322 324
BRANCH 322 326
ATOM    326  CG2 THR d   1      38.056   5.129 121.225  0.00  0.00    -0.050 C 
ATOM    327  H90 THR d   1      38.575   5.972 121.704  0.00  0.00     0.031 H 
ATOM    328  H91 THR d   1      36.980   5.187 121.446  0.00  0.00     0.031 H 
ATOM    329  H92 THR d   1      38.209   5.174 120.137  0.00  0.00     0.031 H 
ENDBRANCH 322 326
ENDBRANCH   1 322
TORSDOF 95
