REMARK  11 active torsions:
REMARK  status: ('A' for Active; 'I' for Inactive)
REMARK    1  A    between atoms: N3B_8  and  PG_1 
REMARK    2  A    between atoms: PB_5  and  N3B_8 
REMARK    3  A    between atoms: O3A_12  and  PB_5 
REMARK    4  A    between atoms: PA_9  and  O3A_12 
REMARK    5  A    between atoms: PA_9  and  O5'_13 
REMARK    6  A    between atoms: O5'_13  and  C5'_14 
REMARK    7  A    between atoms: C5'_14  and  C4'_15 
REMARK    8  A    between atoms: C3'_17  and  O3'_18 
REMARK    9  A    between atoms: C2'_19  and  O2'_20 
REMARK   10  A    between atoms: C1'_21  and  N9_22 
REMARK   11  A    between atoms: C6_26  and  N6_27 
ROOT
ATOM      1  C4' ANP d   1      51.327  26.231  65.075  0.00  0.00     0.089 C 
ATOM      2  O4' ANP d   1      50.393  25.283  65.624  0.00  0.00    -0.353 OA
ATOM      3  C3' ANP d   1      52.730  25.686  65.348  0.00  0.00     0.091 C 
ATOM      4  C2' ANP d   1      52.515  24.203  65.727  0.00  0.00     0.105 C 
ATOM      5  C1' ANP d   1      50.992  24.008  65.737  0.00  0.00     0.139 C 
ATOM      6  H4  ANP d   1      51.224  27.188  65.608  0.00  0.00     0.090 H 
ATOM      7  H5  ANP d   1      53.338  25.748  64.433  0.00  0.00     0.091 H 
ATOM      8  H7  ANP d   1      52.981  23.544  64.979  0.00  0.00     0.093 H 
ATOM      9  H9  ANP d   1      50.721  23.567  66.708  0.00  0.00     0.122 H 
ENDROOT
BRANCH   1  10
ATOM     10  C5' ANP d   1      51.006  26.484  63.623  0.00  0.00     0.058 C 
ATOM     11  H2  ANP d   1      51.901  26.270  63.020  0.00  0.00     0.079 H 
ATOM     12  H3  ANP d   1      50.190  25.812  63.319  0.00  0.00     0.079 H 
BRANCH  10  13
ATOM     13  O5' ANP d   1      50.601  27.841  63.383  0.00  0.00    -0.287 OA
BRANCH  13  14
ATOM     14  PA  ANP d   1      50.327  28.312  61.879  0.00  0.00     0.417 P 
ATOM     15  O1A ANP d   1      50.305  27.154  60.965  0.00  0.00    -0.624 OA
ATOM     16  O2A ANP d   1      51.313  29.420  61.488  0.00  0.00    -0.624 OA
BRANCH  14  17
ATOM     17  O3A ANP d   1      48.855  28.908  61.945  0.00  0.00    -0.186 OA
BRANCH  17  18
ATOM     18  PB  ANP d   1      48.504  30.307  61.387  0.00  0.00     0.379 P 
ATOM     19  O1B ANP d   1      47.018  30.422  61.363  0.00  0.00    -0.629 OA
ATOM     20  O2B ANP d   1      49.108  30.496  59.972  0.00  0.00    -0.629 OA
BRANCH  18  21
ATOM     21  N3B ANP d   1      49.164  31.460  62.388  0.00  0.00    -0.218 N 
ATOM     22  H1  ANP d   1      49.669  31.303  63.236  0.00  0.00     0.179 HD
BRANCH  21  23
ATOM     23  PG  ANP d   1      48.807  32.943  61.681  0.00  0.00     0.381 P 
ATOM     24  O1G ANP d   1      49.083  32.816  60.210  0.00  0.00    -0.622 OA
ATOM     25  O2G ANP d   1      49.722  34.076  62.314  0.00  0.00    -0.622 OA
ATOM     26  O3G ANP d   1      47.282  33.276  61.950  0.00  0.00    -0.622 OA
ENDBRANCH  21  23
ENDBRANCH  18  21
ENDBRANCH  17  18
ENDBRANCH  14  17
ENDBRANCH  13  14
ENDBRANCH  10  13
ENDBRANCH   1  10
BRANCH   3  27
ATOM     27  O3' ANP d   1      53.389  26.423  66.374  0.00  0.00    -0.390 OA
ATOM     28  H6  ANP d   1      52.884  26.367  67.177  0.00  0.00     0.210 HD
ENDBRANCH   3  27
BRANCH   5  29
ATOM     29  N9  ANP d   1      50.435  23.138  64.689  0.00  0.00    -0.294 N 
ATOM     30  C8  ANP d   1      49.422  23.477  63.829  0.00  0.00     0.071 A 
ATOM     31  N7  ANP d   1      49.075  22.516  63.005  0.00  0.00    -0.236 NA
ATOM     32  H10 ANP d   1      48.947  24.457  63.830  0.00  0.00     0.144 H 
ATOM     33  C5  ANP d   1      49.904  21.459  63.362  0.00  0.00     0.149 A 
ATOM     34  C6  ANP d   1      50.029  20.144  62.867  0.00  0.00     0.155 A 
ATOM     35  C4  ANP d   1      50.739  21.826  64.405  0.00  0.00     0.167 A 
ATOM     36  N1  ANP d   1      50.952  19.343  63.447  0.00  0.00    -0.222 NA
ATOM     37  C2  ANP d   1      51.689  19.831  64.451  0.00  0.00     0.091 A 
ATOM     38  N3  ANP d   1      51.661  21.052  64.996  0.00  0.00    -0.222 NA
ATOM     39  H13 ANP d   1      52.407  19.143  64.882  0.00  0.00     0.146 H 
BRANCH  34  40
ATOM     40  N6  ANP d   1      49.289  19.648  61.873  0.00  0.00    -0.382 N 
ATOM     41  H11 ANP d   1      49.432  18.677  61.559  0.00  0.00     0.157 HD
ATOM     42  H12 ANP d   1      48.575  20.236  61.419  0.00  0.00     0.157 HD
ENDBRANCH  34  40
ENDBRANCH   5  29
BRANCH   4  43
ATOM     43  O2' ANP d   1      53.069  23.926  67.008  0.00  0.00    -0.388 OA
ATOM     44  H8  ANP d   1      52.648  24.474  67.659  0.00  0.00     0.210 HD
ENDBRANCH   4  43
TORSDOF 11
