REMARK  27 active torsions:
REMARK  status: ('A' for Active; 'I' for Inactive)
REMARK    1  A    between atoms: N_1  and  CA_2 
REMARK    2  A    between atoms: CA_2  and  C_3 
REMARK    3  A    between atoms: CA_2  and  CB_5 
REMARK       I    between atoms: C_3  and  N_12 
REMARK    4  A    between atoms: CB_5  and  CG_6 
REMARK    5  A    between atoms: CG_6  and  CD_7 
REMARK    6  A    between atoms: CD_7  and  NE_8 
REMARK       I    between atoms: NE_8  and  CZ_9 
REMARK       I    between atoms: CZ_9  and  NH1_10 
REMARK       I    between atoms: CZ_9  and  NH2_11 
REMARK    7  A    between atoms: N_12  and  CA_13 
REMARK    8  A    between atoms: CA_13  and  C_14 
REMARK    9  A    between atoms: CA_13  and  CB_16 
REMARK       I    between atoms: C_14  and  N_20 
REMARK   10  A    between atoms: CB_16  and  CG_17 
REMARK   11  A    between atoms: CG_17  and  CD1_18 
REMARK   12  A    between atoms: CG_17  and  CD2_19 
REMARK   13  A    between atoms: N_20  and  CA_21 
REMARK   14  A    between atoms: CA_21  and  C_22 
REMARK   15  A    between atoms: CA_21  and  CB_24 
REMARK       I    between atoms: C_22  and  N_31 
REMARK   16  A    between atoms: CB_24  and  CG_25 
REMARK   17  A    between atoms: CG_25  and  CD_26 
REMARK   18  A    between atoms: CD_26  and  NE_27 
REMARK       I    between atoms: NE_27  and  CZ_28 
REMARK       I    between atoms: CZ_28  and  NH1_29 
REMARK       I    between atoms: CZ_28  and  NH2_30 
REMARK   19  A    between atoms: N_31  and  CA_32 
REMARK   20  A    between atoms: CA_32  and  C_33 
REMARK   21  A    between atoms: CA_32  and  CB_35 
REMARK       I    between atoms: C_33  and  N_36 
REMARK   22  A    between atoms: N_36  and  CA_37 
REMARK   23  A    between atoms: CA_37  and  C_38 
REMARK   24  A    between atoms: CA_37  and  CB_40 
REMARK   25  A    between atoms: CB_40  and  CG_41 
REMARK   26  A    between atoms: CG_41  and  CD_42 
REMARK   27  A    between atoms: CD_42  and  NE_43 
REMARK       I    between atoms: NE_43  and  CZ_44 
REMARK       I    between atoms: CZ_44  and  NH1_45 
ROOT
ATOM      1  CA  ARG d   1       9.993 -17.496  93.803  0.00  0.00     0.089 C 
ATOM      2  H28 ARG d   1       9.397 -16.893  94.504  0.00  0.00     0.087 H 
ENDROOT
BRANCH   1   3
ATOM      3  N   ARG d   1       9.089 -18.070  92.815  0.00  0.00    -0.346 N 
ATOM      4  C   LEU d   1       7.876 -18.514  93.162  0.00  0.00     0.241 C 
ATOM      5  O   LEU d   1       7.318 -18.223  94.215  0.00  0.00    -0.271 OA
ATOM      6  H27 ARG d   1       9.381 -18.133  91.861  0.00  0.00     0.163 HD
BRANCH   4   7
ATOM      7  CA  LEU d   1       7.178 -19.396  92.141  0.00  0.00     0.089 C 
ATOM      8  H17 LEU d   1       7.957 -19.849  91.510  0.00  0.00     0.087 H 
BRANCH   7   9
ATOM      9  N   LEU d   1       6.400 -20.454  92.736  0.00  0.00    -0.346 N 
ATOM     10  C   ARG d   1       6.951 -21.630  92.976  0.00  0.00     0.248 C 
ATOM     11  O   ARG d   1       8.181 -21.781  93.105  0.00  0.00    -0.271 OA
ATOM     12  H16 LEU d   1       5.440 -20.297  92.968  0.00  0.00     0.163 HD
BRANCH  10  13
ATOM     13  CA  ARG d   1       5.951 -22.793  93.070  0.00  0.00     0.176 C 
ATOM     14  H4  ARG d   1       5.960 -23.224  94.082  0.00  0.00     0.099 H 
BRANCH  13  15
ATOM     15  N   ARG d   1       4.630 -22.250  92.782  0.00  0.00    -0.067 N 
ATOM     16  H1  ARG d   1       3.945 -22.988  92.835  0.00  0.00     0.275 HD
ATOM     17  H2  ARG d   1       4.625 -21.852  91.856  0.00  0.00     0.275 HD
ATOM     18  H3  ARG d   1       4.406 -21.535  93.456  0.00  0.00     0.275 HD
ENDBRANCH  13  15
BRANCH  13  19
ATOM     19  CB  ARG d   1       6.359 -23.860  92.061  0.00  0.00    -0.029 C 
ATOM     20  H5  ARG d   1       7.054 -24.539  92.577  0.00  0.00     0.036 H 
ATOM     21  H6  ARG d   1       6.888 -23.344  91.246  0.00  0.00     0.036 H 
BRANCH  19  22
ATOM     22  CG  ARG d   1       5.297 -24.723  91.419  0.00  0.00    -0.047 C 
ATOM     23  H7  ARG d   1       5.756 -25.238  90.562  0.00  0.00     0.035 H 
ATOM     24  H8  ARG d   1       4.496 -24.059  91.061  0.00  0.00     0.035 H 
BRANCH  22  25
ATOM     25  CD  ARG d   1       4.667 -25.768  92.299  0.00  0.00     0.009 C 
ATOM     26  H9  ARG d   1       3.901 -25.304  92.938  0.00  0.00     0.064 H 
ATOM     27  H10 ARG d   1       5.436 -26.236  92.930  0.00  0.00     0.064 H 
BRANCH  25  28
ATOM     28  NE  ARG d   1       4.049 -26.779  91.438  0.00  0.00    -0.227 N 
ATOM     29  CZ  ARG d   1       2.815 -26.717  90.943  0.00  0.00     0.665 C 
ATOM     30  NH1 ARG d   1       2.052 -25.651  91.171  0.00  0.00    -0.235 N 
ATOM     31  NH2 ARG d   1       2.368 -27.699  90.166  0.00  0.00    -0.235 N 
ATOM     32  H12 ARG d   1       1.098 -25.609  90.785  0.00  0.00     0.174 HD
ATOM     33  H13 ARG d   1       2.416 -24.868  91.733  0.00  0.00     0.174 HD
ATOM     34  H14 ARG d   1       2.958 -28.525  89.989  0.00  0.00     0.174 HD
ATOM     35  H15 ARG d   1       1.432 -27.634  89.741  0.00  0.00     0.174 HD
ATOM     36  H11 ARG d   1       4.615 -27.605  91.196  0.00  0.00     0.177 HD
ENDBRANCH  25  28
ENDBRANCH  22  25
ENDBRANCH  19  22
ENDBRANCH  13  19
ENDBRANCH  10  13
ENDBRANCH   7   9
BRANCH   7  37
ATOM     37  CB  LEU d   1       6.237 -18.606  91.257  0.00  0.00    -0.035 C 
ATOM     38  H18 LEU d   1       5.655 -17.933  91.904  0.00  0.00     0.037 H 
ATOM     39  H19 LEU d   1       5.559 -19.320  90.767  0.00  0.00     0.037 H 
BRANCH  37  40
ATOM     40  CG  LEU d   1       6.879 -17.763  90.175  0.00  0.00    -0.059 C 
ATOM     41  H20 LEU d   1       6.069 -17.424  89.512  0.00  0.00     0.038 H 
BRANCH  40  42
ATOM     42  CD1 LEU d   1       7.586 -16.554  90.623  0.00  0.00    -0.073 C 
ATOM     43  H21 LEU d   1       8.006 -16.031  89.751  0.00  0.00     0.028 H 
ATOM     44  H22 LEU d   1       8.399 -16.837  91.307  0.00  0.00     0.028 H 
ATOM     45  H23 LEU d   1       6.882 -15.890  91.145  0.00  0.00     0.028 H 
ENDBRANCH  40  42
BRANCH  40  46
ATOM     46  CD2 LEU d   1       7.774 -18.615  89.397  0.00  0.00    -0.073 C 
ATOM     47  H24 LEU d   1       7.231 -19.514  89.069  0.00  0.00     0.028 H 
ATOM     48  H25 LEU d   1       8.632 -18.911  90.019  0.00  0.00     0.028 H 
ATOM     49  H26 LEU d   1       8.133 -18.062  88.516  0.00  0.00     0.028 H 
ENDBRANCH  40  46
ENDBRANCH  37  40
ENDBRANCH   7  37
ENDBRANCH   4   7
ENDBRANCH   1   3
BRANCH   1  50
ATOM     50  C   ARG d   1      11.077 -16.578  93.222  0.00  0.00     0.241 C 
ATOM     51  O   ARG d   1      11.390 -16.666  92.043  0.00  0.00    -0.271 OA
ATOM     52  N   ALA d   1      11.716 -15.764  94.058  0.00  0.00    -0.346 N 
ATOM     53  H40 ALA d   1      11.454 -15.748  95.023  0.00  0.00     0.163 HD
BRANCH  52  54
ATOM     54  CA  ALA d   1      12.796 -14.891  93.591  0.00  0.00     0.086 C 
ATOM     55  H41 ALA d   1      12.531 -14.557  92.577  0.00  0.00     0.086 H 
BRANCH  54  56
ATOM     56  C   ALA d   1      14.194 -15.546  93.512  0.00  0.00     0.240 C 
ATOM     57  O   ALA d   1      14.395 -16.696  93.921  0.00  0.00    -0.271 OA
ATOM     58  N   ARG d   1      15.104 -14.778  92.908  0.00  0.00    -0.345 N 
ATOM     59  H45 ARG d   1      14.735 -13.971  92.446  0.00  0.00     0.163 HD
BRANCH  58  60
ATOM     60  CA  ARG d   1      16.577 -14.934  92.815  0.00  0.00     0.096 C 
ATOM     61  H46 ARG d   1      17.026 -13.982  93.135  0.00  0.00     0.089 H 
BRANCH  60  62
ATOM     62  C   ARG d   1      16.957 -15.174  91.365  0.00  0.00     0.196 C 
ATOM     63  O   ARG d   1      17.747 -14.410  90.808  0.00  0.00    -0.646 OA
ATOM     64  OXT ARG d   1      16.472 -16.131  90.759  0.00  0.00    -0.646 OA
ENDBRANCH  60  62
BRANCH  60  65
ATOM     65  CB  ARG d   1      17.172 -16.035  93.710  0.00  0.00    -0.035 C 
ATOM     66  H47 ARG d   1      18.169 -16.297  93.325  0.00  0.00     0.036 H 
ATOM     67  H48 ARG d   1      16.516 -16.917  93.661  0.00  0.00     0.036 H 
BRANCH  65  68
ATOM     68  CG  ARG d   1      17.311 -15.620  95.160  0.00  0.00    -0.047 C 
ATOM     69  H49 ARG d   1      16.305 -15.420  95.557  0.00  0.00     0.035 H 
ATOM     70  H50 ARG d   1      17.909 -14.698  95.196  0.00  0.00     0.035 H 
BRANCH  68  71
ATOM     71  CD  ARG d   1      17.987 -16.667  96.070  0.00  0.00     0.009 C 
ATOM     72  H51 ARG d   1      17.403 -17.598  96.016  0.00  0.00     0.064 H 
ATOM     73  H52 ARG d   1      17.974 -16.285  97.102  0.00  0.00     0.064 H 
BRANCH  71  74
ATOM     74  NE  ARG d   1      19.381 -16.978  95.713  0.00  0.00    -0.227 N 
ATOM     75  CZ  ARG d   1      20.190 -17.770  96.437  0.00  0.00     0.665 C 
ATOM     76  NH1 ARG d   1      19.752 -18.332  97.565  0.00  0.00    -0.235 N 
ATOM     77  NH2 ARG d   1      21.447 -18.002  96.051  0.00  0.00    -0.235 N 
ATOM     78  H54 ARG d   1      20.377 -18.938  98.115  0.00  0.00     0.174 HD
ATOM     79  H55 ARG d   1      18.788 -18.160  97.886  0.00  0.00     0.174 HD
ATOM     80  H56 ARG d   1      21.806 -17.578  95.183  0.00  0.00     0.174 HD
ATOM     81  H57 ARG d   1      22.058 -18.605  96.621  0.00  0.00     0.174 HD
ATOM     82  H53 ARG d   1      19.761 -16.561  94.851  0.00  0.00     0.177 HD
ENDBRANCH  71  74
ENDBRANCH  68  71
ENDBRANCH  65  68
ENDBRANCH  60  65
ENDBRANCH  58  60
ENDBRANCH  54  56
BRANCH  54  83
ATOM     83  CB  ALA d   1      12.881 -13.674  94.496  0.00  0.00    -0.049 C 
ATOM     84  H42 ALA d   1      13.691 -13.015  94.149  0.00  0.00     0.030 H 
ATOM     85  H43 ALA d   1      13.087 -13.997  95.527  0.00  0.00     0.030 H 
ATOM     86  H44 ALA d   1      11.927 -13.128  94.467  0.00  0.00     0.030 H 
ENDBRANCH  54  83
ENDBRANCH  52  54
ENDBRANCH   1  50
BRANCH   1  87
ATOM     87  CB  ARG d   1      10.607 -18.666  94.559  0.00  0.00    -0.036 C 
ATOM     88  H29 ARG d   1      11.139 -19.289  93.825  0.00  0.00     0.036 H 
ATOM     89  H30 ARG d   1       9.780 -19.243  94.999  0.00  0.00     0.036 H 
BRANCH  87  90
ATOM     90  CG  ARG d   1      11.563 -18.355  95.652  0.00  0.00    -0.048 C 
ATOM     91  H31 ARG d   1      11.098 -17.678  96.384  0.00  0.00     0.035 H 
ATOM     92  H32 ARG d   1      12.470 -17.886  95.243  0.00  0.00     0.035 H 
BRANCH  90  93
ATOM     93  CD  ARG d   1      11.899 -19.662  96.294  0.00  0.00     0.009 C 
ATOM     94  H33 ARG d   1      12.539 -19.487  97.172  0.00  0.00     0.064 H 
ATOM     95  H34 ARG d   1      12.431 -20.300  95.573  0.00  0.00     0.064 H 
BRANCH  93  96
ATOM     96  NE  ARG d   1      10.666 -20.321  96.712  0.00  0.00    -0.227 N 
ATOM     97  CZ  ARG d   1      10.069 -20.140  97.883  0.00  0.00     0.665 C 
ATOM     98  NH1 ARG d   1      10.563 -19.271  98.752  0.00  0.00    -0.235 N 
ATOM     99  NH2 ARG d   1       8.954 -20.802  98.170  0.00  0.00    -0.235 N 
ATOM    100  H36 ARG d   1      10.099 -19.131  99.661  0.00  0.00     0.174 HD
ATOM    101  H37 ARG d   1      11.411 -18.735  98.519  0.00  0.00     0.174 HD
ATOM    102  H38 ARG d   1       8.568 -21.478  97.495  0.00  0.00     0.174 HD
ATOM    103  H39 ARG d   1       8.475 -20.639  99.067  0.00  0.00     0.174 HD
ATOM    104  H35 ARG d   1      10.226 -20.975  96.049  0.00  0.00     0.177 HD
ENDBRANCH  93  96
ENDBRANCH  90  93
ENDBRANCH  87  90
ENDBRANCH   1  87
TORSDOF 27
