REMARK WARNING: 32 MAX_TORS EXCEEDED!!!
REMARK  63 active torsions:
REMARK  status: ('A' for Active; 'I' for Inactive)
REMARK    1  A    between atoms: CA_2  and  C_3 
REMARK       I    between atoms: C_3  and  N_8 
REMARK    2  A    between atoms: N_8  and  CA_9 
REMARK    3  A    between atoms: CA_9  and  C_10 
REMARK    4  A    between atoms: CA_9  and  CB_12 
REMARK       I    between atoms: C_10  and  N_16 
REMARK    5  A    between atoms: CB_12  and  CG_13 
REMARK    6  A    between atoms: CG_13  and  CD1_14 
REMARK    7  A    between atoms: CG_13  and  CD2_15 
REMARK    8  A    between atoms: N_16  and  CA_17 
REMARK    9  A    between atoms: CA_17  and  C_18 
REMARK   10  A    between atoms: CA_17  and  CB_20 
REMARK       I    between atoms: C_18  and  N_24 
REMARK   11  A    between atoms: CB_20  and  CG_21 
REMARK   12  A    between atoms: N_24  and  CA_25 
REMARK   13  A    between atoms: CA_25  and  C_26 
REMARK   14  A    between atoms: CA_25  and  CB_28 
REMARK       I    between atoms: C_26  and  N_32 
REMARK   15  A    between atoms: CB_28  and  CG_29 
REMARK   16  A    between atoms: N_32  and  CA_33 
REMARK   17  A    between atoms: CA_33  and  C_34 
REMARK   18  A    between atoms: CA_33  and  CB_36 
REMARK       I    between atoms: C_34  and  N_41 
REMARK   19  A    between atoms: CB_36  and  CG_37 
REMARK   20  A    between atoms: CG_37  and  CD_38 
REMARK   21  A    between atoms: N_41  and  CA_42 
REMARK   22  A    between atoms: CA_42  and  C_43 
REMARK   23  A    between atoms: CA_42  and  CB_45 
REMARK       I    between atoms: C_43  and  N_50 
REMARK   24  A    between atoms: CB_45  and  CG_46 
REMARK   25  A    between atoms: CG_46  and  CD_47 
REMARK   26  A    between atoms: N_50  and  CA_51 
REMARK   27  A    between atoms: CA_51  and  C_52 
REMARK   28  A    between atoms: CA_51  and  CB_54 
REMARK       I    between atoms: C_52  and  N_55 
REMARK   29  A    between atoms: N_55  and  CA_56 
REMARK   30  A    between atoms: CA_56  and  C_57 
REMARK   31  A    between atoms: CA_56  and  CB_59 
REMARK       I    between atoms: C_57  and  N_66 
REMARK   32  A    between atoms: CB_59  and  CG_60 
REMARK   33  A    between atoms: N_66  and  CA_67 
REMARK   34  A    between atoms: CA_67  and  C_68 
REMARK   35  A    between atoms: CA_67  and  CB_70 
REMARK       I    between atoms: C_68  and  N_75 
REMARK   36  A    between atoms: CB_70  and  CG_71 
REMARK   37  A    between atoms: CG_71  and  CD_72 
REMARK   38  A    between atoms: N_75  and  CA_76 
REMARK   39  A    between atoms: CA_76  and  C_77 
REMARK   40  A    between atoms: CA_76  and  CB_79 
REMARK       I    between atoms: C_77  and  N_84 
REMARK   41  A    between atoms: CB_79  and  CG_80 
REMARK   42  A    between atoms: CG_80  and  CD_81 
REMARK   43  A    between atoms: CD_81  and  CE_82 
REMARK   44  A    between atoms: CE_82  and  NZ_83 
REMARK   45  A    between atoms: N_84  and  CA_85 
REMARK   46  A    between atoms: CA_85  and  C_86 
REMARK   47  A    between atoms: CA_85  and  CB_88 
REMARK       I    between atoms: C_86  and  N_93 
REMARK   48  A    between atoms: CB_88  and  CG_89 
REMARK   49  A    between atoms: CG_89  and  CD_90 
REMARK       I    between atoms: CD_90  and  NE2_92 
REMARK   50  A    between atoms: N_93  and  CA_94 
REMARK   51  A    between atoms: CA_94  and  C_95 
REMARK   52  A    between atoms: CA_94  and  CB_97 
REMARK       I    between atoms: C_95  and  N_100 
REMARK   53  A    between atoms: CB_97  and  CG1_98 
REMARK   54  A    between atoms: CB_97  and  CG2_99 
REMARK   55  A    between atoms: N_100  and  CA_101 
REMARK   56  A    between atoms: CA_101  and  C_102 
REMARK   57  A    between atoms: CA_101  and  CB_104 
REMARK       I    between atoms: C_102  and  N_107 
REMARK   58  A    between atoms: CB_104  and  OG1_105 
REMARK   59  A    between atoms: CB_104  and  CG2_106 
REMARK   60  A    between atoms: N_107  and  CA_108 
REMARK   61  A    between atoms: CA_108  and  C_109 
REMARK   62  A    between atoms: CA_108  and  CB_111 
REMARK   63  A    between atoms: CB_111  and  OG_112 
ROOT
ATOM      1  CA  PHE d   1      13.056  37.828  54.353  0.00  0.00     0.093 C 
ATOM      2  H47 PHE d   1      13.350  37.934  55.408  0.00  0.00     0.088 H 
ENDROOT
BRANCH   1   3
ATOM      3  N   PHE d   1      11.701  37.287  54.309  0.00  0.00    -0.346 N 
ATOM      4  C   ALA d   1      10.713  37.881  54.983  0.00  0.00     0.240 C 
ATOM      5  O   ALA d   1      10.891  38.912  55.644  0.00  0.00    -0.271 OA
ATOM      6  H46 PHE d   1      11.511  36.466  53.770  0.00  0.00     0.163 HD
BRANCH   4   7
ATOM      7  CA  ALA d   1       9.334  37.241  54.903  0.00  0.00     0.086 C 
ATOM      8  H42 ALA d   1       8.584  38.011  55.134  0.00  0.00     0.086 H 
BRANCH   7   9
ATOM      9  N   ALA d   1       9.067  36.731  53.563  0.00  0.00    -0.346 N 
ATOM     10  C   GLU d   1       8.980  37.572  52.530  0.00  0.00     0.241 C 
ATOM     11  O   GLU d   1       9.106  38.795  52.665  0.00  0.00    -0.271 OA
ATOM     12  H41 ALA d   1       8.949  35.749  53.418  0.00  0.00     0.163 HD
BRANCH  10  13
ATOM     13  CA  GLU d   1       8.718  36.973  51.153  0.00  0.00     0.090 C 
ATOM     14  H36 GLU d   1       9.046  37.702  50.398  0.00  0.00     0.087 H 
BRANCH  13  15
ATOM     15  N   GLU d   1       9.476  35.742  50.953  0.00  0.00    -0.346 N 
ATOM     16  C   GLU d   1      10.790  35.799  50.722  0.00  0.00     0.241 C 
ATOM     17  O   GLU d   1      11.411  36.868  50.724  0.00  0.00    -0.271 OA
ATOM     18  H35 GLU d   1       9.012  34.857  50.989  0.00  0.00     0.163 HD
BRANCH  16  19
ATOM     19  CA  GLU d   1      11.515  34.485  50.458  0.00  0.00     0.090 C 
ATOM     20  H30 GLU d   1      12.588  34.646  50.640  0.00  0.00     0.087 H 
BRANCH  19  21
ATOM     21  N   GLU d   1      11.056  33.428  51.355  0.00  0.00    -0.346 N 
ATOM     22  C   ASP d   1      11.288  33.508  52.667  0.00  0.00     0.241 C 
ATOM     23  O   ASP d   1      11.802  34.507  53.184  0.00  0.00    -0.271 OA
ATOM     24  H29 GLU d   1      10.565  32.640  50.984  0.00  0.00     0.163 HD
BRANCH  22  25
ATOM     25  CA  ASP d   1      10.881  32.311  53.519  0.00  0.00     0.098 C 
ATOM     26  H26 ASP d   1      10.884  32.624  54.573  0.00  0.00     0.088 H 
BRANCH  25  27
ATOM     27  N   ASP d   1       9.536  31.851  53.183  0.00  0.00    -0.345 N 
ATOM     28  C   ASP d   1       8.482  32.660  53.326  0.00  0.00     0.241 C 
ATOM     29  O   ASP d   1       8.585  33.835  53.689  0.00  0.00    -0.271 OA
ATOM     30  H25 ASP d   1       9.402  30.920  52.842  0.00  0.00     0.163 HD
BRANCH  28  31
ATOM     31  CA  ASP d   1       7.126  32.033  53.011  0.00  0.00     0.098 C 
ATOM     32  H22 ASP d   1       7.125  30.996  53.379  0.00  0.00     0.088 H 
BRANCH  31  33
ATOM     33  N   ASP d   1       6.065  32.763  53.683  0.00  0.00    -0.346 N 
ATOM     34  C   LEU d   1       5.926  32.710  55.004  0.00  0.00     0.241 C 
ATOM     35  O   LEU d   1       6.645  32.004  55.718  0.00  0.00    -0.271 OA
ATOM     36  H21 ASP d   1       5.429  33.314  53.143  0.00  0.00     0.163 HD
BRANCH  34  37
ATOM     37  CA  LEU d   1       4.833  33.551  55.645  0.00  0.00     0.089 C 
ATOM     38  H11 LEU d   1       5.314  34.262  56.333  0.00  0.00     0.087 H 
BRANCH  37  39
ATOM     39  N   LEU d   1       4.071  34.320  54.673  0.00  0.00    -0.346 N 
ATOM     40  C   PRO d   1       4.250  35.626  54.488  0.00  0.00     0.249 C 
ATOM     41  O   PRO d   1       5.054  36.298  55.136  0.00  0.00    -0.271 OA
ATOM     42  H10 LEU d   1       3.384  33.848  54.121  0.00  0.00     0.163 HD
BRANCH  40  43
ATOM     43  CA  PRO d   1       3.392  36.280  53.413  0.00  0.00     0.178 C 
ATOM     44  N   PRO d   1       3.272  35.441  52.216  0.00  0.00    -0.062 N 
ATOM     45  CD  PRO d   1       1.868  35.136  51.896  0.00  0.00     0.083 C 
ATOM     46  H1  PRO d   1       3.765  34.576  52.374  0.00  0.00     0.278 HD
ATOM     47  H2  PRO d   1       3.686  35.926  51.435  0.00  0.00     0.278 HD
ATOM     48  CG  PRO d   1       1.116  36.171  52.673  0.00  0.00    -0.040 C 
ATOM     49  H8  PRO d   1       1.599  34.121  52.224  0.00  0.00     0.075 H 
ATOM     50  H9  PRO d   1       1.677  35.235  50.817  0.00  0.00     0.075 H 
ATOM     51  CB  PRO d   1       1.942  36.427  53.888  0.00  0.00    -0.028 C 
ATOM     52  H6  PRO d   1       1.005  37.092  52.081  0.00  0.00     0.035 H 
ATOM     53  H7  PRO d   1       0.122  35.794  52.955  0.00  0.00     0.035 H 
ATOM     54  H4  PRO d   1       1.761  37.441  54.273  0.00  0.00     0.036 H 
ATOM     55  H5  PRO d   1       1.715  35.691  54.673  0.00  0.00     0.036 H 
ATOM     56  H3  PRO d   1       3.821  37.260  53.157  0.00  0.00     0.099 H 
ENDBRANCH  40  43
ENDBRANCH  37  39
BRANCH  37  57
ATOM     57  CB  LEU d   1       3.896  32.652  56.458  0.00  0.00    -0.035 C 
ATOM     58  H12 LEU d   1       4.516  32.011  57.103  0.00  0.00     0.037 H 
ATOM     59  H13 LEU d   1       3.331  32.025  55.752  0.00  0.00     0.037 H 
BRANCH  57  60
ATOM     60  CG  LEU d   1       2.890  33.384  57.348  0.00  0.00    -0.059 C 
ATOM     61  H14 LEU d   1       2.290  34.052  56.713  0.00  0.00     0.038 H 
BRANCH  60  62
ATOM     62  CD1 LEU d   1       1.950  32.399  58.024  0.00  0.00    -0.073 C 
ATOM     63  H15 LEU d   1       1.237  32.948  58.657  0.00  0.00     0.028 H 
ATOM     64  H16 LEU d   1       2.533  31.704  58.646  0.00  0.00     0.028 H 
ATOM     65  H17 LEU d   1       1.399  31.833  57.258  0.00  0.00     0.028 H 
ENDBRANCH  60  62
BRANCH  60  66
ATOM     66  CD2 LEU d   1       3.615  34.231  58.382  0.00  0.00    -0.073 C 
ATOM     67  H18 LEU d   1       4.289  34.935  57.872  0.00  0.00     0.028 H 
ATOM     68  H19 LEU d   1       4.201  33.578  59.045  0.00  0.00     0.028 H 
ATOM     69  H20 LEU d   1       2.880  34.792  58.977  0.00  0.00     0.028 H 
ENDBRANCH  60  66
ENDBRANCH  57  60
ENDBRANCH  37  57
ENDBRANCH  34  37
ENDBRANCH  31  33
BRANCH  31  70
ATOM     70  CB  ASP d   1       6.885  32.014  51.501  0.00  0.00     0.043 C 
ATOM     71  H23 ASP d   1       7.487  31.206  51.058  0.00  0.00     0.052 H 
ATOM     72  H24 ASP d   1       7.202  32.980  51.081  0.00  0.00     0.052 H 
BRANCH  70  73
ATOM     73  CG  ASP d   1       5.427  31.785  51.145  0.00  0.00     0.175 C 
ATOM     74  OD1 ASP d   1       4.663  32.773  51.105  0.00  0.00    -0.648 OA
ATOM     75  OD2 ASP d   1       5.045  30.620  50.901  0.00  0.00    -0.648 OA
ENDBRANCH  70  73
ENDBRANCH  31  70
ENDBRANCH  28  31
ENDBRANCH  25  27
BRANCH  25  76
ATOM     76  CB  ASP d   1      11.884  31.168  53.352  0.00  0.00     0.043 C 
ATOM     77  H27 ASP d   1      12.894  31.596  53.271  0.00  0.00     0.052 H 
ATOM     78  H28 ASP d   1      11.643  30.620  52.429  0.00  0.00     0.052 H 
BRANCH  76  79
ATOM     79  CG  ASP d   1      11.862  30.193  54.514  0.00  0.00     0.175 C 
ATOM     80  OD1 ASP d   1      10.884  30.207  55.291  0.00  0.00    -0.648 OA
ATOM     81  OD2 ASP d   1      12.825  29.410  54.649  0.00  0.00    -0.648 OA
ENDBRANCH  76  79
ENDBRANCH  25  76
ENDBRANCH  22  25
ENDBRANCH  19  21
BRANCH  19  82
ATOM     82  CB  GLU d   1      11.334  34.051  49.004  0.00  0.00    -0.029 C 
ATOM     83  H31 GLU d   1      11.635  34.885  48.354  0.00  0.00     0.037 H 
ATOM     84  H32 GLU d   1      10.270  33.824  48.840  0.00  0.00     0.037 H 
BRANCH  82  85
ATOM     85  CG  GLU d   1      12.149  32.827  48.620  0.00  0.00     0.018 C 
ATOM     86  H33 GLU d   1      11.460  32.028  48.311  0.00  0.00     0.049 H 
ATOM     87  H34 GLU d   1      12.723  32.496  49.498  0.00  0.00     0.049 H 
BRANCH  85  88
ATOM     88  CD  GLU d   1      13.114  33.101  47.485  0.00  0.00     0.172 C 
ATOM     89  OE1 GLU d   1      12.867  34.047  46.707  0.00  0.00    -0.648 OA
ATOM     90  OE2 GLU d   1      14.124  32.374  47.372  0.00  0.00    -0.648 OA
ENDBRANCH  85  88
ENDBRANCH  82  85
ENDBRANCH  19  82
ENDBRANCH  16  19
ENDBRANCH  13  15
BRANCH  13  91
ATOM     91  CB  GLU d   1       7.226  36.713  50.951  0.00  0.00    -0.029 C 
ATOM     92  H37 GLU d   1       6.912  35.924  51.650  0.00  0.00     0.037 H 
ATOM     93  H38 GLU d   1       7.069  36.370  49.917  0.00  0.00     0.037 H 
BRANCH  91  94
ATOM     94  CG  GLU d   1       6.358  37.938  51.188  0.00  0.00     0.018 C 
ATOM     95  H39 GLU d   1       6.816  38.797  50.676  0.00  0.00     0.049 H 
ATOM     96  H40 GLU d   1       6.316  38.135  52.269  0.00  0.00     0.049 H 
BRANCH  94  97
ATOM     97  CD  GLU d   1       4.946  37.764  50.673  0.00  0.00     0.172 C 
ATOM     98  OE1 GLU d   1       4.720  36.854  49.848  0.00  0.00    -0.648 OA
ATOM     99  OE2 GLU d   1       4.060  38.536  51.094  0.00  0.00    -0.648 OA
ENDBRANCH  94  97
ENDBRANCH  91  94
ENDBRANCH  13  91
ENDBRANCH  10  13
ENDBRANCH   7   9
BRANCH   7 100
ATOM    100  CB  ALA d   1       9.204  36.118  55.931  0.00  0.00    -0.049 C 
ATOM    101  H43 ALA d   1       9.408  36.516  56.936  0.00  0.00     0.030 H 
ATOM    102  H44 ALA d   1       9.927  35.322  55.698  0.00  0.00     0.030 H 
ATOM    103  H45 ALA d   1       8.184  35.708  55.899  0.00  0.00     0.030 H 
ENDBRANCH   7 100
ENDBRANCH   4   7
ENDBRANCH   1   3
BRANCH   1 104
ATOM    104  C   PHE d   1      13.128  39.202  53.700  0.00  0.00     0.241 C 
ATOM    105  O   PHE d   1      13.843  40.088  54.181  0.00  0.00    -0.271 OA
ATOM    106  N   GLU d   1      12.395  39.398  52.600  0.00  0.00    -0.346 N 
ATOM    107  H55 GLU d   1      11.826  38.657  52.244  0.00  0.00     0.163 HD
BRANCH 106 108
ATOM    108  CA  GLU d   1      12.419  40.686  51.915  0.00  0.00     0.090 C 
ATOM    109  H56 GLU d   1      13.468  40.948  51.712  0.00  0.00     0.087 H 
BRANCH 108 110
ATOM    110  C   GLU d   1      11.816  41.782  52.783  0.00  0.00     0.241 C 
ATOM    111  O   GLU d   1      12.372  42.882  52.885  0.00  0.00    -0.271 OA
ATOM    112  N   LYS d   1      10.673  41.504  53.417  0.00  0.00    -0.346 N 
ATOM    113  H61 LYS d   1      10.240  40.610  53.303  0.00  0.00     0.163 HD
BRANCH 112 114
ATOM    114  CA  LYS d   1      10.059  42.509  54.276  0.00  0.00     0.089 C 
ATOM    115  H62 LYS d   1       9.968  43.444  53.704  0.00  0.00     0.087 H 
BRANCH 114 116
ATOM    116  C   LYS d   1      10.916  42.784  55.505  0.00  0.00     0.241 C 
ATOM    117  O   LYS d   1      10.828  43.866  56.094  0.00  0.00    -0.271 OA
ATOM    118  N   GLN d   1      11.754  41.821  55.903  0.00  0.00    -0.346 N 
ATOM    119  H74 GLN d   1      11.810  40.966  55.387  0.00  0.00     0.163 HD
BRANCH 118 120
ATOM    120  CA  GLN d   1      12.587  42.009  57.085  0.00  0.00     0.090 C 
ATOM    121  H75 GLN d   1      11.967  42.461  57.874  0.00  0.00     0.087 H 
BRANCH 120 122
ATOM    122  C   GLN d   1      13.756  42.950  56.809  0.00  0.00     0.241 C 
ATOM    123  O   GLN d   1      14.239  43.621  57.729  0.00  0.00    -0.271 OA
ATOM    124  N   VAL d   1      14.219  43.024  55.559  0.00  0.00    -0.346 N 
ATOM    125  H82 VAL d   1      13.772  42.500  54.834  0.00  0.00     0.163 HD
BRANCH 124 126
ATOM    126  CA  VAL d   1      15.370  43.861  55.238  0.00  0.00     0.092 C 
ATOM    127  H83 VAL d   1      15.983  43.937  56.148  0.00  0.00     0.088 H 
BRANCH 126 128
ATOM    128  C   VAL d   1      14.993  45.276  54.811  0.00  0.00     0.241 C 
ATOM    129  O   VAL d   1      15.859  46.161  54.817  0.00  0.00    -0.271 OA
ATOM    130  N   THR d   1      13.735  45.518  54.446  0.00  0.00    -0.344 N 
ATOM    131  H91 THR d   1      13.061  44.784  54.527  0.00  0.00     0.163 HD
BRANCH 130 132
ATOM    132  CA  THR d   1      13.304  46.815  53.932  0.00  0.00     0.113 C 
ATOM    133  H92 THR d   1      14.140  47.521  54.049  0.00  0.00     0.091 H 
BRANCH 132 134
ATOM    134  C   THR d   1      12.120  47.351  54.724  0.00  0.00     0.243 C 
ATOM    135  O   THR d   1      11.176  47.914  54.161  0.00  0.00    -0.271 OA
ATOM    136  N   SER d   1      12.155  47.189  56.043  0.00  0.00    -0.343 N 
ATOM    137  H98 SER d   1      12.916  46.682  56.448  0.00  0.00     0.163 HD
BRANCH 136 138
ATOM    138  CA  SER d   1      11.120  47.727  56.920  0.00  0.00     0.116 C 
ATOM    139  H99 SER d   1      10.862  48.738  56.571  0.00  0.00     0.093 H 
BRANCH 138 140
ATOM    140  C   SER d   1      11.635  47.825  58.351  0.00  0.00     0.198 C 
ATOM    141  O   SER d   1      11.307  46.995  59.197  0.00  0.00    -0.646 OA
ATOM    142  OXT SER d   1      12.389  48.736  58.688  0.00  0.00    -0.646 OA
ENDBRANCH 138 140
BRANCH 138 143
ATOM    143  CB  SER d   1       9.857  46.863  56.874  0.00  0.00     0.045 C 
ATOM    144 0H10 SER d   1       9.138  47.240  57.616  0.00  0.00     0.077 H 
ATOM    145 1H10 SER d   1      10.125  45.824  57.117  0.00  0.00     0.077 H 
BRANCH 143 146
ATOM    146  OG  SER d   1       9.256  46.896  55.591  0.00  0.00    -0.398 OA
ATOM    147 2H10 SER d   1       9.871  46.567  54.946  0.00  0.00     0.209 HD
ENDBRANCH 143 146
ENDBRANCH 138 143
ENDBRANCH 136 138
ENDBRANCH 132 134
BRANCH 132 148
ATOM    148  CB  THR d   1      12.961  46.730  52.447  0.00  0.00     0.060 C 
ATOM    149  H93 THR d   1      12.441  47.652  52.147  0.00  0.00     0.086 H 
BRANCH 148 150
ATOM    150  OG1 THR d   1      12.101  45.607  52.216  0.00  0.00    -0.393 OA
ATOM    151  H94 THR d   1      12.543  44.810  52.485  0.00  0.00     0.210 HD
ENDBRANCH 148 150
BRANCH 148 152
ATOM    152  CG2 THR d   1      14.226  46.581  51.612  0.00  0.00    -0.050 C 
ATOM    153  H95 THR d   1      13.957  46.522  50.547  0.00  0.00     0.031 H 
ATOM    154  H96 THR d   1      14.755  45.663  51.908  0.00  0.00     0.031 H 
ATOM    155  H97 THR d   1      14.879  47.450  51.778  0.00  0.00     0.031 H 
ENDBRANCH 148 152
ENDBRANCH 132 148
ENDBRANCH 130 132
ENDBRANCH 126 128
BRANCH 126 156
ATOM    156  CB  VAL d   1      16.229  43.223  54.130  0.00  0.00    -0.033 C 
ATOM    157  H84 VAL d   1      17.180  43.772  54.076  0.00  0.00     0.042 H 
BRANCH 156 158
ATOM    158  CG1 VAL d   1      16.541  41.774  54.453  0.00  0.00    -0.071 C 
ATOM    159  H85 VAL d   1      17.154  41.343  53.648  0.00  0.00     0.028 H 
ATOM    160  H86 VAL d   1      15.602  41.208  54.542  0.00  0.00     0.028 H 
ATOM    161  H87 VAL d   1      17.093  41.721  55.403  0.00  0.00     0.028 H 
ENDBRANCH 156 158
BRANCH 156 162
ATOM    162  CG2 VAL d   1      15.540  43.342  52.784  0.00  0.00    -0.071 C 
ATOM    163  H88 VAL d   1      15.325  44.400  52.574  0.00  0.00     0.028 H 
ATOM    164  H89 VAL d   1      14.598  42.774  52.803  0.00  0.00     0.028 H 
ATOM    165  H90 VAL d   1      16.197  42.939  51.999  0.00  0.00     0.028 H 
ENDBRANCH 156 162
ENDBRANCH 126 156
ENDBRANCH 124 126
ENDBRANCH 120 122
BRANCH 120 166
ATOM    166  CB  GLN d   1      13.085  40.651  57.582  0.00  0.00    -0.030 C 
ATOM    167  H76 GLN d   1      13.756  40.230  56.818  0.00  0.00     0.037 H 
ATOM    168  H77 GLN d   1      12.214  39.991  57.710  0.00  0.00     0.037 H 
BRANCH 166 169
ATOM    169  CG  GLN d   1      13.839  40.703  58.900  0.00  0.00     0.011 C 
ATOM    170  H78 GLN d   1      13.202  41.193  59.651  0.00  0.00     0.047 H 
ATOM    171  H79 GLN d   1      14.757  41.291  58.758  0.00  0.00     0.047 H 
BRANCH 169 172
ATOM    172  CD  GLN d   1      14.218  39.328  59.408  0.00  0.00     0.215 C 
ATOM    173  OE1 GLN d   1      13.542  38.338  59.122  0.00  0.00    -0.274 OA
ATOM    174  NE2 GLN d   1      15.306  39.258  60.166  0.00  0.00    -0.370 N 
ATOM    175  H80 GLN d   1      15.606  38.376  60.531  0.00  0.00     0.159 HD
ATOM    176  H81 GLN d   1      15.826  40.087  60.372  0.00  0.00     0.159 HD
ENDBRANCH 169 172
ENDBRANCH 166 169
ENDBRANCH 120 166
ENDBRANCH 118 120
ENDBRANCH 114 116
BRANCH 114 177
ATOM    177  CB  LYS d   1       8.657  42.056  54.693  0.00  0.00    -0.038 C 
ATOM    178  H63 LYS d   1       8.225  42.828  55.347  0.00  0.00     0.036 H 
ATOM    179  H64 LYS d   1       8.751  41.113  55.251  0.00  0.00     0.036 H 
BRANCH 177 180
ATOM    180  CG  LYS d   1       7.707  41.830  53.534  0.00  0.00    -0.061 C 
ATOM    181  H65 LYS d   1       7.259  40.830  53.632  0.00  0.00     0.033 H 
ATOM    182  H66 LYS d   1       8.275  41.887  52.594  0.00  0.00     0.033 H 
BRANCH 180 183
ATOM    183  CD  LYS d   1       6.593  42.864  53.497  0.00  0.00    -0.043 C 
ATOM    184  H67 LYS d   1       6.079  42.871  54.469  0.00  0.00     0.035 H 
ATOM    185  H68 LYS d   1       5.878  42.592  52.706  0.00  0.00     0.035 H 
BRANCH 183 186
ATOM    186  CE  LYS d   1       7.135  44.255  53.215  0.00  0.00     0.080 C 
ATOM    187  H69 LYS d   1       7.617  44.253  52.226  0.00  0.00     0.075 H 
ATOM    188  H70 LYS d   1       7.879  44.507  53.985  0.00  0.00     0.075 H 
BRANCH 186 189
ATOM    189  NZ  LYS d   1       6.068  45.289  53.225  0.00  0.00    -0.079 N 
ATOM    190  H71 LYS d   1       6.473  46.192  53.034  0.00  0.00     0.274 HD
ATOM    191  H72 LYS d   1       5.624  45.305  54.130  0.00  0.00     0.274 HD
ATOM    192  H73 LYS d   1       5.383  45.072  52.518  0.00  0.00     0.274 HD
ENDBRANCH 186 189
ENDBRANCH 183 186
ENDBRANCH 180 183
ENDBRANCH 177 180
ENDBRANCH 114 177
ENDBRANCH 112 114
ENDBRANCH 108 110
BRANCH 108 193
ATOM    193  CB  GLU d   1      11.681  40.592  50.580  0.00  0.00    -0.029 C 
ATOM    194  H57 GLU d   1      10.677  40.182  50.764  0.00  0.00     0.037 H 
ATOM    195  H58 GLU d   1      12.239  39.912  49.920  0.00  0.00     0.037 H 
BRANCH 193 196
ATOM    196  CG  GLU d   1      11.533  41.933  49.877  0.00  0.00     0.018 C 
ATOM    197  H59 GLU d   1      12.518  42.422  49.845  0.00  0.00     0.049 H 
ATOM    198  H60 GLU d   1      10.833  42.556  50.454  0.00  0.00     0.049 H 
BRANCH 196 199
ATOM    199  CD  GLU d   1      11.010  41.807  48.459  0.00  0.00     0.172 C 
ATOM    200  OE1 GLU d   1      10.681  40.677  48.039  0.00  0.00    -0.648 OA
ATOM    201  OE2 GLU d   1      10.932  42.841  47.762  0.00  0.00    -0.648 OA
ENDBRANCH 196 199
ENDBRANCH 193 196
ENDBRANCH 108 193
ENDBRANCH 106 108
ENDBRANCH   1 104
BRANCH   1 202
ATOM    202  CB  PHE d   1      14.029  36.864  53.675  0.00  0.00    -0.014 C 
ATOM    203  H48 PHE d   1      13.666  36.665  52.656  0.00  0.00     0.043 H 
ATOM    204  H49 PHE d   1      14.044  35.926  54.249  0.00  0.00     0.043 H 
BRANCH 202 205
ATOM    205  CG  PHE d   1      15.433  37.386  53.584  0.00  0.00    -0.056 A 
ATOM    206  CD1 PHE d   1      16.235  37.450  54.711  0.00  0.00    -0.077 A 
ATOM    207  CE1 PHE d   1      17.527  37.931  54.637  0.00  0.00    -0.082 A 
ATOM    208  H50 PHE d   1      15.843  37.118  55.665  0.00  0.00     0.084 H 
ATOM    209  CZ  PHE d   1      18.036  38.352  53.427  0.00  0.00    -0.083 A 
ATOM    210  H52 PHE d   1      18.141  37.978  55.529  0.00  0.00     0.083 H 
ATOM    211  CE2 PHE d   1      17.247  38.294  52.290  0.00  0.00    -0.082 A 
ATOM    212  H54 PHE d   1      19.051  38.727  53.365  0.00  0.00     0.083 H 
ATOM    213  CD2 PHE d   1      15.953  37.812  52.372  0.00  0.00    -0.077 A 
ATOM    214  H53 PHE d   1      17.643  38.626  51.337  0.00  0.00     0.083 H 
ATOM    215  H51 PHE d   1      15.340  37.767  51.479  0.00  0.00     0.084 H 
ENDBRANCH 202 205
ENDBRANCH   1 202
TORSDOF 63
