REMARK WARNING: 32 MAX_TORS EXCEEDED!!!
REMARK  49 active torsions:
REMARK  status: ('A' for Active; 'I' for Inactive)
REMARK    1  A    between atoms: N_1  and  CA_2 
REMARK    2  A    between atoms: CA_2  and  C_3 
REMARK    3  A    between atoms: CA_2  and  CB_5 
REMARK       I    between atoms: C_3  and  N_6 
REMARK    4  A    between atoms: N_6  and  CA_7 
REMARK    5  A    between atoms: CA_7  and  C_8 
REMARK    6  A    between atoms: CA_7  and  CB_10 
REMARK       I    between atoms: C_8  and  N_17 
REMARK    7  A    between atoms: CB_10  and  CG_11 
REMARK    8  A    between atoms: CG_11  and  CD_12 
REMARK    9  A    between atoms: CD_12  and  NE_13 
REMARK       I    between atoms: NE_13  and  CZ_14 
REMARK       I    between atoms: CZ_14  and  NH1_15 
REMARK       I    between atoms: CZ_14  and  NH2_16 
REMARK   10  A    between atoms: N_17  and  CA_18 
REMARK   11  A    between atoms: CA_18  and  C_19 
REMARK   12  A    between atoms: CA_18  and  CB_21 
REMARK       I    between atoms: C_19  and  N_24 
REMARK   13  A    between atoms: CB_21  and  OG1_22 
REMARK   14  A    between atoms: CB_21  and  CG2_23 
REMARK   15  A    between atoms: N_24  and  CA_25 
REMARK   16  A    between atoms: CA_25  and  CB_26 
REMARK   17  A    between atoms: CA_25  and  C_33 
REMARK   18  A    between atoms: CB_26  and  CG_27 
REMARK   19  A    between atoms: CG_27  and  CD_28 
REMARK   20  A    between atoms: CD_28  and  CE_29 
REMARK   21  A    between atoms: CE_29  and  NZ_30 
REMARK   22  A    between atoms: NZ_30  and  CH1_31 
REMARK   23  A    between atoms: NZ_30  and  CH2_32 
REMARK       I    between atoms: C_33  and  N_35 
REMARK   24  A    between atoms: N_35  and  CA_36 
REMARK   25  A    between atoms: CA_36  and  C_37 
REMARK   26  A    between atoms: CA_36  and  CB_39 
REMARK       I    between atoms: C_37  and  N_44 
REMARK   27  A    between atoms: CB_39  and  CG_40 
REMARK   28  A    between atoms: CG_40  and  CD_41 
REMARK       I    between atoms: CD_41  and  NE2_43 
REMARK   29  A    between atoms: N_44  and  CA_45 
REMARK   30  A    between atoms: CA_45  and  C_46 
REMARK   31  A    between atoms: CA_45  and  CB_48 
REMARK       I    between atoms: C_46  and  N_51 
REMARK   32  A    between atoms: CB_48  and  OG1_49 
REMARK   33  A    between atoms: CB_48  and  CG2_50 
REMARK   34  A    between atoms: N_51  and  CA_52 
REMARK   35  A    between atoms: CA_52  and  C_53 
REMARK   36  A    between atoms: CA_52  and  CB_55 
REMARK       I    between atoms: C_53  and  N_56 
REMARK   37  A    between atoms: N_56  and  CA_57 
REMARK   38  A    between atoms: CA_57  and  C_58 
REMARK   39  A    between atoms: CA_57  and  CB_60 
REMARK       I    between atoms: C_58  and  N_67 
REMARK   40  A    between atoms: CB_60  and  CG_61 
REMARK   41  A    between atoms: CG_61  and  CD_62 
REMARK   42  A    between atoms: CD_62  and  NE_63 
REMARK       I    between atoms: NE_63  and  CZ_64 
REMARK       I    between atoms: CZ_64  and  NH1_65 
REMARK   43  A    between atoms: N_67  and  CA_68 
REMARK   44  A    between atoms: CA_68  and  C_69 
REMARK   45  A    between atoms: CA_68  and  CB_71 
REMARK   46  A    between atoms: CB_71  and  CG_72 
REMARK   47  A    between atoms: CG_72  and  CD_73 
REMARK   48  A    between atoms: CD_73  and  CE_74 
REMARK   49  A    between atoms: CE_74  and  NZ_75 
ROOT
ATOM      1  CA  GLN d   1       9.529 -15.147  17.585  0.00  0.00     0.090 C 
ATOM      2  H46 GLN d   1       9.638 -15.223  16.493  0.00  0.00     0.087 H 
ENDROOT
BRANCH   1   3
ATOM      3  N   GLN d   1      10.114 -13.892  18.035  0.00  0.00    -0.346 N 
ATOM      4  C   MLY d   1      10.745 -13.069  17.208  0.00  0.00     0.241 C 
ATOM      5  O   MLY d   1      11.004 -13.357  16.039  0.00  0.00    -0.271 OA
ATOM      6  H45 GLN d   1      10.037 -13.642  19.000  0.00  0.00     0.163 HD
BRANCH   4   7
ATOM      7  CA  MLY d   1      11.156 -11.724  17.791  0.00  0.00     0.089 C 
ATOM      8  H29 MLY d   1      11.411 -11.861  18.852  0.00  0.00     0.087 H 
BRANCH   7   9
ATOM      9  N   MLY d   1      12.329 -11.215  17.094  0.00  0.00    -0.346 N 
ATOM     10  C   THR d   1      13.119 -10.296  17.638  0.00  0.00     0.243 C 
ATOM     11  O   THR d   1      12.871  -9.750  18.713  0.00  0.00    -0.271 OA
ATOM     12  H28 MLY d   1      12.545 -11.566  16.183  0.00  0.00     0.163 HD
BRANCH  10  13
ATOM     13  CA  THR d   1      14.375  -9.944  16.852  0.00  0.00     0.113 C 
ATOM     14  H22 THR d   1      14.080  -9.666  15.829  0.00  0.00     0.091 H 
BRANCH  13  15
ATOM     15  N   THR d   1      15.083  -8.811  17.439  0.00  0.00    -0.344 N 
ATOM     16  C   ARG d   1      15.414  -7.747  16.716  0.00  0.00     0.241 C 
ATOM     17  O   ARG d   1      15.105  -7.621  15.533  0.00  0.00    -0.271 OA
ATOM     18  H21 THR d   1      15.325  -8.836  18.409  0.00  0.00     0.163 HD
BRANCH  16  19
ATOM     19  CA  ARG d   1      16.212  -6.665  17.431  0.00  0.00     0.089 C 
ATOM     20  H9  ARG d   1      16.152  -6.844  18.515  0.00  0.00     0.087 H 
BRANCH  19  21
ATOM     21  N   ARG d   1      17.611  -6.726  17.034  0.00  0.00    -0.346 N 
ATOM     22  C   ALA d   1      18.435  -7.616  17.578  0.00  0.00     0.248 C 
ATOM     23  O   ALA d   1      18.086  -8.397  18.463  0.00  0.00    -0.271 OA
ATOM     24  H8  ARG d   1      17.956  -6.090  16.343  0.00  0.00     0.163 HD
BRANCH  22  25
ATOM     25  CA  ALA d   1      19.863  -7.629  17.050  0.00  0.00     0.172 C 
ATOM     26  H4  ALA d   1      20.218  -6.590  16.986  0.00  0.00     0.098 H 
BRANCH  25  27
ATOM     27  N   ALA d   1      20.743  -8.358  17.954  0.00  0.00    -0.067 N 
ATOM     28  H1  ALA d   1      21.681  -8.354  17.585  0.00  0.00     0.275 HD
ATOM     29  H2  ALA d   1      20.421  -9.309  18.042  0.00  0.00     0.275 HD
ATOM     30  H3  ALA d   1      20.736  -7.915  18.860  0.00  0.00     0.275 HD
ENDBRANCH  25  27
BRANCH  25  31
ATOM     31  CB  ALA d   1      19.908  -8.240  15.652  0.00  0.00    -0.042 C 
ATOM     32  H5  ALA d   1      19.239  -7.678  14.984  0.00  0.00     0.030 H 
ATOM     33  H6  ALA d   1      19.581  -9.289  15.700  0.00  0.00     0.030 H 
ATOM     34  H7  ALA d   1      20.936  -8.193  15.264  0.00  0.00     0.030 H 
ENDBRANCH  25  31
ENDBRANCH  22  25
ENDBRANCH  19  21
BRANCH  19  35
ATOM     35  CB  ARG d   1      15.610  -5.293  17.137  0.00  0.00    -0.036 C 
ATOM     36  H10 ARG d   1      15.586  -5.143  16.048  0.00  0.00     0.036 H 
ATOM     37  H11 ARG d   1      16.243  -4.522  17.600  0.00  0.00     0.036 H 
BRANCH  35  38
ATOM     38  CG  ARG d   1      14.201  -5.157  17.679  0.00  0.00    -0.048 C 
ATOM     39  H12 ARG d   1      14.242  -5.185  18.778  0.00  0.00     0.035 H 
ATOM     40  H13 ARG d   1      13.600  -6.002  17.313  0.00  0.00     0.035 H 
BRANCH  38  41
ATOM     41  CD  ARG d   1      13.536  -3.869  17.252  0.00  0.00     0.009 C 
ATOM     42  H14 ARG d   1      13.378  -3.888  16.164  0.00  0.00     0.064 H 
ATOM     43  H15 ARG d   1      14.188  -3.022  17.514  0.00  0.00     0.064 H 
BRANCH  41  44
ATOM     44  NE  ARG d   1      12.249  -3.707  17.920  0.00  0.00    -0.227 N 
ATOM     45  CZ  ARG d   1      11.237  -2.993  17.440  0.00  0.00     0.665 C 
ATOM     46  NH1 ARG d   1      11.352  -2.371  16.274  0.00  0.00    -0.235 N 
ATOM     47  NH2 ARG d   1      10.107  -2.906  18.127  0.00  0.00    -0.235 N 
ATOM     48  H17 ARG d   1      10.565  -1.818  15.905  0.00  0.00     0.174 HD
ATOM     49  H18 ARG d   1      12.228  -2.441  15.737  0.00  0.00     0.174 HD
ATOM     50  H19 ARG d   1      10.016  -3.389  19.032  0.00  0.00     0.174 HD
ATOM     51  H20 ARG d   1       9.319  -2.356  17.755  0.00  0.00     0.174 HD
ATOM     52  H16 ARG d   1      12.116  -4.179  18.826  0.00  0.00     0.177 HD
ENDBRANCH  41  44
ENDBRANCH  38  41
ENDBRANCH  35  38
ENDBRANCH  19  35
ENDBRANCH  16  19
ENDBRANCH  13  15
BRANCH  13  53
ATOM     53  CB  THR d   1      15.272 -11.192  16.781  0.00  0.00     0.060 C 
ATOM     54  H23 THR d   1      14.756 -11.969  16.198  0.00  0.00     0.086 H 
BRANCH  53  55
ATOM     55  OG1 THR d   1      15.518 -11.685  18.105  0.00  0.00    -0.393 OA
ATOM     56  H24 THR d   1      16.072 -12.455  18.057  0.00  0.00     0.210 HD
ENDBRANCH  53  55
BRANCH  53  57
ATOM     57  CG2 THR d   1      16.597 -10.865  16.104  0.00  0.00    -0.050 C 
ATOM     58  H25 THR d   1      17.221 -11.770  16.064  0.00  0.00     0.031 H 
ATOM     59  H26 THR d   1      17.119 -10.084  16.677  0.00  0.00     0.031 H 
ATOM     60  H27 THR d   1      16.408 -10.505  15.082  0.00  0.00     0.031 H 
ENDBRANCH  53  57
ENDBRANCH  13  53
ENDBRANCH  10  13
ENDBRANCH   7   9
BRANCH   7  61
ATOM     61  CB  MLY d   1       9.991 -10.736  17.693  0.00  0.00    -0.038 C 
ATOM     62  H30 MLY d   1      10.356  -9.739  17.980  0.00  0.00     0.036 H 
ATOM     63  H31 MLY d   1       9.205 -11.055  18.394  0.00  0.00     0.036 H 
BRANCH  61  64
ATOM     64  CG  MLY d   1       9.387 -10.644  16.306  0.00  0.00    -0.061 C 
ATOM     65  H32 MLY d   1       9.015 -11.638  16.018  0.00  0.00     0.033 H 
ATOM     66  H33 MLY d   1      10.170 -10.327  15.602  0.00  0.00     0.033 H 
BRANCH  64  67
ATOM     67  CD  MLY d   1       8.237  -9.655  16.230  0.00  0.00    -0.042 C 
ATOM     68  H34 MLY d   1       8.604  -8.648  16.478  0.00  0.00     0.035 H 
ATOM     69  H35 MLY d   1       7.456  -9.947  16.948  0.00  0.00     0.035 H 
BRANCH  67  70
ATOM     70  CE  MLY d   1       7.652  -9.647  14.821  0.00  0.00     0.083 C 
ATOM     71  H36 MLY d   1       7.361 -10.676  14.562  0.00  0.00     0.075 H 
ATOM     72  H37 MLY d   1       8.430  -9.300  14.126  0.00  0.00     0.075 H 
BRANCH  70  73
ATOM     73  NZ  MLY d   1       6.461  -8.771  14.664  0.00  0.00    -0.079 N 
ATOM     74  H38 MLY d   1       5.812  -8.871  15.429  0.00  0.00     0.278 HD
BRANCH  73  75
ATOM     75  CH1 MLY d   1       6.954  -7.393  14.537  0.00  0.00     0.066 C 
ATOM     76  H39 MLY d   1       6.101  -6.708  14.418  0.00  0.00     0.068 H 
ATOM     77  H40 MLY d   1       7.610  -7.318  13.657  0.00  0.00     0.068 H 
ATOM     78  H41 MLY d   1       7.520  -7.121  15.440  0.00  0.00     0.068 H 
ENDBRANCH  73  75
BRANCH  73  79
ATOM     79  CH2 MLY d   1       5.857  -9.132  13.374  0.00  0.00     0.066 C 
ATOM     80  H42 MLY d   1       5.473 -10.162  13.424  0.00  0.00     0.068 H 
ATOM     81  H43 MLY d   1       6.616  -9.062  12.581  0.00  0.00     0.068 H 
ATOM     82  H44 MLY d   1       5.030  -8.442  13.151  0.00  0.00     0.068 H 
ENDBRANCH  73  79
ENDBRANCH  70  73
ENDBRANCH  67  70
ENDBRANCH  64  67
ENDBRANCH  61  64
ENDBRANCH   7  61
ENDBRANCH   4   7
ENDBRANCH   1   3
BRANCH   1  83
ATOM     83  C   GLN d   1       8.048 -15.135  17.937  0.00  0.00     0.241 C 
ATOM     84  O   GLN d   1       7.688 -14.933  19.096  0.00  0.00    -0.271 OA
ATOM     85  N   THR d   1       7.192 -15.334  16.941  0.00  0.00    -0.344 N 
ATOM     86  H53 THR d   1       7.539 -15.503  16.018  0.00  0.00     0.163 HD
BRANCH  85  87
ATOM     87  CA  THR d   1       5.752 -15.309  17.176  0.00  0.00     0.113 C 
ATOM     88  H54 THR d   1       5.530 -14.466  17.847  0.00  0.00     0.091 H 
BRANCH  87  89
ATOM     89  C   THR d   1       5.300 -16.598  17.853  0.00  0.00     0.243 C 
ATOM     90  O   THR d   1       5.980 -17.622  17.775  0.00  0.00    -0.271 OA
ATOM     91  N   ALA d   1       4.154 -16.541  18.522  0.00  0.00    -0.346 N 
ATOM     92  H60 ALA d   1       3.640 -15.683  18.535  0.00  0.00     0.163 HD
BRANCH  91  93
ATOM     93  CA  ALA d   1       3.625 -17.696  19.238  0.00  0.00     0.086 C 
ATOM     94  H61 ALA d   1       4.452 -18.159  19.796  0.00  0.00     0.086 H 
BRANCH  93  95
ATOM     95  C   ALA d   1       3.048 -18.744  18.293  0.00  0.00     0.240 C 
ATOM     96  O   ALA d   1       2.878 -18.497  17.098  0.00  0.00    -0.271 OA
ATOM     97  N   ARG d   1       2.741 -19.915  18.840  0.00  0.00    -0.346 N 
ATOM     98  H65 ARG d   1       3.009 -20.098  19.786  0.00  0.00     0.163 HD
BRANCH  97  99
ATOM     99  CA  ARG d   1       2.023 -20.939  18.092  0.00  0.00     0.089 C 
ATOM    100  H66 ARG d   1       2.348 -20.896  17.042  0.00  0.00     0.087 H 
BRANCH  99 101
ATOM    101  C   ARG d   1       0.519 -20.672  18.146  0.00  0.00     0.241 C 
ATOM    102  O   ARG d   1       0.072 -19.720  18.787  0.00  0.00    -0.271 OA
ATOM    103  N   LYS d   1      -0.258 -21.516  17.476  0.00  0.00    -0.345 N 
ATOM    104  H78 LYS d   1       0.157 -22.301  17.016  0.00  0.00     0.163 HD
BRANCH 103 105
ATOM    105  CA  LYS d   1      -1.704 -21.325  17.395  0.00  0.00     0.096 C 
ATOM    106  H79 LYS d   1      -1.899 -20.245  17.316  0.00  0.00     0.089 H 
BRANCH 105 107
ATOM    107  C   LYS d   1      -2.433 -21.844  18.635  0.00  0.00     0.196 C 
ATOM    108  O   LYS d   1      -2.096 -22.896  19.177  0.00  0.00    -0.646 OA
ATOM    109  OXT LYS d   1      -3.376 -21.224  19.124  0.00  0.00    -0.646 OA
ENDBRANCH 105 107
BRANCH 105 110
ATOM    110  CB  LYS d   1      -2.249 -22.007  16.139  0.00  0.00    -0.037 C 
ATOM    111  H80 LYS d   1      -3.340 -21.869  16.111  0.00  0.00     0.036 H 
ATOM    112  H81 LYS d   1      -2.016 -23.081  16.195  0.00  0.00     0.036 H 
BRANCH 110 113
ATOM    113  CG  LYS d   1      -1.657 -21.449  14.853  0.00  0.00    -0.061 C 
ATOM    114  H82 LYS d   1      -0.561 -21.442  14.942  0.00  0.00     0.033 H 
ATOM    115  H83 LYS d   1      -2.020 -20.420  14.714  0.00  0.00     0.033 H 
BRANCH 113 116
ATOM    116  CD  LYS d   1      -2.043 -22.271  13.637  0.00  0.00    -0.043 C 
ATOM    117  H84 LYS d   1      -3.138 -22.269  13.533  0.00  0.00     0.035 H 
ATOM    118  H85 LYS d   1      -1.690 -23.304  13.773  0.00  0.00     0.035 H 
BRANCH 116 119
ATOM    119  CE  LYS d   1      -1.420 -21.692  12.375  0.00  0.00     0.080 C 
ATOM    120  H86 LYS d   1      -0.326 -21.705  12.484  0.00  0.00     0.075 H 
ATOM    121  H87 LYS d   1      -1.764 -20.654  12.256  0.00  0.00     0.075 H 
BRANCH 119 122
ATOM    122  NZ  LYS d   1      -1.787 -22.460  11.152  0.00  0.00    -0.079 N 
ATOM    123  H88 LYS d   1      -1.351 -22.038  10.347  0.00  0.00     0.274 HD
ATOM    124  H89 LYS d   1      -2.788 -22.449  11.036  0.00  0.00     0.274 HD
ATOM    125  H90 LYS d   1      -1.470 -23.412  11.245  0.00  0.00     0.274 HD
ENDBRANCH 119 122
ENDBRANCH 116 119
ENDBRANCH 113 116
ENDBRANCH 110 113
ENDBRANCH 105 110
ENDBRANCH 103 105
ENDBRANCH  99 101
BRANCH  99 126
ATOM    126  CB  ARG d   1       2.342 -22.331  18.639  0.00  0.00    -0.036 C 
ATOM    127  H67 ARG d   1       1.700 -23.061  18.126  0.00  0.00     0.036 H 
ATOM    128  H68 ARG d   1       2.120 -22.340  19.716  0.00  0.00     0.036 H 
BRANCH 126 129
ATOM    129  CG  ARG d   1       3.789 -22.746  18.445  0.00  0.00    -0.048 C 
ATOM    130  H69 ARG d   1       4.443 -21.911  18.736  0.00  0.00     0.035 H 
ATOM    131  H70 ARG d   1       3.953 -22.987  17.384  0.00  0.00     0.035 H 
BRANCH 129 132
ATOM    132  CD  ARG d   1       4.136 -23.961  19.287  0.00  0.00     0.009 C 
ATOM    133  H71 ARG d   1       3.427 -24.770  19.054  0.00  0.00     0.064 H 
ATOM    134  H72 ARG d   1       4.051 -23.693  20.351  0.00  0.00     0.064 H 
BRANCH 132 135
ATOM    135  NE  ARG d   1       5.492 -24.432  19.026  0.00  0.00    -0.227 N 
ATOM    136  CZ  ARG d   1       5.793 -25.422  18.190  0.00  0.00     0.665 C 
ATOM    137  NH1 ARG d   1       4.829 -26.056  17.535  0.00  0.00    -0.235 N 
ATOM    138  NH2 ARG d   1       7.058 -25.781  18.013  0.00  0.00    -0.235 N 
ATOM    139  H74 ARG d   1       5.064 -26.822  16.888  0.00  0.00     0.174 HD
ATOM    140  H75 ARG d   1       3.846 -25.782  17.673  0.00  0.00     0.174 HD
ATOM    141  H76 ARG d   1       7.808 -25.291  18.520  0.00  0.00     0.174 HD
ATOM    142  H77 ARG d   1       7.290 -26.550  17.368  0.00  0.00     0.174 HD
ATOM    143  H73 ARG d   1       6.267 -23.968  19.521  0.00  0.00     0.177 HD
ENDBRANCH 132 135
ENDBRANCH 129 132
ENDBRANCH 126 129
ENDBRANCH  99 126
ENDBRANCH  97  99
ENDBRANCH  93  95
BRANCH  93 144
ATOM    144  CB  ALA d   1       2.565 -17.252  20.229  0.00  0.00    -0.049 C 
ATOM    145  H62 ALA d   1       2.172 -18.130  20.764  0.00  0.00     0.030 H 
ATOM    146  H63 ALA d   1       1.745 -16.754  19.691  0.00  0.00     0.030 H 
ATOM    147  H64 ALA d   1       3.009 -16.551  20.951  0.00  0.00     0.030 H 
ENDBRANCH  93 144
ENDBRANCH  91  93
ENDBRANCH  87  89
BRANCH  87 148
ATOM    148  CB  THR d   1       4.961 -15.106  15.867  0.00  0.00     0.060 C 
ATOM    149  H55 THR d   1       3.897 -14.974  16.111  0.00  0.00     0.086 H 
BRANCH 148 150
ATOM    150  OG1 THR d   1       5.109 -16.257  15.024  0.00  0.00    -0.393 OA
ATOM    151  H56 THR d   1       4.620 -16.125  14.221  0.00  0.00     0.210 HD
ENDBRANCH 148 150
BRANCH 148 152
ATOM    152  CG2 THR d   1       5.457 -13.866  15.133  0.00  0.00    -0.050 C 
ATOM    153  H57 THR d   1       4.883 -13.736  14.204  0.00  0.00     0.031 H 
ATOM    154  H58 THR d   1       6.524 -13.985  14.892  0.00  0.00     0.031 H 
ATOM    155  H59 THR d   1       5.322 -12.982  15.774  0.00  0.00     0.031 H 
ENDBRANCH 148 152
ENDBRANCH  87 148
ENDBRANCH  85  87
ENDBRANCH   1  83
BRANCH   1 156
ATOM    156  CB  GLN d   1      10.234 -16.345  18.228  0.00  0.00    -0.030 C 
ATOM    157  H47 GLN d   1      10.163 -16.239  19.321  0.00  0.00     0.037 H 
ATOM    158  H48 GLN d   1      11.291 -16.324  17.925  0.00  0.00     0.037 H 
BRANCH 156 159
ATOM    159  CG  GLN d   1       9.654 -17.704  17.842  0.00  0.00     0.011 C 
ATOM    160  H49 GLN d   1       8.561 -17.609  17.766  0.00  0.00     0.047 H 
ATOM    161  H50 GLN d   1       9.905 -18.428  18.631  0.00  0.00     0.047 H 
BRANCH 159 162
ATOM    162  CD  GLN d   1      10.186 -18.228  16.520  0.00  0.00     0.215 C 
ATOM    163  OE1 GLN d   1      11.306 -17.915  16.119  0.00  0.00    -0.274 OA
ATOM    164  NE2 GLN d   1       9.385 -19.038  15.840  0.00  0.00    -0.370 N 
ATOM    165  H51 GLN d   1       9.682 -19.414  14.962  0.00  0.00     0.159 HD
ATOM    166  H52 GLN d   1       8.484 -19.273  16.205  0.00  0.00     0.159 HD
ENDBRANCH 159 162
ENDBRANCH 156 159
ENDBRANCH   1 156
TORSDOF 49
