REMARK WARNING: 32 MAX_TORS EXCEEDED!!!
REMARK  50 active torsions:
REMARK  status: ('A' for Active; 'I' for Inactive)
REMARK    1  A    between atoms: N_1  and  CA_2 
REMARK    2  A    between atoms: CA_2  and  C_3 
REMARK    3  A    between atoms: CA_2  and  CB_5 
REMARK       I    between atoms: C_3  and  N_6 
REMARK    4  A    between atoms: N_6  and  CA_7 
REMARK    5  A    between atoms: CA_7  and  C_8 
REMARK    6  A    between atoms: CA_7  and  CB_10 
REMARK       I    between atoms: C_8  and  N_17 
REMARK    7  A    between atoms: CB_10  and  CG_11 
REMARK    8  A    between atoms: CG_11  and  CD_12 
REMARK    9  A    between atoms: CD_12  and  NE_13 
REMARK       I    between atoms: NE_13  and  CZ_14 
REMARK       I    between atoms: CZ_14  and  NH1_15 
REMARK       I    between atoms: CZ_14  and  NH2_16 
REMARK   10  A    between atoms: N_17  and  CA_18 
REMARK   11  A    between atoms: CA_18  and  C_19 
REMARK   12  A    between atoms: CA_18  and  CB_21 
REMARK       I    between atoms: C_19  and  N_24 
REMARK   13  A    between atoms: CB_21  and  OG1_22 
REMARK   14  A    between atoms: CB_21  and  CG2_23 
REMARK   15  A    between atoms: N_24  and  CA_25 
REMARK   16  A    between atoms: CA_25  and  CB_26 
REMARK   17  A    between atoms: CA_25  and  C_31 
REMARK   18  A    between atoms: CB_26  and  CG_27 
REMARK   19  A    between atoms: CG_27  and  CD_28 
REMARK   20  A    between atoms: CD_28  and  CE_29 
REMARK   21  A    between atoms: CE_29  and  NZ_30 
REMARK   22  A    between atoms: NZ_30  and  CM1_33 
REMARK   23  A    between atoms: NZ_30  and  CM2_34 
REMARK   24  A    between atoms: NZ_30  and  CM3_35 
REMARK       I    between atoms: C_31  and  N_36 
REMARK   25  A    between atoms: N_36  and  CA_37 
REMARK   26  A    between atoms: CA_37  and  C_38 
REMARK   27  A    between atoms: CA_37  and  CB_40 
REMARK       I    between atoms: C_38  and  N_45 
REMARK   28  A    between atoms: CB_40  and  CG_41 
REMARK   29  A    between atoms: CG_41  and  CD_42 
REMARK       I    between atoms: CD_42  and  NE2_44 
REMARK   30  A    between atoms: N_45  and  CA_46 
REMARK   31  A    between atoms: CA_46  and  C_47 
REMARK   32  A    between atoms: CA_46  and  CB_49 
REMARK       I    between atoms: C_47  and  N_52 
REMARK   33  A    between atoms: CB_49  and  OG1_50 
REMARK   34  A    between atoms: CB_49  and  CG2_51 
REMARK   35  A    between atoms: N_52  and  CA_53 
REMARK   36  A    between atoms: CA_53  and  C_54 
REMARK   37  A    between atoms: CA_53  and  CB_56 
REMARK       I    between atoms: C_54  and  N_57 
REMARK   38  A    between atoms: N_57  and  CA_58 
REMARK   39  A    between atoms: CA_58  and  C_59 
REMARK   40  A    between atoms: CA_58  and  CB_61 
REMARK       I    between atoms: C_59  and  N_68 
REMARK   41  A    between atoms: CB_61  and  CG_62 
REMARK   42  A    between atoms: CG_62  and  CD_63 
REMARK   43  A    between atoms: CD_63  and  NE_64 
REMARK       I    between atoms: NE_64  and  CZ_65 
REMARK       I    between atoms: CZ_65  and  NH1_66 
REMARK   44  A    between atoms: N_68  and  CA_69 
REMARK   45  A    between atoms: CA_69  and  C_70 
REMARK   46  A    between atoms: CA_69  and  CB_72 
REMARK   47  A    between atoms: CB_72  and  CG_73 
REMARK   48  A    between atoms: CG_73  and  CD_74 
REMARK   49  A    between atoms: CD_74  and  CE_75 
REMARK   50  A    between atoms: CE_75  and  NZ_76 
ROOT
ATOM      1  CA  GLN d   1       9.417 -14.956  17.645  0.00  0.00     0.090 C 
ATOM      2  H48 GLN d   1       9.513 -15.085  16.557  0.00  0.00     0.087 H 
ENDROOT
BRANCH   1   3
ATOM      3  N   GLN d   1      10.031 -13.691  18.022  0.00  0.00    -0.346 N 
ATOM      4  C   M3L d   1      10.476 -12.829  17.113  0.00  0.00     0.241 C 
ATOM      5  O   M3L d   1      10.481 -13.099  15.910  0.00  0.00    -0.271 OA
ATOM      6  H47 GLN d   1      10.120 -13.464  18.992  0.00  0.00     0.163 HD
BRANCH   4   7
ATOM      7  CA  M3L d   1      10.999 -11.517  17.699  0.00  0.00     0.089 C 
ATOM      8  H29 M3L d   1      11.277 -11.721  18.744  0.00  0.00     0.087 H 
BRANCH   7   9
ATOM      9  N   M3L d   1      12.199 -11.051  17.044  0.00  0.00    -0.346 N 
ATOM     10  C   THR d   1      12.984 -10.126  17.586  0.00  0.00     0.243 C 
ATOM     11  O   THR d   1      12.723  -9.554  18.644  0.00  0.00    -0.271 OA
ATOM     12  H28 M3L d   1      12.447 -11.436  16.155  0.00  0.00     0.163 HD
BRANCH  10  13
ATOM     13  CA  THR d   1      14.258  -9.802  16.816  0.00  0.00     0.113 C 
ATOM     14  H22 THR d   1      13.984  -9.531  15.786  0.00  0.00     0.091 H 
BRANCH  13  15
ATOM     15  N   THR d   1      14.966  -8.673  17.404  0.00  0.00    -0.344 N 
ATOM     16  C   ARG d   1      15.159  -7.546  16.727  0.00  0.00     0.241 C 
ATOM     17  O   ARG d   1      14.733  -7.369  15.586  0.00  0.00    -0.271 OA
ATOM     18  H21 THR d   1      15.315  -8.748  18.338  0.00  0.00     0.163 HD
BRANCH  16  19
ATOM     19  CA  ARG d   1      15.953  -6.458  17.442  0.00  0.00     0.089 C 
ATOM     20  H9  ARG d   1      15.891  -6.634  18.526  0.00  0.00     0.087 H 
BRANCH  19  21
ATOM     21  N   ARG d   1      17.354  -6.512  17.049  0.00  0.00    -0.346 N 
ATOM     22  C   ALA d   1      18.164  -7.449  17.531  0.00  0.00     0.248 C 
ATOM     23  O   ALA d   1      17.802  -8.283  18.362  0.00  0.00    -0.271 OA
ATOM     24  H8  ARG d   1      17.712  -5.834  16.407  0.00  0.00     0.163 HD
BRANCH  22  25
ATOM     25  CA  ALA d   1      19.593  -7.448  17.003  0.00  0.00     0.172 C 
ATOM     26  H4  ALA d   1      19.900  -6.404  16.839  0.00  0.00     0.098 H 
BRANCH  25  27
ATOM     27  N   ALA d   1      20.507  -8.048  17.967  0.00  0.00    -0.067 N 
ATOM     28  H1  ALA d   1      21.444  -8.035  17.595  0.00  0.00     0.275 HD
ATOM     29  H2  ALA d   1      20.229  -9.000  18.146  0.00  0.00     0.275 HD
ATOM     30  H3  ALA d   1      20.480  -7.523  18.827  0.00  0.00     0.275 HD
ENDBRANCH  25  27
BRANCH  25  31
ATOM     31  CB  ALA d   1      19.665  -8.185  15.673  0.00  0.00    -0.042 C 
ATOM     32  H5  ALA d   1      18.970  -7.720  14.958  0.00  0.00     0.030 H 
ATOM     33  H6  ALA d   1      19.387  -9.239  15.822  0.00  0.00     0.030 H 
ATOM     34  H7  ALA d   1      20.690  -8.129  15.278  0.00  0.00     0.030 H 
ENDBRANCH  25  31
ENDBRANCH  22  25
ENDBRANCH  19  21
BRANCH  19  35
ATOM     35  CB  ARG d   1      15.348  -5.086  17.140  0.00  0.00    -0.036 C 
ATOM     36  H10 ARG d   1      15.255  -4.976  16.049  0.00  0.00     0.036 H 
ATOM     37  H11 ARG d   1      16.024  -4.311  17.530  0.00  0.00     0.036 H 
BRANCH  35  38
ATOM     38  CG  ARG d   1      13.978  -4.891  17.764  0.00  0.00    -0.048 C 
ATOM     39  H12 ARG d   1      14.100  -4.760  18.849  0.00  0.00     0.035 H 
ATOM     40  H13 ARG d   1      13.370  -5.787  17.569  0.00  0.00     0.035 H 
BRANCH  38  41
ATOM     41  CD  ARG d   1      13.255  -3.681  17.205  0.00  0.00     0.009 C 
ATOM     42  H14 ARG d   1      13.088  -3.828  16.128  0.00  0.00     0.064 H 
ATOM     43  H15 ARG d   1      13.877  -2.787  17.361  0.00  0.00     0.064 H 
BRANCH  41  44
ATOM     44  NE  ARG d   1      11.967  -3.488  17.865  0.00  0.00    -0.227 N 
ATOM     45  CZ  ARG d   1      11.011  -2.678  17.424  0.00  0.00     0.665 C 
ATOM     46  NH1 ARG d   1      11.188  -1.983  16.308  0.00  0.00    -0.235 N 
ATOM     47  NH2 ARG d   1       9.872  -2.570  18.095  0.00  0.00    -0.235 N 
ATOM     48  H17 ARG d   1      10.445  -1.356  15.969  0.00  0.00     0.174 HD
ATOM     49  H18 ARG d   1      12.069  -2.071  15.781  0.00  0.00     0.174 HD
ATOM     50  H19 ARG d   1       9.732  -3.108  18.962  0.00  0.00     0.174 HD
ATOM     51  H20 ARG d   1       9.128  -1.948  17.749  0.00  0.00     0.174 HD
ATOM     52  H16 ARG d   1      11.787  -4.016  18.731  0.00  0.00     0.177 HD
ENDBRANCH  41  44
ENDBRANCH  38  41
ENDBRANCH  35  38
ENDBRANCH  19  35
ENDBRANCH  16  19
ENDBRANCH  13  15
BRANCH  13  53
ATOM     53  CB  THR d   1      15.141 -11.062  16.772  0.00  0.00     0.060 C 
ATOM     54  H23 THR d   1      14.645 -11.825  16.155  0.00  0.00     0.086 H 
BRANCH  53  55
ATOM     55  OG1 THR d   1      15.318 -11.573  18.100  0.00  0.00    -0.393 OA
ATOM     56  H24 THR d   1      15.863 -12.350  18.069  0.00  0.00     0.210 HD
ENDBRANCH  53  55
BRANCH  53  57
ATOM     57  CG2 THR d   1      16.500 -10.741  16.165  0.00  0.00    -0.050 C 
ATOM     58  H25 THR d   1      17.116 -11.652  16.142  0.00  0.00     0.031 H 
ATOM     59  H26 THR d   1      17.002  -9.975  16.774  0.00  0.00     0.031 H 
ATOM     60  H27 THR d   1      16.364 -10.364  15.140  0.00  0.00     0.031 H 
ENDBRANCH  53  57
ENDBRANCH  13  53
ENDBRANCH  10  13
ENDBRANCH   7   9
BRANCH   7  61
ATOM     61  CB  M3L d   1       9.871 -10.462  17.735  0.00  0.00    -0.038 C 
ATOM     62  H30 M3L d   1      10.228  -9.558  17.220  0.00  0.00     0.036 H 
ATOM     63  H31 M3L d   1       9.655 -10.224  18.787  0.00  0.00     0.036 H 
BRANCH  61  64
ATOM     64  CG  M3L d   1       8.584 -10.908  17.075  0.00  0.00    -0.061 C 
ATOM     65  H32 M3L d   1       7.758 -10.833  17.798  0.00  0.00     0.033 H 
ATOM     66  H33 M3L d   1       8.687 -11.951  16.743  0.00  0.00     0.033 H 
BRANCH  64  67
ATOM     67  CD  M3L d   1       8.285 -10.025  15.876  0.00  0.00    -0.042 C 
ATOM     68  H34 M3L d   1       8.177 -10.648  14.976  0.00  0.00     0.035 H 
ATOM     69  H35 M3L d   1       9.107  -9.309  15.730  0.00  0.00     0.035 H 
BRANCH  67  70
ATOM     70  CE  M3L d   1       6.986  -9.269  16.136  0.00  0.00     0.084 C 
ATOM     71  H36 M3L d   1       7.204  -8.483  16.874  0.00  0.00     0.076 H 
ATOM     72  H37 M3L d   1       6.268  -9.984  16.563  0.00  0.00     0.076 H 
BRANCH  70  73
ATOM     73  NZ  M3L d   1       6.315  -8.605  14.950  0.00  0.00    -0.079 N 
BRANCH  73  74
ATOM     74  CM1 M3L d   1       6.389  -9.454  13.725  0.00  0.00     0.067 C 
ATOM     75  H38 M3L d   1       5.892  -8.938  12.890  0.00  0.00     0.068 H 
ATOM     76  H39 M3L d   1       5.886 -10.414  13.913  0.00  0.00     0.068 H 
ATOM     77  H40 M3L d   1       7.443  -9.636  13.468  0.00  0.00     0.068 H 
ENDBRANCH  73  74
BRANCH  73  78
ATOM     78  CM2 M3L d   1       6.910  -7.265  14.666  0.00  0.00     0.067 C 
ATOM     79  H41 M3L d   1       6.855  -6.640  15.570  0.00  0.00     0.068 H 
ATOM     80  H42 M3L d   1       6.352  -6.781  13.851  0.00  0.00     0.068 H 
ATOM     81  H43 M3L d   1       7.962  -7.386  14.368  0.00  0.00     0.068 H 
ENDBRANCH  73  78
BRANCH  73  82
ATOM     82  CM3 M3L d   1       4.873  -8.416  15.299  0.00  0.00     0.067 C 
ATOM     83  H44 M3L d   1       4.416  -9.394  15.512  0.00  0.00     0.068 H 
ATOM     84  H45 M3L d   1       4.350  -7.943  14.454  0.00  0.00     0.068 H 
ATOM     85  H46 M3L d   1       4.792  -7.772  16.187  0.00  0.00     0.068 H 
ENDBRANCH  73  82
ENDBRANCH  70  73
ENDBRANCH  67  70
ENDBRANCH  64  67
ENDBRANCH  61  64
ENDBRANCH   7  61
ENDBRANCH   4   7
ENDBRANCH   1   3
BRANCH   1  86
ATOM     86  C   GLN d   1       7.938 -14.928  18.007  0.00  0.00     0.241 C 
ATOM     87  O   GLN d   1       7.582 -14.682  19.157  0.00  0.00    -0.271 OA
ATOM     88  N   THR d   1       7.077 -15.172  17.025  0.00  0.00    -0.344 N 
ATOM     89  H55 THR d   1       7.420 -15.382  16.109  0.00  0.00     0.163 HD
BRANCH  88  90
ATOM     90  CA  THR d   1       5.639 -15.138  17.264  0.00  0.00     0.113 C 
ATOM     91  H56 THR d   1       5.428 -14.302  17.947  0.00  0.00     0.091 H 
BRANCH  90  92
ATOM     92  C   THR d   1       5.168 -16.431  17.923  0.00  0.00     0.243 C 
ATOM     93  O   THR d   1       5.840 -17.460  17.846  0.00  0.00    -0.271 OA
ATOM     94  N   ALA d   1       4.012 -16.366  18.576  0.00  0.00    -0.346 N 
ATOM     95  H62 ALA d   1       3.503 -15.505  18.579  0.00  0.00     0.163 HD
BRANCH  94  96
ATOM     96  CA  ALA d   1       3.466 -17.516  19.289  0.00  0.00     0.086 C 
ATOM     97  H63 ALA d   1       4.298 -18.030  19.793  0.00  0.00     0.086 H 
BRANCH  96  98
ATOM     98  C   ALA d   1       2.801 -18.508  18.343  0.00  0.00     0.240 C 
ATOM     99  O   ALA d   1       2.548 -18.201  17.176  0.00  0.00    -0.271 OA
ATOM    100  N   ARG d   1       2.523 -19.702  18.856  0.00  0.00    -0.346 N 
ATOM    101  H67 ARG d   1       2.821 -19.911  19.788  0.00  0.00     0.163 HD
BRANCH 100 102
ATOM    102  CA  ARG d   1       1.798 -20.716  18.103  0.00  0.00     0.089 C 
ATOM    103  H68 ARG d   1       2.087 -20.639  17.044  0.00  0.00     0.087 H 
BRANCH 102 104
ATOM    104  C   ARG d   1       0.295 -20.474  18.215  0.00  0.00     0.241 C 
ATOM    105  O   ARG d   1      -0.141 -19.519  18.859  0.00  0.00    -0.271 OA
ATOM    106  N   LYS d   1      -0.495 -21.340  17.590  0.00  0.00    -0.345 N 
ATOM    107  H80 LYS d   1      -0.087 -22.119  17.115  0.00  0.00     0.163 HD
BRANCH 106 108
ATOM    108  CA  LYS d   1      -1.944 -21.179  17.582  0.00  0.00     0.096 C 
ATOM    109  H81 LYS d   1      -2.168 -20.102  17.603  0.00  0.00     0.089 H 
BRANCH 108 110
ATOM    110  C   LYS d   1      -2.591 -21.823  18.805  0.00  0.00     0.196 C 
ATOM    111  O   LYS d   1      -2.030 -22.736  19.409  0.00  0.00    -0.646 OA
ATOM    112  OXT LYS d   1      -3.687 -21.443  19.213  0.00  0.00    -0.646 OA
ENDBRANCH 108 110
BRANCH 108 113
ATOM    113  CB  LYS d   1      -2.535 -21.771  16.302  0.00  0.00    -0.037 C 
ATOM    114  H82 LYS d   1      -3.624 -21.617  16.319  0.00  0.00     0.036 H 
ATOM    115  H83 LYS d   1      -2.317 -22.849  16.285  0.00  0.00     0.036 H 
BRANCH 113 116
ATOM    116  CG  LYS d   1      -1.982 -21.150  15.031  0.00  0.00    -0.061 C 
ATOM    117  H84 LYS d   1      -0.892 -21.297  15.006  0.00  0.00     0.033 H 
ATOM    118  H85 LYS d   1      -2.207 -20.073  15.032  0.00  0.00     0.033 H 
BRANCH 116 119
ATOM    119  CD  LYS d   1      -2.593 -21.780  13.793  0.00  0.00    -0.043 C 
ATOM    120  H86 LYS d   1      -3.683 -21.633  13.816  0.00  0.00     0.035 H 
ATOM    121  H87 LYS d   1      -2.368 -22.857  13.790  0.00  0.00     0.035 H 
BRANCH 119 122
ATOM    122  CE  LYS d   1      -2.036 -21.154  12.526  0.00  0.00     0.080 C 
ATOM    123  H88 LYS d   1      -0.948 -21.313  12.499  0.00  0.00     0.075 H 
ATOM    124  H89 LYS d   1      -2.249 -20.075  12.539  0.00  0.00     0.075 H 
BRANCH 122 125
ATOM    125  NZ  LYS d   1      -2.639 -21.749  11.302  0.00  0.00    -0.079 N 
ATOM    126  H90 LYS d   1      -2.245 -21.309  10.485  0.00  0.00     0.274 HD
ATOM    127  H91 LYS d   1      -3.636 -21.604  11.314  0.00  0.00     0.274 HD
ATOM    128  H92 LYS d   1      -2.444 -22.738  11.278  0.00  0.00     0.274 HD
ENDBRANCH 122 125
ENDBRANCH 119 122
ENDBRANCH 116 119
ENDBRANCH 113 116
ENDBRANCH 108 113
ENDBRANCH 106 108
ENDBRANCH 102 104
BRANCH 102 129
ATOM    129  CB  ARG d   1       2.157 -22.117  18.602  0.00  0.00    -0.036 C 
ATOM    130  H69 ARG d   1       1.526 -22.845  18.071  0.00  0.00     0.036 H 
ATOM    131  H70 ARG d   1       1.945 -22.165  19.680  0.00  0.00     0.036 H 
BRANCH 129 132
ATOM    132  CG  ARG d   1       3.613 -22.497  18.384  0.00  0.00    -0.048 C 
ATOM    133  H71 ARG d   1       4.253 -21.659  18.699  0.00  0.00     0.035 H 
ATOM    134  H72 ARG d   1       3.774 -22.700  17.315  0.00  0.00     0.035 H 
BRANCH 132 135
ATOM    135  CD  ARG d   1       3.989 -23.735  19.185  0.00  0.00     0.009 C 
ATOM    136  H73 ARG d   1       3.328 -24.563  18.890  0.00  0.00     0.064 H 
ATOM    137  H74 ARG d   1       3.852 -23.520  20.255  0.00  0.00     0.064 H 
BRANCH 135 138
ATOM    138  NE  ARG d   1       5.376 -24.135  18.958  0.00  0.00    -0.227 N 
ATOM    139  CZ  ARG d   1       5.744 -25.169  18.208  0.00  0.00     0.665 C 
ATOM    140  NH1 ARG d   1       4.826 -25.919  17.613  0.00  0.00    -0.235 N 
ATOM    141  NH2 ARG d   1       7.030 -25.458  18.057  0.00  0.00    -0.235 N 
ATOM    142  H76 ARG d   1       5.113 -26.720  17.032  0.00  0.00     0.174 HD
ATOM    143  H77 ARG d   1       3.826 -25.701  17.732  0.00  0.00     0.174 HD
ATOM    144  H78 ARG d   1       7.746 -24.878  18.517  0.00  0.00     0.174 HD
ATOM    145  H79 ARG d   1       7.313 -26.262  17.479  0.00  0.00     0.174 HD
ATOM    146  H75 ARG d   1       6.117 -23.579  19.409  0.00  0.00     0.177 HD
ENDBRANCH 135 138
ENDBRANCH 132 135
ENDBRANCH 129 132
ENDBRANCH 102 129
ENDBRANCH 100 102
ENDBRANCH  96  98
BRANCH  96 147
ATOM    147  CB  ALA d   1       2.474 -17.057  20.347  0.00  0.00    -0.049 C 
ATOM    148  H64 ALA d   1       2.071 -17.933  20.876  0.00  0.00     0.030 H 
ATOM    149  H65 ALA d   1       1.651 -16.509  19.865  0.00  0.00     0.030 H 
ATOM    150  H66 ALA d   1       2.983 -16.397  21.065  0.00  0.00     0.030 H 
ENDBRANCH  96 147
ENDBRANCH  94  96
ENDBRANCH  90  92
BRANCH  90 151
ATOM    151  CB  THR d   1       4.850 -14.908  15.962  0.00  0.00     0.060 C 
ATOM    152  H57 THR d   1       3.788 -14.761  16.209  0.00  0.00     0.086 H 
BRANCH 151 153
ATOM    153  OG1 THR d   1       4.981 -16.052  15.108  0.00  0.00    -0.393 OA
ATOM    154  H58 THR d   1       4.493 -15.905  14.306  0.00  0.00     0.210 HD
ENDBRANCH 151 153
BRANCH 151 155
ATOM    155  CG2 THR d   1       5.366 -13.672  15.239  0.00  0.00    -0.050 C 
ATOM    156  H59 THR d   1       4.792 -13.523  14.312  0.00  0.00     0.031 H 
ATOM    157  H60 THR d   1       6.430 -13.808  14.993  0.00  0.00     0.031 H 
ATOM    158  H61 THR d   1       5.249 -12.792  15.888  0.00  0.00     0.031 H 
ENDBRANCH 151 155
ENDBRANCH  90 151
ENDBRANCH  88  90
ENDBRANCH   1  86
BRANCH   1 159
ATOM    159  CB  GLN d   1      10.117 -16.128  18.337  0.00  0.00    -0.030 C 
ATOM    160  H49 GLN d   1      10.016 -15.996  19.424  0.00  0.00     0.037 H 
ATOM    161  H50 GLN d   1      11.182 -16.104  18.062  0.00  0.00     0.037 H 
BRANCH 159 162
ATOM    162  CG  GLN d   1       9.561 -17.499  17.970  0.00  0.00     0.011 C 
ATOM    163  H51 GLN d   1       8.462 -17.444  17.971  0.00  0.00     0.047 H 
ATOM    164  H52 GLN d   1       9.893 -18.226  18.726  0.00  0.00     0.047 H 
BRANCH 162 165
ATOM    165  CD  GLN d   1      10.021 -17.975  16.605  0.00  0.00     0.215 C 
ATOM    166  OE1 GLN d   1      11.106 -17.621  16.144  0.00  0.00    -0.274 OA
ATOM    167  NE2 GLN d   1       9.195 -18.785  15.952  0.00  0.00    -0.370 N 
ATOM    168  H53 GLN d   1       9.445 -19.131  15.048  0.00  0.00     0.159 HD
ATOM    169  H54 GLN d   1       8.323 -19.049  16.365  0.00  0.00     0.159 HD
ENDBRANCH 162 165
ENDBRANCH 159 162
ENDBRANCH   1 159
TORSDOF 50
