REMARK  8 active torsions:
REMARK  status: ('A' for Active; 'I' for Inactive)
REMARK    1  A    between atoms: C03_16  and  C10_1 
REMARK    2  A    between atoms: C10_1  and  O11_17 
REMARK    3  A    between atoms: O12_13  and  C13_2 
REMARK    4  A    between atoms: N19_8  and  C20_5 
REMARK    5  A    between atoms: N19_8  and  C21_6 
REMARK    6  A    between atoms: C02_14  and  O12_13 
REMARK    7  A    between atoms: C02_14  and  C03_16 
REMARK    8  A    between atoms: C03_16  and  C04_18 
ROOT
ATOM      1  C13 3C0 d   1     181.593  26.645 526.135  0.00  0.00     0.052 C 
ATOM      2  C15 3C0 d   1     181.087  29.107 525.572  0.00  0.00     0.135 C 
ATOM      3  C17 3C0 d   1     182.542  29.105 527.490  0.00  0.00     0.094 A 
ATOM      4  C22 3C0 d   1     181.105  28.586 527.755  0.00  0.00     0.135 C 
ATOM      5  N19 3C0 d   1     180.260  29.296 526.774  0.00  0.00    -0.061 N 
ATOM      6  C14 3C0 d   1     181.042  27.638 525.091  0.00  0.00    -0.011 C 
ATOM      7  C16 3C0 d   1     182.529  29.466 526.027  0.00  0.00     0.094 A 
ATOM      8  O18 3C0 d   1     182.776  30.480 527.053  0.00  0.00    -0.371 OA
ATOM      9  C23 3C0 d   1     181.087  27.061 527.537  0.00  0.00    -0.011 C 
ATOM     10  H3  3C0 d   1     181.178  25.650 525.915  0.00  0.00     0.084 H 
ATOM     11  H4  3C0 d   1     180.753  29.772 524.762  0.00  0.00     0.089 H 
ATOM     12  H5  3C0 d   1     183.322  28.540 528.021  0.00  0.00     0.090 H 
ATOM     13  H12 3C0 d   1     180.781  28.818 528.780  0.00  0.00     0.089 H 
ATOM     14  H13 3C0 d   1     179.997  27.373 524.872  0.00  0.00     0.040 H 
ATOM     15  H14 3C0 d   1     181.642  27.551 524.173  0.00  0.00     0.040 H 
ATOM     16  H15 3C0 d   1     183.300  29.221 525.282  0.00  0.00     0.090 H 
ATOM     17  H16 3C0 d   1     181.730  26.591 528.296  0.00  0.00     0.040 H 
ATOM     18  H17 3C0 d   1     180.054  26.702 527.658  0.00  0.00     0.040 H 
ENDROOT
BRANCH   1  19
ATOM     19  O12 3C0 d   1     183.037  26.539 526.031  0.00  0.00    -0.315 OA
BRANCH  19  20
ATOM     20  C02 3C0 d   1     183.613  25.522 526.725  0.00  0.00     0.270 C 
ATOM     21  O01 3C0 d   1     183.001  24.610 527.281  0.00  0.00    -0.264 OA
BRANCH  20  22
ATOM     22  C03 3C0 d   1     185.143  25.582 526.741  0.00  0.00     0.076 C 
ATOM     23  H18 3C0 d   1     185.494  25.949 525.765  0.00  0.00     0.066 H 
BRANCH  22  24
ATOM     24  C10 3C0 d   1     185.728  24.189 526.979  0.00  0.00     0.033 C 
ATOM     25  H1  3C0 d   1     185.334  23.781 527.922  0.00  0.00     0.075 H 
ATOM     26  H2  3C0 d   1     186.824  24.256 527.038  0.00  0.00     0.075 H 
BRANCH  24  27
ATOM     27  O11 3C0 d   1     185.358  23.332 525.895  0.00  0.00    -0.400 OA
ATOM     28  H19 3C0 d   1     184.411  23.276 525.846  0.00  0.00     0.209 HD
ENDBRANCH  24  27
ENDBRANCH  22  24
BRANCH  22  29
ATOM     29  C04 3C0 d   1     185.565  26.466 527.731  0.00  0.00    -0.043 A 
ATOM     30  C05 3C0 d   1     186.071  27.710 527.372  0.00  0.00    -0.076 A 
ATOM     31  C06 3C0 d   1     186.492  28.600 528.352  0.00  0.00    -0.082 A 
ATOM     32  H20 3C0 d   1     186.137  27.986 526.326  0.00  0.00     0.084 H 
ATOM     33  C07 3C0 d   1     186.408  28.247 529.693  0.00  0.00    -0.083 A 
ATOM     34  H21 3C0 d   1     186.886  29.570 528.070  0.00  0.00     0.083 H 
ATOM     35  C08 3C0 d   1     185.901  27.003 530.054  0.00  0.00    -0.082 A 
ATOM     36  H22 3C0 d   1     186.738  28.941 530.458  0.00  0.00     0.083 H 
ATOM     37  C09 3C0 d   1     185.479  26.112 529.073  0.00  0.00    -0.076 A 
ATOM     38  H23 3C0 d   1     185.835  26.728 531.100  0.00  0.00     0.083 H 
ATOM     39  H24 3C0 d   1     185.083  25.143 529.354  0.00  0.00     0.084 H 
ENDBRANCH  22  29
ENDBRANCH  20  22
ENDBRANCH  19  20
ENDBRANCH   1  19
BRANCH   5  40
ATOM     40  C20 3C0 d   1     180.001  30.709 527.113  0.00  0.00     0.069 C 
ATOM     41  H6  3C0 d   1     179.379  30.761 528.019  0.00  0.00     0.068 H 
ATOM     42  H7  3C0 d   1     179.474  31.196 526.279  0.00  0.00     0.068 H 
ATOM     43  H8  3C0 d   1     180.956  31.224 527.294  0.00  0.00     0.068 H 
ENDBRANCH   5  40
BRANCH   5  44
ATOM     44  C21 3C0 d   1     178.906  28.738 526.614  0.00  0.00     0.069 C 
ATOM     45  H9  3C0 d   1     178.977  27.671 526.356  0.00  0.00     0.068 H 
ATOM     46  H10 3C0 d   1     178.381  29.275 525.811  0.00  0.00     0.068 H 
ATOM     47  H11 3C0 d   1     178.349  28.851 527.556  0.00  0.00     0.068 H 
ENDBRANCH   5  44
TORSDOF 8
