REMARK WARNING: 32 MAX_TORS EXCEEDED!!!
REMARK  40 active torsions:
REMARK  status: ('A' for Active; 'I' for Inactive)
REMARK    1  A    between atoms: N_1  and  CA_2 
REMARK    2  A    between atoms: CA_2  and  C_3 
REMARK    3  A    between atoms: CA_2  and  CB_5 
REMARK       I    between atoms: C_3  and  N_10 
REMARK    4  A    between atoms: CB_5  and  CG_6 
REMARK    5  A    between atoms: CG_6  and  CD_7 
REMARK       I    between atoms: CD_7  and  NE2_9 
REMARK    6  A    between atoms: N_10  and  CA_11 
REMARK    7  A    between atoms: CA_11  and  C_12 
REMARK    8  A    between atoms: CA_11  and  CB_14 
REMARK       I    between atoms: C_12  and  N_17 
REMARK    9  A    between atoms: CB_14  and  OG1_15 
REMARK   10  A    between atoms: CB_14  and  CG2_16 
REMARK   11  A    between atoms: N_17  and  CA_18 
REMARK   12  A    between atoms: CA_18  and  C_19 
REMARK   13  A    between atoms: CA_18  and  CB_21 
REMARK       I    between atoms: C_19  and  N_25 
REMARK   14  A    between atoms: CB_21  and  CG_22 
REMARK   15  A    between atoms: CG_22  and  CD1_23 
REMARK   16  A    between atoms: CG_22  and  CD2_24 
REMARK   17  A    between atoms: N_25  and  CA_26 
REMARK   18  A    between atoms: CA_26  and  C_27 
REMARK   19  A    between atoms: CA_26  and  CB_29 
REMARK       I    between atoms: C_27  and  N_33 
REMARK   20  A    between atoms: CB_29  and  CG_30 
REMARK   21  A    between atoms: CG_30  and  CD1_31 
REMARK   22  A    between atoms: CG_30  and  CD2_32 
REMARK   23  A    between atoms: N_33  and  CA_34 
REMARK   24  A    between atoms: CA_34  and  C_35 
REMARK   25  A    between atoms: CA_34  and  CB_37 
REMARK       I    between atoms: C_35  and  N_41 
REMARK   26  A    between atoms: CB_37  and  CG_38 
REMARK   27  A    between atoms: N_41  and  CA_42 
REMARK   28  A    between atoms: CA_42  and  C_43 
REMARK   29  A    between atoms: CA_42  and  CB_45 
REMARK       I    between atoms: C_43  and  N_49 
REMARK   30  A    between atoms: CB_45  and  CG_46 
REMARK   31  A    between atoms: CG_46  and  CD1_47 
REMARK   32  A    between atoms: CG_46  and  CD2_48 
REMARK   33  A    between atoms: N_49  and  CA_50 
REMARK   34  A    between atoms: CA_50  and  C_51 
REMARK   35  A    between atoms: CA_50  and  CB_53 
REMARK       I    between atoms: C_51  and  N_60 
REMARK   36  A    between atoms: CB_53  and  CG_54 
REMARK   37  A    between atoms: N_60  and  CA_61 
REMARK   38  A    between atoms: CA_61  and  C_62 
REMARK   39  A    between atoms: CA_61  and  CB_64 
REMARK   40  A    between atoms: CB_64  and  CG_65 
ROOT
ATOM      1  C   LEU d   1     -39.971 111.745  35.600  0.00  0.00     0.241 C 
ATOM      2  O   LEU d   1     -38.758 111.511  35.609  0.00  0.00    -0.271 OA
ATOM      3  N   ASP d   1     -40.849 110.855  36.106  0.00  0.00    -0.346 N 
ATOM      4  H40 ASP d   1     -41.816 111.089  36.206  0.00  0.00     0.163 HD
ENDROOT
BRANCH   3   5
ATOM      5  CA  ASP d   1     -40.349 109.530  36.508  0.00  0.00     0.098 C 
ATOM      6  H41 ASP d   1     -39.474 109.685  37.156  0.00  0.00     0.088 H 
BRANCH   5   7
ATOM      7  C   ASP d   1     -39.901 108.744  35.288  0.00  0.00     0.241 C 
ATOM      8  O   ASP d   1     -39.043 107.860  35.388  0.00  0.00    -0.271 OA
ATOM      9  N   LEU d   1     -40.494 109.057  34.143  0.00  0.00    -0.346 N 
ATOM     10  H44 LEU d   1     -41.405 109.466  34.200  0.00  0.00     0.163 HD
BRANCH   9  11
ATOM     11  CA  LEU d   1     -39.942 108.860  32.814  0.00  0.00     0.089 C 
ATOM     12  H45 LEU d   1     -40.182 107.844  32.468  0.00  0.00     0.087 H 
BRANCH  11  13
ATOM     13  C   LEU d   1     -38.426 109.020  32.864  0.00  0.00     0.241 C 
ATOM     14  O   LEU d   1     -37.681 108.168  32.362  0.00  0.00    -0.271 OA
ATOM     15  N   PHE d   1     -37.966 110.101  33.500  0.00  0.00    -0.346 N 
ATOM     16  H55 PHE d   1     -38.623 110.726  33.922  0.00  0.00     0.163 HD
BRANCH  15  17
ATOM     17  CA  PHE d   1     -36.544 110.406  33.603  0.00  0.00     0.093 C 
ATOM     18  H56 PHE d   1     -36.043 109.989  32.717  0.00  0.00     0.088 H 
BRANCH  17  19
ATOM     19  C   PHE d   1     -35.896 109.783  34.834  0.00  0.00     0.241 C 
ATOM     20  O   PHE d   1     -34.772 109.273  34.747  0.00  0.00    -0.271 OA
ATOM     21  N   PHE d   1     -36.582 109.793  35.972  0.00  0.00    -0.344 N 
ATOM     22  H64 PHE d   1     -37.416 110.334  36.081  0.00  0.00     0.163 HD
BRANCH  21  23
ATOM     23  CA  PHE d   1     -36.050 108.970  37.053  0.00  0.00     0.100 C 
ATOM     24  H65 PHE d   1     -35.450 108.160  36.614  0.00  0.00     0.090 H 
BRANCH  23  25
ATOM     25  C   PHE d   1     -37.199 108.348  37.843  0.00  0.00     0.197 C 
ATOM     26  O   PHE d   1     -37.173 107.155  38.150  0.00  0.00    -0.646 OA
ATOM     27  OXT PHE d   1     -38.166 109.032  38.183  0.00  0.00    -0.646 OA
ENDBRANCH  23  25
BRANCH  23  28
ATOM     28  CB  PHE d   1     -35.143 109.802  37.967  0.00  0.00    -0.013 C 
ATOM     29  H66 PHE d   1     -34.454 109.122  38.489  0.00  0.00     0.043 H 
ATOM     30  H67 PHE d   1     -35.772 110.323  38.704  0.00  0.00     0.043 H 
BRANCH  28  31
ATOM     31  CG  PHE d   1     -34.333 110.824  37.225  0.00  0.00    -0.056 A 
ATOM     32  CD1 PHE d   1     -33.257 110.438  36.430  0.00  0.00    -0.077 A 
ATOM     33  CE1 PHE d   1     -32.485 111.384  35.777  0.00  0.00    -0.082 A 
ATOM     34  H68 PHE d   1     -33.021 109.386  36.321  0.00  0.00     0.084 H 
ATOM     35  CZ  PHE d   1     -32.769 112.738  35.932  0.00  0.00    -0.083 A 
ATOM     36  H70 PHE d   1     -31.661 111.071  35.146  0.00  0.00     0.083 H 
ATOM     37  CE2 PHE d   1     -33.839 113.134  36.724  0.00  0.00    -0.082 A 
ATOM     38  H72 PHE d   1     -32.156 113.482  35.436  0.00  0.00     0.083 H 
ATOM     39  CD2 PHE d   1     -34.608 112.180  37.371  0.00  0.00    -0.077 A 
ATOM     40  H71 PHE d   1     -34.072 114.187  36.836  0.00  0.00     0.083 H 
ATOM     41  H69 PHE d   1     -35.434 112.494  37.999  0.00  0.00     0.084 H 
ENDBRANCH  28  31
ENDBRANCH  23  28
ENDBRANCH  21  23
ENDBRANCH  17  19
BRANCH  17  42
ATOM     42  CB  PHE d   1     -36.354 111.918  33.593  0.00  0.00    -0.014 C 
ATOM     43  H57 PHE d   1     -35.288 112.139  33.751  0.00  0.00     0.043 H 
ATOM     44  H58 PHE d   1     -36.944 112.351  34.414  0.00  0.00     0.043 H 
BRANCH  42  45
ATOM     45  CG  PHE d   1     -36.788 112.554  32.305  0.00  0.00    -0.056 A 
ATOM     46  CD1 PHE d   1     -36.005 112.456  31.176  0.00  0.00    -0.077 A 
ATOM     47  CE1 PHE d   1     -36.407 113.048  29.995  0.00  0.00    -0.082 A 
ATOM     48  H59 PHE d   1     -35.069 111.911  31.215  0.00  0.00     0.084 H 
ATOM     49  CZ  PHE d   1     -37.619 113.719  29.920  0.00  0.00    -0.083 A 
ATOM     50  H61 PHE d   1     -35.770 112.988  29.120  0.00  0.00     0.083 H 
ATOM     51  CE2 PHE d   1     -38.407 113.809  31.019  0.00  0.00    -0.082 A 
ATOM     52  H63 PHE d   1     -37.934 114.170  28.986  0.00  0.00     0.083 H 
ATOM     53  CD2 PHE d   1     -37.990 113.226  32.217  0.00  0.00    -0.077 A 
ATOM     54  H62 PHE d   1     -39.356 114.331  30.968  0.00  0.00     0.083 H 
ATOM     55  H60 PHE d   1     -38.622 113.303  33.094  0.00  0.00     0.084 H 
ENDBRANCH  42  45
ENDBRANCH  17  42
ENDBRANCH  15  17
ENDBRANCH  11  13
BRANCH  11  56
ATOM     56  CB  LEU d   1     -40.575 109.879  31.851  0.00  0.00    -0.035 C 
ATOM     57  H46 LEU d   1     -40.091 109.725  30.875  0.00  0.00     0.037 H 
ATOM     58  H47 LEU d   1     -40.312 110.875  32.237  0.00  0.00     0.037 H 
BRANCH  56  59
ATOM     59  CG  LEU d   1     -42.094 109.905  31.583  0.00  0.00    -0.059 C 
ATOM     60  H48 LEU d   1     -42.367 108.909  31.206  0.00  0.00     0.038 H 
BRANCH  59  61
ATOM     61  CD1 LEU d   1     -42.918 110.172  32.812  0.00  0.00    -0.073 C 
ATOM     62  H49 LEU d   1     -43.985 110.176  32.544  0.00  0.00     0.028 H 
ATOM     63  H50 LEU d   1     -42.642 111.150  33.233  0.00  0.00     0.028 H 
ATOM     64  H51 LEU d   1     -42.730 109.386  33.558  0.00  0.00     0.028 H 
ENDBRANCH  59  61
BRANCH  59  65
ATOM     65  CD2 LEU d   1     -42.492 110.943  30.514  0.00  0.00    -0.073 C 
ATOM     66  H52 LEU d   1     -41.904 110.772  29.600  0.00  0.00     0.028 H 
ATOM     67  H53 LEU d   1     -42.293 111.956  30.894  0.00  0.00     0.028 H 
ATOM     68  H54 LEU d   1     -43.563 110.841  30.285  0.00  0.00     0.028 H 
ENDBRANCH  59  65
ENDBRANCH  56  59
ENDBRANCH  11  56
ENDBRANCH   9  11
ENDBRANCH   5   7
BRANCH   5  69
ATOM     69  CB  ASP d   1     -41.388 108.729  37.308  0.00  0.00     0.043 C 
ATOM     70  H42 ASP d   1     -41.314 109.020  38.366  0.00  0.00     0.052 H 
ATOM     71  H43 ASP d   1     -41.158 107.658  37.205  0.00  0.00     0.052 H 
BRANCH  69  72
ATOM     72  CG  ASP d   1     -42.815 108.961  36.844  0.00  0.00     0.175 C 
ATOM     73  OD1 ASP d   1     -43.033 109.265  35.657  0.00  0.00    -0.648 OA
ATOM     74  OD2 ASP d   1     -43.734 108.827  37.680  0.00  0.00    -0.648 OA
ENDBRANCH  69  72
ENDBRANCH   5  69
ENDBRANCH   3   5
BRANCH   1  75
ATOM     75  CA  LEU d   1     -40.437 113.111  35.100  0.00  0.00     0.089 C 
ATOM     76  H30 LEU d   1     -39.649 113.489  34.432  0.00  0.00     0.087 H 
BRANCH  75  77
ATOM     77  N   LEU d   1     -41.686 113.153  34.330  0.00  0.00    -0.346 N 
ATOM     78  C   LEU d   1     -41.695 113.322  32.999  0.00  0.00     0.241 C 
ATOM     79  O   LEU d   1     -40.774 112.928  32.288  0.00  0.00    -0.271 OA
ATOM     80  H29 LEU d   1     -42.556 113.053  34.812  0.00  0.00     0.163 HD
BRANCH  78  81
ATOM     81  CA  LEU d   1     -42.934 113.974  32.375  0.00  0.00     0.089 C 
ATOM     82  H19 LEU d   1     -43.033 114.991  32.782  0.00  0.00     0.087 H 
BRANCH  81  83
ATOM     83  N   LEU d   1     -42.731 114.076  30.921  0.00  0.00    -0.346 N 
ATOM     84  C   THR d   1     -43.046 115.172  30.209  0.00  0.00     0.243 C 
ATOM     85  O   THR d   1     -43.701 116.100  30.697  0.00  0.00    -0.271 OA
ATOM     86  H18 LEU d   1     -42.340 113.292  30.439  0.00  0.00     0.163 HD
BRANCH  84  87
ATOM     87  CA  THR d   1     -42.575 115.208  28.748  0.00  0.00     0.113 C 
ATOM     88  H12 THR d   1     -43.039 114.366  28.214  0.00  0.00     0.091 H 
BRANCH  87  89
ATOM     89  N   THR d   1     -42.978 116.454  28.102  0.00  0.00    -0.344 N 
ATOM     90  C   GLN d   1     -44.219 116.836  27.795  0.00  0.00     0.249 C 
ATOM     91  O   GLN d   1     -45.227 116.157  28.018  0.00  0.00    -0.271 OA
ATOM     92  H11 THR d   1     -42.244 117.090  27.864  0.00  0.00     0.163 HD
BRANCH  90  93
ATOM     93  CA  GLN d   1     -44.333 118.217  27.144  0.00  0.00     0.176 C 
ATOM     94  H4  GLN d   1     -43.353 118.711  27.223  0.00  0.00     0.099 H 
BRANCH  93  95
ATOM     95  N   GLN d   1     -44.681 118.142  25.723  0.00  0.00    -0.066 N 
ATOM     96  H1  GLN d   1     -44.744 119.073  25.343  0.00  0.00     0.275 HD
ATOM     97  H2  GLN d   1     -45.569 117.676  25.619  0.00  0.00     0.275 HD
ATOM     98  H3  GLN d   1     -43.970 117.625  25.230  0.00  0.00     0.275 HD
ENDBRANCH  93  95
BRANCH  93  99
ATOM     99  CB  GLN d   1     -45.360 119.058  27.907  0.00  0.00    -0.022 C 
ATOM    100  H5  GLN d   1     -46.355 118.613  27.755  0.00  0.00     0.037 H 
ATOM    101  H6  GLN d   1     -45.348 120.078  27.496  0.00  0.00     0.037 H 
BRANCH  99 102
ATOM    102  CG  GLN d   1     -45.092 119.140  29.410  0.00  0.00     0.011 C 
ATOM    103  H7  GLN d   1     -45.095 118.121  29.824  0.00  0.00     0.047 H 
ATOM    104  H8  GLN d   1     -45.894 119.729  29.879  0.00  0.00     0.047 H 
BRANCH 102 105
ATOM    105  CD  GLN d   1     -43.746 119.798  29.734  0.00  0.00     0.215 C 
ATOM    106  OE1 GLN d   1     -43.640 121.029  29.767  0.00  0.00    -0.274 OA
ATOM    107  NE2 GLN d   1     -42.715 118.975  29.979  0.00  0.00    -0.370 N 
ATOM    108  H9  GLN d   1     -41.815 119.352  30.196  0.00  0.00     0.159 HD
ATOM    109  H10 GLN d   1     -42.847 117.984  29.945  0.00  0.00     0.159 HD
ENDBRANCH 102 105
ENDBRANCH  99 102
ENDBRANCH  93  99
ENDBRANCH  90  93
ENDBRANCH  87  89
BRANCH  87 110
ATOM    110  CB  THR d   1     -41.057 115.070  28.656  0.00  0.00     0.060 C 
ATOM    111  H13 THR d   1     -40.732 114.169  29.197  0.00  0.00     0.086 H 
BRANCH 110 112
ATOM    112  OG1 THR d   1     -40.452 116.236  29.222  0.00  0.00    -0.393 OA
ATOM    113  H14 THR d   1     -40.735 117.004  28.740  0.00  0.00     0.210 HD
ENDBRANCH 110 112
BRANCH 110 114
ATOM    114  CG2 THR d   1     -40.619 114.992  27.201  0.00  0.00    -0.050 C 
ATOM    115  H15 THR d   1     -39.525 114.893  27.152  0.00  0.00     0.031 H 
ATOM    116  H16 THR d   1     -40.928 115.908  26.675  0.00  0.00     0.031 H 
ATOM    117  H17 THR d   1     -41.088 114.119  26.723  0.00  0.00     0.031 H 
ENDBRANCH 110 114
ENDBRANCH  87 110
ENDBRANCH  84  87
ENDBRANCH  81  83
BRANCH  81 118
ATOM    118  CB  LEU d   1     -44.216 113.204  32.724  0.00  0.00    -0.035 C 
ATOM    119  H20 LEU d   1     -44.496 113.501  33.745  0.00  0.00     0.037 H 
ATOM    120  H21 LEU d   1     -43.957 112.135  32.711  0.00  0.00     0.037 H 
BRANCH 118 121
ATOM    121  CG  LEU d   1     -45.464 113.364  31.863  0.00  0.00    -0.059 C 
ATOM    122  H22 LEU d   1     -45.157 113.362  30.807  0.00  0.00     0.038 H 
BRANCH 121 123
ATOM    123  CD1 LEU d   1     -46.456 112.195  32.070  0.00  0.00    -0.073 C 
ATOM    124  H23 LEU d   1     -47.340 112.347  31.433  0.00  0.00     0.028 H 
ATOM    125  H24 LEU d   1     -46.766 112.159  33.125  0.00  0.00     0.028 H 
ATOM    126  H25 LEU d   1     -45.968 111.247  31.799  0.00  0.00     0.028 H 
ENDBRANCH 121 123
BRANCH 121 127
ATOM    127  CD2 LEU d   1     -46.114 114.709  32.170  0.00  0.00    -0.073 C 
ATOM    128  H26 LEU d   1     -45.382 115.515  32.013  0.00  0.00     0.028 H 
ATOM    129  H27 LEU d   1     -46.454 114.722  33.216  0.00  0.00     0.028 H 
ATOM    130  H28 LEU d   1     -46.975 114.861  31.503  0.00  0.00     0.028 H 
ENDBRANCH 121 127
ENDBRANCH 118 121
ENDBRANCH  81 118
ENDBRANCH  78  81
ENDBRANCH  75  77
BRANCH  75 131
ATOM    131  CB  LEU d   1     -40.531 114.052  36.308  0.00  0.00    -0.035 C 
ATOM    132  H31 LEU d   1     -40.209 113.499  37.202  0.00  0.00     0.037 H 
ATOM    133  H32 LEU d   1     -41.581 114.359  36.425  0.00  0.00     0.037 H 
BRANCH 131 134
ATOM    134  CG  LEU d   1     -39.674 115.311  36.189  0.00  0.00    -0.059 C 
ATOM    135  H33 LEU d   1     -40.122 115.977  35.437  0.00  0.00     0.038 H 
BRANCH 134 136
ATOM    136  CD1 LEU d   1     -39.651 116.015  37.514  0.00  0.00    -0.073 C 
ATOM    137  H34 LEU d   1     -39.035 116.923  37.436  0.00  0.00     0.028 H 
ATOM    138  H35 LEU d   1     -39.224 115.347  38.277  0.00  0.00     0.028 H 
ATOM    139  H36 LEU d   1     -40.677 116.291  37.801  0.00  0.00     0.028 H 
ENDBRANCH 134 136
BRANCH 134 140
ATOM    140  CD2 LEU d   1     -38.263 114.969  35.754  0.00  0.00    -0.073 C 
ATOM    141  H37 LEU d   1     -38.294 114.454  34.782  0.00  0.00     0.028 H 
ATOM    142  H38 LEU d   1     -37.797 114.312  36.503  0.00  0.00     0.028 H 
ATOM    143  H39 LEU d   1     -37.674 115.893  35.661  0.00  0.00     0.028 H 
ENDBRANCH 134 140
ENDBRANCH 131 134
ENDBRANCH  75 131
ENDBRANCH   1  75
TORSDOF 40
