REMARK  7 active torsions:
REMARK  status: ('A' for Active; 'I' for Inactive)
REMARK    1  A    between atoms: C2_2  and  C1_1 
REMARK       I    between atoms: N4_25  and  C2_2 
REMARK    2  A    between atoms: C5_3  and  N4_25 
REMARK    3  A    between atoms: S9_31  and  C8_6 
REMARK    4  A    between atoms: N12_26  and  C13_7 
REMARK    5  A    between atoms: C16_10  and  O17_30 
REMARK    6  A    between atoms: O17_30  and  C18_11 
REMARK    7  A    between atoms: N12_26  and  S9_31 
ROOT
ATOM      1  C13 8U0 d   1     -46.392 -28.727  19.441  0.00  0.00     0.042 A 
ATOM      2  C14 8U0 d   1     -46.589 -29.292  18.186  0.00  0.00    -0.054 A 
ATOM      3  C15 8U0 d   1     -47.736 -30.046  17.973  0.00  0.00    -0.048 A 
ATOM      4  C16 8U0 d   1     -48.668 -30.212  19.000  0.00  0.00     0.076 A 
ATOM      5  C28 8U0 d   1     -48.452 -29.653  20.252  0.00  0.00    -0.048 A 
ATOM      6  C29 8U0 d   1     -47.316 -28.901  20.463  0.00  0.00    -0.054 A 
ATOM      7  H6  8U0 d   1     -45.865 -29.148  17.393  0.00  0.00     0.087 H 
ATOM      8  H7  8U0 d   1     -47.908 -30.507  17.007  0.00  0.00     0.087 H 
ATOM      9  H15 8U0 d   1     -49.167 -29.806  21.053  0.00  0.00     0.087 H 
ATOM     10  H16 8U0 d   1     -47.143 -28.444  21.430  0.00  0.00     0.087 H 
ENDROOT
BRANCH   1  11
ATOM     11  N12 8U0 d   1     -45.243 -27.942  19.692  0.00  0.00    -0.281 N 
ATOM     12  H20 8U0 d   1     -44.482 -28.305  20.230  0.00  0.00     0.179 HD
BRANCH  11  13
ATOM     13  S9  8U0 d   1     -45.188 -26.412  19.076  0.00  0.00     0.263 S 
ATOM     14  O10 8U0 d   1     -45.525 -26.461  17.672  0.00  0.00    -0.200 OA
ATOM     15  O11 8U0 d   1     -43.818 -25.963  19.044  0.00  0.00    -0.200 OA
BRANCH  13  16
ATOM     16  C8  8U0 d   1     -46.196 -25.214  19.924  0.00  0.00     0.080 A 
ATOM     17  C7  8U0 d   1     -45.700 -24.488  21.005  0.00  0.00    -0.058 A 
ATOM     18  C6  8U0 d   1     -46.509 -23.552  21.647  0.00  0.00    -0.056 A 
ATOM     19  H5  8U0 d   1     -44.684 -24.651  21.347  0.00  0.00     0.086 H 
ATOM     20  C5  8U0 d   1     -47.817 -23.334  21.204  0.00  0.00     0.034 A 
ATOM     21  H4  8U0 d   1     -46.123 -22.992  22.491  0.00  0.00     0.087 H 
ATOM     22  C31 8U0 d   1     -48.297 -24.052  20.118  0.00  0.00    -0.056 A 
ATOM     23  C30 8U0 d   1     -47.493 -24.986  19.480  0.00  0.00    -0.058 A 
ATOM     24  H18 8U0 d   1     -49.308 -23.882  19.765  0.00  0.00     0.087 H 
ATOM     25  H17 8U0 d   1     -47.878 -25.540  18.632  0.00  0.00     0.086 H 
BRANCH  20  26
ATOM     26  N4  8U0 d   1     -48.705 -22.387  21.801  0.00  0.00    -0.328 N 
ATOM     27  C2  8U0 d   1     -48.727 -22.034  23.181  0.00  0.00     0.218 C 
ATOM     28  O3  8U0 d   1     -47.953 -22.512  23.998  0.00  0.00    -0.274 OA
ATOM     29  H19 8U0 d   1     -49.365 -21.935  21.201  0.00  0.00     0.169 HD
BRANCH  27  30
ATOM     30  C1  8U0 d   1     -49.756 -21.022  23.634  0.00  0.00    -0.003 C 
ATOM     31  H1  8U0 d   1     -49.652 -20.852  24.716  0.00  0.00     0.040 H 
ATOM     32  H2  8U0 d   1     -50.765 -21.403  23.419  0.00  0.00     0.040 H 
ATOM     33  H3  8U0 d   1     -49.600 -20.075  23.097  0.00  0.00     0.040 H 
ENDBRANCH  27  30
ENDBRANCH  20  26
ENDBRANCH  13  16
ENDBRANCH  11  13
ENDBRANCH   1  11
BRANCH   4  34
ATOM     34  O17 8U0 d   1     -49.825 -30.979  18.764  0.00  0.00    -0.311 OA
BRANCH  34  35
ATOM     35  C18 8U0 d   1     -50.947 -30.155  18.578  0.00  0.00     0.076 A 
ATOM     36  C19 8U0 d   1     -50.811 -28.777  18.420  0.00  0.00    -0.049 A 
ATOM     37  C20 8U0 d   1     -51.914 -27.965  18.242  0.00  0.00    -0.070 A 
ATOM     38  H8  8U0 d   1     -49.822 -28.334  18.437  0.00  0.00     0.087 H 
ATOM     39  C21 8U0 d   1     -53.171 -28.549  18.218  0.00  0.00    -0.026 A 
ATOM     40  H9  8U0 d   1     -51.799 -26.894  18.124  0.00  0.00     0.085 H 
ATOM     41  C22 8U0 d   1     -54.284 -27.728  18.036  0.00  0.00    -0.072 A 
ATOM     42  C26 8U0 d   1     -53.310 -29.930  18.376  0.00  0.00    -0.023 A 
ATOM     43  C23 8U0 d   1     -55.544 -28.312  18.011  0.00  0.00    -0.082 A 
ATOM     44  H10 8U0 d   1     -54.168 -26.657  17.917  0.00  0.00     0.084 H 
ATOM     45  C24 8U0 d   1     -55.680 -29.697  18.167  0.00  0.00    -0.082 A 
ATOM     46  H11 8U0 d   1     -56.424 -27.695  17.870  0.00  0.00     0.083 H 
ATOM     47  C25 8U0 d   1     -54.565 -30.516  18.352  0.00  0.00    -0.072 A 
ATOM     48  H12 8U0 d   1     -56.669 -30.141  18.144  0.00  0.00     0.083 H 
ATOM     49  H13 8U0 d   1     -54.679 -31.587  18.474  0.00  0.00     0.084 H 
ATOM     50  C27 8U0 d   1     -52.204 -30.740  18.553  0.00  0.00    -0.040 A 
ATOM     51  H14 8U0 d   1     -52.317 -31.812  18.670  0.00  0.00     0.089 H 
ENDBRANCH  34  35
ENDBRANCH   4  34
TORSDOF 7
