REMARK  3 active torsions:
REMARK  status: ('A' for Active; 'I' for Inactive)
REMARK    1  A    between atoms: C1_1  and  S2_2 
REMARK    2  A    between atoms: S2_2  and  N3_3 
REMARK    3  A    between atoms: N3_3  and  C4_4 
ROOT
ATOM      1  C4  8U3 d   1     -46.133 -27.027  19.207  0.00  0.00     0.045 A 
ATOM      2  C5  8U3 d   1     -46.256 -27.555  17.924  0.00  0.00    -0.016 A 
ATOM      3  C6  8U3 d   1     -47.297 -28.446  17.663  0.00  0.00     0.157 A 
ATOM      4  F7  8U3 d   1     -47.465 -28.968  16.440  0.00  0.00    -0.203 F 
ATOM      5  C8  8U3 d   1     -48.175 -28.812  18.667  0.00  0.00     0.154 A 
ATOM      6  F9  8U3 d   1     -49.160 -29.671  18.381  0.00  0.00    -0.203 F 
ATOM      7  C10 8U3 d   1     -48.047 -28.298  19.951  0.00  0.00    -0.040 A 
ATOM      8  C11 8U3 d   1     -47.017 -27.406  20.216  0.00  0.00    -0.053 A 
ATOM      9  H5  8U3 d   1     -45.556 -27.279  17.143  0.00  0.00     0.091 H 
ATOM     10  H6  8U3 d   1     -48.740 -28.588  20.733  0.00  0.00     0.088 H 
ATOM     11  H7  8U3 d   1     -46.899 -27.001  21.215  0.00  0.00     0.087 H 
ENDROOT
BRANCH   1  12
ATOM     12  N3  8U3 d   1     -45.080 -26.133  19.529  0.00  0.00    -0.285 N 
ATOM     13  H4  8U3 d   1     -44.396 -26.415  20.202  0.00  0.00     0.178 HD
BRANCH  12  14
ATOM     14  S2  8U3 d   1     -44.947 -24.658  18.838  0.00  0.00     0.227 S 
ATOM     15  O12 8U3 d   1     -43.602 -24.186  18.964  0.00  0.00    -0.206 OA
ATOM     16  O13 8U3 d   1     -45.211 -24.734  17.423  0.00  0.00    -0.206 OA
BRANCH  14  17
ATOM     17  C1  8U3 d   1     -46.023 -23.510  19.653  0.00  0.00     0.033 C 
ATOM     18  H1  8U3 d   1     -45.928 -22.520  19.182  0.00  0.00     0.051 H 
ATOM     19  H2  8U3 d   1     -45.746 -23.439  20.715  0.00  0.00     0.051 H 
ATOM     20  H3  8U3 d   1     -47.063 -23.858  19.567  0.00  0.00     0.051 H 
ENDBRANCH  14  17
ENDBRANCH  12  14
ENDBRANCH   1  12
TORSDOF 3
