REMARK  7 active torsions:
REMARK  status: ('A' for Active; 'I' for Inactive)
REMARK    1  A    between atoms: N2_13  and  C14_2 
REMARK    2  A    between atoms: C11_5  and  O1_18 
REMARK    3  A    between atoms: O1_18  and  C9_8 
REMARK    4  A    between atoms: S1_22  and  N2_13 
REMARK    5  A    between atoms: C21_26  and  N3_15 
REMARK       I    between atoms: N3_15  and  C24_31 
REMARK    6  A    between atoms: C18_23  and  S1_22 
REMARK    7  A    between atoms: C24_31  and  C25_32 
ROOT
ATOM      1  C14 8U6 d   1     -46.191 -26.779  19.674  0.00  0.00     0.044 A 
ATOM      2  C11 8U6 d   1     -48.415 -28.402  19.272  0.00  0.00     0.097 A 
ATOM      3  C12 8U6 d   1     -48.163 -27.857  20.515  0.00  0.00    -0.047 A 
ATOM      4  C13 8U6 d   1     -47.056 -27.054  20.716  0.00  0.00    -0.054 A 
ATOM      5  N1  8U6 d   1     -47.891 -29.238  15.917  0.00  0.00    -0.191 NA
ATOM      6  C15 8U6 d   1     -46.428 -27.313  18.414  0.00  0.00    -0.034 A 
ATOM      7  C16 8U6 d   1     -47.539 -28.124  18.205  0.00  0.00     0.080 A 
ATOM      8  C17 8U6 d   1     -47.758 -28.706  16.914  0.00  0.00     0.102 C 
ATOM      9  H5  8U6 d   1     -48.838 -28.060  21.339  0.00  0.00     0.087 H 
ATOM     10  H6  8U6 d   1     -46.865 -26.637  21.698  0.00  0.00     0.087 H 
ATOM     11  H12 8U6 d   1     -45.750 -27.099  17.596  0.00  0.00     0.089 H 
ENDROOT
BRANCH   2  12
ATOM     12  O1  8U6 d   1     -49.509 -29.224  19.011  0.00  0.00    -0.309 OA
BRANCH  12  13
ATOM     13  C9  8U6 d   1     -50.773 -28.648  18.888  0.00  0.00     0.077 A 
ATOM     14  C8  8U6 d   1     -50.816 -27.262  18.725  0.00  0.00    -0.049 A 
ATOM     15  C7  8U6 d   1     -52.016 -26.636  18.605  0.00  0.00    -0.070 A 
ATOM     16  H3  8U6 d   1     -49.897 -26.688  18.694  0.00  0.00     0.087 H 
ATOM     17  C5  8U6 d   1     -53.228 -27.357  18.637  0.00  0.00    -0.026 A 
ATOM     18  H2  8U6 d   1     -52.042 -25.559  18.482  0.00  0.00     0.085 H 
ATOM     19  C4  8U6 d   1     -54.497 -26.728  18.508  0.00  0.00    -0.072 A 
ATOM     20  C6  8U6 d   1     -53.176 -28.766  18.801  0.00  0.00    -0.023 A 
ATOM     21  C3  8U6 d   1     -55.640 -27.460  18.540  0.00  0.00    -0.082 A 
ATOM     22  H1  8U6 d   1     -54.552 -25.653  18.383  0.00  0.00     0.084 H 
ATOM     23  C2  8U6 d   1     -55.587 -28.853  18.702  0.00  0.00    -0.082 A 
ATOM     24  H8  8U6 d   1     -56.599 -26.965  18.440  0.00  0.00     0.083 H 
ATOM     25  C1  8U6 d   1     -54.392 -29.488  18.831  0.00  0.00    -0.072 A 
ATOM     26  H11 8U6 d   1     -56.506 -29.427  18.724  0.00  0.00     0.083 H 
ATOM     27  H10 8U6 d   1     -54.371 -30.564  18.959  0.00  0.00     0.084 H 
ATOM     28  C10 8U6 d   1     -51.913 -29.396  18.930  0.00  0.00    -0.040 A 
ATOM     29  H4  8U6 d   1     -51.853 -30.470  19.062  0.00  0.00     0.089 H 
ENDBRANCH  12  13
ENDBRANCH   2  12
BRANCH   1  30
ATOM     30  N2  8U6 d   1     -45.050 -25.948  19.861  0.00  0.00    -0.281 N 
ATOM     31  H7  8U6 d   1     -44.344 -26.233  20.509  0.00  0.00     0.179 HD
BRANCH  30  32
ATOM     32  S1  8U6 d   1     -44.860 -24.547  19.051  0.00  0.00     0.263 S 
ATOM     33  O2  8U6 d   1     -43.550 -24.048  19.347  0.00  0.00    -0.200 OA
ATOM     34  O3  8U6 d   1     -45.232 -24.780  17.691  0.00  0.00    -0.200 OA
BRANCH  32  35
ATOM     35  C18 8U6 d   1     -46.024 -23.439  19.756  0.00  0.00     0.080 A 
ATOM     36  C19 8U6 d   1     -45.637 -22.572  20.769  0.00  0.00    -0.058 A 
ATOM     37  C20 8U6 d   1     -46.561 -21.701  21.312  0.00  0.00    -0.056 A 
ATOM     38  H13 8U6 d   1     -44.615 -22.579  21.132  0.00  0.00     0.086 H 
ATOM     39  C21 8U6 d   1     -47.879 -21.700  20.860  0.00  0.00     0.034 A 
ATOM     40  H14 8U6 d   1     -46.259 -21.014  22.094  0.00  0.00     0.087 H 
ATOM     41  C22 8U6 d   1     -48.256 -22.579  19.851  0.00  0.00    -0.056 A 
ATOM     42  C23 8U6 d   1     -47.334 -23.444  19.301  0.00  0.00    -0.058 A 
ATOM     43  H15 8U6 d   1     -49.280 -22.584  19.495  0.00  0.00     0.087 H 
ATOM     44  H16 8U6 d   1     -47.633 -24.127  18.514  0.00  0.00     0.086 H 
BRANCH  39  45
ATOM     45  N3  8U6 d   1     -48.885 -20.842  21.369  0.00  0.00    -0.328 N 
ATOM     46  C24 8U6 d   1     -48.837 -19.996  22.424  0.00  0.00     0.218 C 
ATOM     47  O4  8U6 d   1     -47.882 -19.921  23.190  0.00  0.00    -0.274 OA
ATOM     48  H9  8U6 d   1     -49.756 -20.865  20.878  0.00  0.00     0.169 HD
BRANCH  46  49
ATOM     49  C25 8U6 d   1     -50.063 -19.147  22.607  0.00  0.00    -0.003 C 
ATOM     50  H17 8U6 d   1     -49.931 -18.496  23.484  0.00  0.00     0.040 H 
ATOM     51  H18 8U6 d   1     -50.938 -19.795  22.760  0.00  0.00     0.040 H 
ATOM     52  H19 8U6 d   1     -50.217 -18.528  21.711  0.00  0.00     0.040 H 
ENDBRANCH  46  49
ENDBRANCH  39  45
ENDBRANCH  32  35
ENDBRANCH  30  32
ENDBRANCH   1  30
TORSDOF 7
