REMARK  7 active torsions:
REMARK  status: ('A' for Active; 'I' for Inactive)
REMARK    1  A    between atoms: C06_4  and  C02_2 
REMARK    2  A    between atoms: C07_5  and  C06_4 
REMARK    3  A    between atoms: C07_5  and  C08_6 
REMARK    4  A    between atoms: N11_12  and  C07_5 
REMARK    5  A    between atoms: C12_7  and  C14_8 
REMARK       I    between atoms: C12_7  and  N11_12 
REMARK    6  A    between atoms: C14_8  and  C15_9 
REMARK    7  A    between atoms: C15_9  and  N16_13 
ROOT
ATOM      1  C07 8V0 d   1     -42.665  46.236  -4.545  0.00  0.00     0.101 C 
ATOM      2  H5  8V0 d   1     -43.365  46.884  -3.997  0.00  0.00     0.090 H 
ENDROOT
BRANCH   1   3
ATOM      3  C06 8V0 d   1     -41.376  47.071  -4.670  0.00  0.00     0.003 C 
ATOM      4  H3  8V0 d   1     -41.645  47.980  -5.228  0.00  0.00     0.046 H 
ATOM      5  H4  8V0 d   1     -41.078  47.343  -3.647  0.00  0.00     0.046 H 
BRANCH   3   6
ATOM      6  C02 8V0 d   1     -40.136  46.498  -5.345  0.00  0.00     0.030 A 
ATOM      7  C01 8V0 d   1     -39.609  45.220  -5.209  0.00  0.00     0.025 A 
ATOM      8  N05 8V0 d   1     -38.524  45.189  -5.985  0.00  0.00    -0.254 NA
ATOM      9  H1  8V0 d   1     -40.001  44.410  -4.595  0.00  0.00     0.117 H 
ATOM     10  C04 8V0 d   1     -38.365  46.372  -6.564  0.00  0.00     0.063 A 
ATOM     11  N03 8V0 d   1     -39.348  47.180  -6.180  0.00  0.00    -0.353 N 
ATOM     12  H2  8V0 d   1     -37.558  46.639  -7.245  0.00  0.00     0.143 H 
ATOM     13  H10 8V0 d   1     -39.479  48.158  -6.474  0.00  0.00     0.166 HD
ENDBRANCH   3   6
ENDBRANCH   1   3
BRANCH   1  14
ATOM     14  C08 8V0 d   1     -43.429  45.863  -5.839  0.00  0.00     0.197 C 
ATOM     15  O09 8V0 d   1     -44.044  44.766  -5.913  0.00  0.00    -0.646 OA
ATOM     16  O10 8V0 d   1     -43.507  46.652  -6.823  0.00  0.00    -0.646 OA
ENDBRANCH   1  14
BRANCH   1  17
ATOM     17  N11 8V0 d   1     -42.430  45.091  -3.686  0.00  0.00    -0.346 N 
ATOM     18  C12 8V0 d   1     -43.417  44.944  -2.638  0.00  0.00     0.220 C 
ATOM     19  O13 8V0 d   1     -44.303  45.744  -2.599  0.00  0.00    -0.274 OA
ATOM     20  H11 8V0 d   1     -41.660  44.464  -3.806  0.00  0.00     0.163 HD
BRANCH  18  21
ATOM     21  C14 8V0 d   1     -43.311  43.778  -1.642  0.00  0.00     0.031 C 
ATOM     22  H6  8V0 d   1     -42.253  43.677  -1.357  0.00  0.00     0.049 H 
ATOM     23  H7  8V0 d   1     -43.640  42.865  -2.160  0.00  0.00     0.049 H 
BRANCH  21  24
ATOM     24  C15 8V0 d   1     -44.129  43.903  -0.355  0.00  0.00     0.087 C 
ATOM     25  H8  8V0 d   1     -45.115  44.331  -0.586  0.00  0.00     0.075 H 
ATOM     26  H9  8V0 d   1     -43.602  44.558   0.354  0.00  0.00     0.075 H 
BRANCH  24  27
ATOM     27  N16 8V0 d   1     -44.297  42.588   0.233  0.00  0.00    -0.079 N 
ATOM     28  H12 8V0 d   1     -44.836  42.666   1.081  0.00  0.00     0.274 HD
ATOM     29  H13 8V0 d   1     -43.392  42.196   0.444  0.00  0.00     0.274 HD
ATOM     30  H14 8V0 d   1     -44.780  41.988  -0.418  0.00  0.00     0.274 HD
ENDBRANCH  24  27
ENDBRANCH  21  24
ENDBRANCH  18  21
ENDBRANCH   1  17
TORSDOF 7
