REMARK  8 active torsions:
REMARK  status: ('A' for Active; 'I' for Inactive)
REMARK    1  A    between atoms: C4_1  and  C14_2 
REMARK    2  A    between atoms: C16_8  and  C4_1 
REMARK    3  A    between atoms: C14_2  and  C15_7 
REMARK    4  A    between atoms: C14_2  and  C22_31 
REMARK    5  A    between atoms: C10_17  and  C13_6 
REMARK    6  A    between atoms: N23_27  and  C19_10 
REMARK    7  A    between atoms: C29_21  and  C31_19 
REMARK    8  A    between atoms: C26_22  and  C29_21 
ROOT
ATOM      1  C4  8UO d   1      20.782  14.339  97.093  0.00  0.00     0.047 C 
ATOM      2  C5  8UO d   1      21.045  13.926  95.684  0.00  0.00     0.036 A 
ATOM      3  C6  8UO d   1      21.315  12.549  95.281  0.00  0.00     0.175 A 
ATOM      4  C8  8UO d   1      20.040  13.327  99.126  0.00  0.00     0.073 C 
ATOM      5  N11 8UO d   1      21.408  13.712  93.460  0.00  0.00    -0.177 NA
ATOM      6  C2  8UO d   1      20.770  11.844  97.543  0.00  0.00     0.160 C 
ATOM      7  N7  8UO d   1      20.559  10.766  98.297  0.00  0.00    -0.280 NA
ATOM      8  C3  8UO d   1      20.497  13.112  97.961  0.00  0.00     0.109 C 
ATOM      9  O1  8UO d   1      21.316  11.566  96.226  0.00  0.00    -0.276 OA
ATOM     10  C10 8UO d   1      21.134  14.653  94.387  0.00  0.00     0.062 A 
ATOM     11  N9  8UO d   1      19.622  13.519 100.196  0.00  0.00    -0.196 NA
ATOM     12  N12 8UO d   1      21.526  12.400  93.962  0.00  0.00    -0.256 N 
ATOM     13  H9  8UO d   1      20.779   9.850  97.939  0.00  0.00     0.189 HD
ATOM     14  H10 8UO d   1      19.480  13.033  97.549  0.00  0.00     0.078 H 
ATOM     15  H27 8UO d   1      21.726  11.534  93.442  0.00  0.00     0.191 HD
ENDROOT
BRANCH   1  16
ATOM     16  C14 8UO d   1      22.111  14.948  97.660  0.00  0.00    -0.044 C 
ATOM     17  H1  8UO d   1      21.898  15.120  98.725  0.00  0.00     0.041 H 
BRANCH  16  18
ATOM     18  C15 8UO d   1      22.511  16.322  97.089  0.00  0.00    -0.072 C 
ATOM     19  H5  8UO d   1      23.452  16.652  97.553  0.00  0.00     0.028 H 
ATOM     20  H6  8UO d   1      21.719  17.054  97.305  0.00  0.00     0.028 H 
ATOM     21  H7  8UO d   1      22.648  16.241  96.001  0.00  0.00     0.028 H 
ENDBRANCH  16  18
BRANCH  16  22
ATOM     22  C22 8UO d   1      23.347  14.017  97.629  0.00  0.00    -0.072 C 
ATOM     23  H24 8UO d   1      23.074  13.032  98.035  0.00  0.00     0.028 H 
ATOM     24  H25 8UO d   1      24.151  14.455  98.239  0.00  0.00     0.028 H 
ATOM     25  H26 8UO d   1      23.694  13.903  96.591  0.00  0.00     0.028 H 
ENDBRANCH  16  22
ENDBRANCH   1  16
BRANCH   1  26
ATOM     26  C16 8UO d   1      19.561  15.272  97.139  0.00  0.00    -0.037 A 
ATOM     27  C20 8UO d   1      18.450  15.194  96.249  0.00  0.00    -0.050 A 
ATOM     28  C19 8UO d   1      17.345  16.076  96.340  0.00  0.00     0.033 A 
ATOM     29  H8  8UO d   1      18.451  14.434  95.476  0.00  0.00     0.087 H 
ATOM     30  C30 8UO d   1      17.370  17.034  97.358  0.00  0.00    -0.020 A 
ATOM     31  C18 8UO d   1      18.434  17.109  98.233  0.00  0.00     0.119 A 
ATOM     32  H22 8UO d   1      16.543  17.727  97.461  0.00  0.00     0.091 H 
ATOM     33  F21 8UO d   1      18.450  18.019  99.202  0.00  0.00    -0.206 F 
ATOM     34  C17 8UO d   1      19.506  16.255  98.134  0.00  0.00    -0.038 A 
ATOM     35  H23 8UO d   1      20.324  16.344  98.840  0.00  0.00     0.089 H 
BRANCH  28  36
ATOM     36  N23 8UO d   1      16.208  16.065  95.479  0.00  0.00    -0.381 N 
ATOM     37  C24 8UO d   1      14.904  16.353  96.155  0.00  0.00    -0.004 C 
ATOM     38  C25 8UO d   1      13.756  15.768  95.343  0.00  0.00    -0.046 C 
ATOM     39  H16 8UO d   1      14.907  15.903  97.159  0.00  0.00     0.064 H 
ATOM     40  H17 8UO d   1      14.771  17.442  96.242  0.00  0.00     0.064 H 
ATOM     41  C26 8UO d   1      13.954  16.098  93.884  0.00  0.00    -0.042 C 
ATOM     42  H14 8UO d   1      13.734  14.676  95.472  0.00  0.00     0.035 H 
ATOM     43  H15 8UO d   1      12.805  16.197  95.691  0.00  0.00     0.035 H 
ATOM     44  C27 8UO d   1      15.160  15.348  93.364  0.00  0.00    -0.046 C 
ATOM     45  H13 8UO d   1      14.162  17.175  93.799  0.00  0.00     0.041 H 
ATOM     46  C28 8UO d   1      16.429  15.898  94.025  0.00  0.00    -0.004 C 
ATOM     47  H18 8UO d   1      15.229  15.477  92.274  0.00  0.00     0.035 H 
ATOM     48  H19 8UO d   1      15.057  14.279  93.601  0.00  0.00     0.035 H 
ATOM     49  H20 8UO d   1      16.679  16.872  93.580  0.00  0.00     0.064 H 
ATOM     50  H21 8UO d   1      17.259  15.196  93.861  0.00  0.00     0.064 H 
BRANCH  41  51
ATOM     51  C29 8UO d   1      12.680  15.807  93.078  0.00  0.00     0.019 C 
ATOM     52  H11 8UO d   1      12.703  14.760  92.740  0.00  0.00     0.049 H 
ATOM     53  H12 8UO d   1      11.805  15.965  93.725  0.00  0.00     0.049 H 
BRANCH  51  54
ATOM     54  C31 8UO d   1      12.566  16.714  91.865  0.00  0.00     0.172 C 
ATOM     55  O33 8UO d   1      13.570  16.887  91.127  0.00  0.00    -0.648 OA
ATOM     56  O32 8UO d   1      11.458  17.258  91.639  0.00  0.00    -0.648 OA
ENDBRANCH  51  54
ENDBRANCH  41  51
ENDBRANCH  28  36
ENDBRANCH   1  26
BRANCH  10  57
ATOM     57  C13 8UO d   1      20.947  16.119  94.096  0.00  0.00    -0.033 C 
ATOM     58  H2  8UO d   1      21.088  16.300  93.020  0.00  0.00     0.035 H 
ATOM     59  H3  8UO d   1      21.685  16.703  94.666  0.00  0.00     0.035 H 
ATOM     60  H4  8UO d   1      19.932  16.424  94.389  0.00  0.00     0.035 H 
ENDBRANCH  10  57
TORSDOF 8
