REMARK  10 active torsions:
REMARK  status: ('A' for Active; 'I' for Inactive)
REMARK    1  A    between atoms: C31_2  and  C30_4 
REMARK    2  A    between atoms: C30_4  and  C29_5 
REMARK    3  A    between atoms: C29_5  and  C26_6 
REMARK    4  A    between atoms: N23_11  and  C19_12 
REMARK    5  A    between atoms: C16_18  and  C4_19 
REMARK    6  A    between atoms: C4_19  and  C14_20 
REMARK    7  A    between atoms: C14_20  and  C22_21 
REMARK    8  A    between atoms: C14_20  and  C15_22 
REMARK    9  A    between atoms: C2_26  and  N7_27 
REMARK   10  A    between atoms: C10_29  and  C13_30 
ROOT
ATOM      1  C4  N05 d   1      30.066  43.547  20.441  0.00  0.00     0.065 C 
ATOM      2  C3  N05 d   1      30.384  42.323  19.584  0.00  0.00     0.091 C 
ATOM      3  C8  N05 d   1      30.811  42.535  18.399  0.00  0.00     0.101 C 
ATOM      4  N9  N05 d   1      31.200  42.724  17.322  0.00  0.00    -0.191 NA
ATOM      5  C2  N05 d   1      30.202  41.053  20.042  0.00  0.00     0.162 C 
ATOM      6  C5  N05 d   1      29.859  43.142  21.873  0.00  0.00     0.040 A 
ATOM      7  C10 N05 d   1      29.779  43.863  23.178  0.00  0.00     0.063 A 
ATOM      8  N11 N05 d   1      29.595  42.914  24.113  0.00  0.00    -0.177 NA
ATOM      9  N12 N05 d   1      29.549  41.592  23.620  0.00  0.00    -0.256 N 
ATOM     10  C6  N05 d   1      29.696  41.763  22.306  0.00  0.00     0.175 A 
ATOM     11  O1  N05 d   1      29.705  40.779  21.377  0.00  0.00    -0.274 OA
ATOM     12  H29 N05 d   1      29.431  40.714  24.145  0.00  0.00     0.191 HD
ENDROOT
BRANCH   1  13
ATOM     13  C16 N05 d   1      31.300  44.456  20.329  0.00  0.00    -0.034 A 
ATOM     14  C17 N05 d   1      31.424  45.338  19.248  0.00  0.00    -0.038 A 
ATOM     15  C18 N05 d   1      32.544  46.135  19.128  0.00  0.00     0.119 A 
ATOM     16  H15 N05 d   1      30.638  45.395  18.504  0.00  0.00     0.089 H 
ATOM     17  C34 N05 d   1      33.578  46.095  20.054  0.00  0.00    -0.020 A 
ATOM     18  F21 N05 d   1      32.626  46.946  18.084  0.00  0.00    -0.206 F 
ATOM     19  C19 N05 d   1      33.525  45.219  21.151  0.00  0.00     0.033 A 
ATOM     20  H14 N05 d   1      34.435  46.747  19.929  0.00  0.00     0.091 H 
ATOM     21  C20 N05 d   1      32.374  44.414  21.258  0.00  0.00    -0.050 A 
ATOM     22  H16 N05 d   1      32.304  43.726  22.093  0.00  0.00     0.087 H 
BRANCH  19  23
ATOM     23  N23 N05 d   1      34.589  45.216  22.104  0.00  0.00    -0.381 N 
ATOM     24  C24 N05 d   1      35.940  45.524  21.558  0.00  0.00    -0.004 C 
ATOM     25  C25 N05 d   1      37.012  45.008  22.503  0.00  0.00    -0.047 C 
ATOM     26  H8  N05 d   1      36.055  45.040  20.577  0.00  0.00     0.064 H 
ATOM     27  H9  N05 d   1      36.048  46.613  21.445  0.00  0.00     0.064 H 
ATOM     28  C26 N05 d   1      36.653  45.374  23.912  0.00  0.00    -0.051 C 
ATOM     29  H6  N05 d   1      37.083  43.914  22.415  0.00  0.00     0.035 H 
ATOM     30  H7  N05 d   1      37.980  45.460  22.242  0.00  0.00     0.035 H 
ATOM     31  C27 N05 d   1      35.443  44.585  24.336  0.00  0.00    -0.047 C 
ATOM     32  H5  N05 d   1      36.395  46.443  23.934  0.00  0.00     0.040 H 
ATOM     33  C28 N05 d   1      34.224  45.050  23.538  0.00  0.00    -0.004 C 
ATOM     34  H10 N05 d   1      35.260  44.743  25.409  0.00  0.00     0.035 H 
ATOM     35  H11 N05 d   1      35.618  43.516  24.147  0.00  0.00     0.035 H 
ATOM     36  H12 N05 d   1      33.872  46.012  23.938  0.00  0.00     0.064 H 
ATOM     37  H13 N05 d   1      33.423  44.301  23.626  0.00  0.00     0.064 H 
BRANCH  28  38
ATOM     38  C29 N05 d   1      37.818  45.153  24.879  0.00  0.00    -0.053 C 
ATOM     39  H3  N05 d   1      37.709  44.171  25.362  0.00  0.00     0.034 H 
ATOM     40  H4  N05 d   1      38.765  45.184  24.321  0.00  0.00     0.034 H 
BRANCH  38  41
ATOM     41  C30 N05 d   1      37.826  46.248  25.952  0.00  0.00     0.016 C 
ATOM     42  H1  N05 d   1      37.994  47.220  25.465  0.00  0.00     0.049 H 
ATOM     43  H2  N05 d   1      36.849  46.255  26.457  0.00  0.00     0.049 H 
BRANCH  41  44
ATOM     44  C31 N05 d   1      38.910  46.028  26.989  0.00  0.00     0.172 C 
ATOM     45  O33 N05 d   1      38.650  46.349  28.165  0.00  0.00    -0.648 OA
ATOM     46  O32 N05 d   1      40.019  45.548  26.661  0.00  0.00    -0.648 OA
ENDBRANCH  41  44
ENDBRANCH  38  41
ENDBRANCH  28  38
ENDBRANCH  19  23
ENDBRANCH   1  13
BRANCH   1  47
ATOM     47  C14 N05 d   1      28.738  44.108  19.876  0.00  0.00    -0.041 C 
ATOM     48  H17 N05 d   1      28.946  44.322  18.817  0.00  0.00     0.041 H 
BRANCH  47  49
ATOM     49  C22 N05 d   1      27.534  43.142  19.885  0.00  0.00    -0.072 C 
ATOM     50  H18 N05 d   1      26.654  43.649  19.463  0.00  0.00     0.028 H 
ATOM     51  H19 N05 d   1      27.319  42.834  20.919  0.00  0.00     0.028 H 
ATOM     52  H20 N05 d   1      27.771  42.255  19.280  0.00  0.00     0.028 H 
ENDBRANCH  47  49
BRANCH  47  53
ATOM     53  C15 N05 d   1      28.311  45.431  20.509  0.00  0.00    -0.072 C 
ATOM     54  H21 N05 d   1      29.161  46.129  20.509  0.00  0.00     0.028 H 
ATOM     55  H22 N05 d   1      27.983  45.253  21.544  0.00  0.00     0.028 H 
ATOM     56  H23 N05 d   1      27.481  45.864  19.930  0.00  0.00     0.028 H 
ENDBRANCH  47  53
ENDBRANCH   1  47
BRANCH   5  57
ATOM     57  N7  N05 d   1      30.452  39.969  19.317  0.00  0.00    -0.379 N 
ATOM     58  H24 N05 d   1      30.295  39.033  19.718  0.00  0.00     0.158 HD
ATOM     59  H25 N05 d   1      30.803  40.064  18.353  0.00  0.00     0.158 HD
ENDBRANCH   5  57
BRANCH   7  60
ATOM     60  C13 N05 d   1      29.883  45.339  23.469  0.00  0.00    -0.033 C 
ATOM     61  H26 N05 d   1      29.777  45.508  24.551  0.00  0.00     0.035 H 
ATOM     62  H27 N05 d   1      29.085  45.875  22.934  0.00  0.00     0.035 H 
ATOM     63  H28 N05 d   1      30.863  45.711  23.134  0.00  0.00     0.035 H 
ENDBRANCH   7  60
TORSDOF 10
