REMARK  4 active torsions:
REMARK  status: ('A' for Active; 'I' for Inactive)
REMARK    1  A    between atoms: C10_7  and  C13_9 
REMARK    2  A    between atoms: C19_11  and  C41_14 
REMARK    3  A    between atoms: C14_17  and  C30_18 
REMARK    4  A    between atoms: C14_17  and  C15_19 
ROOT
ATOM      1  C2  8UC d   1     131.242 -12.277  97.573  0.00  0.00     0.162 C 
ATOM      2  C3  8UC d   1     131.645 -13.547  97.874  0.00  0.00     0.092 C 
ATOM      3  C4  8UC d   1     131.536 -14.703  96.834  0.00  0.00     0.069 C 
ATOM      4  C5  8UC d   1     131.338 -14.173  95.428  0.00  0.00     0.040 A 
ATOM      5  C6  8UC d   1     130.938 -12.783  95.171  0.00  0.00     0.176 A 
ATOM      6  N9  8UC d   1     132.468 -13.945 100.164  0.00  0.00    -0.191 NA
ATOM      7  C10 8UC d   1     131.455 -14.714  94.023  0.00  0.00     0.063 A 
ATOM      8  N12 8UC d   1     130.805 -12.469  93.869  0.00  0.00    -0.256 N 
ATOM      9  C17 8UC d   1     132.545 -16.652  97.728  0.00  0.00    -0.011 A 
ATOM     10  C19 8UC d   1     134.932 -16.483  96.292  0.00  0.00    -0.022 A 
ATOM     11  C35 8UC d   1     134.710 -17.535  97.203  0.00  0.00    -0.034 A 
ATOM     12  C38 8UC d   1     131.179 -16.582  98.362  0.00  0.00    -0.030 C 
ATOM     13  F29 8UC d   1     133.259 -18.617  98.800  0.00  0.00    -0.206 F 
ATOM     14  C18 8UC d   1     133.506 -17.623  97.924  0.00  0.00     0.124 A 
ATOM     15  C14 8UC d   1     130.428 -15.682  97.324  0.00  0.00    -0.022 C 
ATOM     16  C20 8UC d   1     133.929 -15.523  96.119  0.00  0.00    -0.064 A 
ATOM     17  C16 8UC d   1     132.738 -15.617  96.857  0.00  0.00    -0.028 A 
ATOM     18  C8  8UC d   1     132.074 -13.757  99.067  0.00  0.00     0.101 C 
ATOM     19  N7  8UC d   1     131.313 -11.260  98.464  0.00  0.00    -0.379 N 
ATOM     20  N11 8UC d   1     131.125 -13.676  93.215  0.00  0.00    -0.177 NA
ATOM     21  O1  8UC d   1     130.726 -11.939  96.235  0.00  0.00    -0.274 OA
ATOM     22  H1  8UC d   1     130.535 -11.567  93.452  0.00  0.00     0.191 HD
ATOM     23  H5  8UC d   1     135.477 -18.286  97.350  0.00  0.00     0.089 H 
ATOM     24  H6  8UC d   1     131.216 -16.111  99.356  0.00  0.00     0.041 H 
ATOM     25  H7  8UC d   1     130.718 -17.577  98.445  0.00  0.00     0.041 H 
ATOM     26  H18 8UC d   1     134.071 -14.709  95.417  0.00  0.00     0.085 H 
ATOM     27  H19 8UC d   1     130.998 -10.317  98.195  0.00  0.00     0.158 HD
ATOM     28  H20 8UC d   1     131.682 -11.429  99.411  0.00  0.00     0.158 HD
ENDROOT
BRANCH  15  29
ATOM     29  C30 8UC d   1     129.953 -16.549  96.143  0.00  0.00    -0.067 C 
ATOM     30  H8  8UC d   1     129.425 -15.917  95.413  0.00  0.00     0.028 H 
ATOM     31  H9  8UC d   1     129.272 -17.330  96.512  0.00  0.00     0.028 H 
ATOM     32  H10 8UC d   1     130.822 -17.019  95.660  0.00  0.00     0.028 H 
ENDBRANCH  15  29
BRANCH  15  33
ATOM     33  C15 8UC d   1     129.175 -15.065  97.989  0.00  0.00    -0.067 C 
ATOM     34  H11 8UC d   1     129.482 -14.438  98.839  0.00  0.00     0.028 H 
ATOM     35  H12 8UC d   1     128.516 -15.870  98.346  0.00  0.00     0.028 H 
ATOM     36  H13 8UC d   1     128.636 -14.448  97.255  0.00  0.00     0.028 H 
ENDBRANCH  15  33
BRANCH   7  37
ATOM     37  C13 8UC d   1     131.849 -16.080  93.478  0.00  0.00    -0.033 C 
ATOM     38  H2  8UC d   1     131.808 -16.062  92.379  0.00  0.00     0.035 H 
ATOM     39  H3  8UC d   1     131.153 -16.841  93.859  0.00  0.00     0.035 H 
ATOM     40  H4  8UC d   1     132.871 -16.323  93.802  0.00  0.00     0.035 H 
ENDBRANCH   7  37
BRANCH  10  41
ATOM     41  C41 8UC d   1     136.191 -16.359  95.491  0.00  0.00    -0.023 A 
ATOM     42  C46 8UC d   1     137.462 -16.335  96.078  0.00  0.00    -0.055 A 
ATOM     43  C45 8UC d   1     138.597 -16.228  95.256  0.00  0.00     0.003 A 
ATOM     44  H14 8UC d   1     137.569 -16.398  97.155  0.00  0.00     0.087 H 
ATOM     45  N44 8UC d   1     138.478 -16.140  93.906  0.00  0.00    -0.273 NA
ATOM     46  H15 8UC d   1     139.583 -16.215  95.707  0.00  0.00     0.114 H 
ATOM     47  C43 8UC d   1     137.270 -16.160  93.305  0.00  0.00     0.003 A 
ATOM     48  C42 8UC d   1     136.111 -16.274  94.090  0.00  0.00    -0.055 A 
ATOM     49  H16 8UC d   1     137.195 -16.089  92.226  0.00  0.00     0.114 H 
ATOM     50  H17 8UC d   1     135.140 -16.297  93.608  0.00  0.00     0.087 H 
ENDBRANCH  10  41
TORSDOF 4
