REMARK  6 active torsions:
REMARK  status: ('A' for Active; 'I' for Inactive)
REMARK    1  A    between atoms: C10_8  and  C13_9 
REMARK    2  A    between atoms: C14_29  and  C15_10 
REMARK    3  A    between atoms: C51_18  and  C52_16 
REMARK    4  A    between atoms: C38_19  and  C51_18 
REMARK    5  A    between atoms: N35_24  and  C19_25 
REMARK    6  A    between atoms: C14_29  and  C30_30 
ROOT
ATOM      1  C2  8UF d   1      80.225  16.907  97.095  0.00  0.00     0.162 C 
ATOM      2  C3  8UF d   1      80.559  15.601  97.303  0.00  0.00     0.092 C 
ATOM      3  C4  8UF d   1      80.311  14.557  96.193  0.00  0.00     0.069 C 
ATOM      4  C5  8UF d   1      80.260  15.214  94.835  0.00  0.00     0.040 A 
ATOM      5  C6  8UF d   1      79.960  16.632  94.690  0.00  0.00     0.176 A 
ATOM      6  N7  8UF d   1      80.384  17.877  97.994  0.00  0.00    -0.379 N 
ATOM      7  C8  8UF d   1      81.028  15.204  98.432  0.00  0.00     0.101 C 
ATOM      8  C10 8UF d   1      80.447  14.800  93.397  0.00  0.00     0.063 A 
ATOM      9  C16 8UF d   1      81.413  13.560  96.162  0.00  0.00    -0.027 A 
ATOM     10  C17 8UF d   1      81.051  12.454  96.859  0.00  0.00    -0.011 A 
ATOM     11  C18 8UF d   1      81.907  11.388  96.978  0.00  0.00     0.125 A 
ATOM     12  C20 8UF d   1      82.669  13.678  95.551  0.00  0.00    -0.049 A 
ATOM     13  C19 8UF d   1      83.575  12.621  95.647  0.00  0.00     0.033 A 
ATOM     14  C41 8UF d   1      83.170  11.478  96.366  0.00  0.00    -0.020 A 
ATOM     15  F29 8UF d   1      81.521  10.309  97.685  0.00  0.00    -0.205 F 
ATOM     16  C44 8UF d   1      79.658  12.569  97.440  0.00  0.00    -0.030 C 
ATOM     17  C14 8UF d   1      79.049  13.689  96.560  0.00  0.00    -0.022 C 
ATOM     18  N9  8UF d   1      81.459  14.848  99.474  0.00  0.00    -0.191 NA
ATOM     19  N11 8UF d   1      80.235  15.942  92.682  0.00  0.00    -0.177 NA
ATOM     20  N12 8UF d   1      79.955  17.081  93.440  0.00  0.00    -0.256 N 
ATOM     21  O1  8UF d   1      79.703  17.347  95.812  0.00  0.00    -0.274 OA
ATOM     22  H1  8UF d   1      80.108  18.842  97.764  0.00  0.00     0.158 HD
ATOM     23  H2  8UF d   1      80.783  17.662  98.919  0.00  0.00     0.158 HD
ATOM     24  H9  8UF d   1      82.933  14.580  95.010  0.00  0.00     0.087 H 
ATOM     25  H21 8UF d   1      83.854  10.641  96.450  0.00  0.00     0.091 H 
ATOM     26  H22 8UF d   1      79.687  12.862  98.500  0.00  0.00     0.041 H 
ATOM     27  H23 8UF d   1      79.100  11.627  97.335  0.00  0.00     0.041 H 
ATOM     28  H27 8UF d   1      79.785  18.041  93.108  0.00  0.00     0.191 HD
ENDROOT
BRANCH  17  29
ATOM     29  C15 8UF d   1      78.347  13.034  95.347  0.00  0.00    -0.067 C 
ATOM     30  H6  8UF d   1      77.482  12.451  95.695  0.00  0.00     0.028 H 
ATOM     31  H7  8UF d   1      79.054  12.368  94.830  0.00  0.00     0.028 H 
ATOM     32  H8  8UF d   1      78.006  13.817  94.654  0.00  0.00     0.028 H 
ENDBRANCH  17  29
BRANCH  17  33
ATOM     33  C30 8UF d   1      77.942  14.425  97.347  0.00  0.00    -0.067 C 
ATOM     34  H24 8UF d   1      77.512  15.219  96.719  0.00  0.00     0.028 H 
ATOM     35  H25 8UF d   1      78.372  14.869  98.257  0.00  0.00     0.028 H 
ATOM     36  H26 8UF d   1      77.153  13.711  97.626  0.00  0.00     0.028 H 
ENDBRANCH  17  33
BRANCH   8  37
ATOM     37  C13 8UF d   1      80.799  13.459  92.763  0.00  0.00    -0.033 C 
ATOM     38  H3  8UF d   1      80.842  13.570  91.669  0.00  0.00     0.035 H 
ATOM     39  H4  8UF d   1      80.031  12.716  93.026  0.00  0.00     0.035 H 
ATOM     40  H5  8UF d   1      81.778  13.123  93.136  0.00  0.00     0.035 H 
ENDBRANCH   8  37
BRANCH  13  41
ATOM     41  N35 8UF d   1      84.816  12.634  94.970  0.00  0.00    -0.381 N 
ATOM     42  C36 8UF d   1      86.022  12.164  95.674  0.00  0.00    -0.004 C 
ATOM     43  C37 8UF d   1      87.286  12.698  94.968  0.00  0.00    -0.046 C 
ATOM     44  H15 8UF d   1      86.003  12.528  96.712  0.00  0.00     0.064 H 
ATOM     45  H16 8UF d   1      86.040  11.064  95.671  0.00  0.00     0.064 H 
ATOM     46  C38 8UF d   1      87.131  12.543  93.467  0.00  0.00    -0.042 C 
ATOM     47  H13 8UF d   1      87.422  13.761  95.215  0.00  0.00     0.035 H 
ATOM     48  H14 8UF d   1      88.164  12.128  95.307  0.00  0.00     0.035 H 
ATOM     49  C39 8UF d   1      86.032  13.437  92.995  0.00  0.00    -0.046 C 
ATOM     50  H12 8UF d   1      86.865  11.498  93.253  0.00  0.00     0.041 H 
ATOM     51  C40 8UF d   1      84.702  12.930  93.525  0.00  0.00    -0.004 C 
ATOM     52  H17 8UF d   1      86.010  13.442  91.895  0.00  0.00     0.035 H 
ATOM     53  H18 8UF d   1      86.207  14.459  93.363  0.00  0.00     0.035 H 
ATOM     54  H19 8UF d   1      84.420  12.014  92.986  0.00  0.00     0.064 H 
ATOM     55  H20 8UF d   1      83.931  13.699  93.370  0.00  0.00     0.064 H 
BRANCH  46  56
ATOM     56  C51 8UF d   1      88.418  12.889  92.687  0.00  0.00     0.019 C 
ATOM     57  H10 8UF d   1      88.183  13.704  91.987  0.00  0.00     0.049 H 
ATOM     58  H11 8UF d   1      89.172  13.233  93.410  0.00  0.00     0.049 H 
BRANCH  56  59
ATOM     59  C52 8UF d   1      89.025  11.735  91.884  0.00  0.00     0.172 C 
ATOM     60  O54 8UF d   1      89.719  10.891  92.520  0.00  0.00    -0.648 OA
ATOM     61  O53 8UF d   1      88.841  11.675  90.624  0.00  0.00    -0.648 OA
ENDBRANCH  56  59
ENDBRANCH  46  56
ENDBRANCH  13  41
TORSDOF 6
