REMARK WARNING: 32 MAX_TORS EXCEEDED!!!
REMARK  50 active torsions:
REMARK  status: ('A' for Active; 'I' for Inactive)
REMARK    1  A    between atoms: N_1  and  CA_2 
REMARK    2  A    between atoms: CA_2  and  C_3 
REMARK    3  A    between atoms: CA_2  and  CB_5 
REMARK       I    between atoms: C_3  and  N_9 
REMARK    4  A    between atoms: CB_5  and  CG_6 
REMARK    5  A    between atoms: N_9  and  CA_10 
REMARK    6  A    between atoms: CA_10  and  C_11 
REMARK    7  A    between atoms: CA_10  and  CB_13 
REMARK       I    between atoms: C_11  and  N_18 
REMARK    8  A    between atoms: CB_13  and  CG_14 
REMARK    9  A    between atoms: CG_14  and  CD_15 
REMARK       I    between atoms: CD_15  and  NE2_17 
REMARK   10  A    between atoms: N_18  and  CA_19 
REMARK   11  A    between atoms: CA_19  and  C_20 
REMARK       I    between atoms: C_20  and  N_22 
REMARK   12  A    between atoms: N_22  and  CA_23 
REMARK   13  A    between atoms: CA_23  and  C_24 
REMARK   14  A    between atoms: CA_23  and  CB_26 
REMARK       I    between atoms: C_24  and  N_33 
REMARK   15  A    between atoms: CB_26  and  CG_27 
REMARK   16  A    between atoms: CG_27  and  CD_28 
REMARK   17  A    between atoms: CD_28  and  NE_29 
REMARK       I    between atoms: NE_29  and  CZ_30 
REMARK       I    between atoms: CZ_30  and  NH1_31 
REMARK       I    between atoms: CZ_30  and  NH2_32 
REMARK   18  A    between atoms: N_33  and  CA_34 
REMARK   19  A    between atoms: CA_34  and  C_35 
REMARK       I    between atoms: C_35  and  N_37 
REMARK   20  A    between atoms: N_37  and  CA_38 
REMARK   21  A    between atoms: CA_38  and  C_39 
REMARK   22  A    between atoms: CA_38  and  CB_41 
REMARK       I    between atoms: C_39  and  N_48 
REMARK   23  A    between atoms: CB_41  and  CG_42 
REMARK   24  A    between atoms: CG_42  and  CD_43 
REMARK   25  A    between atoms: CD_43  and  NE_44 
REMARK       I    between atoms: NE_44  and  CZ_45 
REMARK       I    between atoms: CZ_45  and  NH1_46 
REMARK       I    between atoms: CZ_45  and  NH2_47 
REMARK   26  A    between atoms: N_48  and  CA_49 
REMARK   27  A    between atoms: CA_49  and  CB_50 
REMARK   28  A    between atoms: CA_49  and  C_59 
REMARK   29  A    between atoms: CB_50  and  CG_51 
REMARK   30  A    between atoms: CG_51  and  CD_52 
REMARK   31  A    between atoms: CD_52  and  NE_53 
REMARK       I    between atoms: NE_53  and  CZ_54 
REMARK       I    between atoms: CZ_54  and  NH2_57 
REMARK   32  A    between atoms: NH1_55  and  CQ1_56 
REMARK   33  A    between atoms: NH2_57  and  CQ2_58 
REMARK       I    between atoms: C_59  and  N_61 
REMARK   34  A    between atoms: N_61  and  CA_62 
REMARK   35  A    between atoms: CA_62  and  C_63 
REMARK   36  A    between atoms: CA_62  and  CB_65 
REMARK       I    between atoms: C_63  and  N_72 
REMARK   37  A    between atoms: CB_65  and  CG_66 
REMARK   38  A    between atoms: CG_66  and  CD_67 
REMARK   39  A    between atoms: CD_67  and  NE_68 
REMARK       I    between atoms: NE_68  and  CZ_69 
REMARK       I    between atoms: CZ_69  and  NH1_70 
REMARK   40  A    between atoms: CA_73  and  C_74 
REMARK       I    between atoms: C_74  and  N_79 
REMARK   41  A    between atoms: N_79  and  CA_80 
REMARK   42  A    between atoms: CA_80  and  C_81 
REMARK   43  A    between atoms: CA_80  and  CB_83 
REMARK       I    between atoms: C_81  and  N_87 
REMARK   44  A    between atoms: CB_83  and  CG_84 
REMARK   45  A    between atoms: CG_84  and  CD1_85 
REMARK   46  A    between atoms: CG_84  and  CD2_86 
REMARK   47  A    between atoms: N_87  and  CA_88 
REMARK   48  A    between atoms: CA_88  and  C_89 
REMARK   49  A    between atoms: CA_88  and  CB_91 
REMARK   50  A    between atoms: CB_91  and  CG_92 
REMARK       I    between atoms: CG_92  and  ND2_94 
ROOT
ATOM      1  CA  2MR d   1      14.256 -20.403  11.121  0.00  0.00     0.089 C 
ATOM      2  H48 2MR d   1      13.423 -20.721  11.765  0.00  0.00     0.087 H 
ENDROOT
BRANCH   1   3
ATOM      3  N   2MR d   1      14.008 -19.049  10.717  0.00  0.00    -0.346 N 
ATOM      4  C   ARG d   1      12.776 -18.561  10.615  0.00  0.00     0.241 C 
ATOM      5  O   ARG d   1      11.743 -19.237  10.742  0.00  0.00    -0.271 OA
ATOM      6  H47 2MR d   1      14.784 -18.455  10.506  0.00  0.00     0.163 HD
BRANCH   4   7
ATOM      7  CA  ARG d   1      12.691 -17.086  10.272  0.00  0.00     0.089 C 
ATOM      8  H35 ARG d   1      13.552 -16.821   9.641  0.00  0.00     0.087 H 
BRANCH   7   9
ATOM      9  N   ARG d   1      11.473 -16.821   9.521  0.00  0.00    -0.346 N 
ATOM     10  C   GLY d   1      11.496 -15.981   8.500  0.00  0.00     0.236 C 
ATOM     11  O   GLY d   1      12.495 -15.363   8.188  0.00  0.00    -0.272 OA
ATOM     12  H34 ARG d   1      10.619 -17.274   9.777  0.00  0.00     0.163 HD
BRANCH  10  13
ATOM     13  CA  GLY d   1      10.214 -15.842   7.716  0.00  0.00     0.069 C 
ATOM     14  H32 GLY d   1      10.220 -16.582   6.902  0.00  0.00     0.078 H 
ATOM     15  H33 GLY d   1       9.368 -16.044   8.390  0.00  0.00     0.078 H 
BRANCH  13  16
ATOM     16  N   GLY d   1      10.039 -14.523   7.139  0.00  0.00    -0.351 N 
ATOM     17  C   ARG d   1       9.819 -13.479   7.920  0.00  0.00     0.240 C 
ATOM     18  O   ARG d   1       9.741 -13.570   9.149  0.00  0.00    -0.271 OA
ATOM     19  H31 GLY d   1      10.085 -14.403   6.147  0.00  0.00     0.163 HD
BRANCH  17  20
ATOM     20  CA  ARG d   1       9.701 -12.138   7.222  0.00  0.00     0.089 C 
ATOM     21  H19 ARG d   1       9.761 -12.301   6.136  0.00  0.00     0.087 H 
BRANCH  20  22
ATOM     22  N   ARG d   1       8.411 -11.506   7.517  0.00  0.00    -0.346 N 
ATOM     23  C   GLY d   1       7.403 -11.589   6.653  0.00  0.00     0.236 C 
ATOM     24  O   GLY d   1       7.503 -12.190   5.582  0.00  0.00    -0.272 OA
ATOM     25  H18 ARG d   1       8.288 -11.008   8.376  0.00  0.00     0.163 HD
BRANCH  23  26
ATOM     26  CA  GLY d   1       6.101 -10.899   7.025  0.00  0.00     0.069 C 
ATOM     27  H16 GLY d   1       5.946 -10.060   6.330  0.00  0.00     0.078 H 
ATOM     28  H17 GLY d   1       5.283 -11.625   6.912  0.00  0.00     0.078 H 
BRANCH  26  29
ATOM     29  N   GLY d   1       6.063 -10.380   8.377  0.00  0.00    -0.351 N 
ATOM     30  C   GLN d   1       5.243 -10.883   9.295  0.00  0.00     0.240 C 
ATOM     31  O   GLN d   1       4.477 -11.822   9.064  0.00  0.00    -0.271 OA
ATOM     32  H15 GLY d   1       6.669  -9.624   8.626  0.00  0.00     0.163 HD
BRANCH  30  33
ATOM     33  CA  GLN d   1       5.310 -10.233  10.682  0.00  0.00     0.090 C 
ATOM     34  H8  GLN d   1       6.180 -10.654  11.208  0.00  0.00     0.087 H 
BRANCH  33  35
ATOM     35  N   GLN d   1       5.503  -8.785  10.579  0.00  0.00    -0.346 N 
ATOM     36  C   ASP d   1       4.672  -7.962   9.945  0.00  0.00     0.249 C 
ATOM     37  O   ASP d   1       3.587  -8.302   9.470  0.00  0.00    -0.271 OA
ATOM     38  H7  GLN d   1       6.312  -8.389  11.014  0.00  0.00     0.163 HD
BRANCH  36  39
ATOM     39  CA  ASP d   1       5.144  -6.520   9.861  0.00  0.00     0.185 C 
ATOM     40  H4  ASP d   1       5.373  -6.165  10.877  0.00  0.00     0.100 H 
BRANCH  39  41
ATOM     41  N   ASP d   1       6.355  -6.449   9.059  0.00  0.00    -0.066 N 
ATOM     42  H1  ASP d   1       6.666  -5.492   9.005  0.00  0.00     0.275 HD
ATOM     43  H2  ASP d   1       6.164  -6.793   8.131  0.00  0.00     0.275 HD
ATOM     44  H3  ASP d   1       7.074  -7.012   9.485  0.00  0.00     0.275 HD
ENDBRANCH  39  41
BRANCH  39  45
ATOM     45  CB  ASP d   1       4.054  -5.628   9.272  0.00  0.00     0.050 C 
ATOM     46  H5  ASP d   1       3.350  -5.356  10.073  0.00  0.00     0.052 H 
ATOM     47  H6  ASP d   1       3.521  -6.191   8.492  0.00  0.00     0.052 H 
BRANCH  45  48
ATOM     48  CG  ASP d   1       4.610  -4.350   8.657  0.00  0.00     0.175 C 
ATOM     49  OD1 ASP d   1       5.554  -3.753   9.229  0.00  0.00    -0.648 OA
ATOM     50  OD2 ASP d   1       4.088  -3.948   7.592  0.00  0.00    -0.648 OA
ENDBRANCH  45  48
ENDBRANCH  39  45
ENDBRANCH  36  39
ENDBRANCH  33  35
BRANCH  33  51
ATOM     51  CB  GLN d   1       4.058 -10.551  11.513  0.00  0.00    -0.030 C 
ATOM     52  H9  GLN d   1       3.958 -11.643  11.604  0.00  0.00     0.037 H 
ATOM     53  H10 GLN d   1       3.175 -10.144  10.998  0.00  0.00     0.037 H 
BRANCH  51  54
ATOM     54  CG  GLN d   1       4.140  -9.945  12.905  0.00  0.00     0.011 C 
ATOM     55  H11 GLN d   1       4.136  -8.849  12.807  0.00  0.00     0.047 H 
ATOM     56  H12 GLN d   1       5.083 -10.269  13.370  0.00  0.00     0.047 H 
BRANCH  54  57
ATOM     57  CD  GLN d   1       2.999 -10.347  13.811  0.00  0.00     0.215 C 
ATOM     58  OE1 GLN d   1       1.895 -10.649  13.353  0.00  0.00    -0.274 OA
ATOM     59  NE2 GLN d   1       3.262 -10.350  15.112  0.00  0.00    -0.370 N 
ATOM     60  H13 GLN d   1       2.550 -10.607  15.765  0.00  0.00     0.159 HD
ATOM     61  H14 GLN d   1       4.172 -10.096  15.439  0.00  0.00     0.159 HD
ENDBRANCH  54  57
ENDBRANCH  51  54
ENDBRANCH  33  51
ENDBRANCH  30  33
ENDBRANCH  26  29
ENDBRANCH  23  26
ENDBRANCH  20  22
BRANCH  20  62
ATOM     62  CB  ARG d   1      10.877 -11.250   7.646  0.00  0.00    -0.036 C 
ATOM     63  H20 ARG d   1      11.805 -11.829   7.527  0.00  0.00     0.036 H 
ATOM     64  H21 ARG d   1      10.743 -10.986   8.705  0.00  0.00     0.036 H 
BRANCH  62  65
ATOM     65  CG  ARG d   1      11.013  -9.977   6.858  0.00  0.00    -0.048 C 
ATOM     66  H22 ARG d   1      10.071  -9.413   6.926  0.00  0.00     0.035 H 
ATOM     67  H23 ARG d   1      11.215 -10.228   5.806  0.00  0.00     0.035 H 
BRANCH  65  68
ATOM     68  CD  ARG d   1      12.153  -9.105   7.388  0.00  0.00     0.009 C 
ATOM     69  H24 ARG d   1      12.074  -9.065   8.484  0.00  0.00     0.064 H 
ATOM     70  H25 ARG d   1      12.032  -8.093   6.974  0.00  0.00     0.064 H 
BRANCH  68  71
ATOM     71  NE  ARG d   1      13.489  -9.581   7.045  0.00  0.00    -0.227 N 
ATOM     72  CZ  ARG d   1      14.027  -9.470   5.833  0.00  0.00     0.665 C 
ATOM     73  NH1 ARG d   1      13.323  -8.944   4.844  0.00  0.00    -0.235 N 
ATOM     74  NH2 ARG d   1      15.252  -9.911   5.607  0.00  0.00    -0.235 N 
ATOM     75  H27 ARG d   1      13.738  -8.857   3.905  0.00  0.00     0.174 HD
ATOM     76  H28 ARG d   1      12.360  -8.621   5.013  0.00  0.00     0.174 HD
ATOM     77  H29 ARG d   1      15.802 -10.321   6.375  0.00  0.00     0.174 HD
ATOM     78  H30 ARG d   1      15.657  -9.845   4.662  0.00  0.00     0.174 HD
ATOM     79  H26 ARG d   1      14.049 -10.029   7.785  0.00  0.00     0.177 HD
ENDBRANCH  68  71
ENDBRANCH  65  68
ENDBRANCH  62  65
ENDBRANCH  20  62
ENDBRANCH  17  20
ENDBRANCH  13  16
ENDBRANCH  10  13
ENDBRANCH   7   9
BRANCH   7  80
ATOM     80  CB  ARG d   1      12.752 -16.251  11.543  0.00  0.00    -0.036 C 
ATOM     81  H36 ARG d   1      12.457 -15.224  11.283  0.00  0.00     0.036 H 
ATOM     82  H37 ARG d   1      13.794 -16.255  11.896  0.00  0.00     0.036 H 
BRANCH  80  83
ATOM     83  CG  ARG d   1      11.884 -16.700  12.681  0.00  0.00    -0.048 C 
ATOM     84  H38 ARG d   1      11.857 -17.799  12.716  0.00  0.00     0.035 H 
ATOM     85  H39 ARG d   1      10.864 -16.312  12.546  0.00  0.00     0.035 H 
BRANCH  83  86
ATOM     86  CD  ARG d   1      12.473 -16.158  13.977  0.00  0.00     0.009 C 
ATOM     87  H40 ARG d   1      12.520 -15.061  13.912  0.00  0.00     0.064 H 
ATOM     88  H41 ARG d   1      13.489 -16.562  14.100  0.00  0.00     0.064 H 
BRANCH  86  89
ATOM     89  NE  ARG d   1      11.679 -16.525  15.142  0.00  0.00    -0.227 N 
ATOM     90  CZ  ARG d   1      12.076 -16.343  16.394  0.00  0.00     0.665 C 
ATOM     91  NH1 ARG d   1      13.269 -15.812  16.638  0.00  0.00    -0.235 N 
ATOM     92  NH2 ARG d   1      11.287 -16.705  17.399  0.00  0.00    -0.235 N 
ATOM     93  H43 ARG d   1      13.580 -15.669  17.609  0.00  0.00     0.174 HD
ATOM     94  H44 ARG d   1      13.883 -15.543  15.856  0.00  0.00     0.174 HD
ATOM     95  H45 ARG d   1      10.363 -17.116  17.206  0.00  0.00     0.174 HD
ATOM     96  H46 ARG d   1      11.599 -16.574  18.372  0.00  0.00     0.174 HD
ATOM     97  H42 ARG d   1      10.755 -16.951  14.984  0.00  0.00     0.177 HD
ENDBRANCH  86  89
ENDBRANCH  83  86
ENDBRANCH  80  83
ENDBRANCH   7  80
ENDBRANCH   4   7
ENDBRANCH   1   3
BRANCH   1  98
ATOM     98  CB  2MR d   1      14.299 -21.351   9.930  0.00  0.00    -0.036 C 
ATOM     99  H49 2MR d   1      13.395 -21.198   9.322  0.00  0.00     0.036 H 
ATOM    100  H50 2MR d   1      14.321 -22.386  10.301  0.00  0.00     0.036 H 
BRANCH  98 101
ATOM    101  CG  2MR d   1      15.515 -21.119   9.062  0.00  0.00    -0.048 C 
ATOM    102  H51 2MR d   1      16.407 -21.495   9.584  0.00  0.00     0.035 H 
ATOM    103  H52 2MR d   1      15.626 -20.040   8.877  0.00  0.00     0.035 H 
BRANCH 101 104
ATOM    104  CD  2MR d   1      15.375 -21.838   7.736  0.00  0.00     0.009 C 
ATOM    105  H53 2MR d   1      14.412 -21.561   7.283  0.00  0.00     0.064 H 
ATOM    106  H54 2MR d   1      15.397 -22.923   7.917  0.00  0.00     0.064 H 
BRANCH 104 107
ATOM    107  NE  2MR d   1      16.423 -21.503   6.828  0.00  0.00    -0.227 N 
ATOM    108  CZ  2MR d   1      17.644 -22.227   6.761  0.00  0.00     0.668 C 
ATOM    109  NH1 2MR d   1      18.589 -21.916   5.910  0.00  0.00    -0.231 N 
ATOM    110  NH2 2MR d   1      17.825 -23.310   7.660  0.00  0.00    -0.231 N 
ATOM    111  H56 2MR d   1      19.463 -22.461   5.890  0.00  0.00     0.177 HD
ATOM    112  H60 2MR d   1      17.079 -23.547   8.330  0.00  0.00     0.177 HD
ATOM    113  H55 2MR d   1      16.289 -20.702   6.194  0.00  0.00     0.177 HD
BRANCH 109 114
ATOM    114  CQ1 2MR d   1      18.410 -20.816   5.004  0.00  0.00    -0.005 C 
ATOM    115  H57 2MR d   1      19.305 -20.711   4.373  0.00  0.00     0.057 H 
ATOM    116  H58 2MR d   1      18.255 -19.890   5.577  0.00  0.00     0.057 H 
ATOM    117  H59 2MR d   1      17.533 -21.004   4.368  0.00  0.00     0.057 H 
ENDBRANCH 109 114
BRANCH 110 118
ATOM    118  CQ2 2MR d   1      19.025 -24.070   7.645  0.00  0.00    -0.005 C 
ATOM    119  H61 2MR d   1      18.970 -24.858   8.411  0.00  0.00     0.057 H 
ATOM    120  H62 2MR d   1      19.879 -23.411   7.858  0.00  0.00     0.057 H 
ATOM    121  H63 2MR d   1      19.155 -24.530   6.655  0.00  0.00     0.057 H 
ENDBRANCH 110 118
ENDBRANCH 104 107
ENDBRANCH 101 104
ENDBRANCH  98 101
ENDBRANCH   1  98
BRANCH   1 122
ATOM    122  C   2MR d   1      15.536 -20.463  11.950  0.00  0.00     0.241 C 
ATOM    123  O   2MR d   1      16.547 -19.770  11.645  0.00  0.00    -0.271 OA
ATOM    124  N   ARG d   1      15.509 -21.270  13.007  0.00  0.00    -0.346 N 
ATOM    125  H64 ARG d   1      14.677 -21.786  13.211  0.00  0.00     0.163 HD
BRANCH 124 126
ATOM    126  CA  ARG d   1      16.680 -21.415  13.877  0.00  0.00     0.089 C 
ATOM    127  H65 ARG d   1      17.557 -21.014  13.347  0.00  0.00     0.087 H 
BRANCH 126 128
ATOM    128  C   ARG d   1      16.932 -22.887  14.187  0.00  0.00     0.243 C 
ATOM    129  O   ARG d   1      16.425 -23.414  15.174  0.00  0.00    -0.271 OA
ATOM    130  N   PRO d   1      17.712 -23.553  13.333  0.00  0.00    -0.337 N 
ATOM    131  CA  PRO d   1      18.019 -24.969  13.551  0.00  0.00     0.091 C 
ATOM    132  CD  PRO d   1      18.379 -23.022  12.129  0.00  0.00    -0.001 C 
ATOM    133  CB  PRO d   1      18.774 -25.353  12.281  0.00  0.00    -0.036 C 
ATOM    134  H77 PRO d   1      17.090 -25.551  13.644  0.00  0.00     0.087 H 
ATOM    135  CG  PRO d   1      19.393 -24.074  11.809  0.00  0.00    -0.048 C 
ATOM    136  H78 PRO d   1      18.083 -25.753  11.524  0.00  0.00     0.036 H 
ATOM    137  H79 PRO d   1      19.549 -26.102  12.501  0.00  0.00     0.036 H 
ATOM    138  H80 PRO d   1      19.584 -24.112  10.726  0.00  0.00     0.035 H 
ATOM    139  H81 PRO d   1      20.335 -23.879  12.342  0.00  0.00     0.035 H 
ATOM    140  H82 PRO d   1      18.864 -22.058  12.340  0.00  0.00     0.064 H 
ATOM    141  H83 PRO d   1      17.663 -22.900  11.303  0.00  0.00     0.064 H 
BRANCH 131 142
ATOM    142  C   PRO d   1      18.878 -25.212  14.794  0.00  0.00     0.241 C 
ATOM    143  O   PRO d   1      19.689 -24.364  15.183  0.00  0.00    -0.271 OA
ATOM    144  N   LEU d   1      18.684 -26.376  15.407  0.00  0.00    -0.346 N 
ATOM    145  H84 LEU d   1      17.983 -26.997  15.055  0.00  0.00     0.163 HD
BRANCH 144 146
ATOM    146  CA  LEU d   1      19.457 -26.778  16.574  0.00  0.00     0.089 C 
ATOM    147  H85 LEU d   1      19.493 -25.937  17.282  0.00  0.00     0.087 H 
BRANCH 146 148
ATOM    148  C   LEU d   1      20.882 -27.123  16.152  0.00  0.00     0.241 C 
ATOM    149  O   LEU d   1      21.087 -28.002  15.315  0.00  0.00    -0.271 OA
ATOM    150  N   ASN d   1      21.847 -26.415  16.742  0.00  0.00    -0.344 N 
ATOM    151  H95 ASN d   1      21.582 -25.785  17.472  0.00  0.00     0.163 HD
BRANCH 150 152
ATOM    152  CA  ASN d   1      23.268 -26.497  16.395  0.00  0.00     0.104 C 
ATOM    153  H96 ASN d   1      23.811 -25.807  17.057  0.00  0.00     0.090 H 
BRANCH 152 154
ATOM    154  C   ASN d   1      23.547 -26.074  14.955  0.00  0.00     0.197 C 
ATOM    155  O   ASN d   1      23.848 -24.907  14.688  0.00  0.00    -0.646 OA
ATOM    156  OXT ASN d   1      23.476 -26.892  14.033  0.00  0.00    -0.646 OA
ENDBRANCH 152 154
BRANCH 152 157
ATOM    157  CB  ASN d   1      23.807 -27.910  16.638  0.00  0.00     0.037 C 
ATOM    158  H97 ASN d   1      23.267 -28.611  15.984  0.00  0.00     0.051 H 
ATOM    159  H98 ASN d   1      23.630 -28.179  17.690  0.00  0.00     0.051 H 
BRANCH 157 160
ATOM    160  CG  ASN d   1      25.292 -28.021  16.350  0.00  0.00     0.217 C 
ATOM    161  OD1 ASN d   1      26.063 -27.105  16.647  0.00  0.00    -0.274 OA
ATOM    162  ND2 ASN d   1      25.703 -29.146  15.773  0.00  0.00    -0.370 N 
ATOM    163  H99 ASN d   1      26.672 -29.274  15.560  0.00  0.00     0.159 HD
ATOM    164 0H10 ASN d   1      25.044 -29.864  15.552  0.00  0.00     0.159 HD
ENDBRANCH 157 160
ENDBRANCH 152 157
ENDBRANCH 150 152
ENDBRANCH 146 148
BRANCH 146 165
ATOM    165  CB  LEU d   1      18.793 -27.967  17.266  0.00  0.00    -0.035 C 
ATOM    166  H86 LEU d   1      18.954 -28.850  16.630  0.00  0.00     0.037 H 
ATOM    167  H87 LEU d   1      17.716 -27.752  17.330  0.00  0.00     0.037 H 
BRANCH 165 168
ATOM    168  CG  LEU d   1      19.272 -28.322  18.671  0.00  0.00    -0.059 C 
ATOM    169  H88 LEU d   1      20.285 -28.745  18.606  0.00  0.00     0.038 H 
BRANCH 168 170
ATOM    170  CD1 LEU d   1      19.320 -27.071  19.526  0.00  0.00    -0.073 C 
ATOM    171  H89 LEU d   1      19.666 -27.331  20.537  0.00  0.00     0.028 H 
ATOM    172  H90 LEU d   1      18.315 -26.628  19.585  0.00  0.00     0.028 H 
ATOM    173  H91 LEU d   1      20.015 -26.346  19.076  0.00  0.00     0.028 H 
ENDBRANCH 168 170
BRANCH 168 174
ATOM    174  CD2 LEU d   1      18.351 -29.357  19.287  0.00  0.00    -0.073 C 
ATOM    175  H92 LEU d   1      18.331 -30.255  18.651  0.00  0.00     0.028 H 
ATOM    176  H93 LEU d   1      17.335 -28.942  19.368  0.00  0.00     0.028 H 
ATOM    177  H94 LEU d   1      18.718 -29.625  20.289  0.00  0.00     0.028 H 
ENDBRANCH 168 174
ENDBRANCH 165 168
ENDBRANCH 146 165
ENDBRANCH 144 146
ENDBRANCH 131 142
ENDBRANCH 126 128
BRANCH 126 178
ATOM    178  CB  ARG d   1      16.499 -20.627  15.177  0.00  0.00    -0.036 C 
ATOM    179  H66 ARG d   1      17.338 -20.872  15.845  0.00  0.00     0.036 H 
ATOM    180  H67 ARG d   1      15.555 -20.947  15.642  0.00  0.00     0.036 H 
BRANCH 178 181
ATOM    181  CG  ARG d   1      16.454 -19.104  15.009  0.00  0.00    -0.048 C 
ATOM    182  H68 ARG d   1      16.255 -18.643  15.988  0.00  0.00     0.035 H 
ATOM    183  H69 ARG d   1      15.645 -18.846  14.310  0.00  0.00     0.035 H 
BRANCH 181 184
ATOM    184  CD  ARG d   1      17.771 -18.558  14.464  0.00  0.00     0.009 C 
ATOM    185  H70 ARG d   1      17.969 -19.020  13.486  0.00  0.00     0.064 H 
ATOM    186  H71 ARG d   1      18.579 -18.818  15.163  0.00  0.00     0.064 H 
BRANCH 184 187
ATOM    187  NE  ARG d   1      17.737 -17.104  14.301  0.00  0.00    -0.227 N 
ATOM    188  CZ  ARG d   1      17.400 -16.483  13.173  0.00  0.00     0.665 C 
ATOM    189  NH1 ARG d   1      17.075 -17.183  12.095  0.00  0.00    -0.235 N 
ATOM    190  NH2 ARG d   1      17.398 -15.156  13.120  0.00  0.00    -0.235 N 
ATOM    191  H73 ARG d   1      16.815 -16.697  11.225  0.00  0.00     0.174 HD
ATOM    192  H74 ARG d   1      17.082 -18.212  12.128  0.00  0.00     0.174 HD
ATOM    193  H75 ARG d   1      17.650 -14.607  13.954  0.00  0.00     0.174 HD
ATOM    194  H76 ARG d   1      17.145 -14.676  12.245  0.00  0.00     0.174 HD
ATOM    195  H72 ARG d   1      17.991 -16.523  15.113  0.00  0.00     0.177 HD
ENDBRANCH 184 187
ENDBRANCH 181 184
ENDBRANCH 178 181
ENDBRANCH 126 178
ENDBRANCH 124 126
ENDBRANCH   1 122
TORSDOF 50
