REMARK WARNING: 32 MAX_TORS EXCEEDED!!!
REMARK  38 active torsions:
REMARK  status: ('A' for Active; 'I' for Inactive)
REMARK    1  A    between atoms: N_1  and  CA_2 
REMARK    2  A    between atoms: CA_2  and  C_3 
REMARK    3  A    between atoms: CA_2  and  CB_5 
REMARK       I    between atoms: C_3  and  N_9 
REMARK    4  A    between atoms: CB_5  and  CG_6 
REMARK    5  A    between atoms: N_9  and  CA_10 
REMARK    6  A    between atoms: CA_10  and  C_11 
REMARK    7  A    between atoms: CA_10  and  CB_13 
REMARK       I    between atoms: C_11  and  N_18 
REMARK    8  A    between atoms: CB_13  and  CG_14 
REMARK    9  A    between atoms: CG_14  and  CD_15 
REMARK       I    between atoms: CD_15  and  NE2_17 
REMARK   10  A    between atoms: N_18  and  CA_19 
REMARK   11  A    between atoms: CA_19  and  C_20 
REMARK       I    between atoms: C_20  and  N_22 
REMARK   12  A    between atoms: N_22  and  CA_23 
REMARK   13  A    between atoms: CA_23  and  C_24 
REMARK   14  A    between atoms: CA_23  and  CB_26 
REMARK       I    between atoms: C_24  and  N_33 
REMARK   15  A    between atoms: CB_26  and  CG_27 
REMARK   16  A    between atoms: CG_27  and  CD_28 
REMARK   17  A    between atoms: CD_28  and  NE_29 
REMARK       I    between atoms: NE_29  and  CZ_30 
REMARK       I    between atoms: CZ_30  and  NH1_31 
REMARK       I    between atoms: CZ_30  and  NH2_32 
REMARK   18  A    between atoms: N_33  and  CA_34 
REMARK   19  A    between atoms: CA_34  and  C_35 
REMARK       I    between atoms: C_35  and  N_37 
REMARK   20  A    between atoms: N_37  and  CA_38 
REMARK   21  A    between atoms: CA_38  and  C_39 
REMARK   22  A    between atoms: CA_38  and  CB_41 
REMARK       I    between atoms: C_39  and  N_48 
REMARK   23  A    between atoms: CB_41  and  CG_42 
REMARK   24  A    between atoms: CG_42  and  CD_43 
REMARK   25  A    between atoms: CD_43  and  NE_44 
REMARK       I    between atoms: NE_44  and  CZ_45 
REMARK       I    between atoms: CZ_45  and  NH1_46 
REMARK       I    between atoms: CZ_45  and  NH2_47 
REMARK   26  A    between atoms: N_48  and  CA_49 
REMARK   27  A    between atoms: CA_49  and  C_50 
REMARK   28  A    between atoms: CA_49  and  CB_52 
REMARK       I    between atoms: C_50  and  N_59 
REMARK   29  A    between atoms: CB_52  and  CG_53 
REMARK   30  A    between atoms: CG_53  and  CD_54 
REMARK   31  A    between atoms: CD_54  and  NE_55 
REMARK       I    between atoms: NE_55  and  CZ_56 
REMARK       I    between atoms: CZ_56  and  NH1_57 
REMARK       I    between atoms: CZ_56  and  NH2_58 
REMARK   32  A    between atoms: N_59  and  CA_60 
REMARK   33  A    between atoms: CA_60  and  C_61 
REMARK   34  A    between atoms: CA_60  and  CB_63 
REMARK       I    between atoms: C_61  and  N_70 
REMARK   35  A    between atoms: CB_63  and  CG_64 
REMARK   36  A    between atoms: CG_64  and  CD_65 
REMARK   37  A    between atoms: CD_65  and  NE_66 
REMARK       I    between atoms: NE_66  and  CZ_67 
REMARK       I    between atoms: CZ_67  and  NH1_68 
REMARK       I    between atoms: CZ_67  and  NH2_69 
REMARK   38  A    between atoms: CA_71  and  C_72 
ROOT
ATOM      1  CA  ARG d   1      19.258  23.673  10.171  0.00  0.00     0.089 C 
ATOM      2  H35 ARG d   1      19.708  22.783   9.707  0.00  0.00     0.087 H 
ENDROOT
BRANCH   1   3
ATOM      3  N   ARG d   1      19.547  24.827   9.332  0.00  0.00    -0.346 N 
ATOM      4  C   GLY d   1      20.364  24.752   8.287  0.00  0.00     0.236 C 
ATOM      5  O   GLY d   1      20.939  23.716   7.962  0.00  0.00    -0.272 OA
ATOM      6  H34 ARG d   1      19.117  25.703   9.549  0.00  0.00     0.163 HD
BRANCH   4   7
ATOM      7  CA  GLY d   1      20.536  26.033   7.503  0.00  0.00     0.069 C 
ATOM      8  H32 GLY d   1      19.805  26.037   6.681  0.00  0.00     0.078 H 
ATOM      9  H33 GLY d   1      20.335  26.880   8.176  0.00  0.00     0.078 H 
BRANCH   7  10
ATOM     10  N   GLY d   1      21.858  26.203   6.938  0.00  0.00    -0.351 N 
ATOM     11  C   ARG d   1      22.906  26.413   7.720  0.00  0.00     0.240 C 
ATOM     12  O   ARG d   1      22.821  26.516   8.950  0.00  0.00    -0.271 OA
ATOM     13  H31 GLY d   1      21.981  26.161   5.947  0.00  0.00     0.163 HD
BRANCH  11  14
ATOM     14  CA  ARG d   1      24.248  26.506   7.017  0.00  0.00     0.089 C 
ATOM     15  H19 ARG d   1      24.073  26.477   5.931  0.00  0.00     0.087 H 
BRANCH  14  16
ATOM     16  N   ARG d   1      24.931  27.763   7.332  0.00  0.00    -0.346 N 
ATOM     17  C   GLY d   1      24.833  28.826   6.532  0.00  0.00     0.236 C 
ATOM     18  O   GLY d   1      24.202  28.805   5.476  0.00  0.00    -0.272 OA
ATOM     19  H18 ARG d   1      25.482  27.826   8.164  0.00  0.00     0.163 HD
BRANCH  17  20
ATOM     20  CA  GLY d   1      25.569  30.085   6.953  0.00  0.00     0.069 C 
ATOM     21  H16 GLY d   1      26.471  30.181   6.331  0.00  0.00     0.078 H 
ATOM     22  H17 GLY d   1      24.908  30.946   6.775  0.00  0.00     0.078 H 
BRANCH  20  23
ATOM     23  N   GLY d   1      25.973  30.103   8.344  0.00  0.00    -0.351 N 
ATOM     24  C   GLN d   1      25.382  30.899   9.236  0.00  0.00     0.240 C 
ATOM     25  O   GLN d   1      24.477  31.679   8.943  0.00  0.00    -0.271 OA
ATOM     26  H15 GLY d   1      26.715  29.503   8.643  0.00  0.00     0.163 HD
BRANCH  24  27
ATOM     27  CA  GLN d   1      25.881  30.793  10.678  0.00  0.00     0.090 C 
ATOM     28  H8  GLN d   1      25.283  30.020  11.182  0.00  0.00     0.087 H 
BRANCH  27  29
ATOM     29  N   GLN d   1      27.282  30.392  10.744  0.00  0.00    -0.346 N 
ATOM     30  C   ASP d   1      28.271  31.121  10.236  0.00  0.00     0.249 C 
ATOM     31  O   ASP d   1      28.098  32.146   9.564  0.00  0.00    -0.271 OA
ATOM     32  H7  GLN d   1      27.509  29.528  11.193  0.00  0.00     0.163 HD
BRANCH  30  33
ATOM     33  CA  ASP d   1      29.674  30.595  10.519  0.00  0.00     0.185 C 
ATOM     34  H4  ASP d   1      30.117  31.209  11.317  0.00  0.00     0.100 H 
BRANCH  33  35
ATOM     35  N   ASP d   1      29.645  29.212  10.974  0.00  0.00    -0.066 N 
ATOM     36  H1  ASP d   1      30.586  28.897  11.151  0.00  0.00     0.275 HD
ATOM     37  H2  ASP d   1      29.225  28.633  10.264  0.00  0.00     0.275 HD
ATOM     38  H3  ASP d   1      29.104  29.149  11.822  0.00  0.00     0.275 HD
ENDBRANCH  33  35
BRANCH  33  39
ATOM     39  CB  ASP d   1      30.538  30.729   9.271  0.00  0.00     0.050 C 
ATOM     40  H5  ASP d   1      29.942  30.438   8.393  0.00  0.00     0.052 H 
ATOM     41  H6  ASP d   1      31.404  30.058   9.365  0.00  0.00     0.052 H 
BRANCH  39  42
ATOM     42  CG  ASP d   1      31.035  32.142   9.077  0.00  0.00     0.175 C 
ATOM     43  OD1 ASP d   1      31.113  32.885  10.089  0.00  0.00    -0.648 OA
ATOM     44  OD2 ASP d   1      31.374  32.518   7.933  0.00  0.00    -0.648 OA
ENDBRANCH  39  42
ENDBRANCH  33  39
ENDBRANCH  30  33
ENDBRANCH  27  29
BRANCH  27  45
ATOM     45  CB  GLN d   1      25.683  32.117  11.432  0.00  0.00    -0.030 C 
ATOM     46  H9  GLN d   1      24.626  32.413  11.363  0.00  0.00     0.037 H 
ATOM     47  H10 GLN d   1      26.312  32.891  10.967  0.00  0.00     0.037 H 
BRANCH  45  48
ATOM     48  CG  GLN d   1      26.065  31.985  12.902  0.00  0.00     0.011 C 
ATOM     49  H11 GLN d   1      27.123  31.691  12.955  0.00  0.00     0.047 H 
ATOM     50  H12 GLN d   1      25.442  31.195  13.347  0.00  0.00     0.047 H 
BRANCH  48  51
ATOM     51  CD  GLN d   1      25.885  33.250  13.727  0.00  0.00     0.215 C 
ATOM     52  OE1 GLN d   1      25.579  34.328  13.211  0.00  0.00    -0.274 OA
ATOM     53  NE2 GLN d   1      26.090  33.116  15.028  0.00  0.00    -0.370 N 
ATOM     54  H13 GLN d   1      25.990  33.905  15.634  0.00  0.00     0.159 HD
ATOM     55  H14 GLN d   1      26.345  32.225  15.405  0.00  0.00     0.159 HD
ENDBRANCH  48  51
ENDBRANCH  45  48
ENDBRANCH  27  45
ENDBRANCH  24  27
ENDBRANCH  20  23
ENDBRANCH  17  20
ENDBRANCH  14  16
BRANCH  14  56
ATOM     56  CB  ARG d   1      25.109  25.297   7.399  0.00  0.00    -0.036 C 
ATOM     57  H20 ARG d   1      24.514  24.383   7.257  0.00  0.00     0.036 H 
ATOM     58  H21 ARG d   1      25.394  25.389   8.457  0.00  0.00     0.036 H 
BRANCH  56  59
ATOM     59  CG  ARG d   1      26.364  25.187   6.571  0.00  0.00    -0.048 C 
ATOM     60  H22 ARG d   1      26.924  26.131   6.653  0.00  0.00     0.035 H 
ATOM     61  H23 ARG d   1      26.080  25.019   5.522  0.00  0.00     0.035 H 
BRANCH  59  62
ATOM     62  CD  ARG d   1      27.258  24.055   7.017  0.00  0.00     0.009 C 
ATOM     63  H24 ARG d   1      27.323  24.082   8.115  0.00  0.00     0.064 H 
ATOM     64  H25 ARG d   1      28.257  24.217   6.586  0.00  0.00     0.064 H 
BRANCH  62  65
ATOM     65  NE  ARG d   1      26.801  22.723   6.620  0.00  0.00    -0.227 N 
ATOM     66  CZ  ARG d   1      26.906  22.220   5.391  0.00  0.00     0.665 C 
ATOM     67  NH1 ARG d   1      27.409  22.959   4.404  0.00  0.00    -0.235 N 
ATOM     68  NH2 ARG d   1      26.483  20.988   5.145  0.00  0.00    -0.235 N 
ATOM     69  H27 ARG d   1      27.488  22.566   3.455  0.00  0.00     0.174 HD
ATOM     70  H28 ARG d   1      27.719  23.924   4.589  0.00  0.00     0.174 HD
ATOM     71  H29 ARG d   1      26.094  20.415   5.907  0.00  0.00     0.174 HD
ATOM     72  H30 ARG d   1      26.544  20.604   4.191  0.00  0.00     0.174 HD
ATOM     73  H26 ARG d   1      26.367  22.132   7.343  0.00  0.00     0.177 HD
ENDBRANCH  62  65
ENDBRANCH  59  62
ENDBRANCH  56  59
ENDBRANCH  14  56
ENDBRANCH  11  14
ENDBRANCH   7  10
ENDBRANCH   4   7
ENDBRANCH   1   3
BRANCH   1  74
ATOM     74  C   ARG d   1      17.746  23.446  10.275  0.00  0.00     0.241 C 
ATOM     75  O   ARG d   1      16.971  24.399  10.410  0.00  0.00    -0.271 OA
ATOM     76  N   ARG d   1      17.369  22.178  10.167  0.00  0.00    -0.346 N 
ATOM     77  H47 ARG d   1      18.092  21.504  10.016  0.00  0.00     0.163 HD
BRANCH  76  78
ATOM     78  CA  ARG d   1      16.006  21.671  10.247  0.00  0.00     0.089 C 
ATOM     79  H48 ARG d   1      15.322  22.485  10.528  0.00  0.00     0.087 H 
BRANCH  78  80
ATOM     80  C   ARG d   1      15.976  20.573  11.312  0.00  0.00     0.241 C 
ATOM     81  O   ARG d   1      16.708  19.586  11.198  0.00  0.00    -0.271 OA
ATOM     82  N   ARG d   1      15.157  20.718  12.346  0.00  0.00    -0.346 N 
ATOM     83  H60 ARG d   1      14.640  21.565  12.470  0.00  0.00     0.163 HD
BRANCH  82  84
ATOM     84  CA  ARG d   1      15.022  19.615  13.304  0.00  0.00     0.089 C 
ATOM     85  H61 ARG d   1      15.334  18.695  12.787  0.00  0.00     0.087 H 
BRANCH  84  86
ATOM     86  C   ARG d   1      13.586  19.398  13.786  0.00  0.00     0.243 C 
ATOM     87  O   ARG d   1      13.162  19.955  14.802  0.00  0.00    -0.271 OA
ATOM     88  N   PRO d   1      12.837  18.558  13.051  0.00  0.00    -0.336 N 
ATOM     89  CA  PRO d   1      11.445  18.222  13.365  0.00  0.00     0.098 C 
ATOM     90  CD  PRO d   1      13.325  17.823  11.865  0.00  0.00    -0.001 C 
ATOM     91  CB  PRO d   1      10.991  17.453  12.120  0.00  0.00    -0.035 C 
ATOM     92  H73 PRO d   1      10.848  19.136  13.499  0.00  0.00     0.089 H 
ATOM     93  CG  PRO d   1      12.254  16.791  11.632  0.00  0.00    -0.048 C 
ATOM     94  H74 PRO d   1      10.588  18.139  11.360  0.00  0.00     0.036 H 
ATOM     95  H75 PRO d   1      10.229  16.703  12.378  0.00  0.00     0.036 H 
ATOM     96  H76 PRO d   1      12.177  16.543  10.563  0.00  0.00     0.035 H 
ATOM     97  H77 PRO d   1      12.462  15.876  12.206  0.00  0.00     0.035 H 
ATOM     98  H78 PRO d   1      14.295  17.345  12.069  0.00  0.00     0.064 H 
ATOM     99  H79 PRO d   1      13.421  18.493  10.998  0.00  0.00     0.064 H 
BRANCH  89 100
ATOM    100  C   PRO d   1      11.320  17.361  14.622  0.00  0.00     0.196 C 
ATOM    101  O   PRO d   1      10.709  17.812  15.594  0.00  0.00    -0.646 OA
ATOM    102  OXT PRO d   1      11.834  16.240  14.629  0.00  0.00    -0.646 OA
ENDBRANCH  89 100
ENDBRANCH  84  86
BRANCH  84 103
ATOM    103  CB  ARG d   1      15.961  19.823  14.497  0.00  0.00    -0.036 C 
ATOM    104  H62 ARG d   1      16.800  19.119  14.396  0.00  0.00     0.036 H 
ATOM    105  H63 ARG d   1      15.400  19.595  15.415  0.00  0.00     0.036 H 
BRANCH 103 106
ATOM    106  CG  ARG d   1      16.536  21.221  14.635  0.00  0.00    -0.048 C 
ATOM    107  H64 ARG d   1      15.760  21.961  14.389  0.00  0.00     0.035 H 
ATOM    108  H65 ARG d   1      17.385  21.336  13.945  0.00  0.00     0.035 H 
BRANCH 106 109
ATOM    109  CD  ARG d   1      17.009  21.443  16.054  0.00  0.00     0.009 C 
ATOM    110  H66 ARG d   1      17.901  20.823  16.227  0.00  0.00     0.064 H 
ATOM    111  H67 ARG d   1      16.208  21.134  16.742  0.00  0.00     0.064 H 
BRANCH 109 112
ATOM    112  NE  ARG d   1      17.350  22.833  16.333  0.00  0.00    -0.227 N 
ATOM    113  CZ  ARG d   1      16.460  23.795  16.546  0.00  0.00     0.665 C 
ATOM    114  NH1 ARG d   1      15.162  23.530  16.486  0.00  0.00    -0.235 N 
ATOM    115  NH2 ARG d   1      16.872  25.027  16.804  0.00  0.00    -0.235 N 
ATOM    116  H69 ARG d   1      14.475  24.279  16.652  0.00  0.00     0.174 HD
ATOM    117  H70 ARG d   1      14.841  22.575  16.273  0.00  0.00     0.174 HD
ATOM    118  H71 ARG d   1      17.880  25.234  16.851  0.00  0.00     0.174 HD
ATOM    119  H72 ARG d   1      16.184  25.778  16.958  0.00  0.00     0.174 HD
ATOM    120  H68 ARG d   1      18.348  23.085  16.367  0.00  0.00     0.177 HD
ENDBRANCH 109 112
ENDBRANCH 106 109
ENDBRANCH 103 106
ENDBRANCH  84 103
ENDBRANCH  82  84
ENDBRANCH  78  80
BRANCH  78 121
ATOM    121  CB  ARG d   1      15.578  21.090   8.902  0.00  0.00    -0.036 C 
ATOM    122  H49 ARG d   1      16.044  20.099   8.801  0.00  0.00     0.036 H 
ATOM    123  H50 ARG d   1      15.958  21.755   8.113  0.00  0.00     0.036 H 
BRANCH 121 124
ATOM    124  CG  ARG d   1      14.108  20.927   8.693  0.00  0.00    -0.048 C 
ATOM    125  H51 ARG d   1      13.726  21.789   8.126  0.00  0.00     0.035 H 
ATOM    126  H52 ARG d   1      13.607  20.880   9.671  0.00  0.00     0.035 H 
BRANCH 124 127
ATOM    127  CD  ARG d   1      13.816  19.654   7.922  0.00  0.00     0.009 C 
ATOM    128  H53 ARG d   1      12.793  19.715   7.522  0.00  0.00     0.064 H 
ATOM    129  H54 ARG d   1      13.889  18.803   8.615  0.00  0.00     0.064 H 
BRANCH 127 130
ATOM    130  NE  ARG d   1      14.736  19.424   6.807  0.00  0.00    -0.227 N 
ATOM    131  CZ  ARG d   1      14.600  18.424   5.947  0.00  0.00     0.665 C 
ATOM    132  NH1 ARG d   1      13.572  17.599   6.066  0.00  0.00    -0.235 N 
ATOM    133  NH2 ARG d   1      15.469  18.258   4.961  0.00  0.00    -0.235 N 
ATOM    134  H56 ARG d   1      13.458  16.819   5.403  0.00  0.00     0.174 HD
ATOM    135  H57 ARG d   1      12.886  17.737   6.822  0.00  0.00     0.174 HD
ATOM    136  H58 ARG d   1      16.270  18.899   4.867  0.00  0.00     0.174 HD
ATOM    137  H59 ARG d   1      15.344  17.488   4.289  0.00  0.00     0.174 HD
ATOM    138  H55 ARG d   1      15.528  20.071   6.684  0.00  0.00     0.177 HD
ENDBRANCH 127 130
ENDBRANCH 124 127
ENDBRANCH 121 124
ENDBRANCH  78 121
ENDBRANCH  76  78
ENDBRANCH   1  74
BRANCH   1 139
ATOM    139  CB  ARG d   1      19.888  23.866  11.560  0.00  0.00    -0.036 C 
ATOM    140  H36 ARG d   1      19.991  24.946  11.740  0.00  0.00     0.036 H 
ATOM    141  H37 ARG d   1      20.884  23.400  11.550  0.00  0.00     0.036 H 
BRANCH 139 142
ATOM    142  CG  ARG d   1      19.102  23.270  12.714  0.00  0.00    -0.048 C 
ATOM    143  H38 ARG d   1      19.071  22.176  12.600  0.00  0.00     0.035 H 
ATOM    144  H39 ARG d   1      18.077  23.670  12.694  0.00  0.00     0.035 H 
BRANCH 142 145
ATOM    145  CD  ARG d   1      19.745  23.613  14.058  0.00  0.00     0.009 C 
ATOM    146  H40 ARG d   1      19.323  22.956  14.832  0.00  0.00     0.064 H 
ATOM    147  H41 ARG d   1      19.518  24.661  14.303  0.00  0.00     0.064 H 
BRANCH 145 148
ATOM    148  NE  ARG d   1      21.193  23.438  14.030  0.00  0.00    -0.227 N 
ATOM    149  CZ  ARG d   1      21.947  23.251  15.110  0.00  0.00     0.665 C 
ATOM    150  NH1 ARG d   1      21.388  23.205  16.312  0.00  0.00    -0.235 N 
ATOM    151  NH2 ARG d   1      23.260  23.101  14.988  0.00  0.00    -0.235 N 
ATOM    152  H43 ARG d   1      21.973  23.060  17.147  0.00  0.00     0.174 HD
ATOM    153  H44 ARG d   1      20.369  23.314  16.410  0.00  0.00     0.174 HD
ATOM    154  H45 ARG d   1      23.698  23.136  14.056  0.00  0.00     0.174 HD
ATOM    155  H46 ARG d   1      23.841  22.950  15.825  0.00  0.00     0.174 HD
ATOM    156  H42 ARG d   1      21.663  23.461  13.114  0.00  0.00     0.177 HD
ENDBRANCH 145 148
ENDBRANCH 142 145
ENDBRANCH 139 142
ENDBRANCH   1 139
TORSDOF 38
