REMARK  11 active torsions:
REMARK  status: ('A' for Active; 'I' for Inactive)
REMARK    1  A    between atoms: P2_2  and  C5_5 
REMARK    2  A    between atoms: C5_5  and  P6_6 
REMARK    3  A    between atoms: C5_5  and  N10_10 
REMARK    4  A    between atoms: N10_10  and  C11_11 
REMARK    5  A    between atoms: C15_15  and  O16_16 
REMARK    6  A    between atoms: O16_16  and  C17_17 
REMARK    7  A    between atoms: C17_17  and  C18_18 
REMARK    8  A    between atoms: C18_18  and  C19_19 
REMARK    9  A    between atoms: C19_19  and  C20_20 
REMARK   10  A    between atoms: C20_20  and  C21_21 
REMARK   11  A    between atoms: C21_21  and  C22_22 
ROOT
ATOM      1  C11 T93 d   1     -15.120  31.565  -8.877  0.00  0.00     0.127 A 
ATOM      2  N12 T93 d   1     -14.066  31.396  -8.042  0.00  0.00    -0.243 NA
ATOM      3  C13 T93 d   1     -13.733  30.137  -7.679  0.00  0.00     0.007 A 
ATOM      4  C14 T93 d   1     -14.444  29.050  -8.161  0.00  0.00    -0.034 A 
ATOM      5  C15 T93 d   1     -15.482  29.215  -9.010  0.00  0.00     0.073 A 
ATOM      6  C23 T93 d   1     -15.837  30.470  -9.381  0.00  0.00    -0.007 A 
ATOM      7  H3  T93 d   1     -12.901  29.976  -7.003  0.00  0.00     0.115 H 
ATOM      8  H4  T93 d   1     -14.163  28.050  -7.852  0.00  0.00     0.089 H 
ATOM      9  H18 T93 d   1     -16.667  30.625 -10.061  0.00  0.00     0.093 H 
ENDROOT
BRANCH   5  10
ATOM     10  O16 T93 d   1     -16.144  28.056  -9.466  0.00  0.00    -0.351 OA
BRANCH  10  11
ATOM     11  C17 T93 d   1     -17.298  28.166 -10.230  0.00  0.00     0.026 C 
ATOM     12  H5  T93 d   1     -17.072  28.658 -11.187  0.00  0.00     0.075 H 
ATOM     13  H6  T93 d   1     -18.056  28.750  -9.687  0.00  0.00     0.075 H 
BRANCH  11  14
ATOM     14  C18 T93 d   1     -17.804  26.754 -10.476  0.00  0.00    -0.045 C 
ATOM     15  H7  T93 d   1     -17.962  26.250  -9.511  0.00  0.00     0.036 H 
ATOM     16  H8  T93 d   1     -17.058  26.197 -11.063  0.00  0.00     0.036 H 
BRANCH  14  17
ATOM     17  C19 T93 d   1     -19.123  26.796 -11.245  0.00  0.00    -0.063 C 
ATOM     18  H9  T93 d   1     -18.946  27.134 -12.277  0.00  0.00     0.033 H 
ATOM     19  H10 T93 d   1     -19.825  27.483 -10.750  0.00  0.00     0.033 H 
BRANCH  17  20
ATOM     20  C20 T93 d   1     -19.699  25.372 -11.251  0.00  0.00    -0.065 C 
ATOM     21  H11 T93 d   1     -20.795  25.420 -11.332  0.00  0.00     0.033 H 
ATOM     22  H12 T93 d   1     -19.422  24.861 -10.317  0.00  0.00     0.033 H 
BRANCH  20  23
ATOM     23  C21 T93 d   1     -19.139  24.607 -12.430  0.00  0.00    -0.069 C 
ATOM     24  H13 T93 d   1     -18.152  24.194 -12.175  0.00  0.00     0.032 H 
ATOM     25  H14 T93 d   1     -19.044  25.274 -13.299  0.00  0.00     0.032 H 
BRANCH  23  26
ATOM     26  C22 T93 d   1     -20.105  23.480 -12.746  0.00  0.00    -0.077 C 
ATOM     27  H15 T93 d   1     -19.726  22.902 -13.602  0.00  0.00     0.027 H 
ATOM     28  H16 T93 d   1     -21.090  23.901 -12.995  0.00  0.00     0.027 H 
ATOM     29  H17 T93 d   1     -20.198  22.821 -11.870  0.00  0.00     0.027 H 
ENDBRANCH  23  26
ENDBRANCH  20  23
ENDBRANCH  17  20
ENDBRANCH  14  17
ENDBRANCH  11  14
ENDBRANCH  10  11
ENDBRANCH   5  10
BRANCH   1  30
ATOM     30  N10 T93 d   1     -15.475  32.908  -9.240  0.00  0.00    -0.347 N 
ATOM     31  H2  T93 d   1     -15.938  33.096 -10.141  0.00  0.00     0.162 HD
BRANCH  30  32
ATOM     32  C5  T93 d   1     -15.175  34.011  -8.320  0.00  0.00     0.228 C 
ATOM     33  H1  T93 d   1     -14.149  33.915  -7.936  0.00  0.00     0.117 H 
BRANCH  32  34
ATOM     34  P2  T93 d   1     -15.372  35.559  -9.280  0.00  0.00     0.297 P 
ATOM     35  O1  T93 d   1     -14.343  35.554 -10.384  0.00  0.00    -0.638 OA
ATOM     36  O3  T93 d   1     -15.231  36.772  -8.377  0.00  0.00    -0.638 OA
ATOM     37  O4  T93 d   1     -16.721  35.599  -9.930  0.00  0.00    -0.638 OA
ENDBRANCH  32  34
BRANCH  32  38
ATOM     38  P6  T93 d   1     -16.372  34.063  -6.912  0.00  0.00     0.297 P 
ATOM     39  O7  T93 d   1     -16.131  35.260  -6.029  0.00  0.00    -0.638 OA
ATOM     40  O8  T93 d   1     -16.242  32.772  -6.119  0.00  0.00    -0.638 OA
ATOM     41  O9  T93 d   1     -17.740  34.157  -7.538  0.00  0.00    -0.638 OA
ENDBRANCH  32  38
ENDBRANCH  30  32
ENDBRANCH   1  30
TORSDOF 11
