REMARK  19 active torsions:
REMARK  status: ('A' for Active; 'I' for Inactive)
REMARK    1  A    between atoms: C37_4  and  O07_19 
REMARK    2  A    between atoms: C30_8  and  C32_5 
REMARK    3  A    between atoms: C29_9  and  C30_8 
REMARK       I    between atoms: N04_23  and  C29_9 
REMARK    4  A    between atoms: C25_46  and  S02_12 
REMARK    5  A    between atoms: S02_12  and  C31_48 
REMARK    6  A    between atoms: C06_29  and  O01_13 
REMARK    7  A    between atoms: C13_35  and  O03_15 
REMARK       I    between atoms: C12_34  and  N01_20 
REMARK    8  A    between atoms: N02_21  and  C03_26 
REMARK       I    between atoms: C05_28  and  N02_21 
REMARK    9  A    between atoms: N03_22  and  C14_36 
REMARK       I    between atoms: C21_50  and  N03_22 
REMARK   10  A    between atoms: C22_43  and  N04_23 
REMARK   11  A    between atoms: C01_24  and  C05_28 
REMARK   12  A    between atoms: C02_25  and  C07_30 
REMARK   13  A    between atoms: C02_25  and  C08_31 
REMARK   14  A    between atoms: C13_35  and  C12_34 
REMARK   15  A    between atoms: C14_36  and  C13_35 
REMARK   16  A    between atoms: C14_36  and  C17_39 
REMARK   17  A    between atoms: C17_39  and  C20_42 
REMARK   18  A    between atoms: C22_43  and  C25_46 
REMARK   19  A    between atoms: C22_43  and  C21_50 
ROOT
ATOM      1  C14 8V9 d   1      17.694 -26.045 -24.746  0.00  0.00     0.049 C 
ATOM      2  H28 8V9 d   1      17.723 -25.146 -24.113  0.00  0.00     0.077 H 
ENDROOT
BRANCH   1   3
ATOM      3  N03 8V9 d   1      18.810 -26.080 -25.670  0.00  0.00    -0.351 N 
ATOM      4  C21 8V9 d   1      20.065 -25.383 -25.375  0.00  0.00     0.241 C 
ATOM      5  O05 8V9 d   1      20.246 -24.763 -24.374  0.00  0.00    -0.271 OA
ATOM      6  H14 8V9 d   1      18.722 -26.590 -26.526  0.00  0.00     0.163 HD
BRANCH   4   7
ATOM      7  C22 8V9 d   1      21.192 -25.669 -26.366  0.00  0.00     0.097 C 
ATOM      8  H35 8V9 d   1      20.801 -25.939 -27.358  0.00  0.00     0.088 H 
BRANCH   7   9
ATOM      9  N04 8V9 d   1      22.157 -24.621 -26.502  0.00  0.00    -0.347 N 
ATOM     10  C29 8V9 d   1      21.815 -23.461 -27.310  0.00  0.00     0.222 C 
ATOM     11  O06 8V9 d   1      20.741 -23.418 -27.834  0.00  0.00    -0.273 OA
ATOM     12  H15 8V9 d   1      23.047 -24.685 -26.051  0.00  0.00     0.163 HD
BRANCH  10  13
ATOM     13  C30 8V9 d   1      22.886 -22.324 -27.459  0.00  0.00     0.033 C 
ATOM     14  H6  8V9 d   1      23.782 -22.597 -26.882  0.00  0.00     0.054 H 
ATOM     15  H7  8V9 d   1      23.152 -22.218 -28.521  0.00  0.00     0.054 H 
BRANCH  13  16
ATOM     16  C32 8V9 d   1      22.336 -20.958 -26.932  0.00  0.00    -0.049 A 
ATOM     17  C34 8V9 d   1      22.871 -20.351 -25.626  0.00  0.00    -0.074 A 
ATOM     18  C36 8V9 d   1      22.399 -19.178 -25.188  0.00  0.00    -0.051 A 
ATOM     19  H1  8V9 d   1      23.632 -20.874 -25.058  0.00  0.00     0.084 H 
ATOM     20  C37 8V9 d   1      21.310 -18.429 -25.991  0.00  0.00     0.065 A 
ATOM     21  H3  8V9 d   1      22.781 -18.752 -24.268  0.00  0.00     0.087 H 
ATOM     22  C35 8V9 d   1      20.850 -18.950 -27.117  0.00  0.00    -0.051 A 
ATOM     23  C33 8V9 d   1      21.395 -20.305 -27.630  0.00  0.00    -0.074 A 
ATOM     24  H2  8V9 d   1      20.088 -18.426 -27.683  0.00  0.00     0.087 H 
ATOM     25  H44 8V9 d   1      21.016 -20.726 -28.554  0.00  0.00     0.084 H 
BRANCH  20  26
ATOM     26  O07 8V9 d   1      20.796 -17.192 -25.527  0.00  0.00    -0.361 OA
ATOM     27  H12 8V9 d   1      20.141 -16.874 -26.137  0.00  0.00     0.217 HD
ENDBRANCH  20  26
ENDBRANCH  13  16
ENDBRANCH  10  13
ENDBRANCH   7   9
BRANCH   7  28
ATOM     28  C25 8V9 d   1      21.816 -26.830 -25.650  0.00  0.00     0.003 C 
ATOM     29  H38 8V9 d   1      22.213 -26.481 -24.685  0.00  0.00     0.052 H 
ATOM     30  H39 8V9 d   1      21.045 -27.595 -25.474  0.00  0.00     0.052 H 
BRANCH  28  31
ATOM     31  S02 8V9 d   1      23.119 -27.542 -26.573  0.00  0.00    -0.171 SA
BRANCH  31  32
ATOM     32  C31 8V9 d   1      22.589 -27.976 -28.201  0.00  0.00    -0.035 C 
ATOM     33  H41 8V9 d   1      23.430 -28.420 -28.754  0.00  0.00     0.041 H 
ATOM     34  H42 8V9 d   1      22.240 -27.074 -28.726  0.00  0.00     0.041 H 
ATOM     35  H43 8V9 d   1      21.767 -28.704 -28.137  0.00  0.00     0.041 H 
ENDBRANCH  31  32
ENDBRANCH  28  31
ENDBRANCH   7  28
ENDBRANCH   4   7
ENDBRANCH   1   3
BRANCH   1  36
ATOM     36  C13 8V9 d   1      17.981 -27.333 -23.920  0.00  0.00     0.132 C 
ATOM     37  H27 8V9 d   1      19.035 -27.312 -23.604  0.00  0.00     0.101 H 
BRANCH  36  38
ATOM     38  O03 8V9 d   1      17.772 -28.489 -24.630  0.00  0.00    -0.384 OA
ATOM     39  H11 8V9 d   1      17.985 -29.237 -24.085  0.00  0.00     0.210 HD
ENDBRANCH  36  38
BRANCH  36  40
ATOM     40  C12 8V9 d   1      17.081 -27.330 -22.666  0.00  0.00     0.252 C 
ATOM     41  O04 8V9 d   1      16.051 -27.946 -22.604  0.00  0.00    -0.270 OA
ATOM     42  N01 8V9 d   1      17.509 -26.492 -21.534  0.00  0.00    -0.326 N 
ATOM     43  C01 8V9 d   1      16.775 -26.424 -20.280  0.00  0.00     0.108 C 
ATOM     44  C04 8V9 d   1      18.778 -25.694 -21.423  0.00  0.00     0.040 C 
ATOM     45  C02 8V9 d   1      17.788 -26.941 -19.234  0.00  0.00     0.032 C 
ATOM     46  H16 8V9 d   1      15.925 -27.121 -20.328  0.00  0.00     0.090 H 
ATOM     47  S01 8V9 d   1      19.359 -26.149 -19.766  0.00  0.00    -0.137 SA
ATOM     48  H18 8V9 d   1      19.504 -25.986 -22.196  0.00  0.00     0.081 H 
ATOM     49  H19 8V9 d   1      18.580 -24.614 -21.495  0.00  0.00     0.081 H 
BRANCH  43  50
ATOM     50  C05 8V9 d   1      16.194 -25.034 -19.957  0.00  0.00     0.242 C 
ATOM     51  O02 8V9 d   1      16.799 -24.033 -20.090  0.00  0.00    -0.271 OA
ATOM     52  N02 8V9 d   1      14.857 -25.002 -19.397  0.00  0.00    -0.348 N 
ATOM     53  H13 8V9 d   1      14.347 -25.857 -19.306  0.00  0.00     0.163 HD
BRANCH  52  54
ATOM     54  C03 8V9 d   1      14.276 -23.835 -18.991  0.00  0.00     0.063 C 
ATOM     55  C06 8V9 d   1      13.162 -24.098 -18.043  0.00  0.00     0.063 C 
ATOM     56  C10 8V9 d   1      12.304 -23.114 -18.387  0.00  0.00    -0.014 C 
ATOM     57  H20 8V9 d   1      13.476 -24.026 -16.991  0.00  0.00     0.087 H 
ATOM     58  C11 8V9 d   1      12.220 -22.715 -19.733  0.00  0.00    -0.047 A 
ATOM     59  H8  8V9 d   1      12.586 -22.224 -17.805  0.00  0.00     0.044 H 
ATOM     60  H9  8V9 d   1      11.299 -23.445 -18.087  0.00  0.00     0.044 H 
ATOM     61  C09 8V9 d   1      13.498 -23.131 -20.294  0.00  0.00    -0.027 A 
ATOM     62  C16 8V9 d   1      11.200 -21.995 -20.752  0.00  0.00    -0.076 A 
ATOM     63  C15 8V9 d   1      13.723 -22.910 -21.603  0.00  0.00    -0.074 A 
ATOM     64  C18 8V9 d   1      12.927 -22.337 -22.396  0.00  0.00    -0.082 A 
ATOM     65  H29 8V9 d   1      14.668 -23.253 -22.009  0.00  0.00     0.084 H 
ATOM     66  C19 8V9 d   1      11.684 -21.849 -22.159  0.00  0.00    -0.082 A 
ATOM     67  H33 8V9 d   1      13.288 -22.218 -23.411  0.00  0.00     0.083 H 
ATOM     68  H34 8V9 d   1      11.084 -21.386 -22.934  0.00  0.00     0.083 H 
ATOM     69  H30 8V9 d   1      10.226 -21.639 -20.437  0.00  0.00     0.084 H 
ATOM     70  H17 8V9 d   1      15.030 -23.165 -18.552  0.00  0.00     0.084 H 
BRANCH  55  71
ATOM     71  O01 8V9 d   1      12.573 -25.467 -18.329  0.00  0.00    -0.393 OA
ATOM     72  H10 8V9 d   1      13.197 -26.138 -18.078  0.00  0.00     0.210 HD
ENDBRANCH  55  71
ENDBRANCH  52  54
ENDBRANCH  43  50
BRANCH  45  73
ATOM     73  C07 8V9 d   1      17.927 -28.468 -19.402  0.00  0.00    -0.058 C 
ATOM     74  H21 8V9 d   1      16.994 -28.958 -19.087  0.00  0.00     0.029 H 
ATOM     75  H22 8V9 d   1      18.759 -28.831 -18.781  0.00  0.00     0.029 H 
ATOM     76  H23 8V9 d   1      18.127 -28.704 -20.457  0.00  0.00     0.029 H 
ENDBRANCH  45  73
BRANCH  45  77
ATOM     77  C08 8V9 d   1      17.462 -26.542 -17.777  0.00  0.00    -0.058 C 
ATOM     78  H24 8V9 d   1      16.521 -27.020 -17.468  0.00  0.00     0.029 H 
ATOM     79  H25 8V9 d   1      17.357 -25.449 -17.711  0.00  0.00     0.029 H 
ATOM     80  H26 8V9 d   1      18.276 -26.873 -17.115  0.00  0.00     0.029 H 
ENDBRANCH  45  77
ENDBRANCH  36  40
ENDBRANCH   1  36
BRANCH   1  81
ATOM     81  C17 8V9 d   1      16.344 -26.106 -25.470  0.00  0.00    -0.019 C 
ATOM     82  H31 8V9 d   1      15.553 -26.391 -24.761  0.00  0.00     0.043 H 
ATOM     83  H32 8V9 d   1      16.390 -26.845 -26.284  0.00  0.00     0.043 H 
BRANCH  81  84
ATOM     84  C20 8V9 d   1      16.041 -24.677 -26.062  0.00  0.00    -0.056 A 
ATOM     85  C23 8V9 d   1      15.136 -23.699 -25.309  0.00  0.00    -0.077 A 
ATOM     86  C26 8V9 d   1      14.894 -22.488 -25.837  0.00  0.00    -0.082 A 
ATOM     87  H36 8V9 d   1      14.695 -23.981 -24.360  0.00  0.00     0.084 H 
ATOM     88  C28 8V9 d   1      15.521 -22.099 -27.160  0.00  0.00    -0.083 A 
ATOM     89  H40 8V9 d   1      14.250 -21.789 -25.316  0.00  0.00     0.083 H 
ATOM     90  C27 8V9 d   1      16.303 -22.950 -27.810  0.00  0.00    -0.082 A 
ATOM     91  H5  8V9 d   1      15.329 -21.118 -27.578  0.00  0.00     0.083 H 
ATOM     92  C24 8V9 d   1      16.583 -24.339 -27.210  0.00  0.00    -0.077 A 
ATOM     93  H4  8V9 d   1      16.743 -22.668 -28.760  0.00  0.00     0.083 H 
ATOM     94  H37 8V9 d   1      17.226 -25.037 -27.733  0.00  0.00     0.084 H 
ENDBRANCH  81  84
ENDBRANCH   1  81
TORSDOF 19
