REMARK  23 active torsions:
REMARK  status: ('A' for Active; 'I' for Inactive)
REMARK    1  A    between atoms: C10_1  and  C09_21 
REMARK       I    between atoms: N12_23  and  C10_1 
REMARK    2  A    between atoms: C13_2  and  C21_8 
REMARK    3  A    between atoms: C13_2  and  N12_23 
REMARK    4  A    between atoms: C14_24  and  C13_2 
REMARK    5  A    between atoms: C21_8  and  C22_9 
REMARK    6  A    between atoms: C21_8  and  O44_44 
REMARK       I    between atoms: C22_9  and  N24_27 
REMARK    7  A    between atoms: C27_11  and  C42_42 
REMARK    8  A    between atoms: C27_11  and  C43_43 
REMARK    9  A    between atoms: C28_12  and  C29_29 
REMARK   10  A    between atoms: C02_14  and  C01_13 
REMARK   11  A    between atoms: C04_16  and  N46_46 
REMARK   12  A    between atoms: C06_18  and  C45_45 
REMARK   13  A    between atoms: O08_20  and  C07_19 
REMARK   14  A    between atoms: C09_21  and  O08_20 
REMARK   15  A    between atoms: C14_24  and  C15_25 
REMARK       I    between atoms: C29_29  and  N31_31 
REMARK   16  A    between atoms: N31_31  and  C32_32 
REMARK   17  A    between atoms: C33_33  and  O41_41 
REMARK   18  A    between atoms: N46_46  and  C47_47 
REMARK   19  A    between atoms: N46_46  and  C48_48 
REMARK   20  A    between atoms: C48_48  and  C49_49 
REMARK   21  A    between atoms: C49_49  and  N50_50 
REMARK   22  A    between atoms: N50_50  and  C51_51 
REMARK   23  A    between atoms: N50_50  and  C52_52 
ROOT
ATOM      1  C13 8VC d   1      17.807 -26.267 -24.399  0.00  0.00     0.049 C 
ATOM      2  H1  8VC d   1      17.842 -25.417 -23.702  0.00  0.00     0.077 H 
ENDROOT
BRANCH   1   3
ATOM      3  C21 8VC d   1      18.000 -27.586 -23.582  0.00  0.00     0.132 C 
ATOM      4  H7  8VC d   1      19.061 -27.635 -23.294  0.00  0.00     0.101 H 
BRANCH   3   5
ATOM      5  C22 8VC d   1      17.183 -27.466 -22.277  0.00  0.00     0.255 C 
ATOM      6  O23 8VC d   1      16.110 -27.947 -22.183  0.00  0.00    -0.270 OA
ATOM      7  N24 8VC d   1      17.680 -26.674 -21.146  0.00  0.00    -0.305 N 
ATOM      8  C25 8VC d   1      19.145 -25.890 -20.823  0.00  0.00     0.018 C 
ATOM      9  C28 8VC d   1      16.875 -26.563 -19.914  0.00  0.00     0.112 C 
ATOM     10  S26 8VC d   1      19.455 -26.283 -19.371  0.00  0.00    -0.112 SA
ATOM     11  H8  8VC d   1      19.730 -25.256 -21.488  0.00  0.00     0.123 H 
ATOM     12  C27 8VC d   1      17.997 -27.042 -18.803  0.00  0.00     0.036 C 
ATOM     13  H9  8VC d   1      16.021 -27.256 -19.932  0.00  0.00     0.090 H 
BRANCH  12  14
ATOM     14  C42 8VC d   1      17.591 -26.610 -17.386  0.00  0.00    -0.058 C 
ATOM     15  H30 8VC d   1      18.356 -26.942 -16.668  0.00  0.00     0.029 H 
ATOM     16  H31 8VC d   1      16.623 -27.064 -17.127  0.00  0.00     0.029 H 
ATOM     17  H32 8VC d   1      17.503 -25.514 -17.348  0.00  0.00     0.029 H 
ENDBRANCH  12  14
BRANCH  12  18
ATOM     18  C43 8VC d   1      18.075 -28.608 -18.940  0.00  0.00    -0.058 C 
ATOM     19  H33 8VC d   1      18.810 -29.003 -18.223  0.00  0.00     0.029 H 
ATOM     20  H34 8VC d   1      18.382 -28.872 -19.963  0.00  0.00     0.029 H 
ATOM     21  H35 8VC d   1      17.087 -29.044 -18.730  0.00  0.00     0.029 H 
ENDBRANCH  12  18
BRANCH   9  22
ATOM     22  C29 8VC d   1      16.338 -25.135 -19.694  0.00  0.00     0.243 C 
ATOM     23  O30 8VC d   1      16.967 -24.158 -19.872  0.00  0.00    -0.271 OA
ATOM     24  N31 8VC d   1      14.952 -25.072 -19.166  0.00  0.00    -0.348 N 
ATOM     25  H20 8VC d   1      14.439 -25.922 -19.049  0.00  0.00     0.163 HD
BRANCH  24  26
ATOM     26  C32 8VC d   1      14.306 -23.790 -18.807  0.00  0.00     0.063 C 
ATOM     27  C33 8VC d   1      13.301 -24.141 -17.710  0.00  0.00     0.063 C 
ATOM     28  C34 8VC d   1      12.192 -23.130 -17.912  0.00  0.00    -0.014 C 
ATOM     29  H22 8VC d   1      13.751 -24.047 -16.711  0.00  0.00     0.087 H 
ATOM     30  C35 8VC d   1      12.261 -22.769 -19.419  0.00  0.00    -0.047 A 
ATOM     31  H23 8VC d   1      12.362 -22.238 -17.291  0.00  0.00     0.044 H 
ATOM     32  H24 8VC d   1      11.215 -23.570 -17.663  0.00  0.00     0.044 H 
ATOM     33  C36 8VC d   1      11.313 -22.159 -20.264  0.00  0.00    -0.076 A 
ATOM     34  C40 8VC d   1      13.496 -23.170 -19.949  0.00  0.00    -0.027 A 
ATOM     35  C37 8VC d   1      11.613 -21.955 -21.635  0.00  0.00    -0.082 A 
ATOM     36  H25 8VC d   1      10.354 -21.846 -19.866  0.00  0.00     0.084 H 
ATOM     37  C38 8VC d   1      12.867 -22.344 -22.156  0.00  0.00    -0.082 A 
ATOM     38  H26 8VC d   1      10.877 -21.498 -22.286  0.00  0.00     0.083 H 
ATOM     39  C39 8VC d   1      13.820 -22.961 -21.315  0.00  0.00    -0.074 A 
ATOM     40  H27 8VC d   1      13.098 -22.169 -23.201  0.00  0.00     0.083 H 
ATOM     41  H28 8VC d   1      14.783 -23.270 -21.706  0.00  0.00     0.084 H 
ATOM     42  H21 8VC d   1      15.060 -23.073 -18.451  0.00  0.00     0.084 H 
BRANCH  27  43
ATOM     43  O41 8VC d   1      12.800 -25.467 -17.896  0.00  0.00    -0.393 OA
ATOM     44  H29 8VC d   1      12.108 -25.634 -17.267  0.00  0.00     0.210 HD
ENDBRANCH  27  43
ENDBRANCH  24  26
ENDBRANCH   9  22
ENDBRANCH   3   5
BRANCH   3  45
ATOM     45  O44 8VC d   1      17.750 -28.747 -24.311  0.00  0.00    -0.384 OA
ATOM     46  H36 8VC d   1      17.962 -29.505 -23.779  0.00  0.00     0.210 HD
ENDBRANCH   3  45
ENDBRANCH   1   3
BRANCH   1  47
ATOM     47  N12 8VC d   1      18.941 -26.126 -25.398  0.00  0.00    -0.351 N 
ATOM     48  C10 8VC d   1      20.122 -25.324 -25.018  0.00  0.00     0.242 C 
ATOM     49  O11 8VC d   1      20.162 -24.820 -23.954  0.00  0.00    -0.271 OA
ATOM     50  H17 8VC d   1      18.890 -26.567 -26.294  0.00  0.00     0.163 HD
BRANCH  48  51
ATOM     51  C09 8VC d   1      21.286 -25.148 -26.027  0.00  0.00     0.099 C 
ATOM     52  H15 8VC d   1      22.242 -25.296 -25.504  0.00  0.00     0.089 H 
ATOM     53  H16 8VC d   1      21.250 -24.131 -26.446  0.00  0.00     0.089 H 
BRANCH  51  54
ATOM     54  O08 8VC d   1      21.182 -26.089 -27.081  0.00  0.00    -0.341 OA
BRANCH  54  55
ATOM     55  C07 8VC d   1      22.401 -26.147 -27.823  0.00  0.00     0.081 A 
ATOM     56  C02 8VC d   1      23.473 -26.931 -27.377  0.00  0.00    -0.026 A 
ATOM     57  C03 8VC d   1      24.678 -26.959 -28.100  0.00  0.00    -0.049 A 
ATOM     58  C04 8VC d   1      24.816 -26.219 -29.271  0.00  0.00     0.030 A 
ATOM     59  H13 8VC d   1      25.506 -27.561 -27.743  0.00  0.00     0.087 H 
ATOM     60  C05 8VC d   1      23.734 -25.422 -29.715  0.00  0.00    -0.049 A 
ATOM     61  C06 8VC d   1      22.545 -25.380 -29.007  0.00  0.00    -0.026 A 
ATOM     62  H14 8VC d   1      23.838 -24.837 -30.622  0.00  0.00     0.087 H 
BRANCH  56  63
ATOM     63  C01 8VC d   1      23.378 -27.779 -26.096  0.00  0.00    -0.049 C 
ATOM     64  H10 8VC d   1      24.328 -28.310 -25.936  0.00  0.00     0.033 H 
ATOM     65  H11 8VC d   1      22.562 -28.510 -26.200  0.00  0.00     0.033 H 
ATOM     66  H12 8VC d   1      23.176 -27.123 -25.236  0.00  0.00     0.033 H 
ENDBRANCH  56  63
BRANCH  58  67
ATOM     67  N46 8VC d   1      26.108 -26.239 -30.017  0.00  0.00    -0.384 N 
BRANCH  67  68
ATOM     68  C47 8VC d   1      26.703 -24.906 -30.380  0.00  0.00    -0.018 C 
ATOM     69  H40 8VC d   1      27.647 -25.061 -30.923  0.00  0.00     0.056 H 
ATOM     70  H41 8VC d   1      26.898 -24.330 -29.464  0.00  0.00     0.056 H 
ATOM     71  H42 8VC d   1      25.999 -24.352 -31.019  0.00  0.00     0.056 H 
ENDBRANCH  67  68
BRANCH  67  72
ATOM     72  C48 8VC d   1      26.787 -27.531 -30.307  0.00  0.00     0.017 C 
ATOM     73  H43 8VC d   1      26.028 -28.238 -30.673  0.00  0.00     0.066 H 
ATOM     74  H44 8VC d   1      27.215 -27.907 -29.366  0.00  0.00     0.066 H 
BRANCH  72  75
ATOM     75  C49 8VC d   1      27.936 -27.468 -31.367  0.00  0.00     0.097 C 
ATOM     76  H45 8VC d   1      28.471 -26.512 -31.264  0.00  0.00     0.078 H 
ATOM     77  H46 8VC d   1      27.503 -27.539 -32.376  0.00  0.00     0.078 H 
BRANCH  75  78
ATOM     78  N50 8VC d   1      28.890 -28.586 -31.166  0.00  0.00    -0.077 N 
ATOM     79  H47 8VC d   1      28.387 -29.326 -30.703  0.00  0.00     0.279 HD
BRANCH  78  80
ATOM     80  C51 8VC d   1      29.966 -28.167 -30.291  0.00  0.00     0.066 C 
ATOM     81  H48 8VC d   1      30.668 -29.002 -30.148  0.00  0.00     0.068 H 
ATOM     82  H49 8VC d   1      29.551 -27.866 -29.318  0.00  0.00     0.068 H 
ATOM     83  H50 8VC d   1      30.496 -27.316 -30.743  0.00  0.00     0.068 H 
ENDBRANCH  78  80
BRANCH  78  84
ATOM     84  C52 8VC d   1      29.434 -29.155 -32.433  0.00  0.00     0.066 C 
ATOM     85  H51 8VC d   1      28.602 -29.466 -33.082  0.00  0.00     0.068 H 
ATOM     86  H52 8VC d   1      30.065 -30.026 -32.203  0.00  0.00     0.068 H 
ATOM     87  H53 8VC d   1      30.036 -28.392 -32.949  0.00  0.00     0.068 H 
ENDBRANCH  78  84
ENDBRANCH  75  78
ENDBRANCH  72  75
ENDBRANCH  67  72
ENDBRANCH  58  67
BRANCH  61  88
ATOM     88  C45 8VC d   1      21.393 -24.492 -29.548  0.00  0.00    -0.049 C 
ATOM     89  H37 8VC d   1      21.720 -23.989 -30.470  0.00  0.00     0.033 H 
ATOM     90  H38 8VC d   1      21.127 -23.737 -28.794  0.00  0.00     0.033 H 
ATOM     91  H39 8VC d   1      20.516 -25.120 -29.764  0.00  0.00     0.033 H 
ENDBRANCH  61  88
ENDBRANCH  54  55
ENDBRANCH  51  54
ENDBRANCH  48  51
ENDBRANCH   1  47
BRANCH   1  92
ATOM     92  C14 8VC d   1      16.424 -26.241 -25.136  0.00  0.00    -0.019 C 
ATOM     93  H18 8VC d   1      15.627 -26.462 -24.411  0.00  0.00     0.043 H 
ATOM     94  H19 8VC d   1      16.424 -27.007 -25.926  0.00  0.00     0.043 H 
BRANCH  92  95
ATOM     95  C15 8VC d   1      16.158 -24.863 -25.772  0.00  0.00    -0.056 A 
ATOM     96  C16 8VC d   1      16.692 -24.550 -27.020  0.00  0.00    -0.077 A 
ATOM     97  C17 8VC d   1      16.436 -23.297 -27.598  0.00  0.00    -0.082 A 
ATOM     98  H2  8VC d   1      17.305 -25.274 -27.544  0.00  0.00     0.084 H 
ATOM     99  C18 8VC d   1      15.648 -22.372 -26.923  0.00  0.00    -0.083 A 
ATOM    100  H3  8VC d   1      16.852 -23.051 -28.568  0.00  0.00     0.083 H 
ATOM    101  C19 8VC d   1      15.117 -22.685 -25.663  0.00  0.00    -0.082 A 
ATOM    102  H4  8VC d   1      15.443 -21.407 -27.371  0.00  0.00     0.083 H 
ATOM    103  C20 8VC d   1      15.364 -23.925 -25.091  0.00  0.00    -0.077 A 
ATOM    104  H5  8VC d   1      14.512 -21.957 -25.135  0.00  0.00     0.083 H 
ATOM    105  H6  8VC d   1      14.945 -24.169 -24.121  0.00  0.00     0.084 H 
ENDBRANCH  92  95
ENDBRANCH   1  92
TORSDOF 23
