REMARK  19 active torsions:
REMARK  status: ('A' for Active; 'I' for Inactive)
REMARK    1  A    between atoms: C35_2  and  C38_3 
REMARK    2  A    between atoms: C35_2  and  C34_4 
REMARK    3  A    between atoms: N12_26  and  C35_2 
REMARK    4  A    between atoms: C38_3  and  S02_16 
REMARK       I    between atoms: C34_4  and  N11_25 
REMARK    5  A    between atoms: C30_37  and  C33_5 
REMARK       I    between atoms: C25_10  and  N09_23 
REMARK    6  A    between atoms: C26_33  and  C25_10 
REMARK    7  A    between atoms: C15_13  and  C21_11 
REMARK    8  A    between atoms: C14_12  and  C18_29 
REMARK    9  A    between atoms: C15_13  and  C20_31 
REMARK   10  A    between atoms: N10_24  and  C16_14 
REMARK   11  A    between atoms: S02_16  and  C44_44 
REMARK   12  A    between atoms: C19_30  and  O03_17 
REMARK   13  A    between atoms: C26_33  and  O05_19 
REMARK       I    between atoms: C18_29  and  N10_24 
REMARK   14  A    between atoms: N11_25  and  C27_34 
REMARK       I    between atoms: C42_42  and  N12_26 
REMARK   15  A    between atoms: C50_50  and  N13_27 
REMARK   16  A    between atoms: C27_34  and  C26_33 
REMARK   17  A    between atoms: C27_34  and  C30_37 
REMARK   18  A    between atoms: C43_43  and  C42_42 
REMARK   19  A    between atoms: C45_45  and  C43_43 
ROOT
ATOM      1  C27 8VO d   1     -26.198  17.899 -10.433  0.00  0.00     0.049 C 
ATOM      2  H27 8VO d   1     -25.337  17.911 -11.117  0.00  0.00     0.077 H 
ENDROOT
BRANCH   1   3
ATOM      3  N11 8VO d   1     -26.036  18.931  -9.427  0.00  0.00    -0.351 N 
ATOM      4  C34 8VO d   1     -25.268  20.130  -9.673  0.00  0.00     0.241 C 
ATOM      5  O07 8VO d   1     -24.750  20.319 -10.733  0.00  0.00    -0.271 OA
ATOM      6  H17 8VO d   1     -26.470  18.809  -8.534  0.00  0.00     0.163 HD
BRANCH   4   7
ATOM      7  C35 8VO d   1     -25.157  21.121  -8.517  0.00  0.00     0.097 C 
ATOM      8  H2  8VO d   1     -25.800  20.780  -7.692  0.00  0.00     0.088 H 
BRANCH   7   9
ATOM      9  C38 8VO d   1     -25.545  22.535  -8.935  0.00  0.00     0.003 C 
ATOM     10  H3  8VO d   1     -24.989  22.809  -9.844  0.00  0.00     0.052 H 
ATOM     11  H4  8VO d   1     -25.290  23.234  -8.125  0.00  0.00     0.052 H 
BRANCH   9  12
ATOM     12  S02 8VO d   1     -27.325  22.635  -9.271  0.00  0.00    -0.171 SA
BRANCH  12  13
ATOM     13  C44 8VO d   1     -28.154  22.730  -7.670  0.00  0.00    -0.035 C 
ATOM     14  H38 8VO d   1     -29.241  22.793  -7.823  0.00  0.00     0.041 H 
ATOM     15  H39 8VO d   1     -27.808  23.624  -7.130  0.00  0.00     0.041 H 
ATOM     16  H40 8VO d   1     -27.918  21.832  -7.081  0.00  0.00     0.041 H 
ENDBRANCH  12  13
ENDBRANCH   9  12
ENDBRANCH   7   9
BRANCH   7  17
ATOM     17  N12 8VO d   1     -23.774  21.238  -8.068  0.00  0.00    -0.347 N 
ATOM     18  C42 8VO d   1     -23.296  20.753  -6.792  0.00  0.00     0.222 C 
ATOM     19  O08 8VO d   1     -24.016  20.190  -6.044  0.00  0.00    -0.273 OA
ATOM     20  H18 8VO d   1     -23.117  21.680  -8.679  0.00  0.00     0.163 HD
BRANCH  18  21
ATOM     21  C43 8VO d   1     -21.820  20.982  -6.426  0.00  0.00     0.033 C 
ATOM     22  H36 8VO d   1     -21.768  21.729  -5.620  0.00  0.00     0.054 H 
ATOM     23  H37 8VO d   1     -21.291  21.361  -7.313  0.00  0.00     0.054 H 
BRANCH  21  24
ATOM     24  C45 8VO d   1     -21.134  19.708  -5.956  0.00  0.00    -0.049 A 
ATOM     25  C46 8VO d   1     -20.040  19.079  -6.810  0.00  0.00    -0.074 A 
ATOM     26  C48 8VO d   1     -19.350  17.804  -6.341  0.00  0.00    -0.057 A 
ATOM     27  H41 8VO d   1     -19.753  19.538  -7.749  0.00  0.00     0.084 H 
ATOM     28  C50 8VO d   1     -19.762  17.184  -5.010  0.00  0.00     0.025 A 
ATOM     29  H43 8VO d   1     -18.577  17.344  -6.945  0.00  0.00     0.086 H 
ATOM     30  C49 8VO d   1     -20.847  17.826  -4.153  0.00  0.00    -0.057 A 
ATOM     31  C47 8VO d   1     -21.536  19.088  -4.628  0.00  0.00    -0.074 A 
ATOM     32  H44 8VO d   1     -21.125  17.380  -3.205  0.00  0.00     0.086 H 
ATOM     33  H42 8VO d   1     -22.311  19.546  -4.024  0.00  0.00     0.084 H 
BRANCH  28  34
ATOM     34  N13 8VO d   1     -19.123  15.982  -4.538  0.00  0.00    -0.399 N 
ATOM     35  H19 8VO d   1     -18.388  15.534  -5.103  0.00  0.00     0.156 HD
ATOM     36  H20 8VO d   1     -19.401  15.571  -3.635  0.00  0.00     0.156 HD
ENDBRANCH  28  34
ENDBRANCH  21  24
ENDBRANCH  18  21
ENDBRANCH   7  17
ENDBRANCH   4   7
ENDBRANCH   1   3
BRANCH   1  37
ATOM     37  C26 8VO d   1     -27.482  18.177 -11.243  0.00  0.00     0.132 C 
ATOM     38  H26 8VO d   1     -27.526  19.232 -11.552  0.00  0.00     0.101 H 
BRANCH  37  39
ATOM     39  C25 8VO d   1     -27.398  17.277 -12.454  0.00  0.00     0.255 C 
ATOM     40  O06 8VO d   1     -27.895  16.195 -12.444  0.00  0.00    -0.270 OA
ATOM     41  N09 8VO d   1     -26.650  17.682 -13.598  0.00  0.00    -0.305 N 
ATOM     42  C14 8VO d   1     -26.513  16.895 -14.809  0.00  0.00     0.112 C 
ATOM     43  C17 8VO d   1     -25.918  19.138 -13.962  0.00  0.00     0.018 C 
ATOM     44  C15 8VO d   1     -27.036  17.988 -15.900  0.00  0.00     0.036 C 
ATOM     45  H12 8VO d   1     -27.198  16.035 -14.777  0.00  0.00     0.090 H 
ATOM     46  S01 8VO d   1     -26.286  19.443 -15.386  0.00  0.00    -0.112 SA
ATOM     47  H21 8VO d   1     -25.299  19.744 -13.301  0.00  0.00     0.123 H 
BRANCH  42  48
ATOM     48  C18 8VO d   1     -25.177  16.368 -15.070  0.00  0.00     0.243 C 
ATOM     49  O04 8VO d   1     -24.167  16.985 -14.959  0.00  0.00    -0.271 OA
ATOM     50  N10 8VO d   1     -25.129  15.025 -15.552  0.00  0.00    -0.348 N 
ATOM     51  H16 8VO d   1     -25.988  14.517 -15.616  0.00  0.00     0.163 HD
BRANCH  50  52
ATOM     52  C16 8VO d   1     -23.925  14.364 -15.949  0.00  0.00     0.063 C 
ATOM     53  C19 8VO d   1     -24.289  13.264 -16.995  0.00  0.00     0.063 C 
ATOM     54  C23 8VO d   1     -23.116  12.259 -16.815  0.00  0.00    -0.014 C 
ATOM     55  H22 8VO d   1     -24.299  13.683 -18.012  0.00  0.00     0.087 H 
ATOM     56  C24 8VO d   1     -22.768  12.361 -15.390  0.00  0.00    -0.047 A 
ATOM     57  H7  8VO d   1     -23.436  11.237 -17.066  0.00  0.00     0.044 H 
ATOM     58  H8  8VO d   1     -22.261  12.541 -17.447  0.00  0.00     0.044 H 
ATOM     59  C22 8VO d   1     -23.267  13.653 -14.853  0.00  0.00    -0.027 A 
ATOM     60  C29 8VO d   1     -22.027  11.405 -14.456  0.00  0.00    -0.076 A 
ATOM     61  C28 8VO d   1     -23.051  14.045 -13.389  0.00  0.00    -0.074 A 
ATOM     62  C31 8VO d   1     -22.311  13.109 -12.462  0.00  0.00    -0.082 A 
ATOM     63  H28 8VO d   1     -23.428  14.991 -13.018  0.00  0.00     0.084 H 
ATOM     64  C32 8VO d   1     -21.806  11.787 -13.010  0.00  0.00    -0.082 A 
ATOM     65  H6  8VO d   1     -22.144  13.377 -11.425  0.00  0.00     0.083 H 
ATOM     66  H5  8VO d   1     -21.278  11.105 -12.354  0.00  0.00     0.083 H 
ATOM     67  H29 8VO d   1     -21.661  10.456 -14.829  0.00  0.00     0.084 H 
ATOM     68  H13 8VO d   1     -23.234  15.102 -16.382  0.00  0.00     0.084 H 
BRANCH  53  69
ATOM     69  O03 8VO d   1     -25.481  12.677 -16.755  0.00  0.00    -0.393 OA
ATOM     70  H14 8VO d   1     -25.649  12.020 -17.420  0.00  0.00     0.210 HD
ENDBRANCH  53  69
ENDBRANCH  50  52
ENDBRANCH  42  48
BRANCH  44  71
ATOM     71  C21 8VO d   1     -26.642  17.606 -17.333  0.00  0.00    -0.058 C 
ATOM     72  H9  8VO d   1     -27.015  18.369 -18.032  0.00  0.00     0.029 H 
ATOM     73  H10 8VO d   1     -27.083  16.631 -17.587  0.00  0.00     0.029 H 
ATOM     74  H11 8VO d   1     -25.546  17.544 -17.408  0.00  0.00     0.029 H 
ENDBRANCH  44  71
BRANCH  44  75
ATOM     75  C20 8VO d   1     -28.574  18.088 -15.721  0.00  0.00    -0.058 C 
ATOM     76  H23 8VO d   1     -28.980  18.817 -16.438  0.00  0.00     0.029 H 
ATOM     77  H24 8VO d   1     -28.803  18.415 -14.696  0.00  0.00     0.029 H 
ATOM     78  H25 8VO d   1     -29.029  17.103 -15.902  0.00  0.00     0.029 H 
ENDBRANCH  44  75
ENDBRANCH  37  39
BRANCH  37  79
ATOM     79  O05 8VO d   1     -28.604  17.870 -10.462  0.00  0.00    -0.384 OA
ATOM     80  H15 8VO d   1     -29.391  17.985 -10.981  0.00  0.00     0.210 HD
ENDBRANCH  37  79
ENDBRANCH   1  37
BRANCH   1  81
ATOM     81  C30 8VO d   1     -26.250  16.536  -9.714  0.00  0.00    -0.019 C 
ATOM     82  H30 8VO d   1     -27.003  16.566  -8.912  0.00  0.00     0.043 H 
ATOM     83  H31 8VO d   1     -26.512  15.745 -10.433  0.00  0.00     0.043 H 
BRANCH  81  84
ATOM     84  C33 8VO d   1     -24.885  16.261  -9.125  0.00  0.00    -0.056 A 
ATOM     85  C36 8VO d   1     -24.544  16.800  -7.755  0.00  0.00    -0.077 A 
ATOM     86  C39 8VO d   1     -23.173  16.545  -7.162  0.00  0.00    -0.082 A 
ATOM     87  H1  8VO d   1     -25.279  17.368  -7.197  0.00  0.00     0.084 H 
ATOM     88  C41 8VO d   1     -22.166  15.749  -7.943  0.00  0.00    -0.083 A 
ATOM     89  H33 8VO d   1     -22.921  16.934  -6.182  0.00  0.00     0.083 H 
ATOM     90  C40 8VO d   1     -22.508  15.201  -9.313  0.00  0.00    -0.082 A 
ATOM     91  H35 8VO d   1     -21.184  15.565  -7.521  0.00  0.00     0.083 H 
ATOM     92  C37 8VO d   1     -23.876  15.462  -9.915  0.00  0.00    -0.077 A 
ATOM     93  H34 8VO d   1     -21.775  14.622  -9.864  0.00  0.00     0.083 H 
ATOM     94  H32 8VO d   1     -24.126  15.080 -10.898  0.00  0.00     0.084 H 
ENDBRANCH  81  84
ENDBRANCH   1  81
TORSDOF 19
