REMARK  22 active torsions:
REMARK  status: ('A' for Active; 'I' for Inactive)
REMARK    1  A    between atoms: C8_8  and  O10_10 
REMARK    2  A    between atoms: N11_11  and  C9_9 
REMARK       I    between atoms: C12_12  and  N11_11 
REMARK    3  A    between atoms: C15_15  and  C12_12 
REMARK       I    between atoms: C21_21  and  N14_14 
REMARK    4  A    between atoms: C16_16  and  C19_19 
REMARK    5  A    between atoms: C16_16  and  C20_20 
REMARK    6  A    between atoms: C22_22  and  C21_21 
REMARK    7  A    between atoms: C24_24  and  C22_22 
REMARK    8  A    between atoms: C22_22  and  O26_26 
REMARK    9  A    between atoms: N25_25  and  C24_24 
REMARK   10  A    between atoms: C24_24  and  C27_27 
REMARK       I    between atoms: C34_34  and  N25_25 
REMARK   11  A    between atoms: C27_27  and  C28_28 
REMARK   12  A    between atoms: C35_35  and  C34_34 
REMARK   13  A    between atoms: O37_37  and  C35_35 
REMARK   14  A    between atoms: C38_38  and  O37_37 
REMARK   15  A    between atoms: C39_39  and  N46_46 
REMARK   16  A    between atoms: C41_41  and  C44_44 
REMARK   17  A    between atoms: C42_42  and  C45_45 
REMARK   18  A    between atoms: N46_46  and  C47_47 
REMARK   19  A    between atoms: N46_46  and  C49_49 
REMARK   20  A    between atoms: C47_47  and  C48_48 
REMARK   21  A    between atoms: C49_49  and  C50_50 
REMARK   22  A    between atoms: C50_50  and  N51_51 
ROOT
ATOM      1  C24 8VF d   1      17.941 -26.210 -24.500  0.00  0.00     0.049 C 
ATOM      2  H21 8VF d   1      17.914 -25.379 -23.780  0.00  0.00     0.077 H 
ENDROOT
BRANCH   1   3
ATOM      3  C22 8VF d   1      18.076 -27.525 -23.735  0.00  0.00     0.132 C 
ATOM      4  H20 8VF d   1      19.134 -27.731 -23.518  0.00  0.00     0.101 H 
BRANCH   3   5
ATOM      5  C21 8VF d   1      17.251 -27.364 -22.469  0.00  0.00     0.252 C 
ATOM      6  N14 8VF d   1      17.806 -26.779 -21.277  0.00  0.00    -0.326 N 
ATOM      7  C13 8VF d   1      19.160 -26.336 -21.092  0.00  0.00     0.040 C 
ATOM      8  C15 8VF d   1      17.005 -26.630 -20.120  0.00  0.00     0.108 C 
ATOM      9  S17 8VF d   1      19.518 -26.414 -19.453  0.00  0.00    -0.137 SA
ATOM     10  H11 8VF d   1      19.265 -25.300 -21.447  0.00  0.00     0.081 H 
ATOM     11  H12 8VF d   1      19.845 -26.988 -21.654  0.00  0.00     0.081 H 
ATOM     12  C16 8VF d   1      17.975 -27.130 -19.023  0.00  0.00     0.032 C 
ATOM     13  H13 8VF d   1      16.134 -27.299 -20.171  0.00  0.00     0.090 H 
ATOM     14  O23 8VF d   1      16.086 -27.692 -22.454  0.00  0.00    -0.270 OA
BRANCH  12  15
ATOM     15  C19 8VF d   1      17.521 -26.670 -17.604  0.00  0.00    -0.058 C 
ATOM     16  H14 8VF d   1      18.233 -27.043 -16.853  0.00  0.00     0.029 H 
ATOM     17  H15 8VF d   1      16.519 -27.072 -17.391  0.00  0.00     0.029 H 
ATOM     18  H16 8VF d   1      17.491 -25.571 -17.567  0.00  0.00     0.029 H 
ENDBRANCH  12  15
BRANCH  12  19
ATOM     19  C20 8VF d   1      18.011 -28.650 -19.082  0.00  0.00    -0.058 C 
ATOM     20  H17 8VF d   1      18.695 -29.031 -18.310  0.00  0.00     0.029 H 
ATOM     21  H18 8VF d   1      18.363 -28.970 -20.074  0.00  0.00     0.029 H 
ATOM     22  H19 8VF d   1      17.001 -29.048 -18.905  0.00  0.00     0.029 H 
ENDBRANCH  12  19
BRANCH   8  23
ATOM     23  C12 8VF d   1      16.489 -25.245 -19.960  0.00  0.00     0.242 C 
ATOM     24  N11 8VF d   1      15.125 -25.097 -19.470  0.00  0.00    -0.348 N 
ATOM     25  H10 8VF d   1      14.595 -25.932 -19.322  0.00  0.00     0.163 HD
ATOM     26  O18 8VF d   1      17.160 -24.268 -20.185  0.00  0.00    -0.271 OA
BRANCH  24  27
ATOM     27  C9  8VF d   1      14.469 -23.815 -19.177  0.00  0.00     0.063 C 
ATOM     28  C6  8VF d   1      13.731 -23.174 -20.308  0.00  0.00    -0.027 C 
ATOM     29  C1  8VF d   1      14.174 -23.040 -21.723  0.00  0.00    -0.074 C 
ATOM     30  C5  8VF d   1      12.540 -22.719 -19.903  0.00  0.00    -0.047 C 
ATOM     31  C2  8VF d   1      13.323 -22.386 -22.633  0.00  0.00    -0.082 C 
ATOM     32  H1  8VF d   1      15.130 -23.437 -22.045  0.00  0.00     0.084 H 
ATOM     33  C3  8VF d   1      12.121 -21.780 -22.175  0.00  0.00    -0.082 C 
ATOM     34  H2  8VF d   1      13.584 -22.344 -23.684  0.00  0.00     0.083 H 
ATOM     35  C4  8VF d   1      11.645 -22.037 -20.878  0.00  0.00    -0.076 C 
ATOM     36  H3  8VF d   1      11.569 -21.116 -22.830  0.00  0.00     0.083 H 
ATOM     37  H4  8VF d   1      10.642 -21.743 -20.592  0.00  0.00     0.084 H 
ATOM     38  C7  8VF d   1      12.312 -22.949 -18.403  0.00  0.00    -0.014 C 
ATOM     39  C8  8VF d   1      13.349 -24.037 -18.219  0.00  0.00     0.063 C 
ATOM     40  H5  8VF d   1      11.293 -23.298 -18.182  0.00  0.00     0.044 H 
ATOM     41  H6  8VF d   1      12.531 -22.054 -17.803  0.00  0.00     0.044 H 
ATOM     42  H7  8VF d   1      13.743 -24.008 -17.192  0.00  0.00     0.087 H 
ATOM     43  H8  8VF d   1      15.221 -23.122 -18.771  0.00  0.00     0.084 H 
BRANCH  39  44
ATOM     44  O10 8VF d   1      12.709 -25.287 -18.444  0.00  0.00    -0.393 OA
ATOM     45  H9  8VF d   1      13.340 -25.989 -18.336  0.00  0.00     0.210 HD
ENDBRANCH  39  44
ENDBRANCH  24  27
ENDBRANCH   8  23
ENDBRANCH   3   5
BRANCH   3  46
ATOM     46  O26 8VF d   1      17.478 -28.626 -24.390  0.00  0.00    -0.384 OA
ATOM     47  H23 8VF d   1      17.597 -29.408 -23.864  0.00  0.00     0.210 HD
ENDBRANCH   3  46
ENDBRANCH   1   3
BRANCH   1  48
ATOM     48  N25 8VF d   1      19.076 -26.077 -25.354  0.00  0.00    -0.351 N 
ATOM     49  C34 8VF d   1      20.139 -25.234 -24.987  0.00  0.00     0.242 C 
ATOM     50  O36 8VF d   1      20.154 -24.593 -23.966  0.00  0.00    -0.271 OA
ATOM     51  H22 8VF d   1      19.115 -26.584 -26.215  0.00  0.00     0.163 HD
BRANCH  49  52
ATOM     52  C35 8VF d   1      21.317 -25.158 -25.990  0.00  0.00     0.099 C 
ATOM     53  H31 8VF d   1      22.276 -25.307 -25.472  0.00  0.00     0.089 H 
ATOM     54  H32 8VF d   1      21.325 -24.185 -26.503  0.00  0.00     0.089 H 
BRANCH  52  55
ATOM     55  O37 8VF d   1      21.083 -26.205 -26.913  0.00  0.00    -0.341 OA
BRANCH  55  56
ATOM     56  C38 8VF d   1      22.156 -26.201 -27.878  0.00  0.00     0.081 A 
ATOM     57  C41 8VF d   1      23.416 -26.821 -27.557  0.00  0.00    -0.026 A 
ATOM     58  C40 8VF d   1      24.463 -26.766 -28.485  0.00  0.00    -0.049 A 
ATOM     59  C39 8VF d   1      24.290 -26.121 -29.711  0.00  0.00     0.031 A 
ATOM     60  H33 8VF d   1      25.415 -27.228 -28.250  0.00  0.00     0.087 H 
ATOM     61  C43 8VF d   1      23.030 -25.509 -30.000  0.00  0.00    -0.049 A 
ATOM     62  C42 8VF d   1      21.966 -25.548 -29.065  0.00  0.00    -0.026 A 
ATOM     63  H34 8VF d   1      22.887 -25.007 -30.950  0.00  0.00     0.087 H 
BRANCH  57  64
ATOM     64  C44 8VF d   1      23.614 -27.526 -26.251  0.00  0.00    -0.049 C 
ATOM     65  H35 8VF d   1      22.690 -27.465 -25.658  0.00  0.00     0.033 H 
ATOM     66  H36 8VF d   1      24.436 -27.049 -25.698  0.00  0.00     0.033 H 
ATOM     67  H37 8VF d   1      23.861 -28.581 -26.438  0.00  0.00     0.033 H 
ENDBRANCH  57  64
BRANCH  59  68
ATOM     68  N46 8VF d   1      25.400 -26.063 -30.684  0.00  0.00    -0.380 N 
BRANCH  68  69
ATOM     69  C47 8VF d   1      25.534 -24.932 -31.521  0.00  0.00    -0.008 C 
ATOM     70  H41 8VF d   1      26.593 -24.797 -31.785  0.00  0.00     0.063 H 
ATOM     71  H42 8VF d   1      25.173 -24.040 -30.989  0.00  0.00     0.063 H 
BRANCH  69  72
ATOM     72  C48 8VF d   1      24.719 -25.127 -32.789  0.00  0.00    -0.061 C 
ATOM     73  H43 8VF d   1      24.828 -24.243 -33.435  0.00  0.00     0.029 H 
ATOM     74  H44 8VF d   1      23.659 -25.261 -32.527  0.00  0.00     0.029 H 
ATOM     75  H45 8VF d   1      25.080 -26.018 -33.323  0.00  0.00     0.029 H 
ENDBRANCH  69  72
ENDBRANCH  68  69
BRANCH  68  76
ATOM     76  C49 8VF d   1      26.364 -27.133 -30.809  0.00  0.00     0.017 C 
ATOM     77  H46 8VF d   1      26.567 -27.312 -31.875  0.00  0.00     0.066 H 
ATOM     78  H47 8VF d   1      25.950 -28.046 -30.356  0.00  0.00     0.066 H 
BRANCH  76  79
ATOM     79  C50 8VF d   1      27.684 -26.769 -30.097  0.00  0.00     0.094 C 
ATOM     80  H48 8VF d   1      27.590 -26.971 -29.020  0.00  0.00     0.077 H 
ATOM     81  H49 8VF d   1      27.905 -25.703 -30.252  0.00  0.00     0.077 H 
BRANCH  79  82
ATOM     82  N51 8VF d   1      28.774 -27.587 -30.660  0.00  0.00    -0.078 N 
ATOM     83  H50 8VF d   1      29.640 -27.355 -30.200  0.00  0.00     0.274 HD
ATOM     84  H51 8VF d   1      28.858 -27.401 -31.647  0.00  0.00     0.274 HD
ATOM     85  H52 8VF d   1      28.569 -28.564 -30.518  0.00  0.00     0.274 HD
ENDBRANCH  79  82
ENDBRANCH  76  79
ENDBRANCH  68  76
ENDBRANCH  59  68
BRANCH  62  86
ATOM     86  C45 8VF d   1      20.624 -24.889 -29.409  0.00  0.00    -0.049 C 
ATOM     87  H38 8VF d   1      19.925 -25.020 -28.569  0.00  0.00     0.033 H 
ATOM     88  H39 8VF d   1      20.205 -25.359 -30.311  0.00  0.00     0.033 H 
ATOM     89  H40 8VF d   1      20.779 -23.816 -29.593  0.00  0.00     0.033 H 
ENDBRANCH  62  86
ENDBRANCH  55  56
ENDBRANCH  52  55
ENDBRANCH  49  52
ENDBRANCH   1  48
BRANCH   1  90
ATOM     90  C27 8VF d   1      16.680 -26.156 -25.372  0.00  0.00    -0.019 C 
ATOM     91  H24 8VF d   1      15.806 -26.399 -24.750  0.00  0.00     0.043 H 
ATOM     92  H25 8VF d   1      16.773 -26.898 -26.179  0.00  0.00     0.043 H 
BRANCH  90  93
ATOM     93  C28 8VF d   1      16.475 -24.761 -25.998  0.00  0.00    -0.056 A 
ATOM     94  C29 8VF d   1      17.076 -24.434 -27.206  0.00  0.00    -0.077 A 
ATOM     95  C30 8VF d   1      16.865 -23.135 -27.754  0.00  0.00    -0.082 A 
ATOM     96  H26 8VF d   1      17.697 -25.156 -27.725  0.00  0.00     0.084 H 
ATOM     97  C31 8VF d   1      16.056 -22.216 -27.076  0.00  0.00    -0.083 A 
ATOM     98  H27 8VF d   1      17.330 -22.860 -28.694  0.00  0.00     0.083 H 
ATOM     99  C32 8VF d   1      15.446 -22.548 -25.871  0.00  0.00    -0.082 A 
ATOM    100  H28 8VF d   1      15.902 -21.229 -27.497  0.00  0.00     0.083 H 
ATOM    101  C33 8VF d   1      15.659 -23.831 -25.317  0.00  0.00    -0.077 A 
ATOM    102  H29 8VF d   1      14.813 -21.830 -25.362  0.00  0.00     0.083 H 
ATOM    103  H30 8VF d   1      15.198 -24.100 -24.373  0.00  0.00     0.084 H 
ENDBRANCH  90  93
ENDBRANCH   1  90
TORSDOF 22
