REMARK  16 active torsions:
REMARK  status: ('A' for Active; 'I' for Inactive)
REMARK    1  A    between atoms: PA_1  and  O5B_4 
REMARK    2  A    between atoms: PA_1  and  O3_23 
REMARK    3  A    between atoms: O5B_4  and  C5B_5 
REMARK    4  A    between atoms: C5B_5  and  C4B_6 
REMARK    5  A    between atoms: C3B_8  and  O3B_9 
REMARK    6  A    between atoms: C2B_10  and  O2B_11 
REMARK    7  A    between atoms: C1B_12  and  N9A_13 
REMARK    8  A    between atoms: C6A_17  and  N6A_18 
REMARK    9  A    between atoms: O3_23  and  PN_24 
REMARK   10  A    between atoms: PN_24  and  O5D_27 
REMARK   11  A    between atoms: O5D_27  and  C5D_28 
REMARK   12  A    between atoms: C5D_28  and  C4D_29 
REMARK   13  A    between atoms: C3D_31  and  O3D_32 
REMARK   14  A    between atoms: C2D_33  and  O2D_34 
REMARK   15  A    between atoms: C1D_35  and  N1N_36 
REMARK   16  A    between atoms: C3N_38  and  C7N_39 
REMARK       I    between atoms: C7N_39  and  N7N_41 
ROOT
ATOM      1  O3  NAI d   1     378.900 -16.400 337.323  0.00  0.00    -0.180 OA
ENDROOT
BRANCH   1   2
ATOM      2  PA  NAI d   1     377.858 -17.537 337.162  0.00  0.00     0.417 P 
ATOM      3  O1A NAI d   1     378.340 -18.754 336.536  0.00  0.00    -0.624 OA
ATOM      4  O2A NAI d   1     376.929 -17.451 338.286  0.00  0.00    -0.624 OA
BRANCH   2   5
ATOM      5  O5B NAI d   1     377.104 -17.101 335.923  0.00  0.00    -0.287 OA
BRANCH   5   6
ATOM      6  C5B NAI d   1     377.806 -16.559 334.855  0.00  0.00     0.058 C 
ATOM      7  H1  NAI d   1     378.877 -16.642 335.094  0.00  0.00     0.079 H 
ATOM      8  H2  NAI d   1     377.526 -15.497 334.787  0.00  0.00     0.079 H 
BRANCH   6   9
ATOM      9  C4B NAI d   1     377.604 -17.168 333.471  0.00  0.00     0.089 C 
ATOM     10  O4B NAI d   1     376.741 -18.254 333.331  0.00  0.00    -0.353 OA
ATOM     11  C1B NAI d   1     376.472 -18.336 331.954  0.00  0.00     0.139 C 
ATOM     12  C2B NAI d   1     376.339 -16.923 331.525  0.00  0.00     0.105 C 
ATOM     13  H8  NAI d   1     377.307 -18.827 331.433  0.00  0.00     0.122 H 
ATOM     14  C3B NAI d   1     377.023 -16.157 332.566  0.00  0.00     0.091 C 
ATOM     15  H6  NAI d   1     375.281 -16.641 331.419  0.00  0.00     0.093 H 
ATOM     16  H4  NAI d   1     376.332 -15.483 333.094  0.00  0.00     0.091 H 
ATOM     17  H3  NAI d   1     378.597 -17.472 333.108  0.00  0.00     0.090 H 
BRANCH  11  18
ATOM     18  N9A NAI d   1     375.224 -19.059 331.656  0.00  0.00    -0.294 N 
ATOM     19  C8A NAI d   1     375.021 -19.952 330.692  0.00  0.00     0.071 A 
ATOM     20  N7A NAI d   1     373.770 -20.417 330.701  0.00  0.00    -0.236 NA
ATOM     21  H9  NAI d   1     375.784 -20.266 329.981  0.00  0.00     0.144 H 
ATOM     22  C5A NAI d   1     373.162 -19.812 331.679  0.00  0.00     0.149 A 
ATOM     23  C6A NAI d   1     371.841 -19.858 332.218  0.00  0.00     0.155 A 
ATOM     24  C4A NAI d   1     374.115 -18.933 332.296  0.00  0.00     0.167 A 
ATOM     25  N1A NAI d   1     371.603 -19.083 333.245  0.00  0.00    -0.222 NA
ATOM     26  C2A NAI d   1     372.526 -18.270 333.759  0.00  0.00     0.091 A 
ATOM     27  N3A NAI d   1     373.755 -18.188 333.309  0.00  0.00    -0.222 NA
ATOM     28  H12 NAI d   1     372.245 -17.641 334.596  0.00  0.00     0.146 H 
BRANCH  23  29
ATOM     29  N6A NAI d   1     370.916 -20.645 331.705  0.00  0.00    -0.382 N 
ATOM     30  H10 NAI d   1     369.970 -20.661 332.112  0.00  0.00     0.157 HD
ATOM     31  H11 NAI d   1     371.140 -21.244 330.898  0.00  0.00     0.157 HD
ENDBRANCH  23  29
ENDBRANCH  11  18
BRANCH  12  32
ATOM     32  O2B NAI d   1     377.052 -16.647 330.349  0.00  0.00    -0.388 OA
ATOM     33  H7  NAI d   1     377.024 -15.713 330.175  0.00  0.00     0.210 HD
ENDBRANCH  12  32
BRANCH  14  34
ATOM     34  O3B NAI d   1     378.067 -15.450 331.991  0.00  0.00    -0.390 OA
ATOM     35  H5  NAI d   1     378.622 -16.048 331.504  0.00  0.00     0.210 HD
ENDBRANCH  14  34
ENDBRANCH   6   9
ENDBRANCH   5   6
ENDBRANCH   2   5
ENDBRANCH   1   2
BRANCH   1  36
ATOM     36  PN  NAI d   1     378.426 -14.931 337.220  0.00  0.00     0.417 P 
ATOM     37  O1N NAI d   1     379.023 -14.281 336.064  0.00  0.00    -0.624 OA
ATOM     38  O2N NAI d   1     376.973 -14.911 337.349  0.00  0.00    -0.624 OA
BRANCH  36  39
ATOM     39  O5D NAI d   1     379.130 -14.205 338.415  0.00  0.00    -0.287 OA
BRANCH  39  40
ATOM     40  C5D NAI d   1     380.523 -14.387 338.439  0.00  0.00     0.058 C 
ATOM     41  H13 NAI d   1     380.876 -14.266 337.404  0.00  0.00     0.079 H 
ATOM     42  H14 NAI d   1     380.701 -15.421 338.769  0.00  0.00     0.079 H 
BRANCH  40  43
ATOM     43  C4D NAI d   1     381.404 -13.487 339.313  0.00  0.00     0.089 C 
ATOM     44  O4D NAI d   1     381.222 -12.111 339.147  0.00  0.00    -0.353 OA
ATOM     45  C1D NAI d   1     380.732 -11.488 340.319  0.00  0.00     0.136 C 
ATOM     46  C2D NAI d   1     380.369 -12.573 341.262  0.00  0.00     0.105 C 
ATOM     47  H20 NAI d   1     381.524 -10.867 340.762  0.00  0.00     0.122 H 
ATOM     48  C3D NAI d   1     381.243 -13.651 340.772  0.00  0.00     0.091 C 
ATOM     49  H18 NAI d   1     379.302 -12.834 341.196  0.00  0.00     0.093 H 
ATOM     50  H16 NAI d   1     380.884 -14.654 341.046  0.00  0.00     0.091 H 
ATOM     51  H15 NAI d   1     382.442 -13.735 339.048  0.00  0.00     0.090 H 
BRANCH  45  52
ATOM     52  N1N NAI d   1     379.592 -10.645 340.029  0.00  0.00    -0.336 N 
ATOM     53  C2N NAI d   1     378.816 -10.906 339.008  0.00  0.00    -0.003 A 
ATOM     54  C3N NAI d   1     377.760 -10.133 338.697  0.00  0.00     0.047 A 
ATOM     55  H21 NAI d   1     379.031 -11.773 338.393  0.00  0.00     0.113 H 
ATOM     56  C4N NAI d   1     377.467  -9.060 339.437  0.00  0.00    -0.065 A 
ATOM     57  C5N NAI d   1     378.271  -8.792 340.501  0.00  0.00    -0.067 A 
ATOM     58  H24 NAI d   1     376.620  -8.427 339.199  0.00  0.00     0.085 H 
ATOM     59  C6N NAI d   1     379.335  -9.608 340.774  0.00  0.00    -0.018 A 
ATOM     60  H25 NAI d   1     378.069  -7.934 341.132  0.00  0.00     0.085 H 
ATOM     61  H26 NAI d   1     379.973  -9.388 341.622  0.00  0.00     0.111 H 
BRANCH  54  62
ATOM     62  C7N NAI d   1     376.944 -10.478 337.564  0.00  0.00     0.250 C 
ATOM     63  O7N NAI d   1     376.276  -9.642 337.080  0.00  0.00    -0.268 OA
ATOM     64  N7N NAI d   1     376.971 -11.695 337.118  0.00  0.00    -0.366 N 
ATOM     65  H22 NAI d   1     376.410 -11.952 336.331  0.00  0.00     0.159 HD
ATOM     66  H23 NAI d   1     377.553 -12.377 337.561  0.00  0.00     0.159 HD
ENDBRANCH  54  62
ENDBRANCH  45  52
BRANCH  46  67
ATOM     67  O2D NAI d   1     380.713 -12.256 342.607  0.00  0.00    -0.388 OA
ATOM     68  H19 NAI d   1     380.148 -11.560 342.922  0.00  0.00     0.210 HD
ENDBRANCH  46  67
BRANCH  48  69
ATOM     69  O3D NAI d   1     382.485 -13.331 341.328  0.00  0.00    -0.390 OA
ATOM     70  H17 NAI d   1     382.440 -13.420 342.273  0.00  0.00     0.210 HD
ENDBRANCH  48  69
ENDBRANCH  40  43
ENDBRANCH  39  40
ENDBRANCH  36  39
ENDBRANCH   1  36
TORSDOF 16
