REMARK  6 active torsions:
REMARK  status: ('A' for Active; 'I' for Inactive)
REMARK    1  A    between atoms: C7_5  and  C6_3 
REMARK    2  A    between atoms: C8_6  and  C9_8 
REMARK    3  A    between atoms: C1_18  and  C_16 
REMARK    4  A    between atoms: O_17  and  C17_20 
REMARK    5  A    between atoms: C18_21  and  O_17 
REMARK    6  A    between atoms: C19_22  and  C18_21 
ROOT
ATOM      1  C9  8WC d   1       6.689 -54.057 -36.734  0.00  0.00    -0.023 A 
ATOM      2  C10 8WC d   1       5.728 -54.997 -37.114  0.00  0.00    -0.071 A 
ATOM      3  C11 8WC d   1       6.071 -56.116 -37.853  0.00  0.00    -0.062 A 
ATOM      4  C12 8WC d   1       7.395 -56.317 -38.246  0.00  0.00     0.044 A 
ATOM      5  C13 8WC d   1       7.736 -57.439 -39.086  0.00  0.00     0.099 C 
ATOM      6  C14 8WC d   1       8.368 -55.386 -37.874  0.00  0.00    -0.062 A 
ATOM      7  C15 8WC d   1       8.014 -54.272 -37.127  0.00  0.00    -0.071 A 
ATOM      8  N   8WC d   1       7.972 -58.332 -39.763  0.00  0.00    -0.191 NA
ATOM      9  H5  8WC d   1       4.694 -54.847 -36.825  0.00  0.00     0.084 H 
ATOM     10  H6  8WC d   1       5.310 -56.838 -38.127  0.00  0.00     0.085 H 
ATOM     11  H7  8WC d   1       9.400 -55.534 -38.169  0.00  0.00     0.085 H 
ATOM     12  H8  8WC d   1       8.777 -53.556 -36.843  0.00  0.00     0.084 H 
ENDROOT
BRANCH   1  13
ATOM     13  C8  8WC d   1       6.307 -52.875 -35.913  0.00  0.00     0.006 A 
ATOM     14  C7  8WC d   1       6.633 -51.535 -36.241  0.00  0.00     0.078 A 
ATOM     15  N2  8WC d   1       6.325 -50.509 -35.431  0.00  0.00    -0.257 NA
ATOM     16  C24 8WC d   1       5.655 -50.756 -34.298  0.00  0.00     0.035 A 
ATOM     17  C17 8WC d   1       5.260 -52.022 -33.925  0.00  0.00     0.087 A 
ATOM     18  H25 8WC d   1       5.413 -49.924 -33.647  0.00  0.00     0.119 H 
ATOM     19  C16 8WC d   1       5.590 -53.092 -34.737  0.00  0.00    -0.036 A 
ATOM     20  H12 8WC d   1       5.292 -54.097 -34.460  0.00  0.00     0.089 H 
BRANCH  14  21
ATOM     21  C6  8WC d   1       7.258 -51.149 -37.538  0.00  0.00    -0.006 A 
ATOM     22  C5  8WC d   1       6.626 -51.432 -38.752  0.00  0.00    -0.070 A 
ATOM     23  C4  8WC d   1       7.272 -51.226 -39.955  0.00  0.00    -0.076 A 
ATOM     24  H2  8WC d   1       5.613 -51.819 -38.749  0.00  0.00     0.084 H 
ATOM     25  C1  8WC d   1       8.558 -50.715 -40.005  0.00  0.00    -0.062 A 
ATOM     26  H1  8WC d   1       6.762 -51.469 -40.880  0.00  0.00     0.084 H 
ATOM     27  C2  8WC d   1       9.182 -50.410 -38.803  0.00  0.00    -0.076 A 
ATOM     28  C3  8WC d   1       8.541 -50.613 -37.593  0.00  0.00    -0.070 A 
ATOM     29  H16 8WC d   1      10.188 -50.006 -38.812  0.00  0.00     0.084 H 
ATOM     30  H26 8WC d   1       9.048 -50.350 -36.672  0.00  0.00     0.084 H 
BRANCH  25  31
ATOM     31  C   8WC d   1       9.242 -50.447 -41.325  0.00  0.00    -0.051 C 
ATOM     32  H9  8WC d   1      10.250 -50.046 -41.141  0.00  0.00     0.033 H 
ATOM     33  H10 8WC d   1       8.655 -49.715 -41.900  0.00  0.00     0.033 H 
ATOM     34  H11 8WC d   1       9.319 -51.385 -41.895  0.00  0.00     0.033 H 
ENDBRANCH  25  31
ENDBRANCH  14  21
BRANCH  17  35
ATOM     35  O   8WC d   1       4.555 -52.067 -32.740  0.00  0.00    -0.349 OA
BRANCH  35  36
ATOM     36  C18 8WC d   1       4.076 -53.321 -32.238  0.00  0.00     0.029 C 
ATOM     37  H13 8WC d   1       4.437 -53.478 -31.211  0.00  0.00     0.075 H 
ATOM     38  H14 8WC d   1       4.427 -54.142 -32.880  0.00  0.00     0.075 H 
BRANCH  36  39
ATOM     39  C19 8WC d   1       2.568 -53.263 -32.252  0.00  0.00    -0.030 C 
ATOM     40  C20 8WC d   1       1.958 -54.474 -31.566  0.00  0.00    -0.037 C 
ATOM     41  C21 8WC d   1       0.449 -54.401 -31.714  0.00  0.00     0.082 C 
ATOM     42  H17 8WC d   1       2.227 -54.471 -30.499  0.00  0.00     0.036 H 
ATOM     43  H18 8WC d   1       2.333 -55.395 -32.036  0.00  0.00     0.036 H 
ATOM     44  N1  8WC d   1      -0.078 -53.170 -31.102  0.00  0.00    -0.075 N 
ATOM     45  H19 8WC d   1       0.191 -54.411 -32.783  0.00  0.00     0.075 H 
ATOM     46  H20 8WC d   1      -0.004 -55.272 -31.219  0.00  0.00     0.075 H 
ATOM     47  C22 8WC d   1       0.532 -51.985 -31.710  0.00  0.00     0.082 C 
ATOM     48  H3  8WC d   1       0.127 -53.178 -30.115  0.00  0.00     0.277 HD
ATOM     49  H4  8WC d   1      -1.076 -53.134 -31.238  0.00  0.00     0.277 HD
ATOM     50  C23 8WC d   1       2.043 -52.013 -31.572  0.00  0.00    -0.037 C 
ATOM     51  H21 8WC d   1       0.143 -51.085 -31.211  0.00  0.00     0.075 H 
ATOM     52  H22 8WC d   1       0.270 -51.955 -32.778  0.00  0.00     0.075 H 
ATOM     53  H23 8WC d   1       2.475 -51.122 -32.050  0.00  0.00     0.036 H 
ATOM     54  H24 8WC d   1       2.318 -52.027 -30.507  0.00  0.00     0.036 H 
ATOM     55  H15 8WC d   1       2.240 -53.253 -33.302  0.00  0.00     0.043 H 
ENDBRANCH  36  39
ENDBRANCH  35  36
ENDBRANCH  17  35
ENDBRANCH   1  13
TORSDOF 6
