REMARK  12 active torsions:
REMARK  status: ('A' for Active; 'I' for Inactive)
REMARK    1  A    between atoms: C6_8  and  O23_9 
REMARK    2  A    between atoms: O23_9  and  C24_10 
REMARK    3  A    between atoms: C4_12  and  C5_11 
REMARK    4  A    between atoms: C4_12  and  C3_13 
REMARK    5  A    between atoms: N14_17  and  N62_18 
REMARK    6  A    between atoms: N62_18  and  C63_19 
REMARK    7  A    between atoms: N62_18  and  C68_20 
REMARK    8  A    between atoms: N16_22  and  C17_23 
REMARK    9  A    between atoms: C17_23  and  C19_24 
REMARK       I    between atoms: C19_24  and  N20_26 
REMARK   10  A    between atoms: N20_26  and  C21_27 
REMARK   11  A    between atoms: C26_32  and  S31_33 
REMARK   12  A    between atoms: S31_33  and  C72_36 
ROOT
ATOM      1  C1  8VX d   1      18.944  38.311  22.926  0.00  0.00     0.226 C 
ATOM      2  O2  8VX d   1      17.839  38.427  23.444  0.00  0.00    -0.273 OA
ATOM      3  C3  8VX d   1      19.040  37.825  21.481  0.00  0.00     0.043 C 
ATOM      4  C11 8VX d   1      19.659  36.417  21.335  0.00  0.00     0.005 C 
ATOM      5  N12 8VX d   1      21.069  36.257  21.641  0.00  0.00    -0.375 N 
ATOM      6  C13 8VX d   1      21.896  37.080  22.392  0.00  0.00     0.132 C 
ATOM      7  N14 8VX d   1      23.140  36.894  22.608  0.00  0.00    -0.185 NA
ATOM      8  C15 8VX d   1      21.394  38.384  23.018  0.00  0.00     0.053 C 
ATOM      9  N16 8VX d   1      20.058  38.506  23.612  0.00  0.00    -0.336 N 
ATOM     10  H9  8VX d   1      19.742  38.506  20.979  0.00  0.00     0.057 H 
ATOM     11  H10 8VX d   1      19.513  36.102  20.291  0.00  0.00     0.065 H 
ATOM     12  H11 8VX d   1      19.101  35.744  22.002  0.00  0.00     0.065 H 
ATOM     13  H12 8VX d   1      21.517  35.417  21.247  0.00  0.00     0.160 HD
ATOM     14  H19 8VX d   1      21.447  39.145  22.225  0.00  0.00     0.076 H 
ATOM     15  H20 8VX d   1      22.108  38.635  23.816  0.00  0.00     0.076 H 
ENDROOT
BRANCH   9  16
ATOM     16  C17 8VX d   1      20.027  38.977  25.003  0.00  0.00     0.072 C 
ATOM     17  H21 8VX d   1      21.057  38.990  25.389  0.00  0.00     0.079 H 
ATOM     18  H22 8VX d   1      19.422  38.275  25.595  0.00  0.00     0.079 H 
BRANCH  16  19
ATOM     19  C19 8VX d   1      19.438  40.368  25.159  0.00  0.00     0.240 C 
ATOM     20  O30 8VX d   1      19.830  41.189  24.349  0.00  0.00    -0.271 OA
ATOM     21  N20 8VX d   1      18.555  40.577  26.143  0.00  0.00    -0.326 N 
ATOM     22  H23 8VX d   1      18.340  39.786  26.715  0.00  0.00     0.169 HD
BRANCH  21  23
ATOM     23  C21 8VX d   1      17.887  41.782  26.473  0.00  0.00     0.036 A 
ATOM     24  C25 8VX d   1      18.119  43.030  25.840  0.00  0.00    -0.036 A 
ATOM     25  C26 8VX d   1      17.421  44.197  26.204  0.00  0.00     0.061 A 
ATOM     26  H24 8VX d   1      18.858  43.087  25.049  0.00  0.00     0.089 H 
ATOM     27  C27 8VX d   1      16.460  44.132  27.219  0.00  0.00    -0.062 A 
ATOM     28  C28 8VX d   1      16.233  42.908  27.864  0.00  0.00    -0.079 A 
ATOM     29  H27 8VX d   1      15.899  45.015  27.503  0.00  0.00     0.085 H 
ATOM     30  C29 8VX d   1      16.934  41.747  27.498  0.00  0.00    -0.057 A 
ATOM     31  H26 8VX d   1      15.501  42.856  28.662  0.00  0.00     0.083 H 
ATOM     32  H25 8VX d   1      16.735  40.815  28.014  0.00  0.00     0.086 H 
BRANCH  25  33
ATOM     33  S31 8VX d   1      17.809  45.708  25.304  0.00  0.00     0.172 S 
ATOM     34  O32 8VX d   1      18.316  45.269  24.020  0.00  0.00    -0.223 OA
ATOM     35  O33 8VX d   1      16.643  46.557  25.143  0.00  0.00    -0.223 OA
BRANCH  33  36
ATOM     36  C72 8VX d   1      19.130  46.654  26.129  0.00  0.00     0.020 C 
ATOM     37  H28 8VX d   1      19.341  47.568  25.554  0.00  0.00     0.049 H 
ATOM     38  H29 8VX d   1      20.040  46.039  26.187  0.00  0.00     0.049 H 
ATOM     39  H30 8VX d   1      18.807  46.926  27.145  0.00  0.00     0.049 H 
ENDBRANCH  33  36
ENDBRANCH  25  33
ENDBRANCH  21  23
ENDBRANCH  16  19
ENDBRANCH   9  16
BRANCH   3  40
ATOM     40  C4  8VX d   1      17.706  37.991  20.760  0.00  0.00    -0.025 C 
ATOM     41  H7  8VX d   1      16.948  37.400  21.294  0.00  0.00     0.041 H 
ATOM     42  H8  8VX d   1      17.428  39.055  20.788  0.00  0.00     0.041 H 
BRANCH  40  43
ATOM     43  C5  8VX d   1      17.729  37.545  19.325  0.00  0.00    -0.022 A 
ATOM     44  C10 8VX d   1      17.170  36.283  19.081  0.00  0.00    -0.053 A 
ATOM     45  C9  8VX d   1      17.155  35.786  17.779  0.00  0.00     0.034 A 
ATOM     46  H1  8VX d   1      16.754  35.700  19.895  0.00  0.00     0.087 H 
ATOM     47 CL2  8VX d   1      16.478  34.250  17.441  0.00  0.00    -0.084 Cl
ATOM     48  C8  8VX d   1      17.683  36.547  16.738  0.00  0.00    -0.059 A 
ATOM     49  C7  8VX d   1      18.262  37.782  16.983  0.00  0.00    -0.049 A 
ATOM     50  H2  8VX d   1      17.640  36.168  15.723  0.00  0.00     0.086 H 
ATOM     51  C6  8VX d   1      18.302  38.308  18.283  0.00  0.00     0.074 A 
ATOM     52  H3  8VX d   1      18.688  38.347  16.162  0.00  0.00     0.087 H 
BRANCH  51  53
ATOM     53  O23 8VX d   1      18.843  39.520  18.563  0.00  0.00    -0.355 OA
BRANCH  53  54
ATOM     54  C24 8VX d   1      19.427  40.308  17.541  0.00  0.00     0.010 C 
ATOM     55  H4  8VX d   1      19.805  41.247  17.972  0.00  0.00     0.066 H 
ATOM     56  H5  8VX d   1      18.671  40.535  16.775  0.00  0.00     0.066 H 
ATOM     57  H6  8VX d   1      20.259  39.755  17.082  0.00  0.00     0.066 H 
ENDBRANCH  53  54
ENDBRANCH  51  53
ENDBRANCH  40  43
ENDBRANCH   3  40
BRANCH   7  58
ATOM     58  N62 8VX d   1      23.727  35.789  22.069  0.00  0.00    -0.215 NA
BRANCH  58  59
ATOM     59  C63 8VX d   1      24.679  36.120  20.996  0.00  0.00    -0.014 C 
ATOM     60  H13 8VX d   1      25.121  35.194  20.599  0.00  0.00     0.051 H 
ATOM     61  H14 8VX d   1      25.476  36.763  21.398  0.00  0.00     0.051 H 
ATOM     62  H15 8VX d   1      24.152  36.650  20.189  0.00  0.00     0.051 H 
ENDBRANCH  58  59
BRANCH  58  63
ATOM     63  C68 8VX d   1      24.102  34.812  23.079  0.00  0.00    -0.014 C 
ATOM     64  H16 8VX d   1      24.570  33.943  22.593  0.00  0.00     0.051 H 
ATOM     65  H17 8VX d   1      23.205  34.487  23.626  0.00  0.00     0.051 H 
ATOM     66  H18 8VX d   1      24.815  35.267  23.782  0.00  0.00     0.051 H 
ENDBRANCH  58  63
ENDBRANCH   7  58
TORSDOF 12
