REMARK  8 active torsions:
REMARK  status: ('A' for Active; 'I' for Inactive)
REMARK    1  A    between atoms: CAR_15  and  CAE_5 
REMARK    2  A    between atoms: CAL_11  and  CAO_14 
REMARK    3  A    between atoms: CAO_14  and  NAP_26 
REMARK       I    between atoms: NAS_27  and  CAR_15 
REMARK    4  A    between atoms: CAY_19  and  CAZ_20 
REMARK       I    between atoms: CBA_21  and  NAW_28 
REMARK    5  A    between atoms: OBC_31  and  CBA_21 
REMARK    6  A    between atoms: CBD_22  and  CBE_23 
REMARK    7  A    between atoms: CBD_22  and  OBC_31 
REMARK    8  A    between atoms: CBE_23  and  CBF_24 
ROOT
ATOM      1  CAA MOL d   1      18.895  -1.862 123.083  0.00  0.00     0.068 A 
ATOM      2  CAB MOL d   1      18.699  -1.960 121.713  0.00  0.00    -0.007 A 
ATOM      3  CAC MOL d   1      17.577  -1.378 121.131  0.00  0.00    -0.070 A 
ATOM      4  CAD MOL d   1      16.649  -0.704 121.920  0.00  0.00    -0.067 A 
ATOM      5  CAE MOL d   1      16.854  -0.601 123.295  0.00  0.00     0.034 A 
ATOM      6  CAF MOL d   1      17.973  -1.188 123.870  0.00  0.00    -0.039 A 
ATOM      7  CAH MOL d   1      20.886  -3.084 122.952  0.00  0.00     0.042 A 
ATOM      8  CAI MOL d   1      20.745  -3.202 121.565  0.00  0.00    -0.033 A 
ATOM      9  CAJ MOL d   1      19.634  -2.639 120.942  0.00  0.00    -0.063 A 
ATOM     10  CAK MOL d   1      21.976  -3.604 123.654  0.00  0.00    -0.019 C 
ATOM     11  CAL MOL d   1      22.788  -4.575 122.833  0.00  0.00    -0.026 C 
ATOM     12  CAM MOL d   1      23.019  -3.955 121.479  0.00  0.00    -0.056 C 
ATOM     13  CAN MOL d   1      21.674  -3.887 120.783  0.00  0.00    -0.039 C 
ATOM     14  NAG MOL d   1      19.968  -2.415 123.662  0.00  0.00    -0.252 NA
ATOM     15  H1  MOL d   1      17.425  -1.450 120.060  0.00  0.00     0.084 H 
ATOM     16  H2  MOL d   1      15.770  -0.261 121.467  0.00  0.00     0.085 H 
ATOM     17  H3  MOL d   1      18.127  -1.119 124.941  0.00  0.00     0.088 H 
ATOM     18  H4  MOL d   1      19.501  -2.729 119.870  0.00  0.00     0.085 H 
ATOM     19  H5  MOL d   1      21.603  -4.125 124.548  0.00  0.00     0.043 H 
ATOM     20  H6  MOL d   1      22.627  -2.772 123.960  0.00  0.00     0.043 H 
ATOM     21  H7  MOL d   1      22.253  -5.530 122.725  0.00  0.00     0.043 H 
ATOM     22  H8  MOL d   1      23.715  -4.574 120.894  0.00  0.00     0.034 H 
ATOM     23  H9  MOL d   1      23.436  -2.943 121.594  0.00  0.00     0.034 H 
ATOM     24  H10 MOL d   1      21.791  -3.365 119.822  0.00  0.00     0.040 H 
ATOM     25  H11 MOL d   1      21.309  -4.909 120.603  0.00  0.00     0.040 H 
ENDROOT
BRANCH   5  26
ATOM     26  CAR MOL d   1      15.959   0.065 124.128  0.00  0.00     0.254 C 
ATOM     27  NAS MOL d   1      16.071   1.397 124.287  0.00  0.00    -0.341 N 
ATOM     28  CAU MOL d   1      15.132   2.098 125.201  0.00  0.00     0.013 C 
ATOM     29  CAY MOL d   1      17.077   2.180 123.527  0.00  0.00     0.027 C 
ATOM     30  CAV MOL d   1      15.759   3.280 125.956  0.00  0.00     0.015 C 
ATOM     31  H14 MOL d   1      14.288   2.477 124.606  0.00  0.00     0.067 H 
ATOM     32  H15 MOL d   1      14.763   1.372 125.940  0.00  0.00     0.067 H 
ATOM     33  NAW MOL d   1      16.802   3.970 125.161  0.00  0.00    -0.325 N 
ATOM     34  H16 MOL d   1      16.214   2.905 126.885  0.00  0.00     0.067 H 
ATOM     35  H17 MOL d   1      14.967   4.002 126.201  0.00  0.00     0.067 H 
ATOM     36  CAX MOL d   1      17.791   3.169 124.429  0.00  0.00     0.018 C 
ATOM     37  CBA MOL d   1      16.890   5.304 125.104  0.00  0.00     0.362 C 
ATOM     38  H18 MOL d   1      18.421   3.833 123.819  0.00  0.00     0.067 H 
ATOM     39  H19 MOL d   1      18.422   2.622 125.145  0.00  0.00     0.067 H 
ATOM     40  OBB MOL d   1      17.786   5.814 124.431  0.00  0.00    -0.238 OA
ATOM     41  H20 MOL d   1      17.820   1.482 123.114  0.00  0.00     0.074 H 
ATOM     42  OAT MOL d   1      15.145  -0.598 124.768  0.00  0.00    -0.267 OA
BRANCH  37  43
ATOM     43  OBC MOL d   1      15.994   6.088 125.765  0.00  0.00    -0.304 OA
BRANCH  43  44
ATOM     44  CBD MOL d   1      14.937   6.520 124.897  0.00  0.00     0.030 C 
ATOM     45  H24 MOL d   1      14.637   5.685 124.247  0.00  0.00     0.075 H 
ATOM     46  H25 MOL d   1      14.077   6.839 125.504  0.00  0.00     0.075 H 
BRANCH  44  47
ATOM     47  CBE MOL d   1      15.405   7.690 124.031  0.00  0.00    -0.048 C 
ATOM     48  H26 MOL d   1      15.620   7.331 123.014  0.00  0.00     0.035 H 
ATOM     49  H27 MOL d   1      16.316   8.127 124.466  0.00  0.00     0.035 H 
BRANCH  47  50
ATOM     50  CBF MOL d   1      14.309   8.750 123.976  0.00  0.00    -0.075 C 
ATOM     51  H28 MOL d   1      14.645   9.592 123.353  0.00  0.00     0.027 H 
ATOM     52  H29 MOL d   1      14.095   9.109 124.993  0.00  0.00     0.027 H 
ATOM     53  H30 MOL d   1      13.398   8.313 123.542  0.00  0.00     0.027 H 
ENDBRANCH  47  50
ENDBRANCH  44  47
ENDBRANCH  43  44
ENDBRANCH  37  43
BRANCH  29  54
ATOM     54  CAZ MOL d   1      16.413   2.931 122.368  0.00  0.00    -0.056 C 
ATOM     55  H21 MOL d   1      15.896   2.213 121.715  0.00  0.00     0.030 H 
ATOM     56  H22 MOL d   1      17.181   3.466 121.790  0.00  0.00     0.030 H 
ATOM     57  H23 MOL d   1      15.686   3.653 122.768  0.00  0.00     0.030 H 
ENDBRANCH  29  54
ENDBRANCH   5  26
BRANCH  11  58
ATOM     58  CAO MOL d   1      24.125  -4.801 123.544  0.00  0.00     0.083 C 
ATOM     59  H12 MOL d   1      23.949  -5.388 124.457  0.00  0.00     0.075 H 
ATOM     60  H13 MOL d   1      24.556  -3.825 123.812  0.00  0.00     0.075 H 
BRANCH  58  61
ATOM     61  NAP MOL d   1      25.076  -5.524 122.688  0.00  0.00    -0.079 N 
ATOM     62  H31 MOL d   1      25.943  -5.655 123.185  0.00  0.00     0.274 HD
ATOM     63  H32 MOL d   1      25.247  -4.990 121.850  0.00  0.00     0.274 HD
ATOM     64  H33 MOL d   1      24.691  -6.422 122.441  0.00  0.00     0.274 HD
ENDBRANCH  58  61
ENDBRANCH  11  58
TORSDOF 8
