REMARK  12 active torsions:
REMARK  status: ('A' for Active; 'I' for Inactive)
REMARK    1  A    between atoms: C6_7  and  O23_8 
REMARK    2  A    between atoms: O23_8  and  C24_9 
REMARK    3  A    between atoms: C4_12  and  C5_11 
REMARK    4  A    between atoms: C4_12  and  C3_13 
REMARK    5  A    between atoms: N14_17  and  O62_18 
REMARK    6  A    between atoms: O62_18  and  C63_19 
REMARK    7  A    between atoms: C63_19  and  C64_20 
REMARK       I    between atoms: N16_22  and  C17_23 
REMARK       I    between atoms: C17_23  and  N19_25 
REMARK    8  A    between atoms: N19_25  and  C20_26 
REMARK    9  A    between atoms: C20_26  and  C30_27 
REMARK   10  A    between atoms: C20_26  and  C21_29 
REMARK   11  A    between atoms: C30_27  and  C35_28 
REMARK   12  A    between atoms: C27_34  and  C31_35 
ROOT
ATOM      1  C1  8W6 d   1      -9.411 -16.629  -5.935  0.00  0.00     0.234 C 
ATOM      2  O2  8W6 d   1      -8.499 -17.044  -5.205  0.00  0.00    -0.272 OA
ATOM      3  C3  8W6 d   1     -10.528 -15.780  -5.280  0.00  0.00     0.043 C 
ATOM      4  C11 8W6 d   1     -11.829 -16.617  -5.434  0.00  0.00     0.005 C 
ATOM      5  N12 8W6 d   1     -12.407 -16.726  -6.746  0.00  0.00    -0.374 N 
ATOM      6  C13 8W6 d   1     -11.890 -16.530  -8.005  0.00  0.00     0.145 C 
ATOM      7  N14 8W6 d   1     -12.627 -16.771  -9.018  0.00  0.00    -0.119 NA
ATOM      8  C15 8W6 d   1     -10.443 -16.071  -8.163  0.00  0.00     0.063 C 
ATOM      9  N16 8W6 d   1      -9.417 -16.774  -7.322  0.00  0.00    -0.263 N 
ATOM     10  C17 8W6 d   1      -8.456 -17.490  -8.084  0.00  0.00     0.326 C 
ATOM     11  O18 8W6 d   1      -8.535 -17.551  -9.307  0.00  0.00    -0.247 OA
ATOM     12  N19 8W6 d   1      -7.522 -18.196  -7.407  0.00  0.00    -0.334 N 
ATOM     13  H9  8W6 d   1     -10.637 -14.820  -5.805  0.00  0.00     0.057 H 
ATOM     14  H10 8W6 d   1     -12.588 -16.166  -4.778  0.00  0.00     0.065 H 
ATOM     15  H11 8W6 d   1     -11.605 -17.637  -5.089  0.00  0.00     0.065 H 
ATOM     16  H12 8W6 d   1     -13.399 -17.004  -6.742  0.00  0.00     0.161 HD
ATOM     17  H18 8W6 d   1     -10.403 -15.001  -7.912  0.00  0.00     0.077 H 
ATOM     18  H19 8W6 d   1     -10.162 -16.211  -9.217  0.00  0.00     0.077 H 
ATOM     19  H20 8W6 d   1      -7.602 -18.203  -6.410  0.00  0.00     0.165 HD
ENDROOT
BRANCH   3  20
ATOM     20  C4  8W6 d   1     -10.188 -15.515  -3.840  0.00  0.00    -0.025 C 
ATOM     21  H7  8W6 d   1     -10.149 -16.481  -3.315  0.00  0.00     0.041 H 
ATOM     22  H8  8W6 d   1      -9.198 -15.038  -3.805  0.00  0.00     0.041 H 
BRANCH  20  23
ATOM     23  C5  8W6 d   1     -11.155 -14.633  -3.119  0.00  0.00    -0.022 A 
ATOM     24  C6  8W6 d   1     -11.186 -13.277  -3.423  0.00  0.00     0.074 A 
ATOM     25  C7  8W6 d   1     -12.130 -12.454  -2.703  0.00  0.00    -0.049 A 
ATOM     26  C8  8W6 d   1     -12.982 -13.012  -1.786  0.00  0.00    -0.059 A 
ATOM     27  H2  8W6 d   1     -12.165 -11.387  -2.889  0.00  0.00     0.087 H 
ATOM     28  C9  8W6 d   1     -12.995 -14.377  -1.566  0.00  0.00     0.034 A 
ATOM     29  H1  8W6 d   1     -13.655 -12.374  -1.225  0.00  0.00     0.086 H 
ATOM     30 CL2  8W6 d   1     -14.070 -15.078  -0.457  0.00  0.00    -0.084 Cl
ATOM     31  C10 8W6 d   1     -12.086 -15.204  -2.213  0.00  0.00    -0.053 A 
ATOM     32  H6  8W6 d   1     -12.088 -16.272  -2.028  0.00  0.00     0.087 H 
BRANCH  24  33
ATOM     33  O23 8W6 d   1     -10.265 -12.880  -4.350  0.00  0.00    -0.355 OA
BRANCH  33  34
ATOM     34  C24 8W6 d   1     -10.086 -11.519  -4.773  0.00  0.00     0.010 C 
ATOM     35  H3  8W6 d   1      -9.284 -11.471  -5.524  0.00  0.00     0.066 H 
ATOM     36  H4  8W6 d   1      -9.814 -10.898  -3.906  0.00  0.00     0.066 H 
ATOM     37  H5  8W6 d   1     -11.023 -11.145  -5.213  0.00  0.00     0.066 H 
ENDBRANCH  33  34
ENDBRANCH  24  33
ENDBRANCH  20  23
ENDBRANCH   3  20
BRANCH  12  38
ATOM     38  C20 8W6 d   1      -6.383 -18.966  -7.992  0.00  0.00     0.039 C 
ATOM     39  H21 8W6 d   1      -6.312 -18.809  -9.079  0.00  0.00     0.080 H 
BRANCH  38  40
ATOM     40  C30 8W6 d   1      -6.474 -20.468  -7.751  0.00  0.00    -0.045 C 
ATOM     41  H22 8W6 d   1      -6.835 -20.636  -6.726  0.00  0.00     0.035 H 
ATOM     42  H23 8W6 d   1      -5.469 -20.901  -7.861  0.00  0.00     0.035 H 
BRANCH  40  43
ATOM     43  C35 8W6 d   1      -7.384 -21.156  -8.685  0.00  0.00    -0.074 C 
ATOM     44  H24 8W6 d   1      -7.401 -22.232  -8.455  0.00  0.00     0.027 H 
ATOM     45  H25 8W6 d   1      -7.032 -21.008  -9.716  0.00  0.00     0.027 H 
ATOM     46  H26 8W6 d   1      -8.398 -20.742  -8.581  0.00  0.00     0.027 H 
ENDBRANCH  40  43
ENDBRANCH  38  40
BRANCH  38  47
ATOM     47  C21 8W6 d   1      -5.239 -18.213  -7.255  0.00  0.00    -0.035 A 
ATOM     48  C29 8W6 d   1      -4.834 -18.569  -5.945  0.00  0.00    -0.074 A 
ATOM     49  C28 8W6 d   1      -3.864 -17.827  -5.257  0.00  0.00    -0.066 A 
ATOM     50  H27 8W6 d   1      -5.283 -19.431  -5.466  0.00  0.00     0.084 H 
ATOM     51  C27 8W6 d   1      -3.239 -16.704  -5.870  0.00  0.00     0.040 A 
ATOM     52  H28 8W6 d   1      -3.587 -18.111  -4.248  0.00  0.00     0.085 H 
ATOM     53  C26 8W6 d   1      -3.612 -16.374  -7.196  0.00  0.00    -0.066 A 
ATOM     54  C25 8W6 d   1      -4.603 -17.129  -7.876  0.00  0.00    -0.074 A 
ATOM     55  H30 8W6 d   1      -3.137 -15.538  -7.696  0.00  0.00     0.085 H 
ATOM     56  H29 8W6 d   1      -4.872 -16.863  -8.892  0.00  0.00     0.084 H 
BRANCH  51  57
ATOM     57  C31 8W6 d   1      -2.165 -15.928  -5.183  0.00  0.00     0.209 C 
ATOM     58  O33 8W6 d   1      -1.650 -14.922  -5.838  0.00  0.00    -0.644 OA
ATOM     59  O32 8W6 d   1      -1.852 -16.252  -3.974  0.00  0.00    -0.644 OA
ENDBRANCH  51  57
ENDBRANCH  38  47
ENDBRANCH  12  38
BRANCH   7  60
ATOM     60  O62 8W6 d   1     -13.919 -17.207  -8.755  0.00  0.00    -0.255 OA
BRANCH  60  61
ATOM     61  C63 8W6 d   1     -14.475 -17.814  -9.936  0.00  0.00     0.045 C 
ATOM     62  H13 8W6 d   1     -13.850 -18.664 -10.247  0.00  0.00     0.077 H 
ATOM     63  H14 8W6 d   1     -14.520 -17.075 -10.749  0.00  0.00     0.077 H 
BRANCH  61  64
ATOM     64  C64 8W6 d   1     -15.880 -18.301  -9.604  0.00  0.00    -0.054 C 
ATOM     65  H15 8W6 d   1     -16.326 -18.770 -10.494  0.00  0.00     0.030 H 
ATOM     66  H16 8W6 d   1     -16.499 -17.448  -9.290  0.00  0.00     0.030 H 
ATOM     67  H17 8W6 d   1     -15.830 -19.037  -8.788  0.00  0.00     0.030 H 
ENDBRANCH  61  64
ENDBRANCH  60  61
ENDBRANCH   7  60
TORSDOF 12
