REMARK  8 active torsions:
REMARK  status: ('A' for Active; 'I' for Inactive)
REMARK    1  A    between atoms: C1_1  and  O1_2 
REMARK    2  A    between atoms: C3_4  and  C11_13 
REMARK    3  A    between atoms: C11_13  and  C13_15 
REMARK    4  A    between atoms: C13_15  and  C12_14 
REMARK    5  A    between atoms: C12_14  and  C14_16 
REMARK    6  A    between atoms: C14_16  and  C15_17 
REMARK    7  A    between atoms: C15_17  and  C16_18 
REMARK    8  A    between atoms: C16_18  and  C17_19 
ROOT
ATOM      1  C11 8WF d   1       3.516  15.863  66.091  0.00  0.00    -0.024 C 
ATOM      2  H7  8WF d   1       4.185  16.715  65.901  0.00  0.00     0.042 H 
ATOM      3  H8  8WF d   1       3.626  15.536  67.135  0.00  0.00     0.042 H 
ENDROOT
BRANCH   1   4
ATOM      4  C3  8WF d   1       3.942  14.702  65.174  0.00  0.00     0.046 A 
ATOM      5  C2  8WF d   1       4.339  15.000  63.861  0.00  0.00    -0.026 A 
ATOM      6  C1  8WF d   1       4.735  14.008  62.966  0.00  0.00     0.080 A 
ATOM      7  H2  8WF d   1       4.338  16.033  63.533  0.00  0.00     0.090 H 
ATOM      8  C10 8WF d   1       4.769  12.573  63.386  0.00  0.00     0.026 A 
ATOM      9  C5  8WF d   1       4.352  12.299  64.786  0.00  0.00     0.078 A 
ATOM     10  C9  8WF d   1       5.159  11.514  62.540  0.00  0.00    -0.068 A 
ATOM     11  N1  8WF d   1       3.958  13.415  65.620  0.00  0.00    -0.192 N 
ATOM     12  C6  8WF d   1       4.380  10.951  65.198  0.00  0.00    -0.054 A 
ATOM     13  O4  8WF d   1       3.597  13.233  66.792  0.00  0.00    -0.080 OA
ATOM     14  C7  8WF d   1       4.779   9.925  64.325  0.00  0.00    -0.081 A 
ATOM     15  H3  8WF d   1       4.087  10.700  66.211  0.00  0.00     0.087 H 
ATOM     16  C8  8WF d   1       5.156  10.196  63.007  0.00  0.00    -0.082 A 
ATOM     17  H4  8WF d   1       4.795   8.901  64.681  0.00  0.00     0.083 H 
ATOM     18  H5  8WF d   1       5.446   9.386  62.348  0.00  0.00     0.083 H 
ATOM     19  H6  8WF d   1       5.463  11.723  61.521  0.00  0.00     0.085 H 
BRANCH   6  20
ATOM     20  O1  8WF d   1       5.095  14.375  61.711  0.00  0.00    -0.360 OA
ATOM     21  H1  8WF d   1       5.339  13.603  61.214  0.00  0.00     0.217 HD
ENDBRANCH   6  20
ENDBRANCH   1   4
BRANCH   1  22
ATOM     22  C13 8WF d   1       2.059  16.335  65.883  0.00  0.00    -0.060 C 
ATOM     23  H11 8WF d   1       1.856  17.154  66.589  0.00  0.00     0.033 H 
ATOM     24  H12 8WF d   1       1.387  15.491  66.098  0.00  0.00     0.033 H 
BRANCH  22  25
ATOM     25  C12 8WF d   1       1.765  16.839  64.456  0.00  0.00    -0.065 C 
ATOM     26  H9  8WF d   1       2.088  16.062  63.747  0.00  0.00     0.033 H 
ATOM     27  H10 8WF d   1       2.353  17.754  64.290  0.00  0.00     0.033 H 
BRANCH  25  28
ATOM     28  C14 8WF d   1       0.292  17.162  64.168  0.00  0.00    -0.065 C 
ATOM     29  H13 8WF d   1       0.243  17.841  63.304  0.00  0.00     0.033 H 
ATOM     30  H14 8WF d   1      -0.138  17.659  65.050  0.00  0.00     0.033 H 
BRANCH  28  31
ATOM     31  C15 8WF d   1      -0.542  15.905  63.854  0.00  0.00    -0.065 C 
ATOM     32  H15 8WF d   1      -0.945  15.530  64.807  0.00  0.00     0.033 H 
ATOM     33  H16 8WF d   1       0.140  15.156  63.424  0.00  0.00     0.033 H 
BRANCH  31  34
ATOM     34  C16 8WF d   1      -1.720  16.060  62.888  0.00  0.00    -0.069 C 
ATOM     35  H17 8WF d   1      -2.634  16.188  63.486  0.00  0.00     0.032 H 
ATOM     36  H18 8WF d   1      -1.796  15.136  62.295  0.00  0.00     0.032 H 
BRANCH  34  37
ATOM     37  C17 8WF d   1      -1.626  17.223  61.927  0.00  0.00    -0.077 C 
ATOM     38  H19 8WF d   1      -2.518  17.240  61.284  0.00  0.00     0.027 H 
ATOM     39  H20 8WF d   1      -0.727  17.112  61.303  0.00  0.00     0.027 H 
ATOM     40  H21 8WF d   1      -1.565  18.163  62.494  0.00  0.00     0.027 H 
ENDBRANCH  34  37
ENDBRANCH  31  34
ENDBRANCH  28  31
ENDBRANCH  25  28
ENDBRANCH  22  25
ENDBRANCH   1  22
TORSDOF 8
