REMARK  11 active torsions:
REMARK  status: ('A' for Active; 'I' for Inactive)
REMARK    1  A    between atoms: C3_3  and  O31_18 
REMARK    2  A    between atoms: C2_4  and  C21_9 
REMARK    3  A    between atoms: C2_4  and  O1_21 
REMARK    4  A    between atoms: C1_5  and  O11_7 
REMARK    5  A    between atoms: C1_5  and  C11_8 
REMARK    6  A    between atoms: C21_9  and  C2A_14 
REMARK    7  A    between atoms: C22_10  and  C23_11 
REMARK    8  A    between atoms: C23_11  and  C24_12 
REMARK    9  A    between atoms: C25_13  and  C2B_16 
REMARK   10  A    between atoms: C25_13  and  C2C_17 
REMARK   11  A    between atoms: O31_18  and  C31_19 
ROOT
ATOM      1  C5  OVA d   1      12.073   1.920  18.555  0.00  0.00    -0.004 C 
ATOM      2  C4  OVA d   1      13.489   2.434  18.542  0.00  0.00     0.159 C 
ATOM      3  C3  OVA d   1      13.934   3.009  19.868  0.00  0.00     0.130 C 
ATOM      4  C2  OVA d   1      13.007   4.191  20.211  0.00  0.00     0.154 C 
ATOM      5  C1  OVA d   1      11.528   3.669  20.346  0.00  0.00     0.091 C 
ATOM      6  C6  OVA d   1      11.078   2.963  19.056  0.00  0.00    -0.027 C 
ATOM      7  O41 OVA d   1      14.168   2.479  17.530  0.00  0.00    -0.295 OA
ATOM      8  H1  OVA d   1      12.023   1.040  19.213  0.00  0.00     0.044 H 
ATOM      9  H2  OVA d   1      11.794   1.629  17.532  0.00  0.00     0.044 H 
ATOM     10  H3  OVA d   1      13.841   2.231  20.640  0.00  0.00     0.100 H 
ATOM     11  H4  OVA d   1      10.117   2.463  19.249  0.00  0.00     0.038 H 
ATOM     12  H5  OVA d   1      10.945   3.723  18.271  0.00  0.00     0.038 H 
ENDROOT
BRANCH   4  13
ATOM     13  C21 OVA d   1      13.475   4.957  21.443  0.00  0.00     0.121 A 
ATOM     14  C22 OVA d   1      13.077   6.370  21.562  0.00  0.00     0.075 A 
ATOM     15  O2A OVA d   1      14.428   6.020  21.162  0.00  0.00    -0.366 OA
ATOM     16  H10 OVA d   1      12.364   6.785  20.834  0.00  0.00     0.088 H 
BRANCH  14  17
ATOM     17  C23 OVA d   1      12.902   7.074  22.885  0.00  0.00    -0.022 C 
ATOM     18  H11 OVA d   1      12.739   8.144  22.687  0.00  0.00     0.042 H 
ATOM     19  H12 OVA d   1      13.825   6.946  23.469  0.00  0.00     0.042 H 
BRANCH  17  20
ATOM     20  C24 OVA d   1      11.757   6.569  23.703  0.00  0.00    -0.099 C 
ATOM     21  C25 OVA d   1      10.605   7.166  23.987  0.00  0.00    -0.091 C 
ATOM     22  H13 OVA d   1      11.885   5.573  24.125  0.00  0.00     0.077 H 
BRANCH  21  23
ATOM     23  C2B OVA d   1       9.498   6.454  24.712  0.00  0.00    -0.055 C 
ATOM     24  H17 OVA d   1       8.644   7.136  24.838  0.00  0.00     0.033 H 
ATOM     25  H18 OVA d   1       9.856   6.129  25.700  0.00  0.00     0.033 H 
ATOM     26  H19 OVA d   1       9.183   5.576  24.129  0.00  0.00     0.033 H 
ENDBRANCH  21  23
BRANCH  21  27
ATOM     27  C2C OVA d   1      10.267   8.566  23.624  0.00  0.00    -0.055 C 
ATOM     28  H20 OVA d   1      11.118   9.024  23.099  0.00  0.00     0.033 H 
ATOM     29  H21 OVA d   1      10.048   9.139  24.537  0.00  0.00     0.033 H 
ATOM     30  H22 OVA d   1       9.385   8.572  22.967  0.00  0.00     0.033 H 
ENDBRANCH  21  27
ENDBRANCH  17  20
ENDBRANCH  14  17
BRANCH  13  31
ATOM     31  C2A OVA d   1      13.885   4.127  22.637  0.00  0.00    -0.042 C 
ATOM     32  H14 OVA d   1      14.138   3.109  22.306  0.00  0.00     0.031 H 
ATOM     33  H15 OVA d   1      13.054   4.083  23.356  0.00  0.00     0.031 H 
ATOM     34  H16 OVA d   1      14.762   4.585  23.118  0.00  0.00     0.031 H 
ENDBRANCH  13  31
ENDBRANCH   4  13
BRANCH   4  35
ATOM     35  O1  OVA d   1      13.101   5.071  19.066  0.00  0.00    -0.380 OA
ATOM     36  H26 OVA d   1      13.993   5.387  18.983  0.00  0.00     0.211 HD
ENDBRANCH   4  35
BRANCH   3  37
ATOM     37  O31 OVA d   1      15.274   3.467  19.847  0.00  0.00    -0.380 OA
BRANCH  37  38
ATOM     38  C31 OVA d   1      16.223   2.397  19.918  0.00  0.00     0.005 C 
ATOM     39  H23 OVA d   1      17.243   2.809  19.898  0.00  0.00     0.066 H 
ATOM     40  H24 OVA d   1      16.083   1.725  19.059  0.00  0.00     0.066 H 
ATOM     41  H25 OVA d   1      16.073   1.835  20.852  0.00  0.00     0.066 H 
ENDBRANCH  37  38
ENDBRANCH   3  37
BRANCH   5  42
ATOM     42  O11 OVA d   1      11.524   2.734  21.433  0.00  0.00    -0.387 OA
ATOM     43  H6  OVA d   1      10.646   2.390  21.550  0.00  0.00     0.210 HD
ENDBRANCH   5  42
BRANCH   5  44
ATOM     44  C11 OVA d   1      10.521   4.737  20.763  0.00  0.00    -0.045 C 
ATOM     45  H7  OVA d   1      10.866   5.226  21.686  0.00  0.00     0.031 H 
ATOM     46  H8  OVA d   1       9.542   4.268  20.940  0.00  0.00     0.031 H 
ATOM     47  H9  OVA d   1      10.430   5.487  19.963  0.00  0.00     0.031 H 
ENDBRANCH   5  44
TORSDOF 11
