REMARK  9 active torsions:
REMARK  status: ('A' for Active; 'I' for Inactive)
REMARK    1  A    between atoms: C1_1  and  O2_2 
REMARK    2  A    between atoms: O2_2  and  C3_3 
REMARK    3  A    between atoms: C6_6  and  C7_7 
REMARK    4  A    between atoms: C8_8  and  C9_9 
REMARK    5  A    between atoms: C9_9  and  C11_11 
REMARK    6  A    between atoms: C14_14  and  O15_15 
REMARK    7  A    between atoms: O15_15  and  C16_16 
REMARK    8  A    between atoms: C20_20  and  C21_21 
REMARK    9  A    between atoms: C20_20  and  C22_22 
ROOT
ATOM      1  C11 8X0 d   1      18.260 225.251  40.286  0.00  0.00     0.048 A 
ATOM      2  C12 8X0 d   1      18.890 225.081  39.034  0.00  0.00    -0.064 A 
ATOM      3  C13 8X0 d   1      18.138 224.654  37.907  0.00  0.00    -0.049 A 
ATOM      4  C14 8X0 d   1      16.757 224.388  38.029  0.00  0.00     0.077 A 
ATOM      5  C17 8X0 d   1      16.094 224.550  39.320  0.00  0.00     0.010 A 
ATOM      6  C18 8X0 d   1      14.650 224.287  39.503  0.00  0.00    -0.033 C 
ATOM      7  C19 8X0 d   1      13.948 224.881  40.651  0.00  0.00    -0.033 C 
ATOM      8  C20 8X0 d   1      14.757 225.609  41.750  0.00  0.00     0.061 C 
ATOM      9  O23 8X0 d   1      16.176 225.148  41.767  0.00  0.00    -0.339 OA
ATOM     10  C24 8X0 d   1      16.838 224.975  40.405  0.00  0.00     0.093 A 
ATOM     11  H8  8X0 d   1      19.951 225.277  38.932  0.00  0.00     0.085 H 
ATOM     12  H9  8X0 d   1      18.628 224.532  36.948  0.00  0.00     0.087 H 
ATOM     13  H13 8X0 d   1      14.530 223.196  39.584  0.00  0.00     0.040 H 
ATOM     14  H14 8X0 d   1      14.141 224.645  38.596  0.00  0.00     0.040 H 
ATOM     15  H15 8X0 d   1      13.399 224.066  41.146  0.00  0.00     0.037 H 
ATOM     16  H16 8X0 d   1      13.233 225.611  40.245  0.00  0.00     0.037 H 
ENDROOT
BRANCH   1  17
ATOM     17  C9  8X0 d   1      19.057 225.690  41.474  0.00  0.00     0.184 C 
ATOM     18  O10 8X0 d   1      19.887 226.608  41.362  0.00  0.00    -0.287 OA
BRANCH  17  19
ATOM     19  C8  8X0 d   1      18.842 224.994  42.845  0.00  0.00    -0.033 C 
ATOM     20  C7  8X0 d   1      18.378 223.664  42.833  0.00  0.00    -0.069 C 
ATOM     21  H6  8X0 d   1      18.231 223.203  41.858  0.00  0.00     0.085 H 
ATOM     22  H7  8X0 d   1      19.042 225.514  43.781  0.00  0.00     0.089 H 
BRANCH  20  23
ATOM     23  C6  8X0 d   1      18.049 222.775  44.102  0.00  0.00    -0.036 A 
ATOM     24  C5  8X0 d   1      18.217 223.242  45.411  0.00  0.00    -0.070 A 
ATOM     25  C4  8X0 d   1      17.885 222.351  46.525  0.00  0.00    -0.050 A 
ATOM     26  H5  8X0 d   1      18.586 224.244  45.597  0.00  0.00     0.084 H 
ATOM     27  C3  8X0 d   1      17.387 221.080  46.281  0.00  0.00     0.068 A 
ATOM     28  H4  8X0 d   1      18.029 222.687  47.545  0.00  0.00     0.087 H 
ATOM     29  C26 8X0 d   1      17.210 220.613  44.922  0.00  0.00    -0.050 A 
ATOM     30  C25 8X0 d   1      17.532 221.460  43.851  0.00  0.00    -0.070 A 
ATOM     31  H24 8X0 d   1      16.831 219.615  44.733  0.00  0.00     0.087 H 
ATOM     32  H23 8X0 d   1      17.390 221.120  42.831  0.00  0.00     0.084 H 
BRANCH  27  33
ATOM     33  O2  8X0 d   1      17.060 220.181  47.321  0.00  0.00    -0.356 OA
BRANCH  33  34
ATOM     34  C1  8X0 d   1      16.399 220.690  48.443  0.00  0.00     0.010 C 
ATOM     35  H1  8X0 d   1      16.214 219.876  49.160  0.00  0.00     0.066 H 
ATOM     36  H2  8X0 d   1      15.440 221.132  48.135  0.00  0.00     0.066 H 
ATOM     37  H3  8X0 d   1      17.023 221.462  48.917  0.00  0.00     0.066 H 
ENDBRANCH  33  34
ENDBRANCH  27  33
ENDBRANCH  20  23
ENDBRANCH  17  19
ENDBRANCH   1  17
BRANCH   4  38
ATOM     38  O15 8X0 d   1      16.031 223.952  36.894  0.00  0.00    -0.355 OA
BRANCH  38  39
ATOM     39  C16 8X0 d   1      16.179 222.553  36.651  0.00  0.00     0.010 C 
ATOM     40  H10 8X0 d   1      15.596 222.272  35.762  0.00  0.00     0.066 H 
ATOM     41  H11 8X0 d   1      15.814 221.989  37.522  0.00  0.00     0.066 H 
ATOM     42  H12 8X0 d   1      17.241 222.321  36.482  0.00  0.00     0.066 H 
ENDBRANCH  38  39
ENDBRANCH   4  38
BRANCH   8  43
ATOM     43  C21 8X0 d   1      14.165 225.475  43.123  0.00  0.00    -0.048 C 
ATOM     44  H17 8X0 d   1      14.792 226.016  43.847  0.00  0.00     0.031 H 
ATOM     45  H18 8X0 d   1      14.119 224.411  43.400  0.00  0.00     0.031 H 
ATOM     46  H19 8X0 d   1      13.150 225.899  43.128  0.00  0.00     0.031 H 
ENDBRANCH   8  43
BRANCH   8  47
ATOM     47  C22 8X0 d   1      14.813 227.129  41.627  0.00  0.00    -0.048 C 
ATOM     48  H20 8X0 d   1      15.235 227.402  40.649  0.00  0.00     0.031 H 
ATOM     49  H21 8X0 d   1      15.447 227.538  42.427  0.00  0.00     0.031 H 
ATOM     50  H22 8X0 d   1      13.797 227.542  41.716  0.00  0.00     0.031 H 
ENDBRANCH   8  47
TORSDOF 9
