REMARK  10 active torsions:
REMARK  status: ('A' for Active; 'I' for Inactive)
REMARK    1  A    between atoms: C1_1  and  O2_2 
REMARK    2  A    between atoms: O2_2  and  C3_3 
REMARK    3  A    between atoms: C6_6  and  C7_7 
REMARK    4  A    between atoms: C8_8  and  C9_9 
REMARK    5  A    between atoms: C9_9  and  C11_11 
REMARK    6  A    between atoms: C14_14  and  O15_15 
REMARK    7  A    between atoms: O15_15  and  C16_16 
REMARK    8  A    between atoms: C20_20  and  C21_21 
REMARK    9  A    between atoms: C20_20  and  C22_22 
REMARK   10  A    between atoms: C26_26  and  N27_27 
ROOT
ATOM      1  C11 Y50 d   1      18.036 227.796  40.126  0.00  0.00     0.048 A 
ATOM      2  C12 Y50 d   1      18.740 227.656  38.901  0.00  0.00    -0.064 A 
ATOM      3  C13 Y50 d   1      18.063 227.222  37.718  0.00  0.00    -0.049 A 
ATOM      4  C14 Y50 d   1      16.673 226.917  37.757  0.00  0.00     0.077 A 
ATOM      5  C17 Y50 d   1      15.943 227.050  39.001  0.00  0.00     0.010 A 
ATOM      6  C18 Y50 d   1      14.531 226.758  39.093  0.00  0.00    -0.033 C 
ATOM      7  C19 Y50 d   1      13.744 227.356  40.158  0.00  0.00    -0.033 C 
ATOM      8  C20 Y50 d   1      14.468 228.050  41.343  0.00  0.00     0.061 C 
ATOM      9  O23 Y50 d   1      15.881 227.622  41.457  0.00  0.00    -0.339 OA
ATOM     10  C24 Y50 d   1      16.628 227.486  40.158  0.00  0.00     0.093 A 
ATOM     11  H8  Y50 d   1      19.800 227.880  38.862  0.00  0.00     0.085 H 
ATOM     12  H9  Y50 d   1      18.611 227.125  36.788  0.00  0.00     0.087 H 
ATOM     13  H13 Y50 d   1      14.436 225.667  39.199  0.00  0.00     0.040 H 
ATOM     14  H14 Y50 d   1      14.076 227.075  38.143  0.00  0.00     0.040 H 
ATOM     15  H15 Y50 d   1      13.123 226.555  40.586  0.00  0.00     0.037 H 
ATOM     16  H16 Y50 d   1      13.096 228.112  39.691  0.00  0.00     0.037 H 
ENDROOT
BRANCH   1  17
ATOM     17  C9  Y50 d   1      18.793 228.259  41.386  0.00  0.00     0.184 C 
ATOM     18  O10 Y50 d   1      19.612 229.093  41.294  0.00  0.00    -0.287 OA
BRANCH  17  19
ATOM     19  C8  Y50 d   1      18.477 227.653  42.733  0.00  0.00    -0.033 C 
ATOM     20  C7  Y50 d   1      18.197 226.347  42.786  0.00  0.00    -0.069 C 
ATOM     21  H6  Y50 d   1      18.250 225.783  41.856  0.00  0.00     0.085 H 
ATOM     22  H7  Y50 d   1      18.477 228.263  43.635  0.00  0.00     0.089 H 
BRANCH  20  23
ATOM     23  C6  Y50 d   1      17.790 225.550  44.114  0.00  0.00    -0.034 A 
ATOM     24  C5  Y50 d   1      17.169 224.293  43.933  0.00  0.00    -0.070 A 
ATOM     25  C4  Y50 d   1      16.775 223.530  45.049  0.00  0.00    -0.048 A 
ATOM     26  H5  Y50 d   1      16.996 223.915  42.932  0.00  0.00     0.084 H 
ATOM     27  C3  Y50 d   1      17.003 224.020  46.352  0.00  0.00     0.094 A 
ATOM     28  H4  Y50 d   1      16.297 222.567  44.907  0.00  0.00     0.087 H 
ATOM     29  C26 Y50 d   1      17.619 225.291  46.543  0.00  0.00     0.060 A 
ATOM     30  C25 Y50 d   1      18.003 226.066  45.430  0.00  0.00    -0.045 A 
ATOM     31  H23 Y50 d   1      18.454 227.042  45.570  0.00  0.00     0.088 H 
BRANCH  27  32
ATOM     32  O2  Y50 d   1      16.603 223.268  47.477  0.00  0.00    -0.354 OA
BRANCH  32  33
ATOM     33  C1  Y50 d   1      16.971 221.866  47.492  0.00  0.00     0.010 C 
ATOM     34  H1  Y50 d   1      16.601 221.400  48.417  0.00  0.00     0.066 H 
ATOM     35  H2  Y50 d   1      18.066 221.774  47.447  0.00  0.00     0.066 H 
ATOM     36  H3  Y50 d   1      16.525 221.360  46.623  0.00  0.00     0.066 H 
ENDBRANCH  32  33
ENDBRANCH  27  32
BRANCH  29  37
ATOM     37  N27 Y50 d   1      17.838 225.795  47.885  0.00  0.00    -0.397 N 
ATOM     38  H24 Y50 d   1      17.558 225.230  48.699  0.00  0.00     0.156 HD
ATOM     39  H25 Y50 d   1      18.274 226.718  48.024  0.00  0.00     0.156 HD
ENDBRANCH  29  37
ENDBRANCH  20  23
ENDBRANCH  17  19
ENDBRANCH   1  17
BRANCH   4  40
ATOM     40  O15 Y50 d   1      16.012 226.475  36.558  0.00  0.00    -0.355 OA
BRANCH  40  41
ATOM     41  C16 Y50 d   1      16.174 225.102  36.321  0.00  0.00     0.010 C 
ATOM     42  H10 Y50 d   1      15.649 224.825  35.395  0.00  0.00     0.066 H 
ATOM     43  H11 Y50 d   1      15.756 224.532  37.164  0.00  0.00     0.066 H 
ATOM     44  H12 Y50 d   1      17.245 224.871  36.218  0.00  0.00     0.066 H 
ENDBRANCH  40  41
ENDBRANCH   4  40
BRANCH   8  45
ATOM     45  C21 Y50 d   1      13.731 227.833  42.664  0.00  0.00    -0.048 C 
ATOM     46  H17 Y50 d   1      14.275 228.339  43.475  0.00  0.00     0.031 H 
ATOM     47  H18 Y50 d   1      13.672 226.756  42.879  0.00  0.00     0.031 H 
ATOM     48  H19 Y50 d   1      12.715 228.248  42.590  0.00  0.00     0.031 H 
ENDBRANCH   8  45
BRANCH   8  49
ATOM     49  C22 Y50 d   1      14.496 229.562  41.297  0.00  0.00    -0.048 C 
ATOM     50  H20 Y50 d   1      15.008 229.892  40.381  0.00  0.00     0.031 H 
ATOM     51  H21 Y50 d   1      15.035 229.946  42.176  0.00  0.00     0.031 H 
ATOM     52  H22 Y50 d   1      13.466 229.948  41.301  0.00  0.00     0.031 H 
ENDBRANCH   8  49
TORSDOF 10
