REMARK  2 active torsions:
REMARK  status: ('A' for Active; 'I' for Inactive)
REMARK    1  A    between atoms: C7_7  and  O8_23 
REMARK    2  A    between atoms: N16_22  and  C17_15 
ROOT
ATOM      1  C1  C7N d   1     -44.561  -0.079 -14.554  0.00  0.00    -0.072 A 
ATOM      2  C2  C7N d   1     -43.421  -0.919 -14.381  0.00  0.00    -0.025 A 
ATOM      3  C3  C7N d   1     -43.216  -2.155 -15.169  0.00  0.00    -0.071 C 
ATOM      4  C4  C7N d   1     -42.703  -3.430 -14.777  0.00  0.00    -0.071 C 
ATOM      5  C5  C7N d   1     -41.974  -3.816 -13.513  0.00  0.00    -0.022 A 
ATOM      6  C6  C7N d   1     -41.960  -5.179 -13.049  0.00  0.00    -0.040 A 
ATOM      7  C7  C7N d   1     -41.319  -5.662 -11.895  0.00  0.00     0.066 A 
ATOM      8  C9  C7N d   1     -40.611  -4.704 -11.110  0.00  0.00    -0.050 A 
ATOM      9  C10 C7N d   1     -40.621  -3.387 -11.536  0.00  0.00    -0.069 A 
ATOM     10  C11 C7N d   1     -41.256  -2.849 -12.717  0.00  0.00    -0.014 A 
ATOM     11  C12 C7N d   1     -41.198  -1.365 -13.148  0.00  0.00    -0.011 C 
ATOM     12  C13 C7N d   1     -39.964  -0.770 -13.392  0.00  0.00    -0.065 C 
ATOM     13  C14 C7N d   1     -39.794   0.749 -13.795  0.00  0.00    -0.021 C 
ATOM     14  C15 C7N d   1     -38.558   0.937 -14.716  0.00  0.00     0.086 C 
ATOM     15  C18 C7N d   1     -37.490  -1.081 -13.947  0.00  0.00     0.086 C 
ATOM     16  C19 C7N d   1     -38.613  -1.371 -12.945  0.00  0.00    -0.021 C 
ATOM     17  C20 C7N d   1     -42.440  -0.529 -13.395  0.00  0.00    -0.015 A 
ATOM     18  C21 C7N d   1     -42.752   0.665 -12.671  0.00  0.00    -0.071 A 
ATOM     19  C22 C7N d   1     -43.859   1.469 -12.859  0.00  0.00    -0.082 A 
ATOM     20  C23 C7N d   1     -44.803   1.088 -13.834  0.00  0.00    -0.082 A 
ATOM     21  N16 C7N d   1     -37.377   0.325 -14.190  0.00  0.00    -0.074 N 
ATOM     22  H1  C7N d   1     -45.292  -0.370 -15.300  0.00  0.00     0.084 H 
ATOM     23  H2  C7N d   1     -43.502  -2.081 -16.217  0.00  0.00     0.084 H 
ATOM     24  H3  C7N d   1     -42.860  -4.237 -15.491  0.00  0.00     0.084 H 
ATOM     25  H4  C7N d   1     -42.497  -5.905 -13.649  0.00  0.00     0.089 H 
ATOM     26  H5  C7N d   1     -40.083  -4.998 -10.210  0.00  0.00     0.087 H 
ATOM     27  H6  C7N d   1     -40.091  -2.677 -10.911  0.00  0.00     0.085 H 
ATOM     28  H7  C7N d   1     -39.661   1.352 -12.884  0.00  0.00     0.042 H 
ATOM     29  H8  C7N d   1     -40.696   1.084 -14.328  0.00  0.00     0.042 H 
ATOM     30  H9  C7N d   1     -38.371   2.014 -14.838  0.00  0.00     0.076 H 
ATOM     31  H10 C7N d   1     -38.779   0.490 -15.696  0.00  0.00     0.076 H 
ATOM     32  H14 C7N d   1     -37.711  -1.594 -14.895  0.00  0.00     0.076 H 
ATOM     33  H15 C7N d   1     -36.538  -1.454 -13.540  0.00  0.00     0.076 H 
ATOM     34  H16 C7N d   1     -38.726  -2.461 -12.845  0.00  0.00     0.042 H 
ATOM     35  H17 C7N d   1     -38.339  -0.940 -11.971  0.00  0.00     0.042 H 
ATOM     36  H18 C7N d   1     -42.052   0.968 -11.901  0.00  0.00     0.084 H 
ATOM     37  H19 C7N d   1     -43.998   2.370 -12.272  0.00  0.00     0.083 H 
ATOM     38  H20 C7N d   1     -45.689   1.685 -14.018  0.00  0.00     0.083 H 
ATOM     39  H21 C7N d   1     -37.129   0.789 -13.330  0.00  0.00     0.279 HD
ENDROOT
BRANCH   7  40
ATOM     40  O8  C7N d   1     -41.318  -6.976 -11.476  0.00  0.00    -0.361 OA
ATOM     41  H22 C7N d   1     -40.424  -7.296 -11.444  0.00  0.00     0.217 HD
ENDBRANCH   7  40
BRANCH  21  42
ATOM     42  C17 C7N d   1     -36.268   0.484 -15.217  0.00  0.00     0.066 C 
ATOM     43  H11 C7N d   1     -35.346   0.021 -14.836  0.00  0.00     0.068 H 
ATOM     44  H12 C7N d   1     -36.091   1.554 -15.403  0.00  0.00     0.068 H 
ATOM     45  H13 C7N d   1     -36.564  -0.007 -16.156  0.00  0.00     0.068 H 
ENDBRANCH  21  42
TORSDOF 2
