REMARK  6 active torsions:
REMARK  status: ('A' for Active; 'I' for Inactive)
REMARK    1  A    between atoms: CAL_1  and  CAM_2 
REMARK    2  A    between atoms: SAA_24  and  CAN_3 
REMARK    3  A    between atoms: CAP_5  and  CAV_11 
REMARK    4  A    between atoms: CAV_11  and  NAK_21 
REMARK    5  A    between atoms: NAK_21  and  CBB_17 
REMARK    6  A    between atoms: NAI_19  and  SAA_24 
ROOT
ATOM      1  CAL HKT d   1      49.366 -16.072  -2.775  0.00  0.00     0.064 A 
ATOM      2  CAO HKT d   1      49.076 -14.034  -1.882  0.00  0.00     0.004 A 
ATOM      3  CAP HKT d   1      49.983 -14.713  -1.067  0.00  0.00    -0.014 A 
ATOM      4  CAQ HKT d   1      50.152 -15.979  -1.629  0.00  0.00    -0.046 A 
ATOM      5  NAI HKT d   1      48.750 -14.894  -2.857  0.00  0.00    -0.245 N 
ATOM      6  H1  HKT d   1      48.709 -13.017  -1.753  0.00  0.00     0.114 H 
ATOM      7  H2  HKT d   1      50.794 -16.766  -1.236  0.00  0.00     0.088 H 
ENDROOT
BRANCH   5   8
ATOM      8  SAA HKT d   1      47.696 -14.505  -4.019  0.00  0.00     0.270 S 
ATOM      9  OAC HKT d   1      47.186 -13.205  -3.685  0.00  0.00    -0.200 OA
ATOM     10  OAD HKT d   1      46.517 -15.338  -3.984  0.00  0.00    -0.200 OA
BRANCH   8  11
ATOM     11  CAN HKT d   1      48.440 -14.522  -5.471  0.00  0.00     0.097 A 
ATOM     12  CAT HKT d   1      48.314 -15.590  -6.374  0.00  0.00     0.024 A 
ATOM     13  NAJ HKT d   1      48.930 -15.609  -7.580  0.00  0.00    -0.272 NA
ATOM     14  H4  HKT d   1      47.697 -16.436  -6.094  0.00  0.00     0.117 H 
ATOM     15  CBA HKT d   1      49.724 -14.600  -7.969  0.00  0.00     0.002 A 
ATOM     16  CAY HKT d   1      49.898 -13.509  -7.125  0.00  0.00    -0.065 A 
ATOM     17  H12 HKT d   1      50.224 -14.635  -8.930  0.00  0.00     0.114 H 
ATOM     18  CAU HKT d   1      49.260 -13.470  -5.879  0.00  0.00    -0.058 A 
ATOM     19  H10 HKT d   1      50.531 -12.684  -7.433  0.00  0.00     0.085 H 
ATOM     20  H5  HKT d   1      49.404 -12.616  -5.227  0.00  0.00     0.086 H 
ENDBRANCH   8  11
ENDBRANCH   5   8
BRANCH   1  21
ATOM     21  CAM HKT d   1      49.215 -17.279  -3.642  0.00  0.00     0.030 A 
ATOM     22  CAR HKT d   1      50.279 -17.858  -4.319  0.00  0.00     0.128 A 
ATOM     23  CAW HKT d   1      50.041 -19.006  -5.064  0.00  0.00    -0.045 A 
ATOM     24  FAB HKT d   1      51.529 -17.345  -4.284  0.00  0.00    -0.205 F 
ATOM     25  CAZ HKT d   1      48.762 -19.570  -5.124  0.00  0.00    -0.080 A 
ATOM     26  H8  HKT d   1      50.857 -19.471  -5.606  0.00  0.00     0.088 H 
ATOM     27  CAX HKT d   1      47.696 -19.003  -4.442  0.00  0.00    -0.082 A 
ATOM     28  H11 HKT d   1      48.602 -20.465  -5.714  0.00  0.00     0.083 H 
ATOM     29  CAS HKT d   1      47.950 -17.868  -3.701  0.00  0.00    -0.068 A 
ATOM     30  H9  HKT d   1      46.703 -19.435  -4.489  0.00  0.00     0.083 H 
ATOM     31  H3  HKT d   1      47.138 -17.416  -3.143  0.00  0.00     0.085 H 
ENDBRANCH   1  21
BRANCH   3  32
ATOM     32  CAV HKT d   1      50.670 -14.169   0.187  0.00  0.00     0.106 C 
ATOM     33  H6  HKT d   1      50.906 -13.107   0.026  0.00  0.00     0.083 H 
ATOM     34  H7  HKT d   1      51.602 -14.731   0.349  0.00  0.00     0.083 H 
BRANCH  32  35
ATOM     35  NAK HKT d   1      49.830 -14.288   1.396  0.00  0.00    -0.075 N 
ATOM     36  H16 HKT d   1      48.911 -13.916   1.213  0.00  0.00     0.277 HD
ATOM     37  H17 HKT d   1      50.252 -13.780   2.158  0.00  0.00     0.277 HD
BRANCH  35  38
ATOM     38  CBB HKT d   1      49.732 -15.715   1.740  0.00  0.00     0.065 C 
ATOM     39  H13 HKT d   1      49.110 -15.833   2.639  0.00  0.00     0.067 H 
ATOM     40  H14 HKT d   1      50.738 -16.115   1.935  0.00  0.00     0.067 H 
ATOM     41  H15 HKT d   1      49.275 -16.263   0.903  0.00  0.00     0.067 H 
ENDBRANCH  35  38
ENDBRANCH  32  35
ENDBRANCH   3  32
TORSDOF 6
