REMARK  7 active torsions:
REMARK  status: ('A' for Active; 'I' for Inactive)
REMARK    1  A    between atoms: C10_1  and  C18_9 
REMARK    2  A    between atoms: C5_13  and  C10_1 
REMARK    3  A    between atoms: C7_15  and  C13_4 
REMARK    4  A    between atoms: C14_5  and  C15_6 
REMARK    5  A    between atoms: O1_21  and  C14_5 
REMARK    6  A    between atoms: C18_9  and  N4_20 
REMARK    7  A    between atoms: C8_16  and  O1_21 
ROOT
ATOM      1  C11 8WX d   1      50.597 -15.755  -8.987  0.00  0.00    -0.046 A 
ATOM      2  C12 8WX d   1      51.347 -14.660  -9.411  0.00  0.00    -0.065 A 
ATOM      3  C5  8WX d   1      50.455 -12.385  -6.634  0.00  0.00     0.041 A 
ATOM      4  C6  8WX d   1      49.902 -14.445  -7.098  0.00  0.00     0.146 A 
ATOM      5  C7  8WX d   1      49.609 -12.835  -5.650  0.00  0.00     0.030 A 
ATOM      6  C8  8WX d   1      49.868 -15.641  -7.811  0.00  0.00     0.113 A 
ATOM      7  C9  8WX d   1      51.341 -13.480  -8.659  0.00  0.00    -0.013 A 
ATOM      8  N2  8WX d   1      50.624 -13.387  -7.521  0.00  0.00    -0.308 N 
ATOM      9  N3  8WX d   1      49.280 -14.103  -5.950  0.00  0.00    -0.342 N 
ATOM     10  H3  8WX d   1      50.583 -16.674  -9.562  0.00  0.00     0.088 H 
ATOM     11  H4  8WX d   1      51.933 -14.722 -10.321  0.00  0.00     0.085 H 
ATOM     12  H17 8WX d   1      51.921 -12.629  -8.996  0.00  0.00     0.112 H 
ATOM     13  H18 8WX d   1      48.658 -14.711  -5.397  0.00  0.00     0.167 HD
ENDROOT
BRANCH   6  14
ATOM     14  O1  8WX d   1      49.114 -16.689  -7.343  0.00  0.00    -0.343 OA
BRANCH  14  15
ATOM     15  C14 8WX d   1      49.614 -18.038  -7.374  0.00  0.00     0.050 C 
ATOM     16  H8  8WX d   1      49.640 -18.390  -8.416  0.00  0.00     0.082 H 
ATOM     17  H9  8WX d   1      50.631 -18.056  -6.956  0.00  0.00     0.082 H 
BRANCH  15  18
ATOM     18  C15 8WX d   1      48.721 -18.959  -6.557  0.00  0.00    -0.034 A 
ATOM     19  C16 8WX d   1      48.934 -19.124  -5.200  0.00  0.00    -0.075 A 
ATOM     20  C19 8WX d   1      48.124 -19.945  -4.440  0.00  0.00    -0.082 A 
ATOM     21  H10 8WX d   1      49.753 -18.598  -4.723  0.00  0.00     0.084 H 
ATOM     22  C21 8WX d   1      47.083 -20.621  -5.033  0.00  0.00    -0.083 A 
ATOM     23  H14 8WX d   1      48.308 -20.056  -3.378  0.00  0.00     0.083 H 
ATOM     24  C20 8WX d   1      46.870 -20.455  -6.391  0.00  0.00    -0.082 A 
ATOM     25  H16 8WX d   1      46.442 -21.271  -4.449  0.00  0.00     0.083 H 
ATOM     26  C17 8WX d   1      47.682 -19.640  -7.157  0.00  0.00    -0.075 A 
ATOM     27  H15 8WX d   1      46.047 -20.977  -6.865  0.00  0.00     0.083 H 
ATOM     28  H11 8WX d   1      47.504 -19.537  -8.221  0.00  0.00     0.084 H 
ENDBRANCH  15  18
ENDBRANCH  14  15
ENDBRANCH   6  14
BRANCH   3  29
ATOM     29  C10 8WX d   1      51.055 -10.999  -6.631  0.00  0.00    -0.002 C 
ATOM     30  H1  8WX d   1      51.129 -10.648  -5.591  0.00  0.00     0.044 H 
ATOM     31  H2  8WX d   1      52.061 -11.048  -7.074  0.00  0.00     0.044 H 
BRANCH  29  32
ATOM     32  C18 8WX d   1      50.217 -10.002  -7.427  0.00  0.00     0.085 C 
ATOM     33  H12 8WX d   1      50.162  -9.050  -6.879  0.00  0.00     0.075 H 
ATOM     34  H13 8WX d   1      49.203 -10.404  -7.565  0.00  0.00     0.075 H 
BRANCH  32  35
ATOM     35  N4  8WX d   1      50.833  -9.776  -8.735  0.00  0.00    -0.079 N 
ATOM     36  H19 8WX d   1      50.278  -9.117  -9.258  0.00  0.00     0.274 HD
ATOM     37  H20 8WX d   1      50.883 -10.648  -9.238  0.00  0.00     0.274 HD
ATOM     38  H21 8WX d   1      51.763  -9.407  -8.609  0.00  0.00     0.274 HD
ENDBRANCH  32  35
ENDBRANCH  29  32
ENDBRANCH   3  29
BRANCH   5  39
ATOM     39  C13 8WX d   1      49.147 -12.057  -4.456  0.00  0.00    -0.036 C 
ATOM     40  H5  8WX d   1      48.476 -12.682  -3.848  0.00  0.00     0.035 H 
ATOM     41  H6  8WX d   1      48.608 -11.158  -4.790  0.00  0.00     0.035 H 
ATOM     42  H7  8WX d   1      50.017 -11.759  -3.853  0.00  0.00     0.035 H 
ENDBRANCH   5  39
TORSDOF 7
