REMARK  14 active torsions:
REMARK  status: ('A' for Active; 'I' for Inactive)
REMARK    1  A    between atoms: CA_2  and  N_1 
REMARK       I    between atoms: N_1  and  CAB_4 
REMARK    2  A    between atoms: C_11  and  CA_2 
REMARK    3  A    between atoms: CA_2  and  CB_19 
REMARK    4  A    between atoms: CAB_4  and  CAA_3 
REMARK    5  A    between atoms: CAN_5  and  CAO_6 
REMARK    6  A    between atoms: CAN_5  and  CAQ_7 
REMARK    7  A    between atoms: NAM_13  and  CAN_5 
REMARK    8  A    between atoms: CAQ_7  and  CAR_8 
REMARK    9  A    between atoms: CAR_8  and  CAS_9 
REMARK   10  A    between atoms: CAS_9  and  NAT_14 
REMARK       I    between atoms: NAT_14  and  CAU_10 
REMARK       I    between atoms: CAU_10  and  NAV_15 
REMARK       I    between atoms: C_11  and  NAM_13 
REMARK   11  A    between atoms: CB_19  and  CG_20 
REMARK   12  A    between atoms: CG_20  and  CD_21 
REMARK   13  A    between atoms: CD_21  and  CE_22 
REMARK   14  A    between atoms: CE_22  and  NZ_23 
ROOT
ATOM      1  C   7HS d   1     -12.256  15.558 -14.465  0.00  0.00     0.241 C 
ATOM      2  O   7HS d   1     -12.941  14.555 -14.653  0.00  0.00    -0.271 OA
ATOM      3  NAM 7HS d   1     -11.186  15.869 -15.206  0.00  0.00    -0.349 N 
ATOM      4  H14 7HS d   1     -10.700  16.726 -15.033  0.00  0.00     0.163 HD
ENDROOT
BRANCH   1   5
ATOM      5  CA  7HS d   1     -12.611  16.566 -13.368  0.00  0.00     0.089 C 
ATOM      6  H2  7HS d   1     -12.077  17.504 -13.581  0.00  0.00     0.087 H 
BRANCH   5   7
ATOM      7  N   7HS d   1     -14.054  16.828 -13.399  0.00  0.00    -0.348 N 
ATOM      8  CAB 7HS d   1     -14.488  18.008 -13.833  0.00  0.00     0.214 C 
ATOM      9  OAC 7HS d   1     -13.731  18.886 -14.242  0.00  0.00    -0.274 OA
ATOM     10  H1  7HS d   1     -14.703  16.129 -13.098  0.00  0.00     0.163 HD
BRANCH   8  11
ATOM     11  CAA 7HS d   1     -16.008  18.203 -13.813  0.00  0.00    -0.003 C 
ATOM     12  H3  7HS d   1     -16.254  19.207 -14.190  0.00  0.00     0.040 H 
ATOM     13  H4  7HS d   1     -16.378  18.098 -12.782  0.00  0.00     0.040 H 
ATOM     14  H5  7HS d   1     -16.483  17.445 -14.452  0.00  0.00     0.040 H 
ENDBRANCH   8  11
ENDBRANCH   5   7
BRANCH   5  15
ATOM     15  CB  7HS d   1     -12.202  16.094 -11.955  0.00  0.00    -0.038 C 
ATOM     16  H20 7HS d   1     -11.273  15.507 -12.010  0.00  0.00     0.036 H 
ATOM     17  H21 7HS d   1     -13.001  15.476 -11.520  0.00  0.00     0.036 H 
BRANCH  15  18
ATOM     18  CG  7HS d   1     -11.980  17.348 -11.092  0.00  0.00    -0.061 C 
ATOM     19  H22 7HS d   1     -12.779  18.072 -11.307  0.00  0.00     0.033 H 
ATOM     20  H23 7HS d   1     -11.006  17.789 -11.351  0.00  0.00     0.033 H 
BRANCH  18  21
ATOM     21  CD  7HS d   1     -11.994  17.028  -9.595  0.00  0.00    -0.043 C 
ATOM     22  H24 7HS d   1     -11.226  16.273  -9.373  0.00  0.00     0.035 H 
ATOM     23  H25 7HS d   1     -12.983  16.639  -9.312  0.00  0.00     0.035 H 
BRANCH  21  24
ATOM     24  CE  7HS d   1     -11.700  18.306  -8.802  0.00  0.00     0.080 C 
ATOM     25  H26 7HS d   1     -12.424  19.084  -9.087  0.00  0.00     0.075 H 
ATOM     26  H27 7HS d   1     -10.681  18.650  -9.034  0.00  0.00     0.075 H 
BRANCH  24  27
ATOM     27  NZ  7HS d   1     -11.808  18.049  -7.352  0.00  0.00    -0.079 N 
ATOM     28  H28 7HS d   1     -11.612  18.898  -6.845  0.00  0.00     0.274 HD
ATOM     29  H29 7HS d   1     -11.145  17.338  -7.086  0.00  0.00     0.274 HD
ATOM     30  H30 7HS d   1     -12.741  17.736  -7.135  0.00  0.00     0.274 HD
ENDBRANCH  24  27
ENDBRANCH  21  24
ENDBRANCH  18  21
ENDBRANCH  15  18
ENDBRANCH   5  15
ENDBRANCH   1   5
BRANCH   3  31
ATOM     31  CAN 7HS d   1     -10.715  14.973 -16.268  0.00  0.00     0.062 C 
ATOM     32  H6  7HS d   1     -11.415  14.131 -16.370  0.00  0.00     0.083 H 
BRANCH  31  33
ATOM     33  CAO 7HS d   1      -9.345  14.443 -15.820  0.00  0.00     0.109 C 
ATOM     34  OAX 7HS d   1      -9.266  13.814 -14.747  0.00  0.00    -0.305 OA
ATOM     35  H7  7HS d   1      -8.459  14.614 -16.429  0.00  0.00     0.146 H 
ENDBRANCH  31  33
BRANCH  31  36
ATOM     36  CAQ 7HS d   1     -10.628  15.696 -17.620  0.00  0.00    -0.039 C 
ATOM     37  H8  7HS d   1     -10.120  15.047 -18.349  0.00  0.00     0.036 H 
ATOM     38  H9  7HS d   1     -10.058  16.629 -17.499  0.00  0.00     0.036 H 
BRANCH  36  39
ATOM     39  CAR 7HS d   1     -12.041  16.024 -18.126  0.00  0.00    -0.048 C 
ATOM     40  H10 7HS d   1     -11.970  16.663 -19.019  0.00  0.00     0.035 H 
ATOM     41  H11 7HS d   1     -12.597  16.555 -17.339  0.00  0.00     0.035 H 
BRANCH  39  42
ATOM     42  CAS 7HS d   1     -12.778  14.731 -18.484  0.00  0.00     0.009 C 
ATOM     43  H12 7HS d   1     -12.601  13.979 -17.701  0.00  0.00     0.064 H 
ATOM     44  H13 7HS d   1     -12.406  14.352 -19.447  0.00  0.00     0.064 H 
BRANCH  42  45
ATOM     45  NAT 7HS d   1     -14.220  15.000 -18.587  0.00  0.00    -0.227 N 
ATOM     46  CAU 7HS d   1     -14.824  15.381 -19.718  0.00  0.00     0.665 C 
ATOM     47  NAV 7HS d   1     -16.147  15.608 -19.727  0.00  0.00    -0.235 N 
ATOM     48  NAW 7HS d   1     -14.105  15.539 -20.841  0.00  0.00    -0.235 N 
ATOM     49  H16 7HS d   1     -16.613  15.901 -20.597  0.00  0.00     0.174 HD
ATOM     50  H17 7HS d   1     -16.696  15.489 -18.864  0.00  0.00     0.174 HD
ATOM     51  H18 7HS d   1     -13.090  15.364 -20.831  0.00  0.00     0.174 HD
ATOM     52  H19 7HS d   1     -14.569  15.835 -21.712  0.00  0.00     0.174 HD
ATOM     53  H15 7HS d   1     -14.797  14.889 -17.741  0.00  0.00     0.177 HD
ENDBRANCH  42  45
ENDBRANCH  39  42
ENDBRANCH  36  39
ENDBRANCH  31  36
ENDBRANCH   3  31
TORSDOF 14
