REMARK  10 active torsions:
REMARK  status: ('A' for Active; 'I' for Inactive)
REMARK    1  A    between atoms: C08_17  and  C13_1 
REMARK    2  A    between atoms: C02_11  and  C15_2 
REMARK       I    between atoms: C15_2  and  N16_23 
REMARK    3  A    between atoms: N16_23  and  C17_3 
REMARK    4  A    between atoms: C21_5  and  C29_29 
REMARK    5  A    between atoms: C19_25  and  C28_9 
REMARK    6  A    between atoms: N07_16  and  C04_13 
REMARK    7  A    between atoms: C05_14  and  N10_19 
REMARK    8  A    between atoms: N07_16  and  C08_17 
REMARK    9  A    between atoms: N07_16  and  C14_22 
REMARK       I    between atoms: N10_19  and  C09_18 
REMARK   10  A    between atoms: N10_19  and  C12_21 
ROOT
ATOM      1  C01 MOL d   1     -24.931  -6.410  80.652  0.00  0.00    -0.065 A 
ATOM      2  C02 MOL d   1     -24.893  -7.377  79.530  0.00  0.00     0.034 A 
ATOM      3  C03 MOL d   1     -23.735  -7.690  78.705  0.00  0.00    -0.040 A 
ATOM      4  C04 MOL d   1     -22.509  -6.847  78.979  0.00  0.00     0.058 A 
ATOM      5  C05 MOL d   1     -22.546  -5.879  80.028  0.00  0.00     0.063 A 
ATOM      6  C06 MOL d   1     -23.758  -5.618  80.895  0.00  0.00    -0.054 A 
ATOM      7  H13 MOL d   1     -25.816  -6.304  81.269  0.00  0.00     0.085 H 
ATOM      8  H14 MOL d   1     -23.750  -8.469  77.951  0.00  0.00     0.088 H 
ATOM      9  H15 MOL d   1     -23.742  -4.861  81.671  0.00  0.00     0.087 H 
ENDROOT
BRANCH   4  10
ATOM     10  N07 MOL d   1     -21.244  -7.085  78.200  0.00  0.00    -0.375 N 
BRANCH  10  11
ATOM     11  C08 MOL d   1     -20.243  -6.927  78.764  0.00  0.00    -0.008 C 
ATOM     12  H16 MOL d   1     -19.421  -6.903  78.033  0.00  0.00     0.063 H 
ATOM     13  H17 MOL d   1     -20.284  -5.968  79.302  0.00  0.00     0.063 H 
BRANCH  11  14
ATOM     14  C13 MOL d   1     -19.971  -8.094  79.809  0.00  0.00    -0.061 C 
ATOM     15  H1  MOL d   1     -19.016  -7.911  80.323  0.00  0.00     0.029 H 
ATOM     16  H2  MOL d   1     -19.923  -9.057  79.279  0.00  0.00     0.029 H 
ATOM     17  H3  MOL d   1     -20.785  -8.122  80.548  0.00  0.00     0.029 H 
ENDBRANCH  11  14
ENDBRANCH  10  11
BRANCH  10  18
ATOM     18  C14 MOL d   1     -21.333  -8.229  77.261  0.00  0.00     0.012 C 
ATOM     19  C24 MOL d   1     -22.037  -7.875  76.251  0.00  0.00    -0.046 C 
ATOM     20  C25 MOL d   1     -20.893  -7.099  75.394  0.00  0.00    -0.063 C 
ATOM     21  H6  MOL d   1     -22.861  -7.205  76.538  0.00  0.00     0.036 H 
ATOM     22  H7  MOL d   1     -22.441  -8.742  75.707  0.00  0.00     0.036 H 
ATOM     23  C26 MOL d   1     -20.027  -8.072  75.162  0.00  0.00    -0.063 C 
ATOM     24  H25 MOL d   1     -20.436  -6.286  75.978  0.00  0.00     0.033 H 
ATOM     25  H26 MOL d   1     -21.300  -6.693  74.457  0.00  0.00     0.033 H 
ATOM     26  C27 MOL d   1     -19.967  -8.698  76.561  0.00  0.00    -0.046 C 
ATOM     27  H8  MOL d   1     -19.048  -7.683  74.844  0.00  0.00     0.033 H 
ATOM     28  H9  MOL d   1     -20.401  -8.783  74.410  0.00  0.00     0.033 H 
ATOM     29  H27 MOL d   1     -19.095  -8.325  77.118  0.00  0.00     0.036 H 
ATOM     30  H28 MOL d   1     -19.919  -9.795  76.496  0.00  0.00     0.036 H 
ATOM     31  H22 MOL d   1     -21.789  -9.079  77.791  0.00  0.00     0.072 H 
ENDBRANCH  10  18
ENDBRANCH   4  10
BRANCH   5  32
ATOM     32  N10 MOL d   1     -21.319  -5.056  80.221  0.00  0.00    -0.328 N 
ATOM     33  C09 MOL d   1     -20.195  -5.385  79.695  0.00  0.00     0.175 C 
ATOM     34  O11 MOL d   1     -19.222  -4.806  79.800  0.00  0.00    -0.283 OA
ATOM     35  H18 MOL d   1     -20.172  -6.295  79.098  0.00  0.00     0.180 H 
BRANCH  32  36
ATOM     36  C12 MOL d   1     -21.476  -3.921  80.994  0.00  0.00    -0.012 C 
ATOM     37  H19 MOL d   1     -22.520  -3.849  81.332  0.00  0.00     0.057 H 
ATOM     38  H20 MOL d   1     -21.222  -3.033  80.397  0.00  0.00     0.057 H 
ATOM     39  H21 MOL d   1     -20.811  -3.978  81.868  0.00  0.00     0.057 H 
ENDBRANCH  32  36
ENDBRANCH   5  32
BRANCH   2  40
ATOM     40  C15 MOL d   1     -26.067  -8.214  79.369  0.00  0.00     0.256 C 
ATOM     41  N16 MOL d   1     -26.587  -8.535  78.111  0.00  0.00    -0.322 N 
ATOM     42  H23 MOL d   1     -27.354  -9.171  78.030  0.00  0.00     0.169 HD
ATOM     43  O18 MOL d   1     -26.402  -8.667  80.436  0.00  0.00    -0.267 OA
BRANCH  41  44
ATOM     44  C17 MOL d   1     -26.020  -7.954  76.958  0.00  0.00     0.041 A 
ATOM     45  C19 MOL d   1     -25.500  -8.804  75.831  0.00  0.00    -0.035 A 
ATOM     46  C20 MOL d   1     -24.920  -8.147  74.597  0.00  0.00    -0.069 A 
ATOM     47  C21 MOL d   1     -24.798  -6.657  74.514  0.00  0.00    -0.061 A 
ATOM     48  H4  MOL d   1     -24.590  -8.760  73.766  0.00  0.00     0.085 H 
ATOM     49  C22 MOL d   1     -25.298  -5.830  75.646  0.00  0.00    -0.075 A 
ATOM     50  C23 MOL d   1     -25.865  -6.479  76.832  0.00  0.00    -0.056 A 
ATOM     51  H5  MOL d   1     -25.243  -4.749  75.594  0.00  0.00     0.084 H 
ATOM     52  H24 MOL d   1     -26.187  -5.854  77.657  0.00  0.00     0.087 H 
BRANCH  45  53
ATOM     53  C28 MOL d   1     -25.592 -10.303  75.901  0.00  0.00    -0.049 C 
ATOM     54  H10 MOL d   1     -26.035 -10.599  76.863  0.00  0.00     0.033 H 
ATOM     55  H11 MOL d   1     -24.585 -10.737  75.813  0.00  0.00     0.033 H 
ATOM     56  H12 MOL d   1     -26.223 -10.671  75.078  0.00  0.00     0.033 H 
ENDBRANCH  45  53
BRANCH  47  57
ATOM     57  C29 MOL d   1     -24.230  -6.002  73.283  0.00  0.00    -0.051 C 
ATOM     58  H29 MOL d   1     -23.918  -6.776  72.567  0.00  0.00     0.033 H 
ATOM     59  H30 MOL d   1     -23.361  -5.388  73.562  0.00  0.00     0.033 H 
ATOM     60  H31 MOL d   1     -24.997  -5.363  72.821  0.00  0.00     0.033 H 
ENDBRANCH  47  57
ENDBRANCH  41  44
ENDBRANCH   2  40
TORSDOF 10
