REMARK  13 active torsions:
REMARK  status: ('A' for Active; 'I' for Inactive)
REMARK       I    between atoms: N1_1  and  C8_6 
REMARK    1  A    between atoms: C9_29  and  N1_1 
REMARK    2  A    between atoms: C7_5  and  C6_4 
REMARK    3  A    between atoms: C8_6  and  C7_5 
REMARK    4  A    between atoms: C10_7  and  C23_25 
REMARK    5  A    between atoms: C12_21  and  C13_8 
REMARK    6  A    between atoms: C20_11  and  C21_12 
REMARK    7  A    between atoms: C20_11  and  C22_13 
REMARK    8  A    between atoms: C19_17  and  C20_11 
REMARK    9  A    between atoms: C18_18  and  C19_17 
REMARK   10  A    between atoms: C11_23  and  C12_21 
REMARK   11  A    between atoms: C3_33  and  S1_34 
REMARK   12  A    between atoms: S1_34  and  C2_37 
REMARK   13  A    between atoms: C2_37  and  C1_38 
ROOT
ATOM      1  C10 4CZ d   1     -27.214  -6.279 -24.736  0.00  0.00     0.091 A 
ATOM      2  C11 4CZ d   1     -26.009  -6.507 -25.307  0.00  0.00     0.089 A 
ATOM      3  S2  4CZ d   1     -25.672  -5.267 -26.335  0.00  0.00    -0.046 SA
ATOM      4  N2  4CZ d   1     -27.771  -5.112 -25.145  0.00  0.00    -0.222 NA
ATOM      5  C9  4CZ d   1     -27.038  -4.442 -26.046  0.00  0.00     0.174 A 
ENDROOT
BRANCH   5   6
ATOM      6  N1  4CZ d   1     -27.393  -3.267 -26.569  0.00  0.00    -0.305 N 
ATOM      7  C8  4CZ d   1     -26.521  -2.550 -27.298  0.00  0.00     0.227 C 
ATOM      8  O3  4CZ d   1     -25.377  -2.907 -27.583  0.00  0.00    -0.273 OA
ATOM      9  H1  4CZ d   1     -28.317  -2.916 -26.417  0.00  0.00     0.171 HD
BRANCH   7  10
ATOM     10  C7  4CZ d   1     -27.052  -1.176 -27.755  0.00  0.00     0.033 C 
ATOM     11  H4  4CZ d   1     -26.742  -0.979 -28.792  0.00  0.00     0.054 H 
ATOM     12  H5  4CZ d   1     -28.150  -1.157 -27.690  0.00  0.00     0.054 H 
BRANCH  10  13
ATOM     13  C6  4CZ d   1     -26.504  -0.210 -26.899  0.00  0.00    -0.049 A 
ATOM     14  C5  4CZ d   1     -25.623   0.768 -27.378  0.00  0.00    -0.075 A 
ATOM     15  C4  4CZ d   1     -25.079   1.709 -26.495  0.00  0.00    -0.062 A 
ATOM     16  H3  4CZ d   1     -25.363   0.796 -28.430  0.00  0.00     0.084 H 
ATOM     17  C3  4CZ d   1     -25.414   1.677 -25.133  0.00  0.00     0.059 A 
ATOM     18  H2  4CZ d   1     -24.396   2.465 -26.865  0.00  0.00     0.085 H 
ATOM     19  C30 4CZ d   1     -26.282   0.692 -24.665  0.00  0.00    -0.062 A 
ATOM     20  C29 4CZ d   1     -26.826  -0.245 -25.540  0.00  0.00    -0.075 A 
ATOM     21  H25 4CZ d   1     -26.536   0.655 -23.612  0.00  0.00     0.085 H 
ATOM     22  H24 4CZ d   1     -27.502  -1.005 -25.165  0.00  0.00     0.084 H 
BRANCH  17  23
ATOM     23  S1  4CZ d   1     -24.722   2.874 -23.942  0.00  0.00     0.175 S 
ATOM     24  O1  4CZ d   1     -24.591   4.266 -24.584  0.00  0.00    -0.223 OA
ATOM     25  O2  4CZ d   1     -25.609   2.929 -22.699  0.00  0.00    -0.223 OA
BRANCH  23  26
ATOM     26  C2  4CZ d   1     -23.060   2.288 -23.445  0.00  0.00     0.030 C 
ATOM     27  H26 4CZ d   1     -22.688   2.898 -22.608  0.00  0.00     0.056 H 
ATOM     28  H27 4CZ d   1     -22.369   2.373 -24.296  0.00  0.00     0.056 H 
BRANCH  26  29
ATOM     29  C1  4CZ d   1     -23.161   0.825 -23.009  0.00  0.00    -0.064 C 
ATOM     30  H28 4CZ d   1     -22.167   0.463 -22.708  0.00  0.00     0.028 H 
ATOM     31  H29 4CZ d   1     -23.535   0.218 -23.847  0.00  0.00     0.028 H 
ATOM     32  H30 4CZ d   1     -23.854   0.743 -22.159  0.00  0.00     0.028 H 
ENDBRANCH  26  29
ENDBRANCH  23  26
ENDBRANCH  17  23
ENDBRANCH  10  13
ENDBRANCH   7  10
ENDBRANCH   5   6
BRANCH   2  33
ATOM     33  C12 4CZ d   1     -25.172  -7.539 -25.147  0.00  0.00     0.202 C 
ATOM     34  O4  4CZ d   1     -24.754  -8.136 -26.137  0.00  0.00    -0.286 OA
BRANCH  33  35
ATOM     35  C13 4CZ d   1     -24.688  -7.814 -23.853  0.00  0.00     0.022 A 
ATOM     36  C18 4CZ d   1     -24.297  -9.109 -23.443  0.00  0.00    -0.044 A 
ATOM     37  C17 4CZ d   1     -23.803  -9.291 -22.145  0.00  0.00    -0.076 A 
ATOM     38  C16 4CZ d   1     -23.705  -8.220 -21.255  0.00  0.00    -0.082 A 
ATOM     39  H7  4CZ d   1     -23.492 -10.279 -21.826  0.00  0.00     0.084 H 
ATOM     40  C15 4CZ d   1     -24.088  -6.940 -21.648  0.00  0.00    -0.082 A 
ATOM     41  H20 4CZ d   1     -23.329  -8.386 -20.252  0.00  0.00     0.083 H 
ATOM     42  C14 4CZ d   1     -24.571  -6.754 -22.942  0.00  0.00    -0.069 A 
ATOM     43  H6  4CZ d   1     -24.012  -6.105 -20.961  0.00  0.00     0.083 H 
ATOM     44  H21 4CZ d   1     -24.866  -5.759 -23.254  0.00  0.00     0.085 H 
BRANCH  36  45
ATOM     45  C19 4CZ d   1     -24.378 -10.214 -24.314  0.00  0.00    -0.037 C 
ATOM     46  H18 4CZ d   1     -25.275 -10.098 -24.939  0.00  0.00     0.040 H 
ATOM     47  H19 4CZ d   1     -23.483 -10.218 -24.954  0.00  0.00     0.040 H 
BRANCH  45  48
ATOM     48  C20 4CZ d   1     -24.463 -11.568 -23.590  0.00  0.00    -0.057 C 
ATOM     49  H8  4CZ d   1     -23.988 -11.484 -22.601  0.00  0.00     0.039 H 
BRANCH  48  50
ATOM     50  C21 4CZ d   1     -23.732 -12.633 -24.416  0.00  0.00    -0.073 C 
ATOM     51  H9  4CZ d   1     -23.792 -13.602 -23.900  0.00  0.00     0.028 H 
ATOM     52  H10 4CZ d   1     -22.677 -12.345 -24.534  0.00  0.00     0.028 H 
ATOM     53  H11 4CZ d   1     -24.203 -12.716 -25.407  0.00  0.00     0.028 H 
ENDBRANCH  48  50
BRANCH  48  54
ATOM     54  C22 4CZ d   1     -25.929 -11.966 -23.415  0.00  0.00    -0.073 C 
ATOM     55  H12 4CZ d   1     -26.449 -11.199 -22.822  0.00  0.00     0.028 H 
ATOM     56  H13 4CZ d   1     -25.987 -12.933 -22.895  0.00  0.00     0.028 H 
ATOM     57  H14 4CZ d   1     -26.406 -12.052 -24.402  0.00  0.00     0.028 H 
ENDBRANCH  48  54
ENDBRANCH  45  48
ENDBRANCH  36  45
ENDBRANCH  33  35
ENDBRANCH   2  33
BRANCH   1  58
ATOM     58  C23 4CZ d   1     -27.813  -7.059 -23.818  0.00  0.00    -0.006 A 
ATOM     59  C24 4CZ d   1     -27.826  -8.452 -23.908  0.00  0.00    -0.071 A 
ATOM     60  C25 4CZ d   1     -28.449  -9.225 -22.927  0.00  0.00    -0.082 A 
ATOM     61  H15 4CZ d   1     -27.347  -8.939 -24.750  0.00  0.00     0.084 H 
ATOM     62  C26 4CZ d   1     -29.072  -8.616 -21.837  0.00  0.00    -0.083 A 
ATOM     63  H23 4CZ d   1     -28.449 -10.306 -23.012  0.00  0.00     0.083 H 
ATOM     64  C27 4CZ d   1     -29.063  -7.226 -21.736  0.00  0.00    -0.082 A 
ATOM     65  H16 4CZ d   1     -29.558  -9.217 -21.077  0.00  0.00     0.083 H 
ATOM     66  C28 4CZ d   1     -28.432  -6.459 -22.720  0.00  0.00    -0.071 A 
ATOM     67  H22 4CZ d   1     -29.545  -6.740 -20.895  0.00  0.00     0.083 H 
ATOM     68  H17 4CZ d   1     -28.423  -5.379 -22.629  0.00  0.00     0.084 H 
ENDBRANCH   1  58
TORSDOF 13
