REMARK  12 active torsions:
REMARK  status: ('A' for Active; 'I' for Inactive)
REMARK       I    between atoms: N1_1  and  C8_6 
REMARK    1  A    between atoms: C9_29  and  N1_1 
REMARK    2  A    between atoms: C7_5  and  C6_4 
REMARK    3  A    between atoms: C8_6  and  C7_5 
REMARK    4  A    between atoms: C12_23  and  C13_8 
REMARK    5  A    between atoms: C17_10  and  C18_17 
REMARK    6  A    between atoms: C16_19  and  C17_10 
REMARK    7  A    between atoms: C18_17  and  C20_11 
REMARK    8  A    between atoms: C24_14  and  C26_15 
REMARK    9  A    between atoms: C18_17  and  C19_18 
REMARK   10  A    between atoms: C3_32  and  S_33 
REMARK   11  A    between atoms: S_33  and  C2_36 
REMARK   12  A    between atoms: C2_36  and  C1_37 
ROOT
ATOM      1  C13 4CX d   1      25.966  -8.374 -14.369  0.00  0.00    -0.024 A 
ATOM      2  C15 4CX d   1      26.370 -10.751 -14.222  0.00  0.00    -0.075 A 
ATOM      3  C21 4CX d   1      24.669  -9.927 -15.693  0.00  0.00     0.051 A 
ATOM      4  C22 4CX d   1      24.957  -8.611 -15.303  0.00  0.00    -0.052 A 
ATOM      5  C16 4CX d   1      25.375 -11.001 -15.159  0.00  0.00    -0.037 A 
ATOM      6  C23 4CX d   1      23.648 -10.220 -16.652  0.00  0.00     0.100 C 
ATOM      7  N2  4CX d   1      22.823 -10.394 -17.421  0.00  0.00    -0.191 NA
ATOM      8  C14 4CX d   1      26.664  -9.450 -13.828  0.00  0.00    -0.072 A 
ATOM      9  H7  4CX d   1      26.923 -11.579 -13.793  0.00  0.00     0.084 H 
ATOM     10  H13 4CX d   1      24.399  -7.783 -15.725  0.00  0.00     0.087 H 
ATOM     11  H19 4CX d   1      27.442  -9.273 -13.095  0.00  0.00     0.084 H 
ENDROOT
BRANCH   5  12
ATOM     12  C17 4CX d   1      25.111 -12.463 -15.524  0.00  0.00    -0.037 C 
ATOM     13  H8  4CX d   1      24.493 -12.510 -16.433  0.00  0.00     0.040 H 
ATOM     14  H9  4CX d   1      26.067 -12.976 -15.704  0.00  0.00     0.040 H 
BRANCH  12  15
ATOM     15  C18 4CX d   1      24.371 -13.146 -14.362  0.00  0.00    -0.057 C 
ATOM     16  H15 4CX d   1      24.975 -12.999 -13.454  0.00  0.00     0.039 H 
BRANCH  15  17
ATOM     17  C20 4CX d   1      24.241 -14.651 -14.590  0.00  0.00    -0.073 C 
ATOM     18  H10 4CX d   1      23.708 -15.106 -13.742  0.00  0.00     0.028 H 
ATOM     19  H11 4CX d   1      25.243 -15.097 -14.675  0.00  0.00     0.028 H 
ATOM     20  H12 4CX d   1      23.678 -14.834 -15.517  0.00  0.00     0.028 H 
ENDBRANCH  15  17
BRANCH  15  21
ATOM     21  C19 4CX d   1      23.001 -12.508 -14.113  0.00  0.00    -0.073 C 
ATOM     22  H16 4CX d   1      23.124 -11.427 -13.952  0.00  0.00     0.028 H 
ATOM     23  H17 4CX d   1      22.542 -12.961 -13.222  0.00  0.00     0.028 H 
ATOM     24  H18 4CX d   1      22.353 -12.678 -14.986  0.00  0.00     0.028 H 
ENDBRANCH  15  21
ENDBRANCH  12  15
ENDBRANCH   5  12
BRANCH   1  25
ATOM     25  C12 4CX d   1      26.310  -7.101 -13.909  0.00  0.00    -0.011 A 
ATOM     26  C24 4CX d   1      27.222  -6.259 -14.555  0.00  0.00     0.061 A 
ATOM     27  C25 4CX d   1      27.507  -5.013 -13.985  0.00  0.00    -0.042 A 
ATOM     28  C9  4CX d   1      26.920  -4.589 -12.792  0.00  0.00     0.035 A 
ATOM     29  H20 4CX d   1      28.207  -4.355 -14.487  0.00  0.00     0.088 H 
ATOM     30  C10 4CX d   1      26.031  -5.446 -12.143  0.00  0.00    -0.056 A 
ATOM     31  C11 4CX d   1      25.735  -6.687 -12.704  0.00  0.00    -0.069 A 
ATOM     32  H6  4CX d   1      25.573  -5.148 -11.207  0.00  0.00     0.086 H 
ATOM     33  H21 4CX d   1      25.043  -7.347 -12.194  0.00  0.00     0.085 H 
BRANCH  26  34
ATOM     34  C26 4CX d   1      27.888  -6.657 -15.885  0.00  0.00     0.418 C 
ATOM     35  F2  4CX d   1      26.955  -6.751 -16.832  0.00  0.00    -0.166 F 
ATOM     36  F3  4CX d   1      28.510  -7.822 -15.753  0.00  0.00    -0.166 F 
ATOM     37  F1  4CX d   1      28.766  -5.731 -16.264  0.00  0.00    -0.166 F 
ENDBRANCH  26  34
BRANCH  28  38
ATOM     38  N1  4CX d   1      27.264  -3.382 -12.305  0.00  0.00    -0.327 N 
ATOM     39  C8  4CX d   1      26.473  -2.606 -11.553  0.00  0.00     0.226 C 
ATOM     40  O3  4CX d   1      25.321  -2.876 -11.218  0.00  0.00    -0.273 OA
ATOM     41  H1  4CX d   1      28.178  -3.039 -12.521  0.00  0.00     0.169 HD
BRANCH  39  42
ATOM     42  C7  4CX d   1      27.107  -1.264 -11.145  0.00  0.00     0.033 C 
ATOM     43  H4  4CX d   1      26.895  -1.051 -10.087  0.00  0.00     0.054 H 
ATOM     44  H5  4CX d   1      28.195  -1.295 -11.302  0.00  0.00     0.054 H 
BRANCH  42  45
ATOM     45  C6  4CX d   1      26.476  -0.194 -12.035  0.00  0.00    -0.049 A 
ATOM     46  C5  4CX d   1      25.560   0.715 -11.509  0.00  0.00    -0.075 A 
ATOM     47  C4  4CX d   1      24.984   1.673 -12.338  0.00  0.00    -0.062 A 
ATOM     48  H3  4CX d   1      25.297   0.676 -10.458  0.00  0.00     0.084 H 
ATOM     49  C3  4CX d   1      25.323   1.722 -13.691  0.00  0.00     0.059 A 
ATOM     50  H2  4CX d   1      24.271   2.382 -11.932  0.00  0.00     0.085 H 
ATOM     51  C28 4CX d   1      26.227   0.804 -14.217  0.00  0.00    -0.062 A 
ATOM     52  C27 4CX d   1      26.803  -0.153 -13.386  0.00  0.00    -0.075 A 
ATOM     53  H14 4CX d   1      26.482   0.834 -15.270  0.00  0.00     0.085 H 
ATOM     54  H22 4CX d   1      27.508  -0.868 -13.793  0.00  0.00     0.084 H 
BRANCH  49  55
ATOM     55  S   4CX d   1      24.583   2.914 -14.735  0.00  0.00     0.175 S 
ATOM     56  O1  4CX d   1      24.416   4.212 -13.997  0.00  0.00    -0.223 OA
ATOM     57  O2  4CX d   1      25.417   3.125 -15.971  0.00  0.00    -0.223 OA
BRANCH  55  58
ATOM     58  C2  4CX d   1      22.939   2.275 -15.222  0.00  0.00     0.030 C 
ATOM     59  H23 4CX d   1      22.517   2.925 -16.002  0.00  0.00     0.056 H 
ATOM     60  H24 4CX d   1      22.277   2.278 -14.344  0.00  0.00     0.056 H 
BRANCH  58  61
ATOM     61  C1  4CX d   1      23.047   0.848 -15.763  0.00  0.00    -0.064 C 
ATOM     62  H25 4CX d   1      22.048   0.487 -16.048  0.00  0.00     0.028 H 
ATOM     63  H26 4CX d   1      23.465   0.192 -14.986  0.00  0.00     0.028 H 
ATOM     64  H27 4CX d   1      23.705   0.839 -16.644  0.00  0.00     0.028 H 
ENDBRANCH  58  61
ENDBRANCH  55  58
ENDBRANCH  49  55
ENDBRANCH  42  45
ENDBRANCH  39  42
ENDBRANCH  28  38
ENDBRANCH   1  25
TORSDOF 12
