REMARK WARNING: 32 MAX_TORS EXCEEDED!!!
REMARK  67 active torsions:
REMARK  status: ('A' for Active; 'I' for Inactive)
REMARK    1  A    between atoms: N_1  and  CA_2 
REMARK    2  A    between atoms: CA_2  and  C_3 
REMARK    3  A    between atoms: CA_2  and  CB_5 
REMARK       I    between atoms: C_3  and  N_6 
REMARK    4  A    between atoms: N_6  and  CA_7 
REMARK    5  A    between atoms: CA_7  and  C_8 
REMARK    6  A    between atoms: CA_7  and  CB_10 
REMARK       I    between atoms: C_8  and  N_17 
REMARK    7  A    between atoms: CB_10  and  CG_11 
REMARK    8  A    between atoms: CG_11  and  CD_12 
REMARK    9  A    between atoms: CD_12  and  NE_13 
REMARK       I    between atoms: NE_13  and  CZ_14 
REMARK       I    between atoms: CZ_14  and  NH1_15 
REMARK       I    between atoms: CZ_14  and  NH2_16 
REMARK   10  A    between atoms: N_17  and  CA_18 
REMARK   11  A    between atoms: CA_18  and  C_19 
REMARK   12  A    between atoms: CA_18  and  CB_21 
REMARK       I    between atoms: C_19  and  N_28 
REMARK   13  A    between atoms: CB_21  and  CG_22 
REMARK   14  A    between atoms: CG_22  and  CD_23 
REMARK   15  A    between atoms: CD_23  and  NE_24 
REMARK       I    between atoms: NE_24  and  CZ_25 
REMARK       I    between atoms: CZ_25  and  NH1_26 
REMARK   16  A    between atoms: N_28  and  CA_29 
REMARK   17  A    between atoms: CA_29  and  C_30 
REMARK   18  A    between atoms: CA_29  and  CB_32 
REMARK       I    between atoms: C_30  and  N_37 
REMARK   19  A    between atoms: CB_32  and  CG_33 
REMARK   20  A    between atoms: CG_33  and  CD_34 
REMARK   21  A    between atoms: N_37  and  CA_38 
REMARK   22  A    between atoms: CA_38  and  CB_39 
REMARK   23  A    between atoms: CA_38  and  C_41 
REMARK   24  A    between atoms: CB_39  and  OG_40 
REMARK   25  A    between atoms: OG_40  and  P_43 
REMARK       I    between atoms: C_41  and  N_47 
REMARK   26  A    between atoms: N_47  and  CA_48 
REMARK   27  A    between atoms: CA_48  and  C_49 
REMARK   28  A    between atoms: CA_48  and  CB_51 
REMARK       I    between atoms: C_49  and  N_59 
REMARK   29  A    between atoms: CB_51  and  CG_52 
REMARK   30  A    between atoms: CZ_57  and  OH_58 
REMARK   31  A    between atoms: N_59  and  CA_60 
REMARK   32  A    between atoms: CA_60  and  C_61 
REMARK   33  A    between atoms: CA_60  and  CB_63 
REMARK       I    between atoms: C_61  and  N_67 
REMARK   34  A    between atoms: CB_63  and  CG_64 
REMARK   35  A    between atoms: CG_64  and  CD1_65 
REMARK   36  A    between atoms: CG_64  and  CD2_66 
REMARK   37  A    between atoms: N_67  and  CA_68 
REMARK   38  A    between atoms: CA_68  and  C_69 
REMARK   39  A    between atoms: CA_68  and  CB_71 
REMARK       I    between atoms: C_69  and  N_76 
REMARK   40  A    between atoms: CB_71  and  CG_72 
REMARK   41  A    between atoms: CG_72  and  CD_73 
REMARK   42  A    between atoms: CD_73  and  CE_74 
REMARK   43  A    between atoms: CE_74  and  NZ_75 
REMARK   44  A    between atoms: N_76  and  CA_77 
REMARK   45  A    between atoms: CA_77  and  C_78 
REMARK   46  A    between atoms: CA_77  and  CB_80 
REMARK       I    between atoms: C_78  and  N_81 
REMARK   47  A    between atoms: N_81  and  CA_82 
REMARK   48  A    between atoms: CA_82  and  C_83 
REMARK   49  A    between atoms: CA_82  and  CB_85 
REMARK       I    between atoms: C_83  and  N_88 
REMARK   50  A    between atoms: CB_85  and  OG1_86 
REMARK   51  A    between atoms: CB_85  and  CG2_87 
REMARK   52  A    between atoms: N_88  and  CA_89 
REMARK   53  A    between atoms: CA_89  and  C_90 
REMARK   54  A    between atoms: CA_89  and  CB_92 
REMARK       I    between atoms: C_90  and  N_97 
REMARK   55  A    between atoms: CB_92  and  CG_93 
REMARK   56  A    between atoms: CG_93  and  CD_94 
REMARK       I    between atoms: CD_94  and  NE2_96 
REMARK   57  A    between atoms: CA_98  and  C_99 
REMARK       I    between atoms: C_99  and  N_104 
REMARK   58  A    between atoms: N_104  and  CA_105 
REMARK   59  A    between atoms: CA_105  and  C_106 
REMARK   60  A    between atoms: CA_105  and  CB_108 
REMARK       I    between atoms: C_106  and  N_110 
REMARK   61  A    between atoms: CB_108  and  OG_109 
REMARK   62  A    between atoms: N_110  and  CA_111 
REMARK   63  A    between atoms: CA_111  and  C_112 
REMARK   64  A    between atoms: CA_111  and  CB_114 
REMARK   65  A    between atoms: CB_114  and  CG_115 
REMARK   66  A    between atoms: CG_115  and  CD1_116 
REMARK   67  A    between atoms: CG_115  and  CD2_117 
ROOT
ATOM      1  CA  LEU d   1       6.168  23.777  30.259  0.00  0.00     0.089 C 
ATOM      2  H54 LEU d   1       6.119  24.684  30.879  0.00  0.00     0.087 H 
ENDROOT
BRANCH   1   3
ATOM      3  N   LEU d   1       5.878  24.149  28.883  0.00  0.00    -0.346 N 
ATOM      4  C   TYR d   1       6.560  25.146  28.311  0.00  0.00     0.241 C 
ATOM      5  O   TYR d   1       7.434  25.764  28.890  0.00  0.00    -0.271 OA
ATOM      6  H53 LEU d   1       5.173  23.662  28.368  0.00  0.00     0.163 HD
BRANCH   4   7
ATOM      7  CA  TYR d   1       6.159  25.530  26.889  0.00  0.00     0.093 C 
ATOM      8  H45 TYR d   1       6.976  26.109  26.433  0.00  0.00     0.088 H 
BRANCH   7   9
ATOM      9  N   TYR d   1       5.944  24.334  26.102  0.00  0.00    -0.346 N 
ATOM     10  C   SEP d   1       6.933  23.479  25.865  0.00  0.00     0.243 C 
ATOM     11  O   SEP d   1       8.071  23.600  26.344  0.00  0.00    -0.271 OA
ATOM     12  H44 TYR d   1       5.035  24.148  25.730  0.00  0.00     0.163 HD
BRANCH  10  13
ATOM     13  CA  SEP d   1       6.573  22.330  24.921  0.00  0.00     0.110 C 
ATOM     14  H41 SEP d   1       7.385  21.588  24.927  0.00  0.00     0.090 H 
BRANCH  13  15
ATOM     15  N   SEP d   1       5.333  21.670  25.368  0.00  0.00    -0.344 N 
ATOM     16  C   GLU d   1       5.226  21.184  26.604  0.00  0.00     0.241 C 
ATOM     17  O   GLU d   1       6.161  21.183  27.410  0.00  0.00    -0.271 OA
ATOM     18  H40 SEP d   1       4.563  21.586  24.736  0.00  0.00     0.163 HD
BRANCH  16  19
ATOM     19  CA  GLU d   1       3.866  20.607  27.014  0.00  0.00     0.090 C 
ATOM     20  H35 GLU d   1       3.813  20.627  28.113  0.00  0.00     0.087 H 
BRANCH  19  21
ATOM     21  N   GLU d   1       2.737  21.398  26.502  0.00  0.00    -0.346 N 
ATOM     22  C   ARG d   1       2.561  22.671  26.867  0.00  0.00     0.241 C 
ATOM     23  O   ARG d   1       3.393  23.314  27.524  0.00  0.00    -0.271 OA
ATOM     24  H34 GLU d   1       2.089  20.975  25.869  0.00  0.00     0.163 HD
BRANCH  22  25
ATOM     25  CA  ARG d   1       1.266  23.327  26.419  0.00  0.00     0.089 C 
ATOM     26  H22 ARG d   1       0.826  22.733  25.605  0.00  0.00     0.087 H 
BRANCH  25  27
ATOM     27  N   ARG d   1       0.344  23.327  27.560  0.00  0.00    -0.346 N 
ATOM     28  C   ARG d   1      -0.841  22.719  27.522  0.00  0.00     0.241 C 
ATOM     29  O   ARG d   1      -1.292  22.224  26.485  0.00  0.00    -0.271 OA
ATOM     30  H21 ARG d   1       0.615  23.801  28.398  0.00  0.00     0.163 HD
BRANCH  28  31
ATOM     31  CA  ARG d   1      -1.600  22.604  28.853  0.00  0.00     0.089 C 
ATOM     32  H9  ARG d   1      -1.187  23.337  29.562  0.00  0.00     0.087 H 
BRANCH  31  33
ATOM     33  N   ARG d   1      -3.029  22.854  28.698  0.00  0.00    -0.346 N 
ATOM     34  C   ALA d   1      -3.490  23.962  28.123  0.00  0.00     0.248 C 
ATOM     35  O   ALA d   1      -2.775  24.921  27.839  0.00  0.00    -0.271 OA
ATOM     36  H8  ARG d   1      -3.680  22.174  29.033  0.00  0.00     0.163 HD
BRANCH  34  37
ATOM     37  CA  ALA d   1      -5.003  23.993  27.836  0.00  0.00     0.172 C 
ATOM     38  H4  ALA d   1      -5.155  23.793  26.765  0.00  0.00     0.098 H 
BRANCH  37  39
ATOM     39  N   ALA d   1      -5.688  22.957  28.597  0.00  0.00    -0.067 N 
ATOM     40  H1  ALA d   1      -6.676  22.991  28.398  0.00  0.00     0.275 HD
ATOM     41  H2  ALA d   1      -5.538  23.109  29.582  0.00  0.00     0.275 HD
ATOM     42  H3  ALA d   1      -5.324  22.053  28.338  0.00  0.00     0.275 HD
ENDBRANCH  37  39
BRANCH  37  43
ATOM     43  CB  ALA d   1      -5.591  25.380  28.155  0.00  0.00    -0.042 C 
ATOM     44  H5  ALA d   1      -5.060  26.146  27.571  0.00  0.00     0.030 H 
ATOM     45  H6  ALA d   1      -5.473  25.590  29.228  0.00  0.00     0.030 H 
ATOM     46  H7  ALA d   1      -6.659  25.394  27.894  0.00  0.00     0.030 H 
ENDBRANCH  37  43
ENDBRANCH  34  37
ENDBRANCH  31  33
BRANCH  31  47
ATOM     47  CB  ARG d   1      -1.407  21.201  29.402  0.00  0.00    -0.036 C 
ATOM     48  H10 ARG d   1      -0.516  20.769  28.924  0.00  0.00     0.036 H 
ATOM     49  H11 ARG d   1      -2.292  20.606  29.132  0.00  0.00     0.036 H 
BRANCH  47  50
ATOM     50  CG  ARG d   1      -1.223  21.110  30.896  0.00  0.00    -0.048 C 
ATOM     51  H12 ARG d   1      -2.103  21.534  31.402  0.00  0.00     0.035 H 
ATOM     52  H13 ARG d   1      -0.324  21.672  31.191  0.00  0.00     0.035 H 
BRANCH  50  53
ATOM     53  CD  ARG d   1      -1.062  19.639  31.293  0.00  0.00     0.009 C 
ATOM     54  H14 ARG d   1      -1.570  19.012  30.545  0.00  0.00     0.064 H 
ATOM     55  H15 ARG d   1      -1.527  19.485  32.278  0.00  0.00     0.064 H 
BRANCH  53  56
ATOM     56  NE  ARG d   1       0.338  19.240  31.367  0.00  0.00    -0.227 N 
ATOM     57  CZ  ARG d   1       1.103  19.442  32.435  0.00  0.00     0.665 C 
ATOM     58  NH1 ARG d   1       2.376  19.054  32.423  0.00  0.00    -0.235 N 
ATOM     59  NH2 ARG d   1       0.591  20.049  33.502  0.00  0.00    -0.235 N 
ATOM     60  H17 ARG d   1       2.970  19.210  33.250  0.00  0.00     0.174 HD
ATOM     61  H18 ARG d   1       2.768  18.598  31.587  0.00  0.00     0.174 HD
ATOM     62  H19 ARG d   1      -0.395  20.346  33.502  0.00  0.00     0.174 HD
ATOM     63  H20 ARG d   1       1.181  20.222  34.328  0.00  0.00     0.174 HD
ATOM     64  H16 ARG d   1       0.757  18.777  30.548  0.00  0.00     0.177 HD
ENDBRANCH  53  56
ENDBRANCH  50  53
ENDBRANCH  47  50
ENDBRANCH  31  47
ENDBRANCH  28  31
ENDBRANCH  25  27
BRANCH  25  65
ATOM     65  CB  ARG d   1       1.515  24.737  25.901  0.00  0.00    -0.036 C 
ATOM     66  H23 ARG d   1       2.374  24.701  25.215  0.00  0.00     0.036 H 
ATOM     67  H24 ARG d   1       1.759  25.378  26.761  0.00  0.00     0.036 H 
BRANCH  65  68
ATOM     68  CG  ARG d   1       0.336  25.372  25.154  0.00  0.00    -0.048 C 
ATOM     69  H25 ARG d   1      -0.532  25.441  25.826  0.00  0.00     0.035 H 
ATOM     70  H26 ARG d   1       0.077  24.755  24.281  0.00  0.00     0.035 H 
BRANCH  68  71
ATOM     71  CD  ARG d   1       0.738  26.774  24.690  0.00  0.00     0.009 C 
ATOM     72  H27 ARG d   1       1.597  26.685  24.009  0.00  0.00     0.064 H 
ATOM     73  H28 ARG d   1       1.028  27.365  25.571  0.00  0.00     0.064 H 
BRANCH  71  74
ATOM     74  NE  ARG d   1      -0.329  27.470  23.998  0.00  0.00    -0.227 N 
ATOM     75  CZ  ARG d   1      -1.319  28.117  24.599  0.00  0.00     0.665 C 
ATOM     76  NH1 ARG d   1      -1.395  28.159  25.921  0.00  0.00    -0.235 N 
ATOM     77  NH2 ARG d   1      -2.228  28.736  23.867  0.00  0.00    -0.235 N 
ATOM     78  H30 ARG d   1      -2.168  28.664  26.377  0.00  0.00     0.174 HD
ATOM     79  H31 ARG d   1      -0.681  27.686  26.493  0.00  0.00     0.174 HD
ATOM     80  H32 ARG d   1      -2.170  28.704  22.839  0.00  0.00     0.174 HD
ATOM     81  H33 ARG d   1      -2.994  29.250  24.324  0.00  0.00     0.174 HD
ATOM     82  H29 ARG d   1      -0.318  27.462  22.968  0.00  0.00     0.177 HD
ENDBRANCH  71  74
ENDBRANCH  68  71
ENDBRANCH  65  68
ENDBRANCH  25  65
ENDBRANCH  22  25
ENDBRANCH  19  21
BRANCH  19  83
ATOM     83  CB  GLU d   1       3.755  19.138  26.558  0.00  0.00    -0.029 C 
ATOM     84  H36 GLU d   1       4.543  18.558  27.061  0.00  0.00     0.037 H 
ATOM     85  H37 GLU d   1       3.910  19.100  25.470  0.00  0.00     0.037 H 
BRANCH  83  86
ATOM     86  CG  GLU d   1       2.399  18.490  26.877  0.00  0.00     0.018 C 
ATOM     87  H38 GLU d   1       2.350  17.513  26.375  0.00  0.00     0.049 H 
ATOM     88  H39 GLU d   1       1.600  19.140  26.492  0.00  0.00     0.049 H 
BRANCH  86  89
ATOM     89  CD  GLU d   1       2.180  18.281  28.370  0.00  0.00     0.172 C 
ATOM     90  OE1 GLU d   1       3.173  18.082  29.105  0.00  0.00    -0.648 OA
ATOM     91  OE2 GLU d   1       1.017  18.307  28.815  0.00  0.00    -0.648 OA
ENDBRANCH  86  89
ENDBRANCH  83  86
ENDBRANCH  19  83
ENDBRANCH  16  19
ENDBRANCH  13  15
BRANCH  13  92
ATOM     92  CB  SEP d   1       6.433  22.902  23.507  0.00  0.00     0.059 C 
ATOM     93  H42 SEP d   1       7.344  23.470  23.270  0.00  0.00     0.079 H 
ATOM     94  H43 SEP d   1       5.565  23.577  23.489  0.00  0.00     0.079 H 
BRANCH  92  95
ATOM     95  OG  SEP d   1       6.253  21.923  22.524  0.00  0.00    -0.280 OA
BRANCH  95  96
ATOM     96  P   SEP d   1       4.782  22.044  21.905  0.00  0.00     0.422 P 
ATOM     97  O1P SEP d   1       4.689  21.087  20.619  0.00  0.00    -0.617 OA
ATOM     98  O2P SEP d   1       3.754  21.496  23.030  0.00  0.00    -0.617 OA
ATOM     99  O3P SEP d   1       4.449  23.554  21.506  0.00  0.00    -0.617 OA
ENDBRANCH  95  96
ENDBRANCH  92  95
ENDBRANCH  13  92
ENDBRANCH  10  13
ENDBRANCH   7   9
BRANCH   7 100
ATOM    100  CB  TYR d   1       4.898  26.403  26.917  0.00  0.00    -0.014 C 
ATOM    101  H46 TYR d   1       4.065  25.799  27.305  0.00  0.00     0.043 H 
ATOM    102  H47 TYR d   1       4.672  26.721  25.889  0.00  0.00     0.043 H 
BRANCH 100 103
ATOM    103  CG  TYR d   1       5.037  27.645  27.786  0.00  0.00    -0.056 A 
ATOM    104  CD1 TYR d   1       4.813  27.591  29.157  0.00  0.00    -0.074 A 
ATOM    105  CE1 TYR d   1       4.946  28.733  29.953  0.00  0.00    -0.051 A 
ATOM    106  H48 TYR d   1       4.531  26.650  29.616  0.00  0.00     0.084 H 
ATOM    107  CZ  TYR d   1       5.292  29.953  29.372  0.00  0.00     0.065 A 
ATOM    108  H50 TYR d   1       4.780  28.670  31.022  0.00  0.00     0.087 H 
ATOM    109  CE2 TYR d   1       5.505  30.038  28.007  0.00  0.00    -0.051 A 
ATOM    110  CD2 TYR d   1       5.378  28.880  27.222  0.00  0.00    -0.074 A 
ATOM    111  H51 TYR d   1       5.766  30.985  27.550  0.00  0.00     0.087 H 
ATOM    112  H49 TYR d   1       5.548  28.944  26.153  0.00  0.00     0.084 H 
BRANCH 107 113
ATOM    113  OH  TYR d   1       5.424  31.071  30.162  0.00  0.00    -0.361 OA
ATOM    114  H52 TYR d   1       5.245  30.841  31.066  0.00  0.00     0.217 HD
ENDBRANCH 107 113
ENDBRANCH 100 103
ENDBRANCH   7 100
ENDBRANCH   4   7
ENDBRANCH   1   3
BRANCH   1 115
ATOM    115  C   LEU d   1       7.571  23.203  30.368  0.00  0.00     0.241 C 
ATOM    116  O   LEU d   1       8.278  23.479  31.340  0.00  0.00    -0.271 OA
ATOM    117  N   LYS d   1       8.006  22.430  29.366  0.00  0.00    -0.346 N 
ATOM    118  H64 LYS d   1       7.411  22.221  28.590  0.00  0.00     0.163 HD
BRANCH 117 119
ATOM    119  CA  LYS d   1       9.364  21.897  29.425  0.00  0.00     0.089 C 
ATOM    120  H65 LYS d   1       9.496  21.396  30.395  0.00  0.00     0.087 H 
BRANCH 119 121
ATOM    121  C   LYS d   1      10.385  23.018  29.325  0.00  0.00     0.241 C 
ATOM    122  O   LYS d   1      11.419  22.988  30.002  0.00  0.00    -0.271 OA
ATOM    123  N   ALA d   1      10.093  24.041  28.524  0.00  0.00    -0.346 N 
ATOM    124  H77 ALA d   1       9.221  24.069  28.035  0.00  0.00     0.163 HD
BRANCH 123 125
ATOM    125  CA  ALA d   1      11.057  25.115  28.371  0.00  0.00     0.086 C 
ATOM    126  H78 ALA d   1      12.040  24.669  28.158  0.00  0.00     0.086 H 
BRANCH 125 127
ATOM    127  C   ALA d   1      11.172  25.940  29.644  0.00  0.00     0.240 C 
ATOM    128  O   ALA d   1      12.259  26.416  29.983  0.00  0.00    -0.271 OA
ATOM    129  N   THR d   1      10.059  26.145  30.346  0.00  0.00    -0.344 N 
ATOM    130  H82 THR d   1       9.229  25.639  30.112  0.00  0.00     0.163 HD
BRANCH 129 131
ATOM    131  CA  THR d   1      10.031  27.091  31.445  0.00  0.00     0.113 C 
ATOM    132  H83 THR d   1      10.899  27.757  31.334  0.00  0.00     0.091 H 
BRANCH 131 133
ATOM    133  C   THR d   1      10.143  26.411  32.792  0.00  0.00     0.243 C 
ATOM    134  O   THR d   1      10.237  27.102  33.805  0.00  0.00    -0.271 OA
ATOM    135  N   GLN d   1      10.159  25.076  32.827  0.00  0.00    -0.346 N 
ATOM    136  H89 GLN d   1      10.037  24.571  31.973  0.00  0.00     0.163 HD
BRANCH 135 137
ATOM    137  CA  GLN d   1      10.347  24.326  34.065  0.00  0.00     0.090 C 
ATOM    138  H90 GLN d   1      10.589  25.035  34.871  0.00  0.00     0.087 H 
BRANCH 137 139
ATOM    139  C   GLN d   1      11.524  23.370  33.903  0.00  0.00     0.243 C 
ATOM    140  O   GLN d   1      11.365  22.152  34.033  0.00  0.00    -0.271 OA
ATOM    141  N   PRO d   1      12.724  23.891  33.604  0.00  0.00    -0.337 N 
ATOM    142  CA  PRO d   1      13.874  23.003  33.380  0.00  0.00     0.091 C 
ATOM    143  CD  PRO d   1      13.139  25.310  33.560  0.00  0.00    -0.001 C 
ATOM    144  CB  PRO d   1      14.978  23.958  32.910  0.00  0.00    -0.036 C 
ATOM    145  H97 PRO d   1      13.649  22.250  32.611  0.00  0.00     0.087 H 
ATOM    146  CG  PRO d   1      14.667  25.221  33.623  0.00  0.00    -0.048 C 
ATOM    147  H98 PRO d   1      14.937  24.101  31.820  0.00  0.00     0.036 H 
ATOM    148  H99 PRO d   1      15.972  23.581  33.193  0.00  0.00     0.036 H 
ATOM    149 0H10 PRO d   1      15.131  26.081  33.117  0.00  0.00     0.035 H 
ATOM    150 1H10 PRO d   1      15.014  25.178  34.666  0.00  0.00     0.035 H 
ATOM    151 2H10 PRO d   1      12.739  25.866  34.421  0.00  0.00     0.064 H 
ATOM    152 3H10 PRO d   1      12.809  25.790  32.627  0.00  0.00     0.064 H 
BRANCH 142 153
ATOM    153  C   PRO d   1      14.275  22.311  34.669  0.00  0.00     0.241 C 
ATOM    154  O   PRO d   1      14.093  22.844  35.768  0.00  0.00    -0.271 OA
ATOM    155  N   SER d   1      14.807  21.100  34.518  0.00  0.00    -0.344 N 
ATOM    156 4H10 SER d   1      14.826  20.686  33.608  0.00  0.00     0.163 HD
BRANCH 155 157
ATOM    157  CA  SER d   1      15.363  20.363  35.646  0.00  0.00     0.109 C 
ATOM    158 5H10 SER d   1      14.609  20.317  36.446  0.00  0.00     0.090 H 
BRANCH 157 159
ATOM    159  C   SER d   1      16.601  21.075  36.176  0.00  0.00     0.243 C 
ATOM    160  O   SER d   1      17.503  21.426  35.410  0.00  0.00    -0.271 OA
ATOM    161  N   LEU d   1      16.628  21.294  37.482  0.00  0.00    -0.345 N 
ATOM    162 9H10 LEU d   1      15.863  20.967  38.038  0.00  0.00     0.163 HD
BRANCH 161 163
ATOM    163  CA  LEU d   1      17.723  21.990  38.144  0.00  0.00     0.096 C 
ATOM    164 0H11 LEU d   1      18.340  22.475  37.373  0.00  0.00     0.089 H 
BRANCH 163 165
ATOM    165  C   LEU d   1      18.616  21.026  38.931  0.00  0.00     0.196 C 
ATOM    166  O   LEU d   1      19.826  21.267  39.065  0.00  0.00    -0.646 OA
ATOM    167  OXT LEU d   1      18.132  20.001  39.437  0.00  0.00    -0.646 OA
ENDBRANCH 163 165
BRANCH 163 168
ATOM    168  CB  LEU d   1      17.161  23.071  39.068  0.00  0.00    -0.034 C 
ATOM    169 1H11 LEU d   1      17.996  23.676  39.452  0.00  0.00     0.037 H 
ATOM    170 2H11 LEU d   1      16.645  22.584  39.908  0.00  0.00     0.037 H 
BRANCH 168 171
ATOM    171  CG  LEU d   1      16.170  23.998  38.352  0.00  0.00    -0.059 C 
ATOM    172 3H11 LEU d   1      15.387  23.373  37.897  0.00  0.00     0.038 H 
BRANCH 171 173
ATOM    173  CD1 LEU d   1      15.497  24.948  39.329  0.00  0.00    -0.073 C 
ATOM    174 4H11 LEU d   1      14.795  25.597  38.785  0.00  0.00     0.028 H 
ATOM    175 5H11 LEU d   1      16.260  25.567  39.823  0.00  0.00     0.028 H 
ATOM    176 6H11 LEU d   1      14.949  24.368  40.086  0.00  0.00     0.028 H 
ENDBRANCH 171 173
BRANCH 171 177
ATOM    177  CD2 LEU d   1      16.875  24.762  37.234  0.00  0.00    -0.073 C 
ATOM    178 7H11 LEU d   1      17.351  24.048  36.545  0.00  0.00     0.028 H 
ATOM    179 8H11 LEU d   1      17.642  25.421  37.667  0.00  0.00     0.028 H 
ATOM    180 9H11 LEU d   1      16.140  25.368  36.684  0.00  0.00     0.028 H 
ENDBRANCH 171 177
ENDBRANCH 168 171
ENDBRANCH 163 168
ENDBRANCH 161 163
ENDBRANCH 157 159
BRANCH 157 181
ATOM    181  CB  SER d   1      15.720  18.942  35.225  0.00  0.00     0.044 C 
ATOM    182 6H10 SER d   1      16.063  18.377  36.105  0.00  0.00     0.077 H 
ATOM    183 7H10 SER d   1      16.524  18.976  34.475  0.00  0.00     0.077 H 
BRANCH 181 184
ATOM    184  OG  SER d   1      14.591  18.301  34.670  0.00  0.00    -0.398 OA
ATOM    185 8H10 SER d   1      14.825  17.417  34.412  0.00  0.00     0.209 HD
ENDBRANCH 181 184
ENDBRANCH 157 181
ENDBRANCH 155 157
ENDBRANCH 142 153
ENDBRANCH 137 139
BRANCH 137 186
ATOM    186  CB  GLN d   1       9.058  23.598  34.448  0.00  0.00    -0.030 C 
ATOM    187  H91 GLN d   1       9.204  23.091  35.413  0.00  0.00     0.037 H 
ATOM    188  H92 GLN d   1       8.823  22.852  33.675  0.00  0.00     0.037 H 
BRANCH 186 189
ATOM    189  CG  GLN d   1       7.884  24.583  34.570  0.00  0.00     0.011 C 
ATOM    190  H93 GLN d   1       7.703  25.023  33.578  0.00  0.00     0.047 H 
ATOM    191  H94 GLN d   1       8.175  25.375  35.275  0.00  0.00     0.047 H 
BRANCH 189 192
ATOM    192  CD  GLN d   1       6.564  23.964  35.066  0.00  0.00     0.215 C 
ATOM    193  OE1 GLN d   1       6.301  22.777  34.877  0.00  0.00    -0.274 OA
ATOM    194  NE2 GLN d   1       5.731  24.787  35.692  0.00  0.00    -0.370 N 
ATOM    195  H95 GLN d   1       4.857  24.446  36.038  0.00  0.00     0.159 HD
ATOM    196  H96 GLN d   1       5.978  25.748  35.817  0.00  0.00     0.159 HD
ENDBRANCH 189 192
ENDBRANCH 186 189
ENDBRANCH 137 186
ENDBRANCH 135 137
ENDBRANCH 131 133
BRANCH 131 197
ATOM    197  CB  THR d   1       8.752  27.957  31.381  0.00  0.00     0.060 C 
ATOM    198  H84 THR d   1       8.750  28.664  32.224  0.00  0.00     0.086 H 
BRANCH 197 199
ATOM    199  OG1 THR d   1       7.578  27.132  31.443  0.00  0.00    -0.393 OA
ATOM    200  H85 THR d   1       7.578  26.528  30.710  0.00  0.00     0.210 HD
ENDBRANCH 197 199
BRANCH 197 201
ATOM    201  CG2 THR d   1       8.723  28.717  30.076  0.00  0.00    -0.050 C 
ATOM    202  H86 THR d   1       7.813  29.333  30.031  0.00  0.00     0.031 H 
ATOM    203  H87 THR d   1       8.726  28.006  29.237  0.00  0.00     0.031 H 
ATOM    204  H88 THR d   1       9.609  29.366  30.010  0.00  0.00     0.031 H 
ENDBRANCH 197 201
ENDBRANCH 131 197
ENDBRANCH 129 131
ENDBRANCH 125 127
BRANCH 125 205
ATOM    205  CB  ALA d   1      10.669  26.013  27.199  0.00  0.00    -0.049 C 
ATOM    206  H79 ALA d   1      11.408  26.821  27.096  0.00  0.00     0.030 H 
ATOM    207  H80 ALA d   1       9.675  26.447  27.383  0.00  0.00     0.030 H 
ATOM    208  H81 ALA d   1      10.645  25.418  26.274  0.00  0.00     0.030 H 
ENDBRANCH 125 205
ENDBRANCH 123 125
ENDBRANCH 119 121
BRANCH 119 209
ATOM    209  CB  LYS d   1       9.582  20.865  28.320  0.00  0.00    -0.038 C 
ATOM    210  H66 LYS d   1      10.662  20.795  28.122  0.00  0.00     0.036 H 
ATOM    211  H67 LYS d   1       9.065  21.215  27.414  0.00  0.00     0.036 H 
BRANCH 209 212
ATOM    212  CG  LYS d   1       9.060  19.453  28.660  0.00  0.00    -0.061 C 
ATOM    213  H68 LYS d   1       8.057  19.532  29.104  0.00  0.00     0.033 H 
ATOM    214  H69 LYS d   1       9.742  18.975  29.378  0.00  0.00     0.033 H 
BRANCH 212 215
ATOM    215  CD  LYS d   1       8.986  18.604  27.387  0.00  0.00    -0.043 C 
ATOM    216  H70 LYS d   1      10.008  18.453  27.010  0.00  0.00     0.035 H 
ATOM    217  H71 LYS d   1       8.396  19.152  26.638  0.00  0.00     0.035 H 
BRANCH 215 218
ATOM    218  CE  LYS d   1       8.335  17.217  27.601  0.00  0.00     0.080 C 
ATOM    219  H72 LYS d   1       7.432  17.336  28.218  0.00  0.00     0.075 H 
ATOM    220  H73 LYS d   1       9.050  16.561  28.120  0.00  0.00     0.075 H 
BRANCH 218 221
ATOM    221  NZ  LYS d   1       7.954  16.586  26.289  0.00  0.00    -0.079 N 
ATOM    222  H74 LYS d   1       7.533  15.686  26.459  0.00  0.00     0.274 HD
ATOM    223  H75 LYS d   1       8.778  16.470  25.720  0.00  0.00     0.274 HD
ATOM    224  H76 LYS d   1       7.295  17.180  25.809  0.00  0.00     0.274 HD
ENDBRANCH 218 221
ENDBRANCH 215 218
ENDBRANCH 212 215
ENDBRANCH 209 212
ENDBRANCH 119 209
ENDBRANCH 117 119
ENDBRANCH   1 115
BRANCH   1 225
ATOM    225  CB  LEU d   1       5.126  22.783  30.785  0.00  0.00    -0.035 C 
ATOM    226  H55 LEU d   1       5.453  22.457  31.783  0.00  0.00     0.037 H 
ATOM    227  H56 LEU d   1       5.116  21.921  30.102  0.00  0.00     0.037 H 
BRANCH 225 228
ATOM    228  CG  LEU d   1       3.680  23.291  30.913  0.00  0.00    -0.059 C 
ATOM    229  H57 LEU d   1       3.387  23.757  29.960  0.00  0.00     0.038 H 
BRANCH 228 230
ATOM    230  CD1 LEU d   1       2.753  22.145  31.195  0.00  0.00    -0.073 C 
ATOM    231  H58 LEU d   1       1.723  22.520  31.284  0.00  0.00     0.028 H 
ATOM    232  H59 LEU d   1       3.049  21.657  32.136  0.00  0.00     0.028 H 
ATOM    233  H60 LEU d   1       2.808  21.418  30.372  0.00  0.00     0.028 H 
ENDBRANCH 228 230
BRANCH 228 234
ATOM    234  CD2 LEU d   1       3.565  24.335  32.021  0.00  0.00    -0.073 C 
ATOM    235  H61 LEU d   1       4.247  25.172  31.808  0.00  0.00     0.028 H 
ATOM    236  H62 LEU d   1       3.835  23.878  32.985  0.00  0.00     0.028 H 
ATOM    237  H63 LEU d   1       2.531  24.707  32.068  0.00  0.00     0.028 H 
ENDBRANCH 228 234
ENDBRANCH 225 228
ENDBRANCH   1 225
TORSDOF 67
