REMARK  5 active torsions:
REMARK  status: ('A' for Active; 'I' for Inactive)
REMARK    1  A    between atoms: N_1  and  CA_2 
REMARK    2  A    between atoms: CA_2  and  C_3 
REMARK    3  A    between atoms: CA_2  and  CB_5 
REMARK    4  A    between atoms: CB_5  and  CG1_6 
REMARK    5  A    between atoms: CB_5  and  CG2_7 
ROOT
ATOM      1  CB  VAL d   1      14.176  38.337   2.238  0.00  0.00    -0.024 C 
ATOM      2  H5  VAL d   1      13.674  37.732   3.008  0.00  0.00     0.042 H 
ENDROOT
BRANCH   1   3
ATOM      3  CA  VAL d   1      13.116  38.785   1.203  0.00  0.00     0.185 C 
ATOM      4  H4  VAL d   1      12.632  37.882   0.803  0.00  0.00     0.101 H 
BRANCH   3   5
ATOM      5  N   VAL d   1      13.736  39.498   0.091  0.00  0.00    -0.065 N 
ATOM      6  H1  VAL d   1      13.025  39.778  -0.567  0.00  0.00     0.275 HD
ATOM      7  H2  VAL d   1      14.399  38.893  -0.368  0.00  0.00     0.275 HD
ATOM      8  H3  VAL d   1      14.212  40.315   0.440  0.00  0.00     0.275 HD
ENDBRANCH   3   5
BRANCH   3   9
ATOM      9  C   VAL d   1      12.037  39.653   1.851  0.00  0.00     0.204 C 
ATOM     10  O   VAL d   1      11.778  40.774   1.412  0.00  0.00    -0.646 OA
ATOM     11  OXT VAL d   1      11.383  39.260   2.818  0.00  0.00    -0.646 OA
ENDBRANCH   3   9
ENDBRANCH   1   3
BRANCH   1  12
ATOM     12  CG1 VAL d   1      15.237  37.471   1.564  0.00  0.00    -0.071 C 
ATOM     13  H6  VAL d   1      15.984  37.159   2.309  0.00  0.00     0.028 H 
ATOM     14  H7  VAL d   1      15.731  38.049   0.769  0.00  0.00     0.028 H 
ATOM     15  H8  VAL d   1      14.761  36.581   1.128  0.00  0.00     0.028 H 
ENDBRANCH   1  12
BRANCH   1  16
ATOM     16  CG2 VAL d   1      14.809  39.538   2.917  0.00  0.00    -0.071 C 
ATOM     17  H9  VAL d   1      14.025  40.145   3.394  0.00  0.00     0.028 H 
ATOM     18  H10 VAL d   1      15.338  40.146   2.168  0.00  0.00     0.028 H 
ATOM     19  H11 VAL d   1      15.522  39.194   3.681  0.00  0.00     0.028 H 
ENDBRANCH   1  16
TORSDOF 5
