REMARK  5 active torsions:
REMARK  status: ('A' for Active; 'I' for Inactive)
REMARK    1  A    between atoms: N_1  and  CA_2 
REMARK    2  A    between atoms: CA_2  and  C_3 
REMARK    3  A    between atoms: CA_2  and  CB_5 
REMARK    4  A    between atoms: CB_5  and  CG1_6 
REMARK    5  A    between atoms: CB_5  and  CG2_7 
ROOT
ATOM      1  CB  VAL d   1     -22.286  16.249 -30.861  0.00  0.00    -0.024 C 
ATOM      2  H5  VAL d   1     -23.316  16.105 -31.218  0.00  0.00     0.042 H 
ENDROOT
BRANCH   1   3
ATOM      3  CA  VAL d   1     -22.121  15.513 -29.523  0.00  0.00     0.185 C 
ATOM      4  H4  VAL d   1     -22.792  15.984 -28.789  0.00  0.00     0.101 H 
BRANCH   3   5
ATOM      5  N   VAL d   1     -20.755  15.621 -29.036  0.00  0.00    -0.065 N 
ATOM      6  H1  VAL d   1     -20.671  15.131 -28.159  0.00  0.00     0.275 HD
ATOM      7  H2  VAL d   1     -20.522  16.593 -28.902  0.00  0.00     0.275 HD
ATOM      8  H3  VAL d   1     -20.125  15.214 -29.709  0.00  0.00     0.275 HD
ENDBRANCH   3   5
BRANCH   3   9
ATOM      9  C   VAL d   1     -22.499  14.039 -29.644  0.00  0.00     0.204 C 
ATOM     10  O   VAL d   1     -23.640  13.686 -30.003  0.00  0.00    -0.646 OA
ATOM     11  OXT VAL d   1     -21.648  13.182 -29.358  0.00  0.00    -0.646 OA
ENDBRANCH   3   9
ENDBRANCH   1   3
BRANCH   1  12
ATOM     12  CG1 VAL d   1     -22.044  17.742 -30.665  0.00  0.00    -0.071 C 
ATOM     13  H6  VAL d   1     -22.164  18.262 -31.627  0.00  0.00     0.028 H 
ATOM     14  H7  VAL d   1     -21.024  17.901 -30.287  0.00  0.00     0.028 H 
ATOM     15  H8  VAL d   1     -22.770  18.139 -29.940  0.00  0.00     0.028 H 
ENDBRANCH   1  12
BRANCH   1  16
ATOM     16  CG2 VAL d   1     -21.328  15.673 -31.900  0.00  0.00    -0.071 C 
ATOM     17  H9  VAL d   1     -21.523  14.597 -32.022  0.00  0.00     0.028 H 
ATOM     18  H10 VAL d   1     -20.291  15.822 -31.565  0.00  0.00     0.028 H 
ATOM     19  H11 VAL d   1     -21.480  16.185 -32.862  0.00  0.00     0.028 H 
ENDBRANCH   1  16
TORSDOF 5
