REMARK  5 active torsions:
REMARK  status: ('A' for Active; 'I' for Inactive)
REMARK    1  A    between atoms: N_1  and  CA_2 
REMARK    2  A    between atoms: CA_2  and  C_3 
REMARK    3  A    between atoms: CA_2  and  CB_5 
REMARK    4  A    between atoms: CB_5  and  CG1_6 
REMARK    5  A    between atoms: CB_5  and  CG2_7 
ROOT
ATOM      1  CB  VAL d   1     -18.534  19.849  31.072  0.00  0.00    -0.024 C 
ATOM      2  H5  VAL d   1     -18.974  19.739  32.074  0.00  0.00     0.042 H 
ENDROOT
BRANCH   1   3
ATOM      3  CA  VAL d   1     -17.238  19.030  31.022  0.00  0.00     0.185 C 
ATOM      4  H4  VAL d   1     -16.560  19.414  31.799  0.00  0.00     0.101 H 
BRANCH   3   5
ATOM      5  N   VAL d   1     -16.576  19.171  29.721  0.00  0.00    -0.065 N 
ATOM      6  H1  VAL d   1     -15.729  18.625  29.714  0.00  0.00     0.275 HD
ATOM      7  H2  VAL d   1     -16.352  20.141  29.561  0.00  0.00     0.275 HD
ATOM      8  H3  VAL d   1     -17.192  18.845  28.993  0.00  0.00     0.275 HD
ENDBRANCH   3   5
BRANCH   3   9
ATOM      9  C   VAL d   1     -17.513  17.547  31.310  0.00  0.00     0.204 C 
ATOM     10  O   VAL d   1     -17.205  16.702  30.438  0.00  0.00    -0.646 OA
ATOM     11  OXT VAL d   1     -18.057  17.180  32.375  0.00  0.00    -0.646 OA
ENDBRANCH   3   9
ENDBRANCH   1   3
BRANCH   1  12
ATOM     12  CG1 VAL d   1     -18.237  21.358  30.830  0.00  0.00    -0.071 C 
ATOM     13  H6  VAL d   1     -19.177  21.928  30.870  0.00  0.00     0.028 H 
ATOM     14  H7  VAL d   1     -17.772  21.486  29.841  0.00  0.00     0.028 H 
ATOM     15  H8  VAL d   1     -17.552  21.726  31.608  0.00  0.00     0.028 H 
ENDBRANCH   1  12
BRANCH   1  16
ATOM     16  CG2 VAL d   1     -19.537  19.335  30.050  0.00  0.00    -0.071 C 
ATOM     17  H9  VAL d   1     -19.735  18.269  30.235  0.00  0.00     0.028 H 
ATOM     18  H10 VAL d   1     -19.126  19.461  29.038  0.00  0.00     0.028 H 
ATOM     19  H11 VAL d   1     -20.475  19.903  30.139  0.00  0.00     0.028 H 
ENDBRANCH   1  16
TORSDOF 5
