REMARK  9 active torsions:
REMARK  status: ('A' for Active; 'I' for Inactive)
REMARK       I    between atoms: C16_4  and  N15_3 
REMARK    1  A    between atoms: N15_3  and  C13_19 
REMARK    2  A    between atoms: C18_21  and  C16_4 
REMARK    3  A    between atoms: C22_5  and  C27_27 
REMARK    4  A    between atoms: C24_7  and  C26_26 
REMARK    5  A    between atoms: O7_14  and  C4_11 
REMARK    6  A    between atoms: C8_15  and  O7_14 
REMARK    7  A    between atoms: C9_16  and  C8_15 
REMARK    8  A    between atoms: S19_22  and  C18_21 
REMARK    9  A    between atoms: C20_23  and  S19_22 
ROOT
ATOM      1  C11 A2I d   1     -16.320  -7.558 -21.280  0.00  0.00    -0.080 A 
ATOM      2  C14 A2I d   1     -16.606  -8.739 -18.793  0.00  0.00    -0.049 A 
ATOM      3  C9  A2I d   1     -16.703  -9.505 -19.942  0.00  0.00    -0.032 A 
ATOM      4  C10 A2I d   1     -16.558  -8.916 -21.188  0.00  0.00    -0.075 A 
ATOM      5  C12 A2I d   1     -16.218  -6.794 -20.130  0.00  0.00    -0.057 A 
ATOM      6  C13 A2I d   1     -16.366  -7.381 -18.885  0.00  0.00     0.035 A 
ATOM      7  H1  A2I d   1     -16.213  -7.091 -22.252  0.00  0.00     0.083 H 
ATOM      8  H2  A2I d   1     -16.718  -9.205 -17.820  0.00  0.00     0.087 H 
ATOM      9  H12 A2I d   1     -16.631  -9.518 -22.087  0.00  0.00     0.084 H 
ATOM     10  H13 A2I d   1     -16.021  -5.731 -20.205  0.00  0.00     0.086 H 
ENDROOT
BRANCH   6  11
ATOM     11  N15 A2I d   1     -16.248  -6.520 -17.720  0.00  0.00    -0.327 N 
ATOM     12  C16 A2I d   1     -16.483  -6.951 -16.347  0.00  0.00     0.231 C 
ATOM     13  O17 A2I d   1     -16.812  -8.058 -16.070  0.00  0.00    -0.272 OA
ATOM     14  H3  A2I d   1     -15.988  -5.566 -17.870  0.00  0.00     0.169 HD
BRANCH  12  15
ATOM     15  C18 A2I d   1     -16.324  -5.910 -15.237  0.00  0.00     0.058 C 
ATOM     16  H14 A2I d   1     -16.828  -6.274 -14.330  0.00  0.00     0.064 H 
ATOM     17  H15 A2I d   1     -16.788  -4.967 -15.561  0.00  0.00     0.064 H 
BRANCH  15  18
ATOM     18  S19 A2I d   1     -14.565  -5.609 -14.859  0.00  0.00    -0.081 SA
BRANCH  18  19
ATOM     19  C20 A2I d   1     -13.842  -4.416 -16.024  0.00  0.00     0.189 A 
ATOM     20  N21 A2I d   1     -14.443  -4.262 -17.187  0.00  0.00    -0.228 NA
ATOM     21  C22 A2I d   1     -13.981  -3.422 -18.092  0.00  0.00     0.035 A 
ATOM     22  C23 A2I d   1     -12.843  -2.696 -17.785  0.00  0.00    -0.036 A 
ATOM     23  C24 A2I d   1     -12.232  -2.878 -16.550  0.00  0.00     0.035 A 
ATOM     24  H4  A2I d   1     -12.433  -1.993 -18.501  0.00  0.00     0.089 H 
ATOM     25  N25 A2I d   1     -12.747  -3.744 -15.690  0.00  0.00    -0.228 NA
BRANCH  21  26
ATOM     26  C27 A2I d   1     -14.702  -3.276 -19.436  0.00  0.00    -0.035 C 
ATOM     27  H19 A2I d   1     -15.575  -3.945 -19.458  0.00  0.00     0.035 H 
ATOM     28  H20 A2I d   1     -14.014  -3.543 -20.252  0.00  0.00     0.035 H 
ATOM     29  H21 A2I d   1     -15.035  -2.235 -19.562  0.00  0.00     0.035 H 
ENDBRANCH  21  26
BRANCH  23  30
ATOM     30  C26 A2I d   1     -10.970  -2.085 -16.206  0.00  0.00    -0.035 C 
ATOM     31  H16 A2I d   1     -10.630  -2.357 -15.196  0.00  0.00     0.035 H 
ATOM     32  H17 A2I d   1     -11.193  -1.008 -16.240  0.00  0.00     0.035 H 
ATOM     33  H18 A2I d   1     -10.180  -2.319 -16.934  0.00  0.00     0.035 H 
ENDBRANCH  23  30
ENDBRANCH  18  19
ENDBRANCH  15  18
ENDBRANCH  12  15
ENDBRANCH   6  11
BRANCH   3  34
ATOM     34  C8  A2I d   1     -16.980 -10.997 -19.807  0.00  0.00     0.050 C 
ATOM     35  H10 A2I d   1     -16.318 -11.429 -19.042  0.00  0.00     0.082 H 
ATOM     36  H11 A2I d   1     -18.029 -11.155 -19.516  0.00  0.00     0.082 H 
BRANCH  34  37
ATOM     37  O7  A2I d   1     -16.735 -11.611 -21.047  0.00  0.00    -0.347 OA
BRANCH  37  38
ATOM     38  C4  A2I d   1     -15.429 -12.032 -21.347  0.00  0.00     0.069 A 
ATOM     39  C3  A2I d   1     -15.090 -12.214 -22.682  0.00  0.00    -0.051 A 
ATOM     40  C2  A2I d   1     -13.819 -12.631 -23.030  0.00  0.00    -0.080 A 
ATOM     41  H7  A2I d   1     -15.827 -12.028 -23.455  0.00  0.00     0.087 H 
ATOM     42  C1  A2I d   1     -12.878 -12.872 -22.044  0.00  0.00    -0.083 A 
ATOM     43  H6  A2I d   1     -13.560 -12.769 -24.073  0.00  0.00     0.083 H 
ATOM     44  C6  A2I d   1     -13.209 -12.695 -20.710  0.00  0.00    -0.080 A 
ATOM     45  H5  A2I d   1     -11.881 -13.200 -22.316  0.00  0.00     0.083 H 
ATOM     46  C5  A2I d   1     -14.482 -12.274 -20.360  0.00  0.00    -0.051 A 
ATOM     47  H9  A2I d   1     -12.471 -12.886 -19.939  0.00  0.00     0.083 H 
ATOM     48  H8  A2I d   1     -14.739 -12.134 -19.316  0.00  0.00     0.087 H 
ENDBRANCH  37  38
ENDBRANCH  34  37
ENDBRANCH   3  34
TORSDOF 9
