REMARK  12 active torsions:
REMARK  status: ('A' for Active; 'I' for Inactive)
REMARK    1  A    between atoms: N01_1  and  C02_2 
REMARK       I    between atoms: N01_1  and  C25_25 
REMARK    2  A    between atoms: C04_4  and  C08_8 
REMARK    3  A    between atoms: C08_8  and  O09_9 
REMARK    4  A    between atoms: O09_9  and  C10_10 
REMARK    5  A    between atoms: C14_14  and  N16_16 
REMARK       I    between atoms: N16_16  and  C17_17 
REMARK    6  A    between atoms: C17_17  and  C19_19 
REMARK    7  A    between atoms: N22_22  and  C24_24 
REMARK    8  A    between atoms: C25_25  and  C27_27 
REMARK    9  A    between atoms: C27_27  and  S28_28 
REMARK   10  A    between atoms: S28_28  and  C29_29 
REMARK   11  A    between atoms: C31_31  and  C36_36 
REMARK   12  A    between atoms: C33_33  and  C35_35 
ROOT
ATOM      1  C02 L55 d   1     -16.292  -7.734 -18.669  0.00  0.00     0.035 A 
ATOM      2  C03 L55 d   1     -16.094  -9.047 -18.280  0.00  0.00    -0.049 A 
ATOM      3  C04 L55 d   1     -16.196 -10.082 -19.189  0.00  0.00    -0.032 A 
ATOM      4  C05 L55 d   1     -16.502  -9.808 -20.510  0.00  0.00    -0.075 A 
ATOM      5  C06 L55 d   1     -16.691  -8.482 -20.915  0.00  0.00    -0.080 A 
ATOM      6  C07 L55 d   1     -16.582  -7.442 -19.988  0.00  0.00    -0.057 A 
ATOM      7  H2  L55 d   1     -15.855  -9.267 -17.246  0.00  0.00     0.087 H 
ATOM      8  H3  L55 d   1     -16.595 -10.616 -21.227  0.00  0.00     0.084 H 
ATOM      9  H4  L55 d   1     -16.923  -8.261 -21.951  0.00  0.00     0.083 H 
ATOM     10  H5  L55 d   1     -16.724  -6.414 -20.301  0.00  0.00     0.086 H 
ENDROOT
BRANCH   3  11
ATOM     11  C08 L55 d   1     -15.966 -11.493 -18.613  0.00  0.00     0.050 C 
ATOM     12  H6  L55 d   1     -16.634 -11.637 -17.751  0.00  0.00     0.082 H 
ATOM     13  H7  L55 d   1     -14.920 -11.575 -18.284  0.00  0.00     0.082 H 
BRANCH  11  14
ATOM     14  O09 L55 d   1     -16.223 -12.498 -19.556  0.00  0.00    -0.347 OA
BRANCH  14  15
ATOM     15  C10 L55 d   1     -15.046 -12.961 -20.182  0.00  0.00     0.071 A 
ATOM     16  C11 L55 d   1     -14.542 -12.219 -21.237  0.00  0.00    -0.051 A 
ATOM     17  C12 L55 d   1     -13.394 -12.628 -21.884  0.00  0.00    -0.078 A 
ATOM     18  H8  L55 d   1     -15.050 -11.316 -21.555  0.00  0.00     0.087 H 
ATOM     19  C13 L55 d   1     -12.755 -13.776 -21.457  0.00  0.00    -0.057 A 
ATOM     20  H9  L55 d   1     -12.999 -12.056 -22.716  0.00  0.00     0.083 H 
ATOM     21  C14 L55 d   1     -13.229 -14.523 -20.394  0.00  0.00     0.037 A 
ATOM     22  H10 L55 d   1     -11.857 -14.101 -21.970  0.00  0.00     0.086 H 
ATOM     23  C15 L55 d   1     -14.398 -14.121 -19.746  0.00  0.00    -0.025 A 
ATOM     24  H11 L55 d   1     -14.797 -14.698 -18.919  0.00  0.00     0.091 H 
BRANCH  21  25
ATOM     25  N16 L55 d   1     -12.455 -15.723 -20.063  0.00  0.00    -0.323 N 
ATOM     26  C17 L55 d   1     -12.073 -16.202 -18.737  0.00  0.00     0.259 C 
ATOM     27  O18 L55 d   1     -12.374 -15.655 -17.725  0.00  0.00    -0.267 OA
ATOM     28  H12 L55 d   1     -12.153 -16.280 -20.837  0.00  0.00     0.169 HD
BRANCH  26  29
ATOM     29  C19 L55 d   1     -11.243 -17.495 -18.755  0.00  0.00     0.068 A 
ATOM     30  C20 L55 d   1     -10.522 -17.920 -19.862  0.00  0.00     0.038 A 
ATOM     31  N21 L55 d   1      -9.932 -19.059 -19.559  0.00  0.00    -0.185 NA
ATOM     32  H13 L55 d   1     -10.455 -17.401 -20.817  0.00  0.00     0.119 H 
ATOM     33  N22 L55 d   1     -10.251 -19.397 -18.276  0.00  0.00    -0.285 N 
ATOM     34  C23 L55 d   1     -11.049 -18.460 -17.770  0.00  0.00     0.015 A 
ATOM     35  H14 L55 d   1     -11.473 -18.450 -16.767  0.00  0.00     0.115 H 
BRANCH  33  36
ATOM     36  C24 L55 d   1      -9.769 -20.604 -17.605  0.00  0.00     0.002 C 
ATOM     37  H15 L55 d   1     -10.171 -20.640 -16.582  0.00  0.00     0.059 H 
ATOM     38  H16 L55 d   1      -8.670 -20.588 -17.567  0.00  0.00     0.059 H 
ATOM     39  H17 L55 d   1     -10.104 -21.492 -18.162  0.00  0.00     0.059 H 
ENDBRANCH  33  36
ENDBRANCH  26  29
ENDBRANCH  21  25
ENDBRANCH  14  15
ENDBRANCH  11  14
ENDBRANCH   3  11
BRANCH   1  40
ATOM     40  N01 L55 d   1     -16.158  -6.698 -17.646  0.00  0.00    -0.327 N 
ATOM     41  C25 L55 d   1     -16.687  -6.903 -16.288  0.00  0.00     0.231 C 
ATOM     42  O26 L55 d   1     -17.248  -7.906 -16.000  0.00  0.00    -0.272 OA
ATOM     43  H1  L55 d   1     -15.700  -5.838 -17.872  0.00  0.00     0.169 HD
BRANCH  41  44
ATOM     44  C27 L55 d   1     -16.517  -5.807 -15.218  0.00  0.00     0.058 C 
ATOM     45  H18 L55 d   1     -17.072  -6.088 -14.311  0.00  0.00     0.064 H 
ATOM     46  H19 L55 d   1     -16.904  -4.852 -15.604  0.00  0.00     0.064 H 
BRANCH  44  47
ATOM     47  S28 L55 d   1     -14.741  -5.633 -14.820  0.00  0.00    -0.081 SA
BRANCH  47  48
ATOM     48  C29 L55 d   1     -14.064  -4.430 -16.007  0.00  0.00     0.189 A 
ATOM     49  N30 L55 d   1     -12.959  -3.782 -15.717  0.00  0.00    -0.228 NA
ATOM     50  C31 L55 d   1     -12.455  -2.902 -16.565  0.00  0.00     0.035 A 
ATOM     51  C32 L55 d   1     -13.110  -2.673 -17.764  0.00  0.00    -0.036 A 
ATOM     52  C33 L55 d   1     -14.270  -3.367 -18.040  0.00  0.00     0.035 A 
ATOM     53  H20 L55 d   1     -12.716  -1.957 -18.477  0.00  0.00     0.089 H 
ATOM     54  N34 L55 d   1     -14.712  -4.223 -17.136  0.00  0.00    -0.228 NA
BRANCH  50  55
ATOM     55  C36 L55 d   1     -11.167  -2.156 -16.240  0.00  0.00    -0.035 C 
ATOM     56  H24 L55 d   1     -10.919  -1.475 -17.068  0.00  0.00     0.035 H 
ATOM     57  H25 L55 d   1     -10.349  -2.879 -16.102  0.00  0.00     0.035 H 
ATOM     58  H26 L55 d   1     -11.303  -1.575 -15.316  0.00  0.00     0.035 H 
ENDBRANCH  50  55
BRANCH  52  59
ATOM     59  C35 L55 d   1     -15.028  -3.158 -19.345  0.00  0.00    -0.035 C 
ATOM     60  H21 L55 d   1     -15.917  -3.805 -19.360  0.00  0.00     0.035 H 
ATOM     61  H22 L55 d   1     -14.375  -3.412 -20.193  0.00  0.00     0.035 H 
ATOM     62  H23 L55 d   1     -15.339  -2.106 -19.424  0.00  0.00     0.035 H 
ENDBRANCH  52  59
ENDBRANCH  47  48
ENDBRANCH  44  47
ENDBRANCH  41  44
ENDBRANCH   1  40
TORSDOF 12
