REMARK  12 active torsions:
REMARK  status: ('A' for Active; 'I' for Inactive)
REMARK    1  A    between atoms: C13_2  and  N16_19 
REMARK    2  A    between atoms: C17_5  and  C19_6 
REMARK       I    between atoms: N16_19  and  C17_5 
REMARK    3  A    between atoms: C02_9  and  N01_8 
REMARK       I    between atoms: N01_8  and  C25_25 
REMARK    4  A    between atoms: C08_15  and  C04_11 
REMARK    5  A    between atoms: O09_16  and  C08_15 
REMARK    6  A    between atoms: O09_16  and  C10_17 
REMARK    7  A    between atoms: N22_22  and  C24_24 
REMARK    8  A    between atoms: C25_25  and  C27_27 
REMARK    9  A    between atoms: C27_27  and  S28_28 
REMARK   10  A    between atoms: S28_28  and  C29_29 
REMARK   11  A    between atoms: C31_31  and  C36_36 
REMARK   12  A    between atoms: C33_33  and  C35_35 
ROOT
ATOM      1  C02 L5C d   1     -16.274  -7.178 -18.767  0.00  0.00     0.035 A 
ATOM      2  C03 L5C d   1     -15.991  -8.529 -18.665  0.00  0.00    -0.049 A 
ATOM      3  C04 L5C d   1     -15.923  -9.290 -19.822  0.00  0.00    -0.032 A 
ATOM      4  C05 L5C d   1     -16.120  -8.716 -21.060  0.00  0.00    -0.075 A 
ATOM      5  C06 L5C d   1     -16.391  -7.362 -21.159  0.00  0.00    -0.080 A 
ATOM      6  C07 L5C d   1     -16.460  -6.597 -20.008  0.00  0.00    -0.057 A 
ATOM      7  H6  L5C d   1     -15.825  -8.985 -17.696  0.00  0.00     0.087 H 
ATOM      8  H7  L5C d   1     -16.063  -9.325 -21.955  0.00  0.00     0.084 H 
ATOM      9  H8  L5C d   1     -16.548  -6.905 -22.130  0.00  0.00     0.083 H 
ATOM     10  H9  L5C d   1     -16.661  -5.534 -20.080  0.00  0.00     0.086 H 
ENDROOT
BRANCH   3  11
ATOM     11  C08 L5C d   1     -15.625 -10.780 -19.730  0.00  0.00     0.050 C 
ATOM     12  H10 L5C d   1     -15.532 -11.219 -20.734  0.00  0.00     0.082 H 
ATOM     13  H11 L5C d   1     -16.419 -11.300 -19.174  0.00  0.00     0.082 H 
BRANCH  11  14
ATOM     14  O09 L5C d   1     -14.394 -10.860 -19.034  0.00  0.00    -0.347 OA
BRANCH  14  15
ATOM     15  C10 L5C d   1     -13.682 -12.069 -19.123  0.00  0.00     0.069 A 
ATOM     16  C11 L5C d   1     -14.133 -13.125 -19.896  0.00  0.00    -0.049 A 
ATOM     17  C12 L5C d   1     -13.393 -14.297 -19.958  0.00  0.00    -0.054 A 
ATOM     18  H1  L5C d   1     -15.060 -13.037 -20.451  0.00  0.00     0.087 H 
ATOM     19  C13 L5C d   1     -12.216 -14.408 -19.236  0.00  0.00     0.035 A 
ATOM     20  H12 L5C d   1     -13.735 -15.124 -20.570  0.00  0.00     0.087 H 
ATOM     21  C14 L5C d   1     -11.752 -13.355 -18.470  0.00  0.00    -0.054 A 
ATOM     22  C15 L5C d   1     -12.488 -12.185 -18.409  0.00  0.00    -0.049 A 
ATOM     23  H2  L5C d   1     -10.821 -13.445 -17.922  0.00  0.00     0.087 H 
ATOM     24  H3  L5C d   1     -12.137 -11.356 -17.805  0.00  0.00     0.087 H 
BRANCH  19  25
ATOM     25  N16 L5C d   1     -11.475 -15.647 -19.348  0.00  0.00    -0.323 N 
ATOM     26  C17 L5C d   1     -11.691 -16.752 -18.446  0.00  0.00     0.259 C 
ATOM     27  O18 L5C d   1     -12.473 -16.708 -17.555  0.00  0.00    -0.267 OA
ATOM     28  H13 L5C d   1     -10.793 -15.740 -20.073  0.00  0.00     0.169 HD
BRANCH  26  29
ATOM     29  C19 L5C d   1     -10.851 -17.989 -18.732  0.00  0.00     0.068 A 
ATOM     30  C20 L5C d   1     -10.197 -18.225 -19.930  0.00  0.00     0.038 A 
ATOM     31  N21 L5C d   1      -9.581 -19.385 -19.827  0.00  0.00    -0.185 NA
ATOM     32  H4  L5C d   1     -10.193 -17.570 -20.800  0.00  0.00     0.119 H 
ATOM     33  N22 L5C d   1      -9.825 -19.905 -18.593  0.00  0.00    -0.285 N 
ATOM     34  C23 L5C d   1     -10.600 -19.071 -17.915  0.00  0.00     0.015 A 
ATOM     35  H14 L5C d   1     -10.970 -19.214 -16.901  0.00  0.00     0.115 H 
BRANCH  33  36
ATOM     36  C24 L5C d   1      -9.308 -21.176 -18.112  0.00  0.00     0.002 C 
ATOM     37  H15 L5C d   1      -9.660 -21.350 -17.084  0.00  0.00     0.059 H 
ATOM     38  H16 L5C d   1      -8.208 -21.153 -18.124  0.00  0.00     0.059 H 
ATOM     39  H17 L5C d   1      -9.665 -21.987 -18.764  0.00  0.00     0.059 H 
ENDBRANCH  33  36
ENDBRANCH  26  29
ENDBRANCH  19  25
ENDBRANCH  14  15
ENDBRANCH  11  14
ENDBRANCH   3  11
BRANCH   1  40
ATOM     40  N01 L5C d   1     -16.338  -6.296 -17.613  0.00  0.00    -0.327 N 
ATOM     41  C25 L5C d   1     -16.662  -6.709 -16.262  0.00  0.00     0.231 C 
ATOM     42  O26 L5C d   1     -16.925  -7.827 -15.986  0.00  0.00    -0.272 OA
ATOM     43  H5  L5C d   1     -16.143  -5.327 -17.763  0.00  0.00     0.169 HD
BRANCH  41  44
ATOM     44  C27 L5C d   1     -16.659  -5.609 -15.198  0.00  0.00     0.058 C 
ATOM     45  H18 L5C d   1     -17.232  -5.950 -14.323  0.00  0.00     0.064 H 
ATOM     46  H19 L5C d   1     -17.126  -4.703 -15.612  0.00  0.00     0.064 H 
BRANCH  44  47
ATOM     47  S28 L5C d   1     -14.944  -5.222 -14.682  0.00  0.00    -0.081 SA
BRANCH  47  48
ATOM     48  C29 L5C d   1     -14.089  -4.172 -15.905  0.00  0.00     0.189 A 
ATOM     49  N30 L5C d   1     -12.941  -3.601 -15.584  0.00  0.00    -0.228 NA
ATOM     50  C31 L5C d   1     -12.302  -2.829 -16.449  0.00  0.00     0.035 A 
ATOM     51  C32 L5C d   1     -12.862  -2.634 -17.710  0.00  0.00    -0.036 A 
ATOM     52  C33 L5C d   1     -14.065  -3.239 -18.009  0.00  0.00     0.035 A 
ATOM     53  H20 L5C d   1     -12.360  -2.016 -18.445  0.00  0.00     0.089 H 
ATOM     54  N34 L5C d   1     -14.640  -3.996 -17.089  0.00  0.00    -0.228 NA
BRANCH  50  55
ATOM     55  C36 L5C d   1     -10.978  -2.173 -16.090  0.00  0.00    -0.035 C 
ATOM     56  H24 L5C d   1     -10.620  -1.579 -16.944  0.00  0.00     0.035 H 
ATOM     57  H25 L5C d   1     -10.238  -2.950 -15.848  0.00  0.00     0.035 H 
ATOM     58  H26 L5C d   1     -11.118  -1.516 -15.219  0.00  0.00     0.035 H 
ENDBRANCH  50  55
BRANCH  52  59
ATOM     59  C35 L5C d   1     -14.704  -3.049 -19.385  0.00  0.00    -0.035 C 
ATOM     60  H21 L5C d   1     -15.652  -3.606 -19.429  0.00  0.00     0.035 H 
ATOM     61  H22 L5C d   1     -14.021  -3.425 -20.161  0.00  0.00     0.035 H 
ATOM     62  H23 L5C d   1     -14.899  -1.980 -19.554  0.00  0.00     0.035 H 
ENDBRANCH  52  59
ENDBRANCH  47  48
ENDBRANCH  44  47
ENDBRANCH  41  44
ENDBRANCH   1  40
TORSDOF 12
