REMARK  11 active torsions:
REMARK  status: ('A' for Active; 'I' for Inactive)
REMARK    1  A    between atoms: C3_3  and  O31_18 
REMARK    2  A    between atoms: C2_4  and  C21_9 
REMARK    3  A    between atoms: C2_4  and  O1_21 
REMARK    4  A    between atoms: C1_5  and  O11_7 
REMARK    5  A    between atoms: C1_5  and  C11_8 
REMARK    6  A    between atoms: C21_9  and  C2A_14 
REMARK    7  A    between atoms: C22_10  and  C23_11 
REMARK    8  A    between atoms: C23_11  and  C24_12 
REMARK    9  A    between atoms: C25_13  and  C2B_16 
REMARK   10  A    between atoms: C25_13  and  C2C_17 
REMARK   11  A    between atoms: O31_18  and  C31_19 
ROOT
ATOM      1  C5  OVA d   1       5.672   1.811  12.428  0.00  0.00    -0.004 C 
ATOM      2  C4  OVA d   1       5.684   2.365  13.865  0.00  0.00     0.159 C 
ATOM      3  C3  OVA d   1       4.421   2.897  14.400  0.00  0.00     0.130 C 
ATOM      4  C2  OVA d   1       4.046   4.087  13.520  0.00  0.00     0.154 C 
ATOM      5  C1  OVA d   1       3.880   3.594  12.028  0.00  0.00     0.091 C 
ATOM      6  C6  OVA d   1       5.209   2.942  11.538  0.00  0.00    -0.027 C 
ATOM      7  O41 OVA d   1       6.710   2.383  14.475  0.00  0.00    -0.295 OA
ATOM      8  H1  OVA d   1       4.978   0.960  12.354  0.00  0.00     0.044 H 
ATOM      9  H2  OVA d   1       6.682   1.487  12.137  0.00  0.00     0.044 H 
ATOM     10  H3  OVA d   1       3.650   2.114  14.356  0.00  0.00     0.100 H 
ATOM     11  H4  OVA d   1       5.053   2.549  10.523  0.00  0.00     0.038 H 
ATOM     12  H5  OVA d   1       5.992   3.715  11.516  0.00  0.00     0.038 H 
ENDROOT
BRANCH   4  13
ATOM     13  C21 OVA d   1       2.878   4.825  14.157  0.00  0.00     0.121 A 
ATOM     14  C22 OVA d   1       2.706   6.236  13.631  0.00  0.00     0.075 A 
ATOM     15  O2A OVA d   1       3.116   5.961  15.043  0.00  0.00    -0.366 OA
ATOM     16  H10 OVA d   1       3.391   6.619  12.860  0.00  0.00     0.088 H 
BRANCH  14  17
ATOM     17  C23 OVA d   1       1.340   6.959  13.572  0.00  0.00    -0.022 C 
ATOM     18  H11 OVA d   1       1.507   8.030  13.385  0.00  0.00     0.042 H 
ATOM     19  H12 OVA d   1       0.823   6.832  14.535  0.00  0.00     0.042 H 
BRANCH  17  20
ATOM     20  C24 OVA d   1       0.461   6.383  12.449  0.00  0.00    -0.099 C 
ATOM     21  C25 OVA d   1       0.080   7.011  11.335  0.00  0.00    -0.091 C 
ATOM     22  H13 OVA d   1       0.114   5.359  12.576  0.00  0.00     0.077 H 
BRANCH  21  23
ATOM     23  C2B OVA d   1       0.476   8.367  10.957  0.00  0.00    -0.055 C 
ATOM     24  H17 OVA d   1       0.016   8.628   9.992  0.00  0.00     0.033 H 
ATOM     25  H18 OVA d   1       1.571   8.417  10.867  0.00  0.00     0.033 H 
ATOM     26  H19 OVA d   1       0.139   9.076  11.728  0.00  0.00     0.033 H 
ENDBRANCH  21  23
BRANCH  21  27
ATOM     27  C2C OVA d   1      -0.727   6.246  10.298  0.00  0.00    -0.055 C 
ATOM     28  H20 OVA d   1      -0.968   5.245  10.686  0.00  0.00     0.033 H 
ATOM     29  H21 OVA d   1      -0.138   6.149   9.374  0.00  0.00     0.033 H 
ATOM     30  H22 OVA d   1      -1.659   6.790  10.084  0.00  0.00     0.033 H 
ENDBRANCH  21  27
ENDBRANCH  17  20
ENDBRANCH  14  17
BRANCH  13  31
ATOM     31  C2A OVA d   1       1.632   4.034  14.543  0.00  0.00    -0.042 C 
ATOM     32  H14 OVA d   1       1.927   3.037  14.903  0.00  0.00     0.031 H 
ATOM     33  H15 OVA d   1       0.978   3.928  13.665  0.00  0.00     0.031 H 
ATOM     34  H16 OVA d   1       1.092   4.566  15.340  0.00  0.00     0.031 H 
ENDBRANCH  13  31
ENDBRANCH   4  13
BRANCH   4  35
ATOM     35  O1  OVA d   1       5.198   4.927  13.568  0.00  0.00    -0.380 OA
ATOM     36  H26 OVA d   1       5.324   5.240  14.456  0.00  0.00     0.211 HD
ENDBRANCH   4  35
BRANCH   3  37
ATOM     37  O31 OVA d   1       4.503   3.414  15.746  0.00  0.00    -0.380 OA
BRANCH  37  38
ATOM     38  C31 OVA d   1       4.494   2.255  16.594  0.00  0.00     0.005 C 
ATOM     39  H23 OVA d   1       4.554   2.570  17.646  0.00  0.00     0.066 H 
ATOM     40  H24 OVA d   1       5.357   1.617  16.352  0.00  0.00     0.066 H 
ATOM     41  H25 OVA d   1       3.564   1.690  16.433  0.00  0.00     0.066 H 
ENDBRANCH  37  38
ENDBRANCH   3  37
BRANCH   5  42
ATOM     42  O11 OVA d   1       2.765   2.685  12.075  0.00  0.00    -0.387 OA
ATOM     43  H6  OVA d   1       2.604   2.338  11.206  0.00  0.00     0.210 HD
ENDBRANCH   5  42
BRANCH   5  44
ATOM     44  C11 OVA d   1       3.393   4.666  11.046  0.00  0.00    -0.045 C 
ATOM     45  H7  OVA d   1       2.456   5.106  11.419  0.00  0.00     0.031 H 
ATOM     46  H8  OVA d   1       3.217   4.208  10.061  0.00  0.00     0.031 H 
ATOM     47  H9  OVA d   1       4.156   5.453  10.954  0.00  0.00     0.031 H 
ENDBRANCH   5  44
TORSDOF 11
