REMARK  13 active torsions:
REMARK  status: ('A' for Active; 'I' for Inactive)
REMARK    1  A    between atoms: N07_32  and  C10_1 
REMARK    2  A    between atoms: C13_2  and  C16_19 
REMARK    3  A    between atoms: C16_19  and  C17_4 
REMARK    4  A    between atoms: C20_5  and  O21_33 
REMARK    5  A    between atoms: C16_19  and  C24_7 
REMARK    6  A    between atoms: C24_7  and  C25_23 
REMARK    7  A    between atoms: C24_7  and  C29_25 
REMARK    8  A    between atoms: C25_23  and  C26_8 
REMARK    9  A    between atoms: C26_8  and  C27_24 
REMARK   10  A    between atoms: C02_10  and  C01_9 
REMARK   11  A    between atoms: C02_10  and  C03_11 
REMARK   12  A    between atoms: N04_31  and  C02_10 
REMARK   13  A    between atoms: C27_24  and  O28_34 
ROOT
ATOM      1  C16 MOL d   1      71.590  -0.140 148.720  0.00  0.00     0.004 C 
ATOM      2  H24 MOL d   1      70.657   0.267 149.137  0.00  0.00     0.056 H 
ENDROOT
BRANCH   1   3
ATOM      3  C13 MOL d   1      72.275  -0.835 149.943  0.00  0.00    -0.049 A 
ATOM      4  C12 MOL d   1      72.374  -0.019 151.232  0.00  0.00    -0.074 A 
ATOM      5  C11 MOL d   1      72.946  -0.538 152.322  0.00  0.00    -0.057 A 
ATOM      6  H22 MOL d   1      71.977   0.989 151.262  0.00  0.00     0.084 H 
ATOM      7  C10 MOL d   1      73.549  -1.961 152.286  0.00  0.00     0.030 A 
ATOM      8  H21 MOL d   1      72.987   0.042 153.237  0.00  0.00     0.086 H 
ATOM      9  C15 MOL d   1      73.486  -2.674 151.171  0.00  0.00    -0.057 A 
ATOM     10  C14 MOL d   1      72.793  -2.090 149.903  0.00  0.00    -0.074 A 
ATOM     11  H1  MOL d   1      73.918  -3.668 151.141  0.00  0.00     0.086 H 
ATOM     12  H23 MOL d   1      72.725  -2.681 148.997  0.00  0.00     0.084 H 
BRANCH   7  13
ATOM     13  N07 MOL d   1      74.208  -2.517 153.505  0.00  0.00    -0.378 N 
ATOM     14  C06 MOL d   1      74.658  -3.904 153.524  0.00  0.00     0.018 C 
ATOM     15  C05 MOL d   1      75.722  -4.117 154.607  0.00  0.00     0.098 C 
ATOM     16  H15 MOL d   1      73.799  -4.559 153.729  0.00  0.00     0.066 H 
ATOM     17  H16 MOL d   1      75.086  -4.157 152.543  0.00  0.00     0.066 H 
ATOM     18  N04 MOL d   1      75.199  -3.691 155.757  0.00  0.00    -0.065 N 
ATOM     19  H13 MOL d   1      76.627  -3.539 154.367  0.00  0.00     0.078 H 
ATOM     20  H14 MOL d   1      75.978  -5.184 154.681  0.00  0.00     0.078 H 
ATOM     21  C09 MOL d   1      75.133  -2.386 155.869  0.00  0.00     0.098 C 
ATOM     22  H37 MOL d   1      74.231  -3.959 155.677  0.00  0.00     0.280 HD
ATOM     23  C08 MOL d   1      74.431  -1.672 154.668  0.00  0.00     0.018 C 
ATOM     24  H19 MOL d   1      74.575  -2.147 156.786  0.00  0.00     0.078 H 
ATOM     25  H20 MOL d   1      76.158  -1.995 155.951  0.00  0.00     0.078 H 
ATOM     26  H17 MOL d   1      75.059  -0.823 154.359  0.00  0.00     0.066 H 
ATOM     27  H18 MOL d   1      73.455  -1.300 155.013  0.00  0.00     0.066 H 
BRANCH  18  28
ATOM     28  C02 MOL d   1      75.598  -4.353 156.860  0.00  0.00     0.097 C 
ATOM     29  H9  MOL d   1      74.787  -4.272 157.599  0.00  0.00     0.083 H 
BRANCH  28  30
ATOM     30  C01 MOL d   1      76.846  -3.810 157.483  0.00  0.00    -0.050 C 
ATOM     31  H6  MOL d   1      77.100  -4.405 158.373  0.00  0.00     0.030 H 
ATOM     32  H7  MOL d   1      76.684  -2.762 157.776  0.00  0.00     0.030 H 
ATOM     33  H8  MOL d   1      77.671  -3.864 156.758  0.00  0.00     0.030 H 
ENDBRANCH  28  30
BRANCH  28  34
ATOM     34  C03 MOL d   1      75.848  -5.869 156.559  0.00  0.00    -0.050 C 
ATOM     35  H10 MOL d   1      74.949  -6.304 156.099  0.00  0.00     0.030 H 
ATOM     36  H11 MOL d   1      76.072  -6.397 157.498  0.00  0.00     0.030 H 
ATOM     37  H12 MOL d   1      76.699  -5.971 155.869  0.00  0.00     0.030 H 
ENDBRANCH  28  34
ENDBRANCH  18  28
ENDBRANCH   7  13
ENDBRANCH   1   3
BRANCH   1  38
ATOM     38  C17 MOL d   1      72.434   1.142 148.324  0.00  0.00    -0.049 A 
ATOM     39  C18 MOL d   1      71.808   2.285 148.060  0.00  0.00    -0.074 A 
ATOM     40  C19 MOL d   1      72.597   3.555 147.717  0.00  0.00    -0.051 A 
ATOM     41  H25 MOL d   1      70.725   2.320 148.088  0.00  0.00     0.084 H 
ATOM     42  C20 MOL d   1      73.928   3.502 147.685  0.00  0.00     0.065 A 
ATOM     43  H26 MOL d   1      72.079   4.483 147.504  0.00  0.00     0.087 H 
ATOM     44  C22 MOL d   1      74.668   2.193 147.997  0.00  0.00    -0.051 A 
ATOM     45  C23 MOL d   1      73.970   1.089 148.298  0.00  0.00    -0.074 A 
ATOM     46  H2  MOL d   1      75.751   2.162 147.974  0.00  0.00     0.087 H 
ATOM     47  H27 MOL d   1      74.487   0.163 148.522  0.00  0.00     0.084 H 
BRANCH  42  48
ATOM     48  O21 MOL d   1      74.637   4.675 147.363  0.00  0.00    -0.361 OA
ATOM     49  H38 MOL d   1      75.570   4.494 147.377  0.00  0.00     0.217 HD
ENDBRANCH  42  48
ENDBRANCH   1  38
BRANCH   1  50
ATOM     50  C24 MOL d   1      71.070  -1.031 147.534  0.00  0.00    -0.017 C 
ATOM     51  H3  MOL d   1      71.970  -1.538 147.155  0.00  0.00     0.049 H 
BRANCH  50  52
ATOM     52  C25 MOL d   1      70.536  -0.244 146.310  0.00  0.00    -0.055 C 
ATOM     53  H28 MOL d   1      70.374  -0.940 145.473  0.00  0.00     0.034 H 
ATOM     54  H29 MOL d   1      71.275   0.517 146.017  0.00  0.00     0.034 H 
BRANCH  52  55
ATOM     55  C26 MOL d   1      69.222   0.439 146.657  0.00  0.00    -0.045 C 
ATOM     56  H4  MOL d   1      69.403   1.478 146.969  0.00  0.00     0.036 H 
ATOM     57  H5  MOL d   1      68.713  -0.103 147.467  0.00  0.00     0.036 H 
BRANCH  55  58
ATOM     58  C27 MOL d   1      68.379   0.408 145.390  0.00  0.00     0.017 C 
ATOM     59  H30 MOL d   1      67.370   0.789 145.604  0.00  0.00     0.073 H 
ATOM     60  H31 MOL d   1      68.309  -0.623 145.014  0.00  0.00     0.073 H 
BRANCH  58  61
ATOM     61  O28 MOL d   1      68.996   1.215 144.441  0.00  0.00    -0.401 OA
ATOM     62  H39 MOL d   1      68.484   1.209 143.641  0.00  0.00     0.209 HD
ENDBRANCH  58  61
ENDBRANCH  55  58
ENDBRANCH  52  55
ENDBRANCH  50  52
BRANCH  50  63
ATOM     63  C29 MOL d   1      70.150  -2.177 148.013  0.00  0.00    -0.053 A 
ATOM     64  C30 MOL d   1      70.304  -3.385 147.499  0.00  0.00    -0.076 A 
ATOM     65  C31 MOL d   1      69.404  -4.531 147.985  0.00  0.00    -0.082 A 
ATOM     66  H32 MOL d   1      71.058  -3.565 146.742  0.00  0.00     0.084 H 
ATOM     67  C32 MOL d   1      68.481  -4.306 148.914  0.00  0.00    -0.083 A 
ATOM     68  H33 MOL d   1      69.522  -5.525 147.569  0.00  0.00     0.083 H 
ATOM     69  C33 MOL d   1      68.300  -2.899 149.479  0.00  0.00    -0.082 A 
ATOM     70  H34 MOL d   1      67.858  -5.119 149.270  0.00  0.00     0.083 H 
ATOM     71  C34 MOL d   1      69.090  -1.910 149.086  0.00  0.00    -0.076 A 
ATOM     72  H35 MOL d   1      67.520  -2.708 150.207  0.00  0.00     0.083 H 
ATOM     73  H36 MOL d   1      68.987  -0.922 149.520  0.00  0.00     0.084 H 
ENDBRANCH  50  63
ENDBRANCH   1  50
TORSDOF 13
