REMARK  8 active torsions:
REMARK  status: ('A' for Active; 'I' for Inactive)
REMARK    1  A    between atoms: C1_1  and  O1_2 
REMARK    2  A    between atoms: C2_3  and  O2_4 
REMARK    3  A    between atoms: C6_9  and  O3_6 
REMARK    4  A    between atoms: C6_9  and  C5_8 
REMARK    5  A    between atoms: C7_10  and  C6_9 
REMARK    6  A    between atoms: N1_23  and  C7_10 
REMARK    7  A    between atoms: C9_12  and  C8_11 
REMARK    8  A    between atoms: C8_11  and  N1_23 
ROOT
ATOM      1  N1  946 d   1      72.333  76.780 -10.839  0.00  0.00    -0.069 N 
ATOM      2  H19 946 d   1      73.322  76.948 -10.943  0.00  0.00     0.277 HD
ATOM      3  H20 946 d   1      71.884  77.617 -10.500  0.00  0.00     0.277 HD
ENDROOT
BRANCH   1   4
ATOM      4  C7  946 d   1      72.138  75.687  -9.820  0.00  0.00     0.109 C 
ATOM      5  H7  946 d   1      71.271  75.092 -10.143  0.00  0.00     0.080 H 
ATOM      6  H8  946 d   1      73.041  75.060  -9.839  0.00  0.00     0.080 H 
BRANCH   4   7
ATOM      7  C6  946 d   1      71.892  76.092  -8.346  0.00  0.00     0.084 C 
ATOM      8  H6  946 d   1      72.170  77.144  -8.185  0.00  0.00     0.093 H 
BRANCH   7   9
ATOM      9  O3  946 d   1      72.769  75.230  -7.602  0.00  0.00    -0.389 OA
ATOM     10  H4  946 d   1      73.666  75.381  -7.875  0.00  0.00     0.210 HD
ENDBRANCH   7   9
BRANCH   7  11
ATOM     11  C5  946 d   1      70.438  75.911  -7.967  0.00  0.00    -0.025 A 
ATOM     12  C4  946 d   1      69.444  76.840  -8.275  0.00  0.00    -0.072 A 
ATOM     13  C3  946 d   1      68.109  76.630  -7.940  0.00  0.00    -0.048 A 
ATOM     14  H5  946 d   1      69.719  77.753  -8.791  0.00  0.00     0.084 H 
ATOM     15  C2  946 d   1      67.722  75.468  -7.290  0.00  0.00     0.098 A 
ATOM     16  H3  946 d   1      67.367  77.380  -8.189  0.00  0.00     0.087 H 
ATOM     17  C1  946 d   1      68.686  74.530  -6.994  0.00  0.00     0.099 A 
ATOM     18  C18 946 d   1      70.019  74.761  -7.320  0.00  0.00    -0.040 A 
ATOM     19  H17 946 d   1      70.757  74.012  -7.057  0.00  0.00     0.088 H 
BRANCH  15  20
ATOM     20  O2  946 d   1      66.443  75.240  -6.962  0.00  0.00    -0.358 OA
ATOM     21  H2  946 d   1      65.911  75.979  -7.234  0.00  0.00     0.217 HD
ENDBRANCH  15  20
BRANCH  17  22
ATOM     22  O1  946 d   1      68.364  73.413  -6.364  0.00  0.00    -0.358 OA
ATOM     23  H1  946 d   1      67.730  72.930  -6.881  0.00  0.00     0.217 HD
ENDBRANCH  17  22
ENDBRANCH   7  11
ENDBRANCH   4   7
ENDBRANCH   1   4
BRANCH   1  24
ATOM     24  C8  946 d   1      71.774  76.453 -12.160  0.00  0.00     0.105 C 
ATOM     25  H9  946 d   1      71.621  75.364 -12.170  0.00  0.00     0.083 H 
ATOM     26  H10 946 d   1      70.800  76.961 -12.218  0.00  0.00     0.083 H 
BRANCH  24  27
ATOM     27  C9  946 d   1      72.512  76.794 -13.445  0.00  0.00    -0.032 A 
ATOM     28  C17 946 d   1      73.879  76.667 -13.600  0.00  0.00    -0.074 A 
ATOM     29  C16 946 d   1      74.487  77.000 -14.806  0.00  0.00    -0.072 A 
ATOM     30  H16 946 d   1      74.482  76.305 -12.775  0.00  0.00     0.084 H 
ATOM     31  C15 946 d   1      73.748  77.418 -15.901  0.00  0.00    -0.026 A 
ATOM     32  H15 946 d   1      75.565  76.931 -14.891  0.00  0.00     0.084 H 
ATOM     33  C10 946 d   1      72.371  77.537 -15.769  0.00  0.00    -0.025 A 
ATOM     34  C14 946 d   1      74.377  77.730 -17.104  0.00  0.00    -0.072 A 
ATOM     35  C11 946 d   1      71.609  77.967 -16.838  0.00  0.00    -0.072 A 
ATOM     36  C19 946 d   1      71.768  77.209 -14.560  0.00  0.00    -0.065 A 
ATOM     37  C12 946 d   1      72.231  78.260 -18.040  0.00  0.00    -0.082 A 
ATOM     38  H11 946 d   1      70.535  78.074 -16.737  0.00  0.00     0.084 H 
ATOM     39  C13 946 d   1      73.610  78.149 -18.186  0.00  0.00    -0.082 A 
ATOM     40  H12 946 d   1      71.632  78.582 -18.884  0.00  0.00     0.083 H 
ATOM     41  H13 946 d   1      74.082  78.386 -19.133  0.00  0.00     0.083 H 
ATOM     42  H18 946 d   1      70.689  77.276 -14.476  0.00  0.00     0.085 H 
ATOM     43  H14 946 d   1      75.454  77.647 -17.196  0.00  0.00     0.084 H 
ENDBRANCH  24  27
ENDBRANCH   1  24
TORSDOF 8
