REMARK  4 active torsions:
REMARK  status: ('A' for Active; 'I' for Inactive)
REMARK    1  A    between atoms: CAE_1  and  OAA_2 
REMARK    2  A    between atoms: CAE_1  and  CAH_3 
REMARK    3  A    between atoms: CAO_7  and  OAC_8 
REMARK    4  A    between atoms: CAM_9  and  OAB_10 
ROOT
ATOM      1  CAH 5FW d   1     -75.847   5.093  -2.869  0.00  0.00    -0.032 A 
ATOM      2  CAK 5FW d   1     -77.152   5.532  -3.096  0.00  0.00    -0.040 A 
ATOM      3  CAL 5FW d   1     -74.788   5.985  -2.996  0.00  0.00    -0.072 A 
ATOM      4  CAN 5FW d   1     -75.025   7.306  -3.353  0.00  0.00    -0.048 A 
ATOM      5  CAO 5FW d   1     -76.322   7.747  -3.560  0.00  0.00     0.098 A 
ATOM      6  CAM 5FW d   1     -77.400   6.877  -3.434  0.00  0.00     0.099 A 
ATOM      7  H4  5FW d   1     -77.978   4.835  -3.012  0.00  0.00     0.088 H 
ATOM      8  H5  5FW d   1     -73.774   5.648  -2.816  0.00  0.00     0.084 H 
ATOM      9  H6  5FW d   1     -74.194   7.993  -3.470  0.00  0.00     0.087 H 
ENDROOT
BRANCH   1  10
ATOM     10  CAE 5FW d   1     -75.574   3.671  -2.474  0.00  0.00     0.041 C 
ATOM     11  H1  5FW d   1     -74.819   3.666  -1.674  0.00  0.00     0.081 H 
ATOM     12  H2  5FW d   1     -76.507   3.223  -2.101  0.00  0.00     0.081 H 
BRANCH  10  13
ATOM     13  OAA 5FW d   1     -75.088   2.877  -3.573  0.00  0.00    -0.396 OA
ATOM     14  H3  5FW d   1     -74.278   3.251  -3.899  0.00  0.00     0.209 HD
ENDBRANCH  10  13
ENDBRANCH   1  10
BRANCH   6  15
ATOM     15  OAB 5FW d   1     -78.674   7.355  -3.672  0.00  0.00    -0.358 OA
ATOM     16  H8  5FW d   1     -79.302   6.653  -3.549  0.00  0.00     0.217 HD
ENDBRANCH   6  15
BRANCH   5  17
ATOM     17  OAC 5FW d   1     -76.563   9.025  -3.899  0.00  0.00    -0.358 OA
ATOM     18  H7  5FW d   1     -76.236   9.600  -3.217  0.00  0.00     0.217 HD
ENDBRANCH   5  17
TORSDOF 4
