REMARK  7 active torsions:
REMARK  status: ('A' for Active; 'I' for Inactive)
REMARK    1  A    between atoms: C6_6  and  NAB_8 
REMARK    2  A    between atoms: CAD_10  and  CAA_7 
REMARK    3  A    between atoms: CAW_26  and  CAD_10 
REMARK    4  A    between atoms: OAV_25  and  CAY_27 
REMARK    5  A    between atoms: CAZ_28  and  OAV_25 
REMARK       I    between atoms: NBG_33  and  CAW_26 
REMARK    6  A    between atoms: CBB_30  and  CBA_29 
REMARK    7  A    between atoms: CBE_31  and  NBF_32 
ROOT
ATOM      1  N1  1E8 d   1       1.082 -25.539  51.452  0.00  0.00    -0.224 NA
ATOM      2  C2  1E8 d   1       0.828 -24.612  50.453  0.00  0.00     0.091 A 
ATOM      3  N3  1E8 d   1      -0.493 -24.299  50.172  0.00  0.00    -0.222 NA
ATOM      4  C4  1E8 d   1      -1.464 -24.871  50.884  0.00  0.00     0.164 A 
ATOM      5  C5  1E8 d   1      -1.198 -25.743  51.845  0.00  0.00     0.088 A 
ATOM      6  C6  1E8 d   1       0.063 -26.075  52.126  0.00  0.00     0.139 A 
ATOM      7  NAU 1E8 d   1      -3.279 -25.362  51.570  0.00  0.00    -0.169 NA
ATOM      8  CBB 1E8 d   1      -2.406 -26.066  52.274  0.00  0.00     0.105 A 
ATOM      9  NBF 1E8 d   1      -2.775 -24.743  50.816  0.00  0.00    -0.244 N 
ATOM     10  H1  1E8 d   1       1.640 -24.145  49.907  0.00  0.00     0.146 H 
ENDROOT
BRANCH   9  11
ATOM     11  CBE 1E8 d   1      -3.350 -23.821  49.834  0.00  0.00     0.052 C 
ATOM     12  CAP 1E8 d   1      -3.277 -22.414  50.413  0.00  0.00    -0.041 C 
ATOM     13  CAO 1E8 d   1      -3.891 -21.383  49.488  0.00  0.00    -0.048 C 
ATOM     14  H20 1E8 d   1      -3.817 -22.397  51.371  0.00  0.00     0.036 H 
ATOM     15  H21 1E8 d   1      -2.221 -22.155  50.582  0.00  0.00     0.036 H 
ATOM     16  CAQ 1E8 d   1      -5.336 -21.727  49.251  0.00  0.00    -0.002 C 
ATOM     17  H18 1E8 d   1      -3.352 -21.381  48.529  0.00  0.00     0.035 H 
ATOM     18  H19 1E8 d   1      -3.821 -20.387  49.950  0.00  0.00     0.035 H 
ATOM     19  NBG 1E8 d   1      -5.422 -23.078  48.711  0.00  0.00    -0.350 N 
ATOM     20  H22 1E8 d   1      -5.771 -21.015  48.534  0.00  0.00     0.064 H 
ATOM     21  H23 1E8 d   1      -5.888 -21.674  50.201  0.00  0.00     0.064 H 
ATOM     22  CAR 1E8 d   1      -4.774 -24.184  49.447  0.00  0.00     0.018 C 
ATOM     23  CAW 1E8 d   1      -6.067 -23.257  47.558  0.00  0.00     0.219 C 
ATOM     24  H24 1E8 d   1      -5.351 -24.396  50.359  0.00  0.00     0.067 H 
ATOM     25  H25 1E8 d   1      -4.756 -25.079  48.808  0.00  0.00     0.067 H 
ATOM     26  OAC 1E8 d   1      -6.602 -22.338  46.953  0.00  0.00    -0.273 OA
ATOM     27  H26 1E8 d   1      -2.736 -23.859  48.922  0.00  0.00     0.078 H 
BRANCH  23  28
ATOM     28  CAD 1E8 d   1      -6.127 -24.683  47.024  0.00  0.00     0.006 C 
ATOM     29  H7  1E8 d   1      -5.243 -25.240  47.368  0.00  0.00     0.046 H 
ATOM     30  H8  1E8 d   1      -7.038 -25.175  47.395  0.00  0.00     0.046 H 
BRANCH  28  31
ATOM     31  CAA 1E8 d   1      -6.149 -24.657  45.503  0.00  0.00    -0.068 C 
ATOM     32  H2  1E8 d   1      -6.192 -25.687  45.119  0.00  0.00     0.028 H 
ATOM     33  H3  1E8 d   1      -5.238 -24.165  45.131  0.00  0.00     0.028 H 
ATOM     34  H4  1E8 d   1      -7.033 -24.100  45.158  0.00  0.00     0.028 H 
ENDBRANCH  28  31
ENDBRANCH  23  28
ENDBRANCH   9  11
BRANCH   8  35
ATOM     35  CBA 1E8 d   1      -2.755 -26.871  53.282  0.00  0.00    -0.004 A 
ATOM     36  CAM 1E8 d   1      -3.630 -27.945  53.144  0.00  0.00    -0.068 A 
ATOM     37  CAK 1E8 d   1      -3.975 -28.724  54.250  0.00  0.00    -0.049 A 
ATOM     38  H16 1E8 d   1      -4.046 -28.178  52.171  0.00  0.00     0.085 H 
ATOM     39  CAZ 1E8 d   1      -3.469 -28.430  55.511  0.00  0.00     0.076 A 
ATOM     40  H14 1E8 d   1      -4.645 -29.567  54.124  0.00  0.00     0.087 H 
ATOM     41  CAL 1E8 d   1      -2.620 -27.346  55.646  0.00  0.00    -0.049 A 
ATOM     42  CAN 1E8 d   1      -2.279 -26.577  54.550  0.00  0.00    -0.068 A 
ATOM     43  H15 1E8 d   1      -2.218 -27.098  56.622  0.00  0.00     0.087 H 
ATOM     44  H17 1E8 d   1      -1.624 -25.724  54.685  0.00  0.00     0.085 H 
BRANCH  39  45
ATOM     45  OAV 1E8 d   1      -3.768 -29.133  56.636  0.00  0.00    -0.311 OA
BRANCH  45  46
ATOM     46  CAY 1E8 d   1      -4.232 -30.404  56.556  0.00  0.00     0.076 A 
ATOM     47  CAI 1E8 d   1      -5.544 -30.680  56.893  0.00  0.00    -0.050 A 
ATOM     48  CAF 1E8 d   1      -6.016 -31.982  56.838  0.00  0.00    -0.080 A 
ATOM     49  H12 1E8 d   1      -6.204 -29.877  57.201  0.00  0.00     0.087 H 
ATOM     50  CAE 1E8 d   1      -5.185 -33.012  56.446  0.00  0.00    -0.083 A 
ATOM     51  H10 1E8 d   1      -7.045 -32.193  57.105  0.00  0.00     0.083 H 
ATOM     52  CAG 1E8 d   1      -3.869 -32.740  56.129  0.00  0.00    -0.080 A 
ATOM     53  H9  1E8 d   1      -5.563 -34.026  56.388  0.00  0.00     0.083 H 
ATOM     54  CAJ 1E8 d   1      -3.395 -31.443  56.183  0.00  0.00    -0.050 A 
ATOM     55  H11 1E8 d   1      -3.206 -33.546  55.837  0.00  0.00     0.083 H 
ATOM     56  H13 1E8 d   1      -2.361 -31.237  55.932  0.00  0.00     0.087 H 
ENDBRANCH  45  46
ENDBRANCH  39  45
ENDBRANCH   8  35
BRANCH   6  57
ATOM     57  NAB 1E8 d   1       0.262 -26.986  53.070  0.00  0.00    -0.383 N 
ATOM     58  H5  1E8 d   1      -0.540 -27.386  53.577  0.00  0.00     0.157 HD
ATOM     59  H6  1E8 d   1       1.219 -27.293  53.296  0.00  0.00     0.157 HD
ENDBRANCH   6  57
TORSDOF 7
