REMARK  7 active torsions:
REMARK  status: ('A' for Active; 'I' for Inactive)
REMARK    1  A    between atoms: C2_2  and  O30_23 
REMARK    2  A    between atoms: C6_6  and  O29_22 
REMARK    3  A    between atoms: C10_8  and  O27_21 
REMARK    4  A    between atoms: C11_9  and  C14_10 
REMARK    5  A    between atoms: C16_12  and  O25_20 
REMARK    6  A    between atoms: C17_13  and  O24_19 
REMARK    7  A    between atoms: C18_14  and  O23_18 
ROOT
ATOM      1  C1  MYC d   1     -24.282  -2.687 -14.535  0.00  0.00    -0.018 A 
ATOM      2  C2  MYC d   1     -24.269  -1.307 -14.400  0.00  0.00     0.085 A 
ATOM      3  C3  MYC d   1     -24.498  -0.492 -15.599  0.00  0.00     0.084 A 
ATOM      4  C4  MYC d   1     -24.728  -1.169 -16.889  0.00  0.00     0.096 A 
ATOM      5  C5  MYC d   1     -24.718  -2.543 -16.918  0.00  0.00    -0.017 A 
ATOM      6  C6  MYC d   1     -24.503  -3.286 -15.780  0.00  0.00     0.071 A 
ATOM      7  C9  MYC d   1     -24.502   0.977 -15.535  0.00  0.00     0.223 A 
ATOM      8  C10 MYC d   1     -24.744   1.692 -16.804  0.00  0.00     0.152 A 
ATOM      9  C11 MYC d   1     -24.952   0.905 -18.050  0.00  0.00     0.123 A 
ATOM     10  O12 MYC d   1     -24.950  -0.465 -18.045  0.00  0.00    -0.306 OA
ATOM     11  O13 MYC d   1     -24.305   1.556 -14.456  0.00  0.00    -0.284 OA
ATOM     12  H1  MYC d   1     -24.119  -3.311 -13.664  0.00  0.00     0.092 H 
ATOM     13  H2  MYC d   1     -24.883  -3.054 -17.860  0.00  0.00     0.092 H 
ENDROOT
BRANCH   9  14
ATOM     14  C14 MYC d   1     -25.213   1.576 -19.340  0.00  0.00     0.006 A 
ATOM     15  C15 MYC d   1     -26.217   1.038 -20.136  0.00  0.00    -0.035 A 
ATOM     16  C16 MYC d   1     -26.550   1.586 -21.359  0.00  0.00     0.102 A 
ATOM     17  H3  MYC d   1     -26.754   0.163 -19.787  0.00  0.00     0.089 H 
ATOM     18  C17 MYC d   1     -25.814   2.776 -21.804  0.00  0.00     0.132 A 
ATOM     19  C18 MYC d   1     -24.752   3.321 -20.913  0.00  0.00     0.102 A 
ATOM     20  C19 MYC d   1     -24.488   2.693 -19.711  0.00  0.00    -0.035 A 
ATOM     21  H4  MYC d   1     -23.712   3.076 -19.058  0.00  0.00     0.089 H 
BRANCH  16  22
ATOM     22  O25 MYC d   1     -27.528   1.047 -22.133  0.00  0.00    -0.358 OA
ATOM     23  H7  MYC d   1     -27.895   0.288 -21.695  0.00  0.00     0.217 HD
ENDBRANCH  16  22
BRANCH  18  24
ATOM     24  O24 MYC d   1     -26.134   3.319 -23.011  0.00  0.00    -0.356 OA
ATOM     25  H6  MYC d   1     -26.835   2.815 -23.408  0.00  0.00     0.218 HD
ENDBRANCH  18  24
BRANCH  19  26
ATOM     26  O23 MYC d   1     -24.021   4.413 -21.246  0.00  0.00    -0.358 OA
ATOM     27  H5  MYC d   1     -24.308   4.739 -22.091  0.00  0.00     0.217 HD
ENDBRANCH  19  26
ENDBRANCH   9  14
BRANCH   8  28
ATOM     28  O27 MYC d   1     -24.763   3.039 -16.845  0.00  0.00    -0.355 OA
ATOM     29  H8  MYC d   1     -24.079   3.347 -17.428  0.00  0.00     0.218 HD
ENDBRANCH   8  28
BRANCH   2  30
ATOM     30  O30 MYC d   1     -24.050  -0.686 -13.216  0.00  0.00    -0.360 OA
ATOM     31  H10 MYC d   1     -24.802  -0.147 -12.999  0.00  0.00     0.217 HD
ENDBRANCH   2  30
BRANCH   6  32
ATOM     32  O29 MYC d   1     -24.510  -4.635 -15.937  0.00  0.00    -0.361 OA
ATOM     33  H9  MYC d   1     -24.354  -5.051 -15.098  0.00  0.00     0.217 HD
ENDBRANCH   6  32
TORSDOF 7
