REMARK WARNING: 32 MAX_TORS EXCEEDED!!!
REMARK  48 active torsions:
REMARK  status: ('A' for Active; 'I' for Inactive)
REMARK    1  A    between atoms: N_1  and  CA_2 
REMARK    2  A    between atoms: CA_2  and  C_3 
REMARK    3  A    between atoms: CA_2  and  CB_5 
REMARK       I    between atoms: C_3  and  N_6 
REMARK    4  A    between atoms: N_6  and  CA_7 
REMARK    5  A    between atoms: CA_7  and  C_8 
REMARK    6  A    between atoms: CA_7  and  CB_10 
REMARK       I    between atoms: C_8  and  N_11 
REMARK    7  A    between atoms: N_11  and  CA_12 
REMARK    8  A    between atoms: CA_12  and  C_13 
REMARK    9  A    between atoms: CA_12  and  CB_15 
REMARK       I    between atoms: C_13  and  N_16 
REMARK   10  A    between atoms: N_16  and  CA_17 
REMARK   11  A    between atoms: CA_17  and  C_18 
REMARK   12  A    between atoms: CA_17  and  CB_20 
REMARK       I    between atoms: C_18  and  N_21 
REMARK   13  A    between atoms: N_21  and  CA_22 
REMARK   14  A    between atoms: CA_22  and  C_23 
REMARK   15  A    between atoms: CA_22  and  CB_25 
REMARK       I    between atoms: C_23  and  N_26 
REMARK   16  A    between atoms: N_26  and  CA_27 
REMARK   17  A    between atoms: CA_27  and  C_28 
REMARK   18  A    between atoms: CA_27  and  CB_30 
REMARK       I    between atoms: C_28  and  N_31 
REMARK   19  A    between atoms: N_31  and  CA_32 
REMARK   20  A    between atoms: CA_32  and  C_33 
REMARK   21  A    between atoms: CA_32  and  CB_35 
REMARK       I    between atoms: C_33  and  N_36 
REMARK   22  A    between atoms: N_36  and  CA_37 
REMARK   23  A    between atoms: CA_37  and  C_38 
REMARK       I    between atoms: C_38  and  N_40 
REMARK   24  A    between atoms: N_40  and  CA_41 
REMARK   25  A    between atoms: CA_41  and  C_42 
REMARK   26  A    between atoms: CA_41  and  CB_44 
REMARK       I    between atoms: C_42  and  N_48 
REMARK   27  A    between atoms: CB_44  and  CG_45 
REMARK   28  A    between atoms: CG_45  and  CD1_46 
REMARK   29  A    between atoms: CG_45  and  CD2_47 
REMARK   30  A    between atoms: N_48  and  CA_49 
REMARK   31  A    between atoms: CA_49  and  C_50 
REMARK   32  A    between atoms: CA_49  and  CB_52 
REMARK       I    between atoms: C_50  and  N_54 
REMARK   33  A    between atoms: CB_52  and  OG_53 
REMARK   34  A    between atoms: N_54  and  CA_55 
REMARK   35  A    between atoms: CA_55  and  C_56 
REMARK   36  A    between atoms: CA_55  and  CB_58 
REMARK       I    between atoms: C_56  and  N_59 
REMARK   37  A    between atoms: N_59  and  CA_60 
REMARK   38  A    between atoms: CA_60  and  C_61 
REMARK   39  A    between atoms: CA_60  and  CB_63 
REMARK       I    between atoms: C_61  and  N_67 
REMARK   40  A    between atoms: CB_63  and  CG_64 
REMARK   41  A    between atoms: CG_64  and  CD1_65 
REMARK   42  A    between atoms: CG_64  and  CD2_66 
REMARK   43  A    between atoms: N_67  and  CA_68 
REMARK   44  A    between atoms: CA_68  and  C_69 
REMARK   45  A    between atoms: CA_68  and  CB_71 
REMARK       I    between atoms: C_69  and  N_78 
REMARK   46  A    between atoms: CB_71  and  CG_72 
REMARK   47  A    between atoms: N_78  and  CA_79 
REMARK   48  A    between atoms: CA_79  and  C_80 
ROOT
ATOM      1  CA  LEU d   1     -25.102   9.834 -23.045  0.00  0.00     0.089 C 
ATOM      2  H42 LEU d   1     -24.567   8.878 -22.951  0.00  0.00     0.087 H 
ENDROOT
BRANCH   1   3
ATOM      3  N   LEU d   1     -24.488  10.581 -24.143  0.00  0.00    -0.346 N 
ATOM      4  C   GLY d   1     -24.159  10.009 -25.297  0.00  0.00     0.236 C 
ATOM      5  O   GLY d   1     -24.437   8.845 -25.570  0.00  0.00    -0.272 OA
ATOM      6  H41 LEU d   1     -24.309  11.557 -24.021  0.00  0.00     0.163 HD
BRANCH   4   7
ATOM      7  CA  GLY d   1     -23.432  10.889 -26.299  0.00  0.00     0.069 C 
ATOM      8  H39 GLY d   1     -22.380  10.973 -25.988  0.00  0.00     0.078 H 
ATOM      9  H40 GLY d   1     -23.485  10.408 -27.287  0.00  0.00     0.078 H 
BRANCH   7  10
ATOM     10  N   GLY d   1     -23.990  12.240 -26.412  0.00  0.00    -0.351 N 
ATOM     11  C   ALA d   1     -25.248  12.458 -26.790  0.00  0.00     0.240 C 
ATOM     12  O   ALA d   1     -26.037  11.549 -27.061  0.00  0.00    -0.271 OA
ATOM     13  H38 GLY d   1     -23.407  13.024 -26.198  0.00  0.00     0.163 HD
BRANCH  11  14
ATOM     14  CA  ALA d   1     -25.687  13.922 -26.878  0.00  0.00     0.086 C 
ATOM     15  H34 ALA d   1     -26.778  13.947 -27.014  0.00  0.00     0.086 H 
BRANCH  14  16
ATOM     16  N   ALA d   1     -25.360  14.648 -25.652  0.00  0.00    -0.346 N 
ATOM     17  C   LEU d   1     -25.989  14.416 -24.502  0.00  0.00     0.240 C 
ATOM     18  O   LEU d   1     -26.965  13.669 -24.408  0.00  0.00    -0.271 OA
ATOM     19  H33 ALA d   1     -24.640  15.342 -25.678  0.00  0.00     0.163 HD
BRANCH  17  20
ATOM     20  CA  LEU d   1     -25.437  15.133 -23.268  0.00  0.00     0.086 C 
ATOM     21  H29 LEU d   1     -25.652  14.507 -22.389  0.00  0.00     0.086 H 
BRANCH  20  22
ATOM     22  N   LEU d   1     -23.984  15.314 -23.347  0.00  0.00    -0.346 N 
ATOM     23  C   ALA d   1     -23.156  14.295 -23.571  0.00  0.00     0.240 C 
ATOM     24  O   ALA d   1     -23.545  13.138 -23.733  0.00  0.00    -0.271 OA
ATOM     25  H28 LEU d   1     -23.603  16.231 -23.229  0.00  0.00     0.163 HD
BRANCH  23  26
ATOM     26  CA  ALA d   1     -21.665  14.621 -23.623  0.00  0.00     0.086 C 
ATOM     27  H24 ALA d   1     -21.132  13.707 -23.926  0.00  0.00     0.086 H 
BRANCH  26  28
ATOM     28  N   ALA d   1     -21.350  15.665 -24.599  0.00  0.00    -0.346 N 
ATOM     29  C   GLU d   1     -21.516  15.496 -25.910  0.00  0.00     0.240 C 
ATOM     30  O   GLU d   1     -21.976  14.465 -26.404  0.00  0.00    -0.271 OA
ATOM     31  H23 ALA d   1     -20.996  16.540 -24.269  0.00  0.00     0.163 HD
BRANCH  29  32
ATOM     32  CA  GLU d   1     -21.106  16.677 -26.800  0.00  0.00     0.086 C 
ATOM     33  H19 GLU d   1     -21.640  16.592 -27.758  0.00  0.00     0.086 H 
BRANCH  32  34
ATOM     34  N   GLU d   1     -21.469  17.951 -26.180  0.00  0.00    -0.346 N 
ATOM     35  C   GLU d   1     -22.730  18.264 -25.879  0.00  0.00     0.240 C 
ATOM     36  O   GLU d   1     -23.698  17.631 -26.310  0.00  0.00    -0.271 OA
ATOM     37  H18 GLU d   1     -20.746  18.611 -25.974  0.00  0.00     0.163 HD
BRANCH  35  38
ATOM     38  CA  GLU d   1     -22.945  19.487 -24.978  0.00  0.00     0.086 C 
ATOM     39  H14 GLU d   1     -23.618  19.181 -24.164  0.00  0.00     0.086 H 
BRANCH  38  40
ATOM     40  N   GLU d   1     -21.706  19.982 -24.361  0.00  0.00    -0.346 N 
ATOM     41  C   GLU d   1     -21.018  19.276 -23.462  0.00  0.00     0.240 C 
ATOM     42  O   GLU d   1     -21.327  18.136 -23.118  0.00  0.00    -0.271 OA
ATOM     43  H13 GLU d   1     -21.365  20.884 -24.626  0.00  0.00     0.163 HD
BRANCH  41  44
ATOM     44  CA  GLU d   1     -19.782  19.956 -22.872  0.00  0.00     0.086 C 
ATOM     45  H9  GLU d   1     -19.875  21.036 -23.057  0.00  0.00     0.086 H 
BRANCH  44  46
ATOM     46  N   GLU d   1     -19.658  19.761 -21.419  0.00  0.00    -0.346 N 
ATOM     47  C   SER d   1     -20.668  19.973 -20.572  0.00  0.00     0.248 C 
ATOM     48  O   SER d   1     -21.805  20.263 -20.947  0.00  0.00    -0.271 OA
ATOM     49  H8  GLU d   1     -18.780  19.457 -21.050  0.00  0.00     0.163 HD
BRANCH  47  50
ATOM     50  CA  SER d   1     -20.370  19.840 -19.073  0.00  0.00     0.172 C 
ATOM     51  H4  SER d   1     -21.293  19.497 -18.583  0.00  0.00     0.098 H 
BRANCH  50  52
ATOM     52  N   SER d   1     -19.303  18.842 -18.768  0.00  0.00    -0.067 N 
ATOM     53  H1  SER d   1     -19.155  18.802 -17.772  0.00  0.00     0.275 HD
ATOM     54  H2  SER d   1     -18.447  19.116 -19.224  0.00  0.00     0.275 HD
ATOM     55  H3  SER d   1     -19.587  17.934 -19.102  0.00  0.00     0.275 HD
ENDBRANCH  50  52
BRANCH  50  56
ATOM     56  CB  SER d   1     -20.000  21.197 -18.488  0.00  0.00    -0.042 C 
ATOM     57  H5  SER d   1     -20.793  21.924 -18.719  0.00  0.00     0.030 H 
ATOM     58  H6  SER d   1     -19.050  21.538 -18.926  0.00  0.00     0.030 H 
ATOM     59  H7  SER d   1     -19.890  21.108 -17.397  0.00  0.00     0.030 H 
ENDBRANCH  50  56
ENDBRANCH  47  50
ENDBRANCH  44  46
BRANCH  44  60
ATOM     60  CB  GLU d   1     -18.528  19.460 -23.575  0.00  0.00    -0.049 C 
ATOM     61  H10 GLU d   1     -18.632  19.611 -24.660  0.00  0.00     0.030 H 
ATOM     62  H11 GLU d   1     -18.389  18.389 -23.365  0.00  0.00     0.030 H 
ATOM     63  H12 GLU d   1     -17.656  20.021 -23.209  0.00  0.00     0.030 H 
ENDBRANCH  44  60
ENDBRANCH  41  44
ENDBRANCH  38  40
BRANCH  38  64
ATOM     64  CB  GLU d   1     -23.626  20.602 -25.757  0.00  0.00    -0.049 C 
ATOM     65  H15 GLU d   1     -24.551  20.219 -26.213  0.00  0.00     0.030 H 
ATOM     66  H16 GLU d   1     -22.950  20.963 -26.546  0.00  0.00     0.030 H 
ATOM     67  H17 GLU d   1     -23.869  21.430 -25.075  0.00  0.00     0.030 H 
ENDBRANCH  38  64
ENDBRANCH  35  38
ENDBRANCH  32  34
BRANCH  32  68
ATOM     68  CB  GLU d   1     -19.608  16.635 -27.073  0.00  0.00    -0.049 C 
ATOM     69  H20 GLU d   1     -19.347  15.673 -27.539  0.00  0.00     0.030 H 
ATOM     70  H21 GLU d   1     -19.059  16.744 -26.126  0.00  0.00     0.030 H 
ATOM     71  H22 GLU d   1     -19.336  17.457 -27.752  0.00  0.00     0.030 H 
ENDBRANCH  32  68
ENDBRANCH  29  32
ENDBRANCH  26  28
BRANCH  26  72
ATOM     72  CB  ALA d   1     -21.170  15.026 -22.242  0.00  0.00    -0.049 C 
ATOM     73  H25 ALA d   1     -21.413  14.234 -21.519  0.00  0.00     0.030 H 
ATOM     74  H26 ALA d   1     -21.659  15.963 -21.937  0.00  0.00     0.030 H 
ATOM     75  H27 ALA d   1     -20.080  15.174 -22.272  0.00  0.00     0.030 H 
ENDBRANCH  26  72
ENDBRANCH  23  26
ENDBRANCH  20  22
BRANCH  20  76
ATOM     76  CB  LEU d   1     -26.132  16.472 -23.077  0.00  0.00    -0.049 C 
ATOM     77  H30 LEU d   1     -27.219  16.316 -23.020  0.00  0.00     0.030 H 
ATOM     78  H31 LEU d   1     -25.900  17.130 -23.927  0.00  0.00     0.030 H 
ATOM     79  H32 LEU d   1     -25.779  16.939 -22.145  0.00  0.00     0.030 H 
ENDBRANCH  20  76
ENDBRANCH  17  20
ENDBRANCH  14  16
BRANCH  14  80
ATOM     80  CB  ALA d   1     -25.036  14.596 -28.076  0.00  0.00    -0.049 C 
ATOM     81  H35 ALA d   1     -25.289  14.041 -28.991  0.00  0.00     0.030 H 
ATOM     82  H36 ALA d   1     -23.944  14.605 -27.943  0.00  0.00     0.030 H 
ATOM     83  H37 ALA d   1     -25.404  15.629 -28.160  0.00  0.00     0.030 H 
ENDBRANCH  14  80
ENDBRANCH  11  14
ENDBRANCH   7  10
ENDBRANCH   4   7
ENDBRANCH   1   3
BRANCH   1  84
ATOM     84  C   LEU d   1     -26.573   9.519 -23.298  0.00  0.00     0.241 C 
ATOM     85  O   LEU d   1     -27.013   8.397 -23.055  0.00  0.00    -0.271 OA
ATOM     86  N   SER d   1     -27.330  10.504 -23.781  0.00  0.00    -0.344 N 
ATOM     87  H52 SER d   1     -26.921  11.404 -23.933  0.00  0.00     0.163 HD
BRANCH  86  88
ATOM     88  CA  SER d   1     -28.749  10.301 -24.095  0.00  0.00     0.109 C 
ATOM     89  H53 SER d   1     -29.250   9.957 -23.178  0.00  0.00     0.090 H 
BRANCH  88  90
ATOM     90  C   SER d   1     -28.944   9.233 -25.170  0.00  0.00     0.243 C 
ATOM     91  O   SER d   1     -29.928   8.497 -25.140  0.00  0.00    -0.271 OA
ATOM     92  N   ALA d   1     -28.006   9.157 -26.112  0.00  0.00    -0.346 N 
ATOM     93  H57 ALA d   1     -27.258   9.821 -26.105  0.00  0.00     0.163 HD
BRANCH  92  94
ATOM     94  CA  ALA d   1     -28.035   8.133 -27.157  0.00  0.00     0.086 C 
ATOM     95  H58 ALA d   1     -28.999   8.208 -27.682  0.00  0.00     0.086 H 
BRANCH  94  96
ATOM     96  C   ALA d   1     -27.921   6.725 -26.569  0.00  0.00     0.240 C 
ATOM     97  O   ALA d   1     -28.619   5.806 -27.004  0.00  0.00    -0.271 OA
ATOM     98  N   LEU d   1     -27.040   6.565 -25.582  0.00  0.00    -0.346 N 
ATOM     99  H62 LEU d   1     -26.481   7.344 -25.299  0.00  0.00     0.163 HD
BRANCH  98 100
ATOM    100  CA  LEU d   1     -26.868   5.282 -24.902  0.00  0.00     0.089 C 
ATOM    101  H63 LEU d   1     -26.669   4.515 -25.665  0.00  0.00     0.087 H 
BRANCH 100 102
ATOM    102  C   LEU d   1     -28.127   4.875 -24.132  0.00  0.00     0.241 C 
ATOM    103  O   LEU d   1     -28.495   3.698 -24.125  0.00  0.00    -0.271 OA
ATOM    104  N   PHE d   1     -28.781   5.849 -23.496  0.00  0.00    -0.346 N 
ATOM    105  H73 PHE d   1     -28.489   6.795 -23.636  0.00  0.00     0.163 HD
BRANCH 104 106
ATOM    106  CA  PHE d   1     -29.912   5.584 -22.599  0.00  0.00     0.093 C 
ATOM    107  H74 PHE d   1     -29.844   4.533 -22.283  0.00  0.00     0.088 H 
BRANCH 106 108
ATOM    108  C   PHE d   1     -31.276   5.783 -23.255  0.00  0.00     0.241 C 
ATOM    109  O   PHE d   1     -32.087   4.855 -23.302  0.00  0.00    -0.271 OA
ATOM    110  N   GLY d   1     -31.526   6.998 -23.738  0.00  0.00    -0.349 N 
ATOM    111  H82 GLY d   1     -30.806   7.691 -23.696  0.00  0.00     0.163 HD
BRANCH 110 112
ATOM    112  CA  GLY d   1     -32.817   7.357 -24.329  0.00  0.00     0.075 C 
ATOM    113  H83 GLY d   1     -32.751   8.386 -24.713  0.00  0.00     0.080 H 
ATOM    114  H84 GLY d   1     -33.586   7.308 -23.544  0.00  0.00     0.080 H 
BRANCH 112 115
ATOM    115  C   GLY d   1     -33.234   6.444 -25.468  0.00  0.00     0.191 C 
ATOM    116  O   GLY d   1     -32.580   6.381 -26.508  0.00  0.00    -0.647 OA
ATOM    117  OXT GLY d   1     -34.234   5.735 -25.373  0.00  0.00    -0.647 OA
ENDBRANCH 112 115
ENDBRANCH 110 112
ENDBRANCH 106 108
BRANCH 106 118
ATOM    118  CB  PHE d   1     -29.817   6.470 -21.352  0.00  0.00    -0.014 C 
ATOM    119  H75 PHE d   1     -30.781   6.431 -20.824  0.00  0.00     0.043 H 
ATOM    120  H76 PHE d   1     -29.617   7.503 -21.674  0.00  0.00     0.043 H 
BRANCH 118 121
ATOM    121  CG  PHE d   1     -28.736   6.053 -20.397  0.00  0.00    -0.056 A 
ATOM    122  CD1 PHE d   1     -28.858   4.879 -19.664  0.00  0.00    -0.077 A 
ATOM    123  CE1 PHE d   1     -27.866   4.487 -18.783  0.00  0.00    -0.082 A 
ATOM    124  H77 PHE d   1     -29.741   4.263 -19.784  0.00  0.00     0.084 H 
ATOM    125  CZ  PHE d   1     -26.735   5.269 -18.626  0.00  0.00    -0.083 A 
ATOM    126  H79 PHE d   1     -27.974   3.569 -18.217  0.00  0.00     0.083 H 
ATOM    127  CE2 PHE d   1     -26.602   6.442 -19.348  0.00  0.00    -0.082 A 
ATOM    128  H81 PHE d   1     -25.955   4.963 -17.939  0.00  0.00     0.083 H 
ATOM    129  CD2 PHE d   1     -27.598   6.829 -20.229  0.00  0.00    -0.077 A 
ATOM    130  H80 PHE d   1     -25.718   7.058 -19.224  0.00  0.00     0.083 H 
ATOM    131  H78 PHE d   1     -27.487   7.748 -20.793  0.00  0.00     0.084 H 
ENDBRANCH 118 121
ENDBRANCH 106 118
ENDBRANCH 104 106
ENDBRANCH 100 102
BRANCH 100 132
ATOM    132  CB  LEU d   1     -25.665   5.343 -23.948  0.00  0.00    -0.035 C 
ATOM    133  H64 LEU d   1     -25.828   6.193 -23.269  0.00  0.00     0.037 H 
ATOM    134  H65 LEU d   1     -24.771   5.530 -24.561  0.00  0.00     0.037 H 
BRANCH 132 135
ATOM    135  CG  LEU d   1     -25.373   4.115 -23.078  0.00  0.00    -0.059 C 
ATOM    136  H66 LEU d   1     -26.271   3.896 -22.481  0.00  0.00     0.038 H 
BRANCH 135 137
ATOM    137  CD1 LEU d   1     -25.064   2.898 -23.928  0.00  0.00    -0.073 C 
ATOM    138  H67 LEU d   1     -24.860   2.037 -23.275  0.00  0.00     0.028 H 
ATOM    139  H68 LEU d   1     -24.182   3.102 -24.553  0.00  0.00     0.028 H 
ATOM    140  H69 LEU d   1     -25.926   2.673 -24.573  0.00  0.00     0.028 H 
ENDBRANCH 135 137
BRANCH 135 141
ATOM    141  CD2 LEU d   1     -24.225   4.410 -22.124  0.00  0.00    -0.073 C 
ATOM    142  H70 LEU d   1     -24.470   5.295 -21.518  0.00  0.00     0.028 H 
ATOM    143  H71 LEU d   1     -23.309   4.603 -22.701  0.00  0.00     0.028 H 
ATOM    144  H72 LEU d   1     -24.066   3.546 -21.463  0.00  0.00     0.028 H 
ENDBRANCH 135 141
ENDBRANCH 132 135
ENDBRANCH 100 132
ENDBRANCH  98 100
ENDBRANCH  94  96
BRANCH  94 145
ATOM    145  CB  ALA d   1     -26.920   8.373 -28.164  0.00  0.00    -0.049 C 
ATOM    146  H59 ALA d   1     -26.955   7.596 -28.942  0.00  0.00     0.030 H 
ATOM    147  H60 ALA d   1     -25.948   8.334 -27.651  0.00  0.00     0.030 H 
ATOM    148  H61 ALA d   1     -27.051   9.362 -28.627  0.00  0.00     0.030 H 
ENDBRANCH  94 145
ENDBRANCH  92  94
ENDBRANCH  88  90
BRANCH  88 149
ATOM    149  CB  SER d   1     -29.412  11.608 -24.539  0.00  0.00     0.044 C 
ATOM    150  H54 SER d   1     -30.406  11.384 -24.953  0.00  0.00     0.077 H 
ATOM    151  H55 SER d   1     -28.791  12.081 -25.314  0.00  0.00     0.077 H 
BRANCH 149 152
ATOM    152  OG  SER d   1     -29.555  12.503 -23.451  0.00  0.00    -0.398 OA
ATOM    153  H56 SER d   1     -28.698  12.703 -23.092  0.00  0.00     0.209 HD
ENDBRANCH 149 152
ENDBRANCH  88 149
ENDBRANCH  86  88
ENDBRANCH   1  84
BRANCH   1 154
ATOM    154  CB  LEU d   1     -24.945  10.603 -21.727  0.00  0.00    -0.035 C 
ATOM    155  H43 LEU d   1     -25.443  10.029 -20.932  0.00  0.00     0.037 H 
ATOM    156  H44 LEU d   1     -25.438  11.580 -21.837  0.00  0.00     0.037 H 
BRANCH 154 157
ATOM    157  CG  LEU d   1     -23.490  10.843 -21.307  0.00  0.00    -0.059 C 
ATOM    158  H45 LEU d   1     -22.946  11.215 -22.188  0.00  0.00     0.038 H 
BRANCH 157 159
ATOM    159  CD1 LEU d   1     -23.377  11.895 -20.215  0.00  0.00    -0.073 C 
ATOM    160  H46 LEU d   1     -22.319  12.033 -19.947  0.00  0.00     0.028 H 
ATOM    161  H47 LEU d   1     -23.940  11.566 -19.329  0.00  0.00     0.028 H 
ATOM    162  H48 LEU d   1     -23.790  12.847 -20.579  0.00  0.00     0.028 H 
ENDBRANCH 157 159
BRANCH 157 163
ATOM    163  CD2 LEU d   1     -22.833   9.546 -20.864  0.00  0.00    -0.073 C 
ATOM    164  H49 LEU d   1     -22.924   8.797 -21.665  0.00  0.00     0.028 H 
ATOM    165  H50 LEU d   1     -23.331   9.174 -19.956  0.00  0.00     0.028 H 
ATOM    166  H51 LEU d   1     -21.769   9.728 -20.651  0.00  0.00     0.028 H 
ENDBRANCH 157 163
ENDBRANCH 154 157
ENDBRANCH   1 154
TORSDOF 48
