REMARK  15 active torsions:
REMARK  status: ('A' for Active; 'I' for Inactive)
REMARK    1  A    between atoms: PA_1  and  O5B_4 
REMARK    2  A    between atoms: PA_1  and  O3_23 
REMARK    3  A    between atoms: O5B_4  and  C5B_5 
REMARK    4  A    between atoms: C5B_5  and  C4B_6 
REMARK    5  A    between atoms: C3B_8  and  O3B_9 
REMARK    6  A    between atoms: C2B_10  and  O2B_11 
REMARK    7  A    between atoms: C1B_12  and  N9A_13 
REMARK    8  A    between atoms: O3_23  and  PN_24 
REMARK    9  A    between atoms: PN_24  and  O5D_27 
REMARK   10  A    between atoms: O5D_27  and  C5D_28 
REMARK   11  A    between atoms: C5D_28  and  C4D_29 
REMARK   12  A    between atoms: C3D_31  and  O3D_32 
REMARK   13  A    between atoms: C2D_33  and  O2D_34 
REMARK   14  A    between atoms: C1D_35  and  N1N_36 
REMARK   15  A    between atoms: C3N_38  and  C7N_39 
REMARK       I    between atoms: C7N_39  and  N7N_41 
ROOT
ATOM      1  O3  NAI d   1      47.244 -21.446  35.401  0.00  0.00    -0.180 OA
ENDROOT
BRANCH   1   2
ATOM      2  PA  NAI d   1      47.894 -20.378  34.368  0.00  0.00     0.417 P 
ATOM      3  O1A NAI d   1      48.446 -19.268  35.231  0.00  0.00    -0.624 OA
ATOM      4  O2A NAI d   1      46.909 -20.036  33.265  0.00  0.00    -0.624 OA
BRANCH   2   5
ATOM      5  O5B NAI d   1      49.153 -21.165  33.721  0.00  0.00    -0.287 OA
BRANCH   5   6
ATOM      6  C5B NAI d   1      50.071 -20.467  32.863  0.00  0.00     0.058 C 
ATOM      7  H1  NAI d   1      49.758 -19.414  32.811  0.00  0.00     0.079 H 
ATOM      8  H2  NAI d   1      50.013 -20.917  31.861  0.00  0.00     0.079 H 
BRANCH   6   9
ATOM      9  C4B NAI d   1      51.539 -20.509  33.324  0.00  0.00     0.089 A 
ATOM     10  O4B NAI d   1      52.163 -19.257  33.000  0.00  0.00    -0.353 OA
ATOM     11  C1B NAI d   1      52.653 -18.572  34.165  0.00  0.00     0.139 A 
ATOM     12  C2B NAI d   1      52.387 -19.473  35.369  0.00  0.00     0.105 A 
ATOM     13  H8  NAI d   1      53.731 -18.378  34.066  0.00  0.00     0.122 H 
ATOM     14  C3B NAI d   1      51.754 -20.746  34.818  0.00  0.00     0.091 A 
ATOM     15  H6  NAI d   1      51.676 -18.981  36.049  0.00  0.00     0.093 H 
ATOM     16  H4  NAI d   1      50.794 -20.936  35.321  0.00  0.00     0.091 H 
ATOM     17  H3  NAI d   1      52.039 -21.320  32.775  0.00  0.00     0.090 H 
BRANCH  11  18
ATOM     18  N9A NAI d   1      51.924 -17.285  34.332  0.00  0.00    -0.294 N 
ATOM     19  C8A NAI d   1      50.584 -17.127  34.223  0.00  0.00     0.071 A 
ATOM     20  N7A NAI d   1      50.218 -15.840  34.434  0.00  0.00    -0.236 NA
ATOM     21  H9  NAI d   1      49.888 -17.933  33.995  0.00  0.00     0.144 H 
ATOM     22  C5A NAI d   1      51.340 -15.136  34.679  0.00  0.00     0.149 A 
ATOM     23  C6A NAI d   1      51.665 -13.715  34.981  0.00  0.00     0.155 A 
ATOM     24  C4A NAI d   1      52.468 -16.091  34.613  0.00  0.00     0.167 A 
ATOM     25  N6A NAI d   1      50.684 -12.782  35.057  0.00  0.00    -0.382 N 
ATOM     26  N1A NAI d   1      52.974 -13.389  35.177  0.00  0.00    -0.222 NA
ATOM     27  H10 NAI d   1      50.921 -11.802  35.267  0.00  0.00     0.157 HD
ATOM     28  H11 NAI d   1      49.702 -13.054  34.905  0.00  0.00     0.157 HD
ATOM     29  C2A NAI d   1      53.963 -14.313  35.102  0.00  0.00     0.091 A 
ATOM     30  N3A NAI d   1      53.736 -15.619  34.829  0.00  0.00    -0.222 NA
ATOM     31  H12 NAI d   1      54.984 -13.991  35.269  0.00  0.00     0.146 H 
ENDBRANCH  11  18
BRANCH  12  32
ATOM     32  O2B NAI d   1      53.601 -19.721  36.089  0.00  0.00    -0.388 OA
ATOM     33  H7  NAI d   1      54.233 -20.132  35.511  0.00  0.00     0.210 HD
ENDBRANCH  12  32
BRANCH  14  34
ATOM     34  O3B NAI d   1      52.615 -21.880  34.986  0.00  0.00    -0.390 OA
ATOM     35  H5  NAI d   1      52.755 -22.035  35.913  0.00  0.00     0.210 HD
ENDBRANCH  14  34
ENDBRANCH   6   9
ENDBRANCH   5   6
ENDBRANCH   2   5
ENDBRANCH   1   2
BRANCH   1  36
ATOM     36  PN  NAI d   1      46.367 -22.746  34.995  0.00  0.00     0.417 P 
ATOM     37  O1N NAI d   1      47.168 -23.981  35.347  0.00  0.00    -0.624 OA
ATOM     38  O2N NAI d   1      45.802 -22.601  33.601  0.00  0.00    -0.624 OA
BRANCH  36  39
ATOM     39  O5D NAI d   1      45.126 -22.666  36.023  0.00  0.00    -0.287 OA
BRANCH  39  40
ATOM     40  C5D NAI d   1      45.297 -22.574  37.440  0.00  0.00     0.058 C 
ATOM     41  H13 NAI d   1      46.190 -21.972  37.665  0.00  0.00     0.079 H 
ATOM     42  H14 NAI d   1      45.418 -23.582  37.863  0.00  0.00     0.079 H 
BRANCH  40  43
ATOM     43  C4D NAI d   1      44.064 -21.909  38.048  0.00  0.00     0.089 C 
ATOM     44  O4D NAI d   1      43.761 -20.698  37.344  0.00  0.00    -0.353 OA
ATOM     45  C1D NAI d   1      42.370 -20.649  37.006  0.00  0.00     0.136 C 
ATOM     46  C2D NAI d   1      41.885 -22.094  37.001  0.00  0.00     0.105 C 
ATOM     47  H20 NAI d   1      41.843 -20.110  37.807  0.00  0.00     0.122 H 
ATOM     48  C3D NAI d   1      42.833 -22.805  37.958  0.00  0.00     0.091 C 
ATOM     49  H18 NAI d   1      41.978 -22.528  35.995  0.00  0.00     0.093 H 
ATOM     50  H16 NAI d   1      43.103 -23.794  37.559  0.00  0.00     0.091 H 
ATOM     51  H15 NAI d   1      44.270 -21.681  39.104  0.00  0.00     0.090 H 
BRANCH  45  52
ATOM     52  N1N NAI d   1      42.073 -19.935  35.748  0.00  0.00    -0.336 N 
ATOM     53  C2N NAI d   1      41.276 -18.851  35.849  0.00  0.00    -0.003 A 
ATOM     54  C3N NAI d   1      40.905 -18.080  34.742  0.00  0.00     0.047 A 
ATOM     55  H21 NAI d   1      40.908 -18.566  36.828  0.00  0.00     0.113 H 
ATOM     56  C4N NAI d   1      41.409 -18.458  33.354  0.00  0.00    -0.065 A 
ATOM     57  C5N NAI d   1      42.268 -19.647  33.365  0.00  0.00    -0.067 A 
ATOM     58  H24 NAI d   1      41.159 -17.907  32.455  0.00  0.00     0.085 H 
ATOM     59  C6N NAI d   1      42.564 -20.332  34.550  0.00  0.00    -0.018 A 
ATOM     60  H25 NAI d   1      42.685 -20.005  32.431  0.00  0.00     0.085 H 
ATOM     61  H26 NAI d   1      43.205 -21.205  34.507  0.00  0.00     0.111 H 
BRANCH  54  62
ATOM     62  C7N NAI d   1      40.008 -16.878  34.942  0.00  0.00     0.250 C 
ATOM     63  O7N NAI d   1      39.678 -16.549  36.076  0.00  0.00    -0.268 OA
ATOM     64  N7N NAI d   1      39.586 -16.180  33.884  0.00  0.00    -0.366 N 
ATOM     65  H22 NAI d   1      38.993 -15.385  34.014  0.00  0.00     0.159 HD
ATOM     66  H23 NAI d   1      39.863 -16.452  32.962  0.00  0.00     0.159 HD
ENDBRANCH  54  62
ENDBRANCH  45  52
BRANCH  46  67
ATOM     67  O2D NAI d   1      40.510 -22.156  37.398  0.00  0.00    -0.388 OA
ATOM     68  H19 NAI d   1      40.236 -23.064  37.445  0.00  0.00     0.210 HD
ENDBRANCH  46  67
BRANCH  48  69
ATOM     69  O3D NAI d   1      42.252 -22.961  39.260  0.00  0.00    -0.390 OA
ATOM     70  H17 NAI d   1      41.486 -23.520  39.199  0.00  0.00     0.210 HD
ENDBRANCH  48  69
ENDBRANCH  40  43
ENDBRANCH  39  40
ENDBRANCH  36  39
ENDBRANCH   1  36
TORSDOF 15
