REMARK WARNING: 32 MAX_TORS EXCEEDED!!!
REMARK  35 active torsions:
REMARK  status: ('A' for Active; 'I' for Inactive)
REMARK    1  A    between atoms: N_1  and  CA_2 
REMARK    2  A    between atoms: CA_2  and  C_3 
REMARK    3  A    between atoms: CA_2  and  CB_5 
REMARK       I    between atoms: C_3  and  N_6 
REMARK    4  A    between atoms: N_6  and  CA_7 
REMARK    5  A    between atoms: CA_7  and  C_8 
REMARK    6  A    between atoms: CA_7  and  CB_10 
REMARK       I    between atoms: C_8  and  N_17 
REMARK    7  A    between atoms: CB_10  and  CG_11 
REMARK    8  A    between atoms: CG_11  and  CD_12 
REMARK    9  A    between atoms: CD_12  and  NE_13 
REMARK       I    between atoms: NE_13  and  CZ_14 
REMARK       I    between atoms: CZ_14  and  NH1_15 
REMARK   10  A    between atoms: N_17  and  CA_18 
REMARK   11  A    between atoms: CA_18  and  C_19 
REMARK   12  A    between atoms: CA_18  and  CB_21 
REMARK       I    between atoms: C_19  and  N_24 
REMARK   13  A    between atoms: CB_21  and  OG1_22 
REMARK   14  A    between atoms: CB_21  and  CG2_23 
REMARK   15  A    between atoms: N_24  and  CA_25 
REMARK   16  A    between atoms: CA_25  and  CB_26 
REMARK   17  A    between atoms: CA_25  and  C_32 
REMARK   18  A    between atoms: CB_26  and  CG_27 
REMARK   19  A    between atoms: CG_27  and  CD_28 
REMARK   20  A    between atoms: CD_28  and  CE_29 
REMARK   21  A    between atoms: CE_29  and  NZ_30 
REMARK   22  A    between atoms: NZ_30  and  CM_31 
REMARK       I    between atoms: C_32  and  N_34 
REMARK   23  A    between atoms: N_34  and  CA_35 
REMARK   24  A    between atoms: CA_35  and  C_36 
REMARK   25  A    between atoms: CA_35  and  CB_38 
REMARK       I    between atoms: C_36  and  N_43 
REMARK   26  A    between atoms: CB_38  and  CG_39 
REMARK   27  A    between atoms: CG_39  and  CD_40 
REMARK       I    between atoms: CD_40  and  NE2_42 
REMARK   28  A    between atoms: N_43  and  CA_44 
REMARK   29  A    between atoms: CA_44  and  C_45 
REMARK   30  A    between atoms: CA_44  and  CB_47 
REMARK       I    between atoms: C_45  and  N_50 
REMARK   31  A    between atoms: CB_47  and  OG1_48 
REMARK   32  A    between atoms: CB_47  and  CG2_49 
REMARK   33  A    between atoms: N_50  and  CA_51 
REMARK   34  A    between atoms: CA_51  and  C_52 
REMARK   35  A    between atoms: CA_51  and  CB_54 
ROOT
ATOM      1  CA  MLZ d   1      21.451 103.920  17.755  0.00  0.00     0.089 C 
ATOM      2  H29 MLZ d   1      21.201 103.317  16.869  0.00  0.00     0.087 H 
ENDROOT
BRANCH   1   3
ATOM      3  N   MLZ d   1      22.808 104.349  17.671  0.00  0.00    -0.346 N 
ATOM      4  C   THR d   1      23.671 103.809  16.814  0.00  0.00     0.243 C 
ATOM      5  O   THR d   1      23.401 102.834  16.105  0.00  0.00    -0.271 OA
ATOM      6  H28 MLZ d   1      23.122 105.080  18.276  0.00  0.00     0.163 HD
BRANCH   4   7
ATOM      7  CA  THR d   1      25.049 104.462  16.745  0.00  0.00     0.113 C 
ATOM      8  H22 THR d   1      25.362 104.733  17.764  0.00  0.00     0.091 H 
BRANCH   7   9
ATOM      9  N   THR d   1      26.056 103.557  16.194  0.00  0.00    -0.344 N 
ATOM     10  C   ARG d   1      27.229 103.359  16.796  0.00  0.00     0.241 C 
ATOM     11  O   ARG d   1      27.584 103.977  17.805  0.00  0.00    -0.271 OA
ATOM     12  H21 THR d   1      25.860 103.073  15.341  0.00  0.00     0.163 HD
BRANCH  10  13
ATOM     13  CA  ARG d   1      28.146 102.313  16.174  0.00  0.00     0.089 C 
ATOM     14  H9  ARG d   1      27.838 102.150  15.131  0.00  0.00     0.087 H 
BRANCH  13  15
ATOM     15  N   ARG d   1      29.522 102.784  16.179  0.00  0.00    -0.346 N 
ATOM     16  C   ALA d   1      29.957 103.632  15.253  0.00  0.00     0.248 C 
ATOM     17  O   ALA d   1      29.252 104.009  14.310  0.00  0.00    -0.271 OA
ATOM     18  H8  ARG d   1      30.150 102.465  16.889  0.00  0.00     0.163 HD
BRANCH  16  19
ATOM     19  CA  ALA d   1      31.397 104.106  15.376  0.00  0.00     0.172 C 
ATOM     20  H4  ALA d   1      31.983 103.314  15.865  0.00  0.00     0.098 H 
BRANCH  19  21
ATOM     21  N   ALA d   1      31.954 104.346  14.051  0.00  0.00    -0.067 N 
ATOM     22  H1  ALA d   1      32.908 104.660  14.139  0.00  0.00     0.275 HD
ATOM     23  H2  ALA d   1      31.410 105.052  13.581  0.00  0.00     0.275 HD
ATOM     24  H3  ALA d   1      31.929 103.492  13.516  0.00  0.00     0.275 HD
ENDBRANCH  19  21
BRANCH  19  25
ATOM     25  CB  ALA d   1      31.492 105.374  16.231  0.00  0.00    -0.042 C 
ATOM     26  H5  ALA d   1      31.068 105.177  17.227  0.00  0.00     0.030 H 
ATOM     27  H6  ALA d   1      30.929 106.186  15.747  0.00  0.00     0.030 H 
ATOM     28  H7  ALA d   1      32.547 105.669  16.333  0.00  0.00     0.030 H 
ENDBRANCH  19  25
ENDBRANCH  16  19
ENDBRANCH  13  15
BRANCH  13  29
ATOM     29  CB  ARG d   1      28.014 100.987  16.932  0.00  0.00    -0.036 C 
ATOM     30  H10 ARG d   1      27.013 100.576  16.734  0.00  0.00     0.036 H 
ATOM     31  H11 ARG d   1      28.120 101.194  18.007  0.00  0.00     0.036 H 
BRANCH  29  32
ATOM     32  CG  ARG d   1      29.048  99.931  16.545  0.00  0.00    -0.048 C 
ATOM     33  H12 ARG d   1      29.314  99.354  17.443  0.00  0.00     0.035 H 
ATOM     34  H13 ARG d   1      29.943 100.440  16.158  0.00  0.00     0.035 H 
BRANCH  32  35
ATOM     35  CD  ARG d   1      28.535  98.964  15.476  0.00  0.00     0.009 C 
ATOM     36  H14 ARG d   1      28.338  99.526  14.552  0.00  0.00     0.064 H 
ATOM     37  H15 ARG d   1      27.602  98.503  15.831  0.00  0.00     0.064 H 
BRANCH  35  38
ATOM     38  NE  ARG d   1      29.509  97.906  15.190  0.00  0.00    -0.227 N 
ATOM     39  CZ  ARG d   1      29.536  96.712  15.785  0.00  0.00     0.665 C 
ATOM     40  NH1 ARG d   1      28.631  96.393  16.713  0.00  0.00    -0.235 N 
ATOM     41  NH2 ARG d   1      30.470  95.827  15.448  0.00  0.00    -0.235 N 
ATOM     42  H17 ARG d   1      28.662  95.468  17.166  0.00  0.00     0.174 HD
ATOM     43  H18 ARG d   1      27.902  97.072  16.976  0.00  0.00     0.174 HD
ATOM     44  H19 ARG d   1      31.172  96.066  14.733  0.00  0.00     0.174 HD
ATOM     45  H20 ARG d   1      30.492  94.903  15.902  0.00  0.00     0.174 HD
ATOM     46  H16 ARG d   1      30.226  98.099  14.476  0.00  0.00     0.177 HD
ENDBRANCH  35  38
ENDBRANCH  32  35
ENDBRANCH  29  32
ENDBRANCH  13  29
ENDBRANCH  10  13
ENDBRANCH   7   9
BRANCH   7  47
ATOM     47  CB  THR d   1      24.910 105.748  15.914  0.00  0.00     0.060 C 
ATOM     48  H23 THR d   1      24.160 106.398  16.389  0.00  0.00     0.086 H 
BRANCH  47  49
ATOM     49  OG1 THR d   1      24.461 105.401  14.593  0.00  0.00    -0.393 OA
ATOM     50  H24 THR d   1      23.620 104.962  14.650  0.00  0.00     0.210 HD
ENDBRANCH  47  49
BRANCH  47  51
ATOM     51  CG2 THR d   1      26.241 106.511  15.838  0.00  0.00    -0.050 C 
ATOM     52  H25 THR d   1      26.107 107.423  15.238  0.00  0.00     0.031 H 
ATOM     53  H26 THR d   1      27.004 105.872  15.368  0.00  0.00     0.031 H 
ATOM     54  H27 THR d   1      26.566 106.784  16.853  0.00  0.00     0.031 H 
ENDBRANCH  47  51
ENDBRANCH   7  47
ENDBRANCH   4   7
ENDBRANCH   1   3
BRANCH   1  55
ATOM     55  CB  MLZ d   1      21.226 103.070  19.011  0.00  0.00    -0.038 C 
ATOM     56  H30 MLZ d   1      20.150 102.864  19.113  0.00  0.00     0.036 H 
ATOM     57  H31 MLZ d   1      21.576 103.633  19.889  0.00  0.00     0.036 H 
BRANCH  55  58
ATOM     58  CG  MLZ d   1      21.975 101.748  18.944  0.00  0.00    -0.061 C 
ATOM     59  H32 MLZ d   1      23.050 101.938  19.083  0.00  0.00     0.033 H 
ATOM     60  H33 MLZ d   1      21.808 101.291  17.958  0.00  0.00     0.033 H 
BRANCH  58  61
ATOM     61  CD  MLZ d   1      21.489 100.770  20.043  0.00  0.00    -0.043 C 
ATOM     62  H34 MLZ d   1      21.901  99.771  19.838  0.00  0.00     0.035 H 
ATOM     63  H35 MLZ d   1      20.390 100.726  20.020  0.00  0.00     0.035 H 
BRANCH  61  64
ATOM     64  CE  MLZ d   1      21.936 101.212  21.434  0.00  0.00     0.081 C 
ATOM     65  H36 MLZ d   1      21.401 102.132  21.712  0.00  0.00     0.075 H 
ATOM     66  H37 MLZ d   1      23.019 101.406  21.423  0.00  0.00     0.075 H 
BRANCH  64  67
ATOM     67  NZ  MLZ d   1      21.644 100.171  22.413  0.00  0.00    -0.079 N 
ATOM     68  H38 MLZ d   1      22.105  99.317  22.142  0.00  0.00     0.276 HD
ATOM     69  H39 MLZ d   1      20.649 100.017  22.453  0.00  0.00     0.276 HD
BRANCH  67  70
ATOM     70  CM  MLZ d   1      22.120 100.584  23.713  0.00  0.00     0.065 C 
ATOM     71  H40 MLZ d   1      21.899  99.799  24.451  0.00  0.00     0.067 H 
ATOM     72  H41 MLZ d   1      21.617 101.516  24.009  0.00  0.00     0.067 H 
ATOM     73  H42 MLZ d   1      23.206 100.752  23.669  0.00  0.00     0.067 H 
ENDBRANCH  67  70
ENDBRANCH  64  67
ENDBRANCH  61  64
ENDBRANCH  58  61
ENDBRANCH  55  58
ENDBRANCH   1  55
BRANCH   1  74
ATOM     74  C   MLZ d   1      20.586 105.155  17.783  0.00  0.00     0.241 C 
ATOM     75  O   MLZ d   1      20.931 106.162  18.438  0.00  0.00    -0.271 OA
ATOM     76  N   GLN d   1      19.448 105.116  17.094  0.00  0.00    -0.346 N 
ATOM     77  H43 GLN d   1      19.214 104.297  16.570  0.00  0.00     0.163 HD
BRANCH  76  78
ATOM     78  CA  GLN d   1      18.539 106.258  17.097  0.00  0.00     0.090 C 
ATOM     79  H44 GLN d   1      18.652 106.782  18.057  0.00  0.00     0.087 H 
BRANCH  78  80
ATOM     80  C   GLN d   1      17.087 105.813  16.967  0.00  0.00     0.241 C 
ATOM     81  O   GLN d   1      16.818 104.653  16.673  0.00  0.00    -0.271 OA
ATOM     82  N   THR d   1      16.159 106.739  17.184  0.00  0.00    -0.344 N 
ATOM     83  H51 THR d   1      16.440 107.659  17.457  0.00  0.00     0.163 HD
BRANCH  82  84
ATOM     84  CA  THR d   1      14.734 106.441  17.032  0.00  0.00     0.113 C 
ATOM     85  H52 THR d   1      14.493 105.563  17.649  0.00  0.00     0.091 H 
BRANCH  84  86
ATOM     86  C   THR d   1      14.435 106.120  15.574  0.00  0.00     0.243 C 
ATOM     87  O   THR d   1      15.011 106.726  14.672  0.00  0.00    -0.271 OA
ATOM     88  N   ALA d   1      13.552 105.155  15.339  0.00  0.00    -0.345 N 
ATOM     89  H58 ALA d   1      13.144 104.664  16.108  0.00  0.00     0.163 HD
BRANCH  88  90
ATOM     90  CA  ALA d   1      13.169 104.801  13.976  0.00  0.00     0.093 C 
ATOM     91  H59 ALA d   1      13.925 105.206  13.288  0.00  0.00     0.089 H 
BRANCH  90  92
ATOM     92  C   ALA d   1      11.817 105.415  13.620  0.00  0.00     0.196 C 
ATOM     93  O   ALA d   1      11.714 106.225  12.697  0.00  0.00    -0.646 OA
ATOM     94  OXT ALA d   1      10.801 105.113  14.248  0.00  0.00    -0.646 OA
ENDBRANCH  90  92
BRANCH  90  95
ATOM     95  CB  ALA d   1      13.129 103.287  13.807  0.00  0.00    -0.048 C 
ATOM     96  H60 ALA d   1      12.839 103.041  12.775  0.00  0.00     0.030 H 
ATOM     97  H61 ALA d   1      12.395 102.859  14.506  0.00  0.00     0.030 H 
ATOM     98  H62 ALA d   1      14.124 102.868  14.018  0.00  0.00     0.030 H 
ENDBRANCH  90  95
ENDBRANCH  88  90
ENDBRANCH  84  86
BRANCH  84  99
ATOM     99  CB  THR d   1      13.845 107.619  17.487  0.00  0.00     0.060 C 
ATOM    100  H53 THR d   1      13.873 108.403  16.716  0.00  0.00     0.086 H 
BRANCH  99 101
ATOM    101  OG1 THR d   1      14.342 108.157  18.720  0.00  0.00    -0.393 OA
ATOM    102  H54 THR d   1      13.791 108.881  18.994  0.00  0.00     0.210 HD
ENDBRANCH  99 101
BRANCH  99 103
ATOM    103  CG2 THR d   1      12.404 107.167  17.677  0.00  0.00    -0.050 C 
ATOM    104  H55 THR d   1      11.791 108.021  18.000  0.00  0.00     0.031 H 
ATOM    105  H56 THR d   1      12.365 106.378  18.442  0.00  0.00     0.031 H 
ATOM    106  H57 THR d   1      12.014 106.775  16.726  0.00  0.00     0.031 H 
ENDBRANCH  99 103
ENDBRANCH  84  99
ENDBRANCH  82  84
ENDBRANCH  78  80
BRANCH  78 107
ATOM    107  CB  GLN d   1      18.898 107.231  15.972  0.00  0.00    -0.030 C 
ATOM    108  H45 GLN d   1      19.894 107.647  16.184  0.00  0.00     0.037 H 
ATOM    109  H46 GLN d   1      18.155 108.042  15.970  0.00  0.00     0.037 H 
BRANCH 107 110
ATOM    110  CG  GLN d   1      18.929 106.615  14.582  0.00  0.00     0.011 C 
ATOM    111  H47 GLN d   1      17.899 106.546  14.201  0.00  0.00     0.047 H 
ATOM    112  H48 GLN d   1      19.363 105.606  14.650  0.00  0.00     0.047 H 
BRANCH 110 113
ATOM    113  CD  GLN d   1      19.761 107.445  13.607  0.00  0.00     0.215 C 
ATOM    114  OE1 GLN d   1      20.571 106.912  12.849  0.00  0.00    -0.274 OA
ATOM    115  NE2 GLN d   1      19.567 108.757  13.636  0.00  0.00    -0.370 N 
ATOM    116  H49 GLN d   1      20.083 109.353  13.020  0.00  0.00     0.159 HD
ATOM    117  H50 GLN d   1      18.904 109.150  14.273  0.00  0.00     0.159 HD
ENDBRANCH 110 113
ENDBRANCH 107 110
ENDBRANCH  78 107
ENDBRANCH  76  78
ENDBRANCH   1  74
TORSDOF 35
