REMARK  7 active torsions:
REMARK  status: ('A' for Active; 'I' for Inactive)
REMARK    1  A    between atoms: C13_2  and  N17_17 
REMARK    2  A    between atoms: C4_6  and  O15_15 
REMARK    3  A    between atoms: C7_9  and  C5_7 
REMARK    4  A    between atoms: C8_10  and  C7_9 
REMARK    5  A    between atoms: C7_9  and  O16_16 
REMARK    6  A    between atoms: C11_12  and  S20_20 
REMARK    7  A    between atoms: S20_20  and  C23_23 
ROOT
ATOM      1  C7  MOL d   1      22.871  -7.280 -29.083  0.00  0.00     0.075 C 
ATOM      2  H10 MOL d   1      23.209  -8.081 -29.758  0.00  0.00     0.092 H 
ENDROOT
BRANCH   1   3
ATOM      3  C5  MOL d   1      23.246  -7.741 -27.692  0.00  0.00     0.057 C 
ATOM      4  C4  MOL d   1      23.132  -9.276 -27.785  0.00  0.00     0.048 C 
ATOM      5  C3  MOL d   1      23.622 -10.014 -26.571  0.00  0.00    -0.040 C 
ATOM      6  H8  MOL d   1      23.746  -9.602 -28.637  0.00  0.00     0.084 H 
ATOM      7  C2  MOL d   1      25.026  -9.630 -26.204  0.00  0.00    -0.057 C 
ATOM      8  H6  MOL d   1      22.959  -9.784 -25.724  0.00  0.00     0.036 H 
ATOM      9  H7  MOL d   1      23.592 -11.094 -26.777  0.00  0.00     0.036 H 
ATOM     10  C1  MOL d   1      25.184  -8.113 -26.028  0.00  0.00    -0.009 C 
ATOM     11  H4  MOL d   1      25.294 -10.126 -25.259  0.00  0.00     0.033 H 
ATOM     12  H5  MOL d   1      25.705  -9.967 -27.001  0.00  0.00     0.033 H 
ATOM     13  C6  MOL d   1      24.649  -7.262 -27.230  0.00  0.00     0.136 C 
ATOM     14  H2  MOL d   1      26.254  -7.891 -25.899  0.00  0.00     0.044 H 
ATOM     15  H3  MOL d   1      24.635  -7.813 -25.123  0.00  0.00     0.044 H 
ATOM     16  O14 MOL d   1      25.228  -6.353 -27.690  0.00  0.00    -0.297 OA
ATOM     17  H9  MOL d   1      22.510  -7.359 -26.969  0.00  0.00     0.060 H 
BRANCH   4  18
ATOM     18  O15 MOL d   1      21.760  -9.627 -28.051  0.00  0.00    -0.395 OA
ATOM     19  H13 MOL d   1      21.487  -9.234 -28.872  0.00  0.00     0.210 HD
ENDBRANCH   4  18
ENDBRANCH   1   3
BRANCH   1  20
ATOM     20  C8  MOL d   1      23.374  -5.998 -29.698  0.00  0.00     0.004 A 
ATOM     21  C13 MOL d   1      22.850  -4.719 -29.367  0.00  0.00     0.113 A 
ATOM     22  C12 MOL d   1      23.303  -3.609 -29.993  0.00  0.00    -0.029 A 
ATOM     23  C11 MOL d   1      24.279  -3.761 -30.942  0.00  0.00     0.061 A 
ATOM     24  H12 MOL d   1      22.906  -2.630 -29.751  0.00  0.00     0.089 H 
ATOM     25  C10 MOL d   1      24.791  -5.007 -31.299  0.00  0.00    -0.061 A 
ATOM     26  C9  MOL d   1      24.337  -6.149 -30.674  0.00  0.00    -0.070 A 
ATOM     27  H1  MOL d   1      25.549  -5.079 -32.071  0.00  0.00     0.085 H 
ATOM     28  H11 MOL d   1      24.722  -7.127 -30.939  0.00  0.00     0.084 H 
BRANCH  21  29
ATOM     29  N17 MOL d   1      21.911  -4.614 -28.442  0.00  0.00    -0.115 N 
ATOM     30  O18 MOL d   1      22.189  -4.009 -27.259  0.00  0.00    -0.532 OA
ATOM     31  O19 MOL d   1      20.667  -5.111 -28.677  0.00  0.00    -0.532 OA
ENDBRANCH  21  29
BRANCH  23  32
ATOM     32  S20 MOL d   1      24.894  -2.313 -31.806  0.00  0.00     0.172 S 
ATOM     33  O21 MOL d   1      23.803  -1.532 -32.395  0.00  0.00    -0.223 OA
ATOM     34  O22 MOL d   1      25.543  -2.889 -32.969  0.00  0.00    -0.223 OA
BRANCH  32  35
ATOM     35  C23 MOL d   1      26.052  -1.311 -30.870  0.00  0.00     0.020 C 
ATOM     36  H15 MOL d   1      26.370  -0.453 -31.480  0.00  0.00     0.049 H 
ATOM     37  H16 MOL d   1      26.930  -1.917 -30.604  0.00  0.00     0.049 H 
ATOM     38  H17 MOL d   1      25.565  -0.949 -29.953  0.00  0.00     0.049 H 
ENDBRANCH  32  35
ENDBRANCH  23  32
ENDBRANCH   1  20
BRANCH   1  39
ATOM     39  O16 MOL d   1      21.464  -7.217 -29.119  0.00  0.00    -0.390 OA
ATOM     40  H14 MOL d   1      21.103  -8.009 -28.739  0.00  0.00     0.210 HD
ENDBRANCH   1  39
TORSDOF 7
