REMARK  4 active torsions:
REMARK  status: ('A' for Active; 'I' for Inactive)
REMARK    1  A    between atoms: C7_9  and  C3_2 
REMARK       I    between atoms: N15_21  and  C13_8 
REMARK    2  A    between atoms: C13_8  and  C10_23 
REMARK    3  A    between atoms: C19_17  and  N22_16 
REMARK    4  A    between atoms: C16_20  and  N15_21 
ROOT
ATOM      1  C17 93C d   1      -7.168  -3.115 -16.740  0.00  0.00    -0.055 A 
ATOM      2  C18 93C d   1      -7.470  -4.426 -17.161  0.00  0.00    -0.060 A 
ATOM      3  C19 93C d   1      -6.614  -5.489 -16.857  0.00  0.00     0.017 A 
ATOM      4  C20 93C d   1      -5.475  -5.185 -16.100  0.00  0.00    -0.060 A 
ATOM      5  C21 93C d   1      -5.186  -3.859 -15.692  0.00  0.00    -0.055 A 
ATOM      6  C16 93C d   1      -6.041  -2.810 -15.990  0.00  0.00     0.035 A 
ATOM      7  H4  93C d   1      -7.844  -2.312 -17.013  0.00  0.00     0.087 H 
ATOM      8  H7  93C d   1      -8.376  -4.612 -17.727  0.00  0.00     0.086 H 
ATOM      9  H14 93C d   1      -4.798  -5.984 -15.819  0.00  0.00     0.086 H 
ATOM     10  H15 93C d   1      -4.277  -3.661 -15.135  0.00  0.00     0.087 H 
ENDROOT
BRANCH   6  11
ATOM     11  N15 93C d   1      -5.871  -1.497 -15.621  0.00  0.00    -0.323 N 
ATOM     12  C13 93C d   1      -4.981  -0.964 -14.750  0.00  0.00     0.259 C 
ATOM     13  O14 93C d   1      -4.149  -1.567 -14.089  0.00  0.00    -0.267 OA
ATOM     14  H16 93C d   1      -6.491  -0.844 -16.056  0.00  0.00     0.169 HD
BRANCH  12  15
ATOM     15  C10 93C d   1      -5.067   0.525 -14.500  0.00  0.00     0.067 A 
ATOM     16  C9  93C d   1      -4.672   1.037 -13.271  0.00  0.00     0.021 A 
ATOM     17  N8  93C d   1      -4.791   2.349 -13.041  0.00  0.00    -0.238 NA
ATOM     18  H5  93C d   1      -4.272   0.381 -12.507  0.00  0.00     0.116 H 
ATOM     19  C7  93C d   1      -5.281   3.179 -14.002  0.00  0.00     0.178 A 
ATOM     20  N12 93C d   1      -5.675   2.691 -15.200  0.00  0.00    -0.238 NA
ATOM     21  C11 93C d   1      -5.573   1.388 -15.456  0.00  0.00     0.021 A 
ATOM     22  H17 93C d   1      -5.888   1.001 -16.419  0.00  0.00     0.116 H 
BRANCH  19  23
ATOM     23  C3  93C d   1      -5.464   4.621 -13.718  0.00  0.00     0.104 A 
ATOM     24  C4  93C d   1      -5.941   5.496 -14.700  0.00  0.00    -0.051 A 
ATOM     25  C5  93C d   1      -6.157   6.828 -14.378  0.00  0.00    -0.079 A 
ATOM     26  H6  93C d   1      -6.140   5.136 -15.703  0.00  0.00     0.087 H 
ATOM     27  C6  93C d   1      -5.957   7.256 -13.076  0.00  0.00    -0.066 A 
ATOM     28  H1  93C d   1      -6.480   7.529 -15.140  0.00  0.00     0.083 H 
ATOM     29  C1  93C d   1      -5.488   6.347 -12.126  0.00  0.00     0.003 A 
ATOM     30  H2  93C d   1      -6.162   8.284 -12.798  0.00  0.00     0.085 H 
ATOM     31  N2  93C d   1      -5.270   5.046 -12.469  0.00  0.00    -0.257 NA
ATOM     32  H3  93C d   1      -5.296   6.677 -11.111  0.00  0.00     0.114 H 
ENDBRANCH  19  23
ENDBRANCH  12  15
ENDBRANCH   6  11
BRANCH   3  33
ATOM     33  N22 93C d   1      -6.864  -6.853 -17.218  0.00  0.00    -0.220 NA
ATOM     34  C23 93C d   1      -5.953  -7.448 -18.060  0.00  0.00     0.204 C 
ATOM     35  O27 93C d   1      -4.835  -7.022 -18.259  0.00  0.00    -0.279 OA
ATOM     36  C24 93C d   1      -6.487  -8.692 -18.722  0.00  0.00     0.006 C 
ATOM     37  C25 93C d   1      -7.989  -8.544 -18.498  0.00  0.00    -0.046 C 
ATOM     38  H8  93C d   1      -6.098  -9.601 -18.240  0.00  0.00     0.046 H 
ATOM     39  H9  93C d   1      -6.242  -8.712 -19.794  0.00  0.00     0.046 H 
ATOM     40  C26 93C d   1      -8.162  -7.157 -17.867  0.00  0.00    -0.009 C 
ATOM     41  H10 93C d   1      -8.357  -9.326 -17.818  0.00  0.00     0.035 H 
ATOM     42  H11 93C d   1      -8.530  -8.604 -19.454  0.00  0.00     0.035 H 
ATOM     43  H12 93C d   1      -8.970  -7.172 -17.121  0.00  0.00     0.057 H 
ATOM     44  H13 93C d   1      -8.390  -6.409 -18.640  0.00  0.00     0.057 H 
ENDBRANCH   3  33
TORSDOF 4
