REMARK WARNING: 32 MAX_TORS EXCEEDED!!!
REMARK  37 active torsions:
REMARK  status: ('A' for Active; 'I' for Inactive)
REMARK    1  A    between atoms: N_1  and  CA_2 
REMARK    2  A    between atoms: CA_2  and  C_3 
REMARK    3  A    between atoms: CA_2  and  CB_5 
REMARK       I    between atoms: C_3  and  N_9 
REMARK    4  A    between atoms: CB_5  and  CG1_6 
REMARK    5  A    between atoms: CB_5  and  CG2_7 
REMARK    6  A    between atoms: CG1_6  and  CD1_8 
REMARK    7  A    between atoms: N_9  and  CA_10 
REMARK    8  A    between atoms: CA_10  and  C_11 
REMARK    9  A    between atoms: CA_10  and  CB_13 
REMARK       I    between atoms: C_11  and  N_17 
REMARK   10  A    between atoms: CB_13  and  CG_14 
REMARK       I    between atoms: CG_14  and  ND2_16 
REMARK   11  A    between atoms: N_17  and  CA_18 
REMARK   12  A    between atoms: CA_18  and  CB_19 
REMARK   13  A    between atoms: CA_18  and  C_31 
REMARK   14  A    between atoms: CB_19  and  CG_20 
REMARK   15  A    between atoms: CZ_25  and  OH_26 
REMARK   16  A    between atoms: OH_26  and  S_27 
REMARK       I    between atoms: C_31  and  N_33 
REMARK   17  A    between atoms: N_33  and  CA_34 
REMARK   18  A    between atoms: CA_34  and  CB_35 
REMARK   19  A    between atoms: CA_34  and  C_47 
REMARK   20  A    between atoms: CB_35  and  CG_36 
REMARK   21  A    between atoms: CZ_41  and  OH_42 
REMARK   22  A    between atoms: OH_42  and  S_43 
REMARK       I    between atoms: C_47  and  N_49 
REMARK   23  A    between atoms: N_49  and  CA_50 
REMARK   24  A    between atoms: CA_50  and  C_51 
REMARK   25  A    between atoms: CA_50  and  CB_53 
REMARK       I    between atoms: C_51  and  N_56 
REMARK   26  A    between atoms: CB_53  and  OG1_54 
REMARK   27  A    between atoms: CB_53  and  CG2_55 
REMARK   28  A    between atoms: N_56  and  CA_57 
REMARK   29  A    between atoms: CA_57  and  C_58 
REMARK   30  A    between atoms: CA_57  and  CB_60 
REMARK       I    between atoms: C_58  and  N_62 
REMARK   31  A    between atoms: CB_60  and  OG_61 
REMARK   32  A    between atoms: N_62  and  CA_63 
REMARK   33  A    between atoms: CA_63  and  C_64 
REMARK   34  A    between atoms: CA_63  and  CB_66 
REMARK       I    between atoms: C_64  and  N_71 
REMARK   35  A    between atoms: CB_66  and  CG_67 
REMARK   36  A    between atoms: CG_67  and  CD_68 
REMARK   37  A    between atoms: CA_72  and  C_73 
ROOT
ATOM      1  CA  TYS d   1      -8.989 -10.159 -13.872  0.00  0.00     0.093 C 
ATOM      2  H29 TYS d   1      -9.706 -10.383 -14.675  0.00  0.00     0.088 H 
ENDROOT
BRANCH   1   3
ATOM      3  N   TYS d   1      -7.667 -10.007 -14.475  0.00  0.00    -0.346 N 
ATOM      4  C   TYS d   1      -7.475 -10.006 -15.792  0.00  0.00     0.241 C 
ATOM      5  O   TYS d   1      -8.406  -9.927 -16.597  0.00  0.00    -0.271 OA
ATOM      6  H28 TYS d   1      -6.875  -9.899 -13.874  0.00  0.00     0.163 HD
BRANCH   4   7
ATOM      7  CA  TYS d   1      -6.078 -10.138 -16.306  0.00  0.00     0.093 C 
ATOM      8  H21 TYS d   1      -5.931  -9.397 -17.105  0.00  0.00     0.088 H 
BRANCH   7   9
ATOM      9  N   TYS d   1      -4.971  -9.958 -15.338  0.00  0.00    -0.346 N 
ATOM     10  C   ASN d   1      -4.635  -8.762 -14.858  0.00  0.00     0.241 C 
ATOM     11  O   ASN d   1      -5.187  -7.717 -15.232  0.00  0.00    -0.271 OA
ATOM     12  H20 TYS d   1      -4.459 -10.762 -15.035  0.00  0.00     0.163 HD
BRANCH  10  13
ATOM     13  CA  ASN d   1      -3.512  -8.732 -13.806  0.00  0.00     0.097 C 
ATOM     14  H15 ASN d   1      -2.978  -9.693 -13.836  0.00  0.00     0.088 H 
BRANCH  13  15
ATOM     15  N   ASN d   1      -2.586  -7.663 -14.117  0.00  0.00    -0.346 N 
ATOM     16  C   ILE d   1      -1.688  -7.764 -15.093  0.00  0.00     0.249 C 
ATOM     17  O   ILE d   1      -1.626  -8.728 -15.854  0.00  0.00    -0.271 OA
ATOM     18  H14 ASN d   1      -2.623  -6.820 -13.580  0.00  0.00     0.163 HD
BRANCH  16  19
ATOM     19  CA  ILE d   1      -0.751  -6.583 -15.275  0.00  0.00     0.179 C 
ATOM     20  H4  ILE d   1      -0.902  -5.864 -14.457  0.00  0.00     0.099 H 
BRANCH  19  21
ATOM     21  N   ILE d   1       0.659  -7.085 -15.229  0.00  0.00    -0.066 N 
ATOM     22  H1  ILE d   1       0.828  -7.532 -14.341  0.00  0.00     0.275 HD
ATOM     23  H2  ILE d   1       1.295  -6.311 -15.342  0.00  0.00     0.275 HD
ATOM     24  H3  ILE d   1       0.803  -7.750 -15.973  0.00  0.00     0.275 HD
ENDBRANCH  19  21
BRANCH  19  25
ATOM     25  CB  ILE d   1      -1.068  -5.886 -16.618  0.00  0.00    -0.022 C 
ATOM     26  H5  ILE d   1      -0.874  -6.600 -17.432  0.00  0.00     0.043 H 
BRANCH  25  27
ATOM     27  CG1 ILE d   1      -0.133  -4.675 -16.812  0.00  0.00    -0.063 C 
ATOM     28  H6  ILE d   1       0.903  -5.018 -16.671  0.00  0.00     0.033 H 
ATOM     29  H7  ILE d   1      -0.380  -3.928 -16.044  0.00  0.00     0.033 H 
BRANCH  27  30
ATOM     30  CD1 ILE d   1      -0.225  -4.001 -18.171  0.00  0.00    -0.076 C 
ATOM     31  H11 ILE d   1       0.476  -3.155 -18.209  0.00  0.00     0.027 H 
ATOM     32  H12 ILE d   1      -1.250  -3.635 -18.330  0.00  0.00     0.027 H 
ATOM     33  H13 ILE d   1       0.032  -4.726 -18.958  0.00  0.00     0.027 H 
ENDBRANCH  27  30
ENDBRANCH  25  27
BRANCH  25  34
ATOM     34  CG2 ILE d   1      -2.546  -5.488 -16.684  0.00  0.00    -0.070 C 
ATOM     35  H8  ILE d   1      -3.173  -6.381 -16.541  0.00  0.00     0.028 H 
ATOM     36  H9  ILE d   1      -2.762  -5.042 -17.666  0.00  0.00     0.028 H 
ATOM     37  H10 ILE d   1      -2.764  -4.756 -15.893  0.00  0.00     0.028 H 
ENDBRANCH  25  34
ENDBRANCH  19  25
ENDBRANCH  16  19
ENDBRANCH  13  15
BRANCH  13  38
ATOM     38  CB  ASN d   1      -4.062  -8.517 -12.385  0.00  0.00     0.036 C 
ATOM     39  H16 ASN d   1      -4.722  -7.637 -12.392  0.00  0.00     0.051 H 
ATOM     40  H17 ASN d   1      -3.217  -8.336 -11.704  0.00  0.00     0.051 H 
BRANCH  38  41
ATOM     41  CG  ASN d   1      -4.835  -9.691 -11.887  0.00  0.00     0.217 C 
ATOM     42  OD1 ASN d   1      -6.006  -9.824 -12.162  0.00  0.00    -0.274 OA
ATOM     43  ND2 ASN d   1      -4.163 -10.583 -11.157  0.00  0.00    -0.370 N 
ATOM     44  H18 ASN d   1      -4.632 -11.390 -10.797  0.00  0.00     0.159 HD
ATOM     45  H19 ASN d   1      -3.191 -10.445 -10.970  0.00  0.00     0.159 HD
ENDBRANCH  38  41
ENDBRANCH  13  38
ENDBRANCH  10  13
ENDBRANCH   7   9
BRANCH   7  46
ATOM     46  CB  TYS d   1      -6.049 -11.572 -16.903  0.00  0.00    -0.014 C 
ATOM     47  H22 TYS d   1      -7.016 -11.760 -17.392  0.00  0.00     0.043 H 
ATOM     48  H23 TYS d   1      -5.911 -12.285 -16.077  0.00  0.00     0.043 H 
BRANCH  46  49
ATOM     49  CG  TYS d   1      -4.956 -11.809 -17.916  0.00  0.00    -0.056 A 
ATOM     50  CD1 TYS d   1      -4.645 -13.148 -18.182  0.00  0.00    -0.074 A 
ATOM     51  CE1 TYS d   1      -3.660 -13.448 -19.116  0.00  0.00    -0.049 A 
ATOM     52  H24 TYS d   1      -5.168 -13.944 -17.664  0.00  0.00     0.084 H 
ATOM     53  CZ  TYS d   1      -3.000 -12.406 -19.781  0.00  0.00     0.092 A 
ATOM     54  H26 TYS d   1      -3.405 -14.480 -19.328  0.00  0.00     0.087 H 
ATOM     55  CE2 TYS d   1      -3.308 -11.080 -19.523  0.00  0.00    -0.049 A 
ATOM     56  CD2 TYS d   1      -4.285 -10.780 -18.585  0.00  0.00    -0.074 A 
ATOM     57  H27 TYS d   1      -2.791 -10.285 -20.049  0.00  0.00     0.087 H 
ATOM     58  H25 TYS d   1      -4.529  -9.746 -18.370  0.00  0.00     0.084 H 
BRANCH  53  59
ATOM     59  OH  TYS d   1      -2.020 -12.685 -20.696  0.00  0.00    -0.214 OA
BRANCH  59  60
ATOM     60  S   TYS d   1      -0.643 -13.172 -20.229  0.00  0.00     0.257 S 
ATOM     61  O1  TYS d   1       0.476 -12.113 -20.795  0.00  0.00    -0.572 OA
ATOM     62  O2  TYS d   1      -0.466 -14.502 -20.767  0.00  0.00    -0.572 OA
ATOM     63  O3  TYS d   1      -0.537 -13.220 -18.788  0.00  0.00    -0.572 OA
ENDBRANCH  59  60
ENDBRANCH  53  59
ENDBRANCH  46  49
ENDBRANCH   7  46
ENDBRANCH   4   7
ENDBRANCH   1   3
BRANCH   1  64
ATOM     64  CB  TYS d   1      -8.957 -11.353 -12.892  0.00  0.00    -0.014 C 
ATOM     65  H30 TYS d   1      -9.985 -11.609 -12.596  0.00  0.00     0.043 H 
ATOM     66  H31 TYS d   1      -8.377 -11.076 -11.999  0.00  0.00     0.043 H 
BRANCH  64  67
ATOM     67  CG  TYS d   1      -8.310 -12.559 -13.558  0.00  0.00    -0.056 A 
ATOM     68  CD1 TYS d   1      -8.965 -13.161 -14.618  0.00  0.00    -0.074 A 
ATOM     69  CE1 TYS d   1      -8.397 -14.276 -15.258  0.00  0.00    -0.049 A 
ATOM     70  H32 TYS d   1      -9.919 -12.772 -14.956  0.00  0.00     0.084 H 
ATOM     71  CZ  TYS d   1      -7.172 -14.806 -14.838  0.00  0.00     0.092 A 
ATOM     72  H34 TYS d   1      -8.917 -14.733 -16.092  0.00  0.00     0.087 H 
ATOM     73  CE2 TYS d   1      -6.507 -14.189 -13.775  0.00  0.00    -0.049 A 
ATOM     74  CD2 TYS d   1      -7.077 -13.070 -13.125  0.00  0.00    -0.074 A 
ATOM     75  H35 TYS d   1      -5.547 -14.571 -13.446  0.00  0.00     0.087 H 
ATOM     76  H33 TYS d   1      -6.561 -12.607 -12.292  0.00  0.00     0.084 H 
BRANCH  71  77
ATOM     77  OH  TYS d   1      -6.633 -15.903 -15.510  0.00  0.00    -0.214 OA
BRANCH  77  78
ATOM     78  S   TYS d   1      -6.650 -17.299 -14.821  0.00  0.00     0.257 S 
ATOM     79  O1  TYS d   1      -7.998 -17.720 -14.557  0.00  0.00    -0.572 OA
ATOM     80  O2  TYS d   1      -6.024 -18.247 -15.706  0.00  0.00    -0.572 OA
ATOM     81  O3  TYS d   1      -5.826 -17.207 -13.410  0.00  0.00    -0.572 OA
ENDBRANCH  77  78
ENDBRANCH  71  77
ENDBRANCH  64  67
ENDBRANCH   1  64
BRANCH   1  82
ATOM     82  C   TYS d   1      -9.464  -8.915 -13.163  0.00  0.00     0.241 C 
ATOM     83  O   TYS d   1     -10.680  -8.659 -13.100  0.00  0.00    -0.271 OA
ATOM     84  N   THR d   1      -8.519  -8.152 -12.621  0.00  0.00    -0.344 N 
ATOM     85  H36 THR d   1      -7.575  -8.481 -12.639  0.00  0.00     0.163 HD
BRANCH  84  86
ATOM     86  CA  THR d   1      -8.794  -6.844 -11.995  0.00  0.00     0.113 C 
ATOM     87  H37 THR d   1      -9.732  -6.465 -12.427  0.00  0.00     0.091 H 
BRANCH  86  88
ATOM     88  C   THR d   1      -7.712  -5.817 -12.278  0.00  0.00     0.243 C 
ATOM     89  O   THR d   1      -6.513  -6.146 -12.380  0.00  0.00    -0.271 OA
ATOM     90  N   SER d   1      -8.127  -4.544 -12.393  0.00  0.00    -0.344 N 
ATOM     91  H43 SER d   1      -9.108  -4.351 -12.417  0.00  0.00     0.163 HD
BRANCH  90  92
ATOM     92  CA  SER d   1      -7.185  -3.443 -12.483  0.00  0.00     0.109 C 
ATOM     93  H44 SER d   1      -6.306  -3.814 -13.031  0.00  0.00     0.090 H 
BRANCH  92  94
ATOM     94  C   SER d   1      -6.707  -2.912 -11.134  0.00  0.00     0.243 C 
ATOM     95  O   SER d   1      -5.838  -2.035 -11.108  0.00  0.00    -0.271 OA
ATOM     96  N   GLU d   1      -7.238  -3.444 -10.039  0.00  0.00    -0.346 N 
ATOM     97  H48 GLU d   1      -7.885  -4.202 -10.122  0.00  0.00     0.163 HD
BRANCH  96  98
ATOM     98  CA  GLU d   1      -6.888  -2.933  -8.711  0.00  0.00     0.090 C 
ATOM     99  H49 GLU d   1      -7.004  -1.839  -8.705  0.00  0.00     0.087 H 
BRANCH  98 100
ATOM    100  C   GLU d   1      -5.464  -3.288  -8.391  0.00  0.00     0.243 C 
ATOM    101  O   GLU d   1      -5.011  -4.408  -8.725  0.00  0.00    -0.271 OA
ATOM    102  N   PRO d   1      -4.737  -2.395  -7.733  0.00  0.00    -0.336 N 
ATOM    103  CA  PRO d   1      -3.342  -2.722  -7.385  0.00  0.00     0.098 C 
ATOM    104  CD  PRO d   1      -5.108  -1.047  -7.270  0.00  0.00    -0.001 C 
ATOM    105  CB  PRO d   1      -2.795  -1.414  -6.831  0.00  0.00    -0.035 C 
ATOM    106  H54 PRO d   1      -2.784  -3.011  -8.288  0.00  0.00     0.089 H 
ATOM    107  CG  PRO d   1      -4.014  -0.730  -6.289  0.00  0.00    -0.048 C 
ATOM    108  H55 PRO d   1      -2.328  -0.814  -7.626  0.00  0.00     0.036 H 
ATOM    109  H56 PRO d   1      -2.061  -1.601  -6.033  0.00  0.00     0.036 H 
ATOM    110  H57 PRO d   1      -3.853   0.356  -6.228  0.00  0.00     0.035 H 
ATOM    111  H58 PRO d   1      -4.265  -1.120  -5.292  0.00  0.00     0.035 H 
ATOM    112  H59 PRO d   1      -6.093  -1.052  -6.780  0.00  0.00     0.064 H 
ATOM    113  H60 PRO d   1      -5.116  -0.328  -8.103  0.00  0.00     0.064 H 
BRANCH 103 114
ATOM    114  C   PRO d   1      -3.257  -3.871  -6.378  0.00  0.00     0.196 C 
ATOM    115  O   PRO d   1      -2.195  -4.562  -6.395  0.00  0.00    -0.646 OA
ATOM    116  OXT PRO d   1      -4.180  -4.111  -5.573  0.00  0.00    -0.646 OA
ENDBRANCH 103 114
ENDBRANCH  98 100
BRANCH  98 117
ATOM    117  CB  GLU d   1      -7.793  -3.543  -7.642  0.00  0.00    -0.029 C 
ATOM    118  H50 GLU d   1      -7.450  -3.178  -6.663  0.00  0.00     0.037 H 
ATOM    119  H51 GLU d   1      -7.677  -4.636  -7.687  0.00  0.00     0.037 H 
BRANCH 117 120
ATOM    120  CG  GLU d   1      -9.293  -3.224  -7.764  0.00  0.00     0.018 C 
ATOM    121  H52 GLU d   1      -9.572  -3.250  -8.828  0.00  0.00     0.049 H 
ATOM    122  H53 GLU d   1      -9.472  -2.216  -7.362  0.00  0.00     0.049 H 
BRANCH 120 123
ATOM    123  CD  GLU d   1     -10.173  -4.214  -7.005  0.00  0.00     0.172 C 
ATOM    124  OE1 GLU d   1     -10.983  -3.753  -6.165  0.00  0.00    -0.648 OA
ATOM    125  OE2 GLU d   1     -10.082  -5.435  -7.304  0.00  0.00    -0.648 OA
ENDBRANCH 120 123
ENDBRANCH 117 120
ENDBRANCH  98 117
ENDBRANCH  96  98
ENDBRANCH  92  94
BRANCH  92 126
ATOM    126  CB  SER d   1      -7.766  -2.273 -13.246  0.00  0.00     0.044 C 
ATOM    127  H45 SER d   1      -8.127  -2.627 -14.223  0.00  0.00     0.077 H 
ATOM    128  H46 SER d   1      -6.980  -1.519 -13.397  0.00  0.00     0.077 H 
BRANCH 126 129
ATOM    129  OG  SER d   1      -8.843  -1.681 -12.545  0.00  0.00    -0.398 OA
ATOM    130  H47 SER d   1      -8.537  -1.369 -11.702  0.00  0.00     0.209 HD
ENDBRANCH 126 129
ENDBRANCH  92 126
ENDBRANCH  90  92
ENDBRANCH  86  88
BRANCH  86 131
ATOM    131  CB  THR d   1      -8.999  -6.989 -10.464  0.00  0.00     0.060 C 
ATOM    132  H38 THR d   1      -9.903  -7.588 -10.281  0.00  0.00     0.086 H 
BRANCH 131 133
ATOM    133  OG1 THR d   1      -9.157  -5.702  -9.878  0.00  0.00    -0.393 OA
ATOM    134  H39 THR d   1      -9.282  -5.795  -8.941  0.00  0.00     0.210 HD
ENDBRANCH 131 133
BRANCH 131 135
ATOM    135  CG2 THR d   1      -7.816  -7.671  -9.819  0.00  0.00    -0.050 C 
ATOM    136  H40 THR d   1      -7.989  -7.760  -8.736  0.00  0.00     0.031 H 
ATOM    137  H41 THR d   1      -6.908  -7.077  -9.997  0.00  0.00     0.031 H 
ATOM    138  H42 THR d   1      -7.689  -8.674 -10.253  0.00  0.00     0.031 H 
ENDBRANCH 131 135
ENDBRANCH  86 131
ENDBRANCH  84  86
ENDBRANCH   1  82
TORSDOF 37
