REMARK  7 active torsions:
REMARK  status: ('A' for Active; 'I' for Inactive)
REMARK    1  A    between atoms: C9_18  and  C10_1 
REMARK    2  A    between atoms: N18_23  and  C20_5 
REMARK    3  A    between atoms: C24_7  and  C29_29 
REMARK    4  A    between atoms: C28_9  and  C30_30 
REMARK    5  A    between atoms: C5_14  and  C9_18 
REMARK    6  A    between atoms: C6_15  and  O7_16 
REMARK    7  A    between atoms: N23_26  and  C31_31 
ROOT
ATOM      1  C10 MOL d   1     -25.308  -0.132  22.065  0.00  0.00     0.012 A 
ATOM      2  C13 MOL d   1     -26.202   1.258  23.774  0.00  0.00    -0.055 A 
ATOM      3  C15 MOL d   1     -27.638  -0.260  22.615  0.00  0.00     0.060 A 
ATOM      4  C17 MOL d   1     -28.868  -0.800  22.425  0.00  0.00     0.269 A 
ATOM      5  C21 MOL d   1     -29.704   0.578  24.096  0.00  0.00     0.336 A 
ATOM      6  C12 MOL d   1     -25.127   0.841  23.019  0.00  0.00    -0.067 A 
ATOM      7  C14 MOL d   1     -27.458   0.699  23.567  0.00  0.00     0.054 A 
ATOM      8  C16 MOL d   1     -26.557  -0.685  21.851  0.00  0.00    -0.052 A 
ATOM      9  N18 MOL d   1     -29.893  -0.383  23.156  0.00  0.00    -0.228 N 
ATOM     10  O19 MOL d   1     -29.036  -1.637  21.600  0.00  0.00    -0.267 OA
ATOM     11  O22 MOL d   1     -30.619   0.946  24.756  0.00  0.00    -0.246 OA
ATOM     12  N23 MOL d   1     -28.479   1.108  24.295  0.00  0.00    -0.303 N 
ATOM     13  H1  MOL d   1     -26.068   2.023  24.530  0.00  0.00     0.087 H 
ATOM     14  H12 MOL d   1     -24.147   1.277  23.176  0.00  0.00     0.085 H 
ATOM     15  H13 MOL d   1     -26.693  -1.446  21.091  0.00  0.00     0.086 H 
ENDROOT
BRANCH   1  16
ATOM     16  C9  MOL d   1     -24.116  -0.567  21.221  0.00  0.00     0.173 C 
ATOM     17  O11 MOL d   1     -23.966  -0.021  20.178  0.00  0.00    -0.291 OA
BRANCH  16  18
ATOM     18  C5  MOL d   1     -23.126  -1.638  21.673  0.00  0.00     0.091 C 
ATOM     19  C4  MOL d   1     -21.924  -1.966  20.777  0.00  0.00     0.141 C 
ATOM     20  C3  MOL d   1     -21.031  -3.164  21.107  0.00  0.00    -0.009 C 
ATOM     21  O8  MOL d   1     -21.675  -1.297  19.827  0.00  0.00    -0.297 OA
ATOM     22  C2  MOL d   1     -21.206  -3.577  22.560  0.00  0.00    -0.057 C 
ATOM     23  H7  MOL d   1     -21.303  -4.008  20.456  0.00  0.00     0.044 H 
ATOM     24  H8  MOL d   1     -19.980  -2.890  20.933  0.00  0.00     0.044 H 
ATOM     25  C1  MOL d   1     -22.682  -3.724  22.877  0.00  0.00    -0.040 C 
ATOM     26  H5  MOL d   1     -20.698  -4.538  22.730  0.00  0.00     0.033 H 
ATOM     27  H6  MOL d   1     -20.767  -2.809  23.214  0.00  0.00     0.033 H 
ATOM     28  C6  MOL d   1     -23.352  -2.361  22.762  0.00  0.00     0.052 C 
ATOM     29  H3  MOL d   1     -22.803  -4.109  23.900  0.00  0.00     0.036 H 
ATOM     30  H4  MOL d   1     -23.144  -4.423  22.165  0.00  0.00     0.036 H 
ATOM     31  H10 MOL d   1     -24.356  -2.715  22.486  0.00  0.00     0.084 H 
ATOM     32  H9  MOL d   1     -22.544  -0.902  22.247  0.00  0.00     0.068 H 
BRANCH  28  33
ATOM     33  O7  MOL d   1     -23.708  -1.720  23.955  0.00  0.00    -0.394 OA
ATOM     34  H11 MOL d   1     -23.835  -2.369  24.637  0.00  0.00     0.210 HD
ENDBRANCH  28  33
ENDBRANCH  16  18
ENDBRANCH   1  16
BRANCH  12  35
ATOM     35  C31 MOL d   1     -28.293   2.133  25.308  0.00  0.00    -0.009 C 
ATOM     36  H22 MOL d   1     -29.253   2.337  25.804  0.00  0.00     0.057 H 
ATOM     37  H23 MOL d   1     -27.923   3.054  24.834  0.00  0.00     0.057 H 
ATOM     38  H24 MOL d   1     -27.562   1.784  26.053  0.00  0.00     0.057 H 
ENDBRANCH  12  35
BRANCH   9  39
ATOM     39  C20 MOL d   1     -31.224  -0.942  22.965  0.00  0.00     0.059 A 
ATOM     40  C24 MOL d   1     -31.992  -0.575  21.865  0.00  0.00    -0.034 A 
ATOM     41  C25 MOL d   1     -33.261  -1.106  21.691  0.00  0.00    -0.075 A 
ATOM     42  C26 MOL d   1     -33.774  -2.000  22.611  0.00  0.00    -0.082 A 
ATOM     43  H14 MOL d   1     -33.853  -0.819  20.830  0.00  0.00     0.084 H 
ATOM     44  C27 MOL d   1     -33.014  -2.356  23.707  0.00  0.00    -0.075 A 
ATOM     45  H2  MOL d   1     -34.765  -2.418  22.473  0.00  0.00     0.083 H 
ATOM     46  C28 MOL d   1     -31.745  -1.838  23.889  0.00  0.00    -0.034 A 
ATOM     47  H15 MOL d   1     -33.417  -3.051  24.435  0.00  0.00     0.084 H 
BRANCH  40  48
ATOM     48  C29 MOL d   1     -31.467   0.407  20.823  0.00  0.00    -0.049 C 
ATOM     49  H16 MOL d   1     -30.455   0.733  21.104  0.00  0.00     0.033 H 
ATOM     50  H17 MOL d   1     -32.133   1.281  20.774  0.00  0.00     0.033 H 
ATOM     51  H18 MOL d   1     -31.434  -0.085  19.840  0.00  0.00     0.033 H 
ENDBRANCH  40  48
BRANCH  46  52
ATOM     52  C30 MOL d   1     -30.937  -2.262  25.115  0.00  0.00    -0.049 C 
ATOM     53  H19 MOL d   1     -29.959  -1.758  25.102  0.00  0.00     0.033 H 
ATOM     54  H20 MOL d   1     -30.789  -3.352  25.097  0.00  0.00     0.033 H 
ATOM     55  H21 MOL d   1     -31.482  -1.981  26.028  0.00  0.00     0.033 H 
ENDBRANCH  46  52
ENDBRANCH   9  39
TORSDOF 7
