REMARK WARNING: 32 MAX_TORS EXCEEDED!!!
REMARK  56 active torsions:
REMARK  status: ('A' for Active; 'I' for Inactive)
REMARK    1  A    between atoms: N_1  and  CA_2 
REMARK    2  A    between atoms: CA_2  and  C_3 
REMARK    3  A    between atoms: CA_2  and  CB_5 
REMARK       I    between atoms: C_3  and  N_6 
REMARK    4  A    between atoms: CA_7  and  C_8 
REMARK       I    between atoms: C_8  and  N_13 
REMARK    5  A    between atoms: N_13  and  CA_14 
REMARK    6  A    between atoms: CA_14  and  C_15 
REMARK    7  A    between atoms: CA_14  and  CB_17 
REMARK       I    between atoms: C_15  and  N_19 
REMARK    8  A    between atoms: CB_17  and  CG_18 
REMARK    9  A    between atoms: N_19  and  CA_20 
REMARK   10  A    between atoms: CA_20  and  C_21 
REMARK   11  A    between atoms: CA_20  and  CB_23 
REMARK       I    between atoms: C_21  and  N_30 
REMARK   12  A    between atoms: CB_23  and  CG_24 
REMARK   13  A    between atoms: CG_24  and  CD_25 
REMARK   14  A    between atoms: CD_25  and  NE_26 
REMARK       I    between atoms: NE_26  and  CZ_27 
REMARK       I    between atoms: CZ_27  and  NH1_28 
REMARK       I    between atoms: CZ_27  and  NH2_29 
REMARK   15  A    between atoms: N_30  and  CA_31 
REMARK   16  A    between atoms: CA_31  and  C_32 
REMARK   17  A    between atoms: CA_31  and  CB_34 
REMARK       I    between atoms: C_32  and  N_41 
REMARK   18  A    between atoms: CB_34  and  CG_35 
REMARK   19  A    between atoms: CG_35  and  CD_36 
REMARK   20  A    between atoms: CD_36  and  NE_37 
REMARK       I    between atoms: NE_37  and  CZ_38 
REMARK       I    between atoms: CZ_38  and  NH1_39 
REMARK       I    between atoms: CZ_38  and  NH2_40 
REMARK   21  A    between atoms: N_41  and  CA_42 
REMARK   22  A    between atoms: CA_42  and  C_43 
REMARK   23  A    between atoms: CA_42  and  CB_45 
REMARK       I    between atoms: C_43  and  N_48 
REMARK   24  A    between atoms: CB_45  and  OG1_46 
REMARK   25  A    between atoms: CB_45  and  CG2_47 
REMARK   26  A    between atoms: N_48  and  CA_49 
REMARK   27  A    between atoms: CA_49  and  C_50 
REMARK   28  A    between atoms: CA_49  and  CB_52 
REMARK       I    between atoms: C_50  and  N_53 
REMARK   29  A    between atoms: N_53  and  CA_54 
REMARK   30  A    between atoms: CA_54  and  C_55 
REMARK   31  A    between atoms: CA_54  and  CB_57 
REMARK       I    between atoms: C_55  and  N_64 
REMARK   32  A    between atoms: CB_57  and  CG_58 
REMARK   33  A    between atoms: CG_58  and  CD_59 
REMARK   34  A    between atoms: CD_59  and  NE_60 
REMARK       I    between atoms: NE_60  and  CZ_61 
REMARK       I    between atoms: CZ_61  and  NH1_62 
REMARK   35  A    between atoms: N_64  and  CA_65 
REMARK   36  A    between atoms: CA_65  and  CB_66 
REMARK   37  A    between atoms: CA_65  and  C_71 
REMARK   38  A    between atoms: CB_66  and  CG_67 
REMARK   39  A    between atoms: CG_67  and  CD_68 
REMARK   40  A    between atoms: CD_68  and  CE_69 
REMARK   41  A    between atoms: CE_69  and  NZ_70 
REMARK   42  A    between atoms: NZ_70  and  CM1_73 
REMARK   43  A    between atoms: NZ_70  and  CM2_74 
REMARK   44  A    between atoms: NZ_70  and  CM3_75 
REMARK       I    between atoms: C_71  and  N_76 
REMARK   45  A    between atoms: N_76  and  CA_77 
REMARK   46  A    between atoms: CA_77  and  C_78 
REMARK   47  A    between atoms: CA_77  and  CB_80 
REMARK       I    between atoms: C_78  and  N_85 
REMARK   48  A    between atoms: CB_80  and  CG_81 
REMARK   49  A    between atoms: CG_81  and  CD_82 
REMARK       I    between atoms: CD_82  and  NE2_84 
REMARK   50  A    between atoms: N_85  and  CA_86 
REMARK   51  A    between atoms: CA_86  and  C_87 
REMARK   52  A    between atoms: CA_86  and  CB_89 
REMARK       I    between atoms: C_87  and  N_93 
REMARK   53  A    between atoms: CB_89  and  CG_90 
REMARK   54  A    between atoms: CG_90  and  CD1_91 
REMARK   55  A    between atoms: CG_90  and  CD2_92 
REMARK   56  A    between atoms: CA_94  and  C_95 
ROOT
ATOM      1  CA  ILE d   1       3.013   0.205   8.204  0.00  0.00     0.086 C 
ATOM      2  H56 ILE d   1       4.036   0.206   7.801  0.00  0.00     0.086 H 
ENDROOT
BRANCH   1   3
ATOM      3  N   ILE d   1       2.346  -1.004   7.764  0.00  0.00    -0.346 N 
ATOM      4  C   ILE d   1       2.892  -2.193   7.989  0.00  0.00     0.243 C 
ATOM      5  O   ILE d   1       4.031  -2.339   8.440  0.00  0.00    -0.271 OA
ATOM      6  H55 ILE d   1       1.469  -0.942   7.288  0.00  0.00     0.163 HD
BRANCH   4   7
ATOM      7  CA  ILE d   1       2.020  -3.395   7.671  0.00  0.00     0.113 C 
ATOM      8  H49 ILE d   1       1.264  -3.102   6.928  0.00  0.00     0.091 H 
BRANCH   7   9
ATOM      9  N   ILE d   1       2.829  -4.466   7.109  0.00  0.00    -0.344 N 
ATOM     10  C   ILE d   1       2.446  -5.158   6.039  0.00  0.00     0.241 C 
ATOM     11  O   ILE d   1       1.414  -4.902   5.409  0.00  0.00    -0.271 OA
ATOM     12  H48 ILE d   1       3.702  -4.689   7.542  0.00  0.00     0.163 HD
BRANCH  10  13
ATOM     13  CA  ILE d   1       3.352  -6.305   5.608  0.00  0.00     0.089 C 
ATOM     14  H36 ILE d   1       4.244  -6.319   6.252  0.00  0.00     0.087 H 
BRANCH  13  15
ATOM     15  N   ILE d   1       2.618  -7.552   5.779  0.00  0.00    -0.346 N 
ATOM     16  C   ILE d   1       2.633  -8.234   6.920  0.00  0.00     0.241 C 
ATOM     17  O   ILE d   1       3.315  -7.898   7.893  0.00  0.00    -0.271 OA
ATOM     18  H35 ILE d   1       2.084  -7.907   5.011  0.00  0.00     0.163 HD
BRANCH  16  19
ATOM     19  CA  ILE d   1       1.735  -9.466   6.956  0.00  0.00     0.089 C 
ATOM     20  H23 ILE d   1       1.751  -9.945   5.966  0.00  0.00     0.087 H 
BRANCH  19  21
ATOM     21  N   ILE d   1       2.225 -10.420   7.936  0.00  0.00    -0.346 N 
ATOM     22  C   ILE d   1       3.236 -11.240   7.659  0.00  0.00     0.241 C 
ATOM     23  O   ILE d   1       3.775 -11.287   6.550  0.00  0.00    -0.271 OA
ATOM     24  H22 ILE d   1       1.794 -10.461   8.837  0.00  0.00     0.163 HD
BRANCH  22  25
ATOM     25  CA  ILE d   1       3.680 -12.163   8.789  0.00  0.00     0.089 C 
ATOM     26  H16 ILE d   1       2.850 -12.265   9.504  0.00  0.00     0.087 H 
BRANCH  25  27
ATOM     27  N   ILE d   1       4.006 -13.482   8.264  0.00  0.00    -0.346 N 
ATOM     28  C   ILE d   1       3.073 -14.232   7.680  0.00  0.00     0.241 C 
ATOM     29  O   ILE d   1       1.913 -13.852   7.506  0.00  0.00    -0.271 OA
ATOM     30  H15 ILE d   1       4.941 -13.828   8.343  0.00  0.00     0.163 HD
BRANCH  28  31
ATOM     31  CA  ILE d   1       3.523 -15.619   7.247  0.00  0.00     0.091 C 
ATOM     32  N   ILE d   1       2.473 -16.613   7.503  0.00  0.00    -0.337 N 
ATOM     33  C   ILE d   1       2.120 -16.892   8.757  0.00  0.00     0.250 C 
ATOM     34  CD  ILE d   1       1.975 -17.229   6.261  0.00  0.00    -0.001 C 
ATOM     35  O   ILE d   1       2.716 -16.427   9.732  0.00  0.00    -0.271 OA
ATOM     36  CG  ILE d   1       2.481 -16.294   5.193  0.00  0.00    -0.048 C 
ATOM     37  H13 ILE d   1       0.876 -17.277   6.256  0.00  0.00     0.064 H 
ATOM     38  H14 ILE d   1       2.387 -18.240   6.128  0.00  0.00     0.064 H 
ATOM     39  CB  ILE d   1       3.737 -15.701   5.729  0.00  0.00    -0.036 C 
ATOM     40  H11 ILE d   1       2.686 -16.848   4.265  0.00  0.00     0.035 H 
ATOM     41  H12 ILE d   1       1.741 -15.505   4.993  0.00  0.00     0.035 H 
ATOM     42  H9  ILE d   1       4.598 -16.343   5.494  0.00  0.00     0.036 H 
ATOM     43  H10 ILE d   1       3.902 -14.698   5.307  0.00  0.00     0.036 H 
ATOM     44  H8  ILE d   1       4.447 -15.882   7.782  0.00  0.00     0.087 H 
BRANCH  33  45
ATOM     45  CA  ILE d   1       0.935 -17.840   8.952  0.00  0.00     0.172 C 
ATOM     46  H4  ILE d   1       0.878 -18.504   8.077  0.00  0.00     0.098 H 
BRANCH  45  47
ATOM     47  N   ILE d   1       1.141 -18.664  10.137  0.00  0.00    -0.067 N 
ATOM     48  H1  ILE d   1       0.355 -19.284  10.256  0.00  0.00     0.275 HD
ATOM     49  H2  ILE d   1       1.227 -18.071  10.948  0.00  0.00     0.275 HD
ATOM     50  H3  ILE d   1       1.983 -19.206  10.027  0.00  0.00     0.275 HD
ENDBRANCH  45  47
BRANCH  45  51
ATOM     51  CB  ILE d   1      -0.394 -17.055   9.045  0.00  0.00    -0.042 C 
ATOM     52  H5  ILE d   1      -0.523 -16.444   8.140  0.00  0.00     0.030 H 
ATOM     53  H6  ILE d   1      -0.372 -16.401   9.929  0.00  0.00     0.030 H 
ATOM     54  H7  ILE d   1      -1.232 -17.762   9.132  0.00  0.00     0.030 H 
ENDBRANCH  45  51
ENDBRANCH  33  45
ENDBRANCH  28  31
ENDBRANCH  25  27
BRANCH  25  55
ATOM     55  CB  ILE d   1       4.887 -11.574   9.526  0.00  0.00    -0.041 C 
ATOM     56  H17 ILE d   1       5.689 -11.408   8.792  0.00  0.00     0.036 H 
ATOM     57  H18 ILE d   1       5.222 -12.306  10.275  0.00  0.00     0.036 H 
BRANCH  55  58
ATOM     58  CG  ILE d   1       4.617 -10.256  10.239  0.00  0.00    -0.074 C 
ATOM     59  H19 ILE d   1       5.536  -9.913  10.736  0.00  0.00     0.027 H 
ATOM     60  H20 ILE d   1       3.826 -10.400  10.990  0.00  0.00     0.027 H 
ATOM     61  H21 ILE d   1       4.294  -9.502   9.506  0.00  0.00     0.027 H 
ENDBRANCH  55  58
ENDBRANCH  25  55
ENDBRANCH  22  25
ENDBRANCH  19  21
BRANCH  19  62
ATOM     62  CB  ILE d   1       0.298  -9.041   7.271  0.00  0.00    -0.036 C 
ATOM     63  H24 ILE d   1      -0.021  -8.322   6.502  0.00  0.00     0.036 H 
ATOM     64  H25 ILE d   1       0.296  -8.550   8.255  0.00  0.00     0.036 H 
BRANCH  62  65
ATOM     65  CG  ILE d   1      -0.716 -10.172   7.308  0.00  0.00    -0.048 C 
ATOM     66  H26 ILE d   1      -0.521 -10.798   8.191  0.00  0.00     0.035 H 
ATOM     67  H27 ILE d   1      -0.608 -10.779   6.397  0.00  0.00     0.035 H 
BRANCH  65  68
ATOM     68  CD  ILE d   1      -2.147  -9.639   7.382  0.00  0.00     0.009 C 
ATOM     69  H28 ILE d   1      -2.836 -10.495   7.420  0.00  0.00     0.064 H 
ATOM     70  H29 ILE d   1      -2.346  -9.048   6.476  0.00  0.00     0.064 H 
BRANCH  68  71
ATOM     71  NE  ILE d   1      -2.394  -8.793   8.550  0.00  0.00    -0.227 N 
ATOM     72  CZ  ILE d   1      -2.909  -9.231   9.701  0.00  0.00     0.665 C 
ATOM     73  NH1 ILE d   1      -3.229 -10.513   9.847  0.00  0.00    -0.235 N 
ATOM     74  NH2 ILE d   1      -3.104  -8.391  10.711  0.00  0.00    -0.235 N 
ATOM     75  H31 ILE d   1      -3.626 -10.847  10.737  0.00  0.00     0.174 HD
ATOM     76  H32 ILE d   1      -3.080 -11.173   9.070  0.00  0.00     0.174 HD
ATOM     77  H33 ILE d   1      -2.859  -7.396  10.608  0.00  0.00     0.174 HD
ATOM     78  H34 ILE d   1      -3.500  -8.735  11.598  0.00  0.00     0.174 HD
ATOM     79  H30 ILE d   1      -2.155  -7.794   8.479  0.00  0.00     0.177 HD
ENDBRANCH  68  71
ENDBRANCH  65  68
ENDBRANCH  62  65
ENDBRANCH  19  62
ENDBRANCH  16  19
ENDBRANCH  13  15
BRANCH  13  80
ATOM     80  CB  ILE d   1       3.802  -6.140   4.160  0.00  0.00    -0.036 C 
ATOM     81  H37 ILE d   1       4.513  -5.302   4.111  0.00  0.00     0.036 H 
ATOM     82  H38 ILE d   1       2.919  -5.909   3.546  0.00  0.00     0.036 H 
BRANCH  80  83
ATOM     83  CG  ILE d   1       4.475  -7.372   3.585  0.00  0.00    -0.048 C 
ATOM     84  H39 ILE d   1       3.895  -8.263   3.868  0.00  0.00     0.035 H 
ATOM     85  H40 ILE d   1       5.492  -7.451   3.996  0.00  0.00     0.035 H 
BRANCH  83  86
ATOM     86  CD  ILE d   1       4.557  -7.293   2.068  0.00  0.00     0.009 C 
ATOM     87  H41 ILE d   1       5.493  -6.789   1.785  0.00  0.00     0.064 H 
ATOM     88  H42 ILE d   1       3.701  -6.714   1.692  0.00  0.00     0.064 H 
BRANCH  86  89
ATOM     89  NE  ILE d   1       4.532  -8.623   1.467  0.00  0.00    -0.227 N 
ATOM     90  CZ  ILE d   1       4.250  -8.864   0.192  0.00  0.00     0.665 C 
ATOM     91  NH1 ILE d   1       3.964  -7.860  -0.630  0.00  0.00    -0.235 N 
ATOM     92  NH2 ILE d   1       4.252 -10.112  -0.259  0.00  0.00    -0.235 N 
ATOM     93  H44 ILE d   1       3.746  -8.050  -1.619  0.00  0.00     0.174 HD
ATOM     94  H45 ILE d   1       3.961  -6.892  -0.279  0.00  0.00     0.174 HD
ATOM     95  H46 ILE d   1       4.474 -10.890   0.379  0.00  0.00     0.174 HD
ATOM     96  H47 ILE d   1       4.032 -10.303  -1.247  0.00  0.00     0.174 HD
ATOM     97  H43 ILE d   1       4.747  -9.428   2.072  0.00  0.00     0.177 HD
ENDBRANCH  86  89
ENDBRANCH  83  86
ENDBRANCH  80  83
ENDBRANCH  13  80
ENDBRANCH  10  13
ENDBRANCH   7   9
BRANCH   7  98
ATOM     98  CB  ILE d   1       1.307  -3.840   8.946  0.00  0.00     0.060 C 
ATOM     99  H50 ILE d   1       2.013  -3.798   9.788  0.00  0.00     0.086 H 
BRANCH  98 100
ATOM    100  OG1 ILE d   1       0.835  -5.183   8.790  0.00  0.00    -0.393 OA
ATOM    101  H51 ILE d   1       0.392  -5.456   9.585  0.00  0.00     0.210 HD
ENDBRANCH  98 100
BRANCH  98 102
ATOM    102  CG2 ILE d   1       0.131  -2.922   9.234  0.00  0.00    -0.050 C 
ATOM    103  H52 ILE d   1      -0.375  -3.252  10.154  0.00  0.00     0.031 H 
ATOM    104  H53 ILE d   1      -0.577  -2.958   8.393  0.00  0.00     0.031 H 
ATOM    105  H54 ILE d   1       0.493  -1.892   9.364  0.00  0.00     0.031 H 
ENDBRANCH  98 102
ENDBRANCH   7  98
ENDBRANCH   4   7
ENDBRANCH   1   3
BRANCH   1 106
ATOM    106  C   ILE d   1       3.093   0.248   9.734  0.00  0.00     0.240 C 
ATOM    107  O   ILE d   1       2.402  -0.481  10.452  0.00  0.00    -0.271 OA
ATOM    108  N   ILE d   1       3.959   1.122  10.228  0.00  0.00    -0.346 N 
ATOM    109  H60 ILE d   1       4.538   1.637   9.595  0.00  0.00     0.163 HD
BRANCH 108 110
ATOM    110  CA  ILE d   1       4.098   1.360  11.656  0.00  0.00     0.089 C 
ATOM    111  H61 ILE d   1       3.828   0.437  12.190  0.00  0.00     0.087 H 
BRANCH 110 112
ATOM    112  C   ILE d   1       3.178   2.476  12.124  0.00  0.00     0.241 C 
ATOM    113  O   ILE d   1       3.068   3.505  11.463  0.00  0.00    -0.271 OA
ATOM    114  N   ILE d   1       2.524   2.282  13.265  0.00  0.00    -0.346 N 
ATOM    115  H73 ILE d   1       2.589   1.399  13.730  0.00  0.00     0.163 HD
BRANCH 114 116
ATOM    116  CA  ILE d   1       1.720   3.338  13.838  0.00  0.00     0.089 C 
ATOM    117  H74 ILE d   1       1.058   3.699  13.037  0.00  0.00     0.087 H 
BRANCH 116 118
ATOM    118  CB  ILE d   1       0.840   2.926  15.028  0.00  0.00    -0.038 C 
ATOM    119  H75 ILE d   1       0.004   3.636  15.116  0.00  0.00     0.036 H 
ATOM    120  H76 ILE d   1       1.445   2.957  15.946  0.00  0.00     0.036 H 
BRANCH 118 121
ATOM    121  CG  ILE d   1       0.283   1.536  14.857  0.00  0.00    -0.061 C 
ATOM    122  H77 ILE d   1       1.069   0.796  15.068  0.00  0.00     0.033 H 
ATOM    123  H78 ILE d   1      -0.074   1.407  13.825  0.00  0.00     0.033 H 
BRANCH 121 124
ATOM    124  CD  ILE d   1      -0.868   1.340  15.819  0.00  0.00    -0.042 C 
ATOM    125  H79 ILE d   1      -1.625   0.687  15.360  0.00  0.00     0.035 H 
ATOM    126  H80 ILE d   1      -1.320   2.314  16.056  0.00  0.00     0.035 H 
BRANCH 124 127
ATOM    127  CE  ILE d   1      -0.345   0.696  17.095  0.00  0.00     0.084 C 
ATOM    128  H81 ILE d   1       0.047   1.495  17.742  0.00  0.00     0.076 H 
ATOM    129  H82 ILE d   1       0.472   0.013  16.820  0.00  0.00     0.076 H 
BRANCH 127 130
ATOM    130  NZ  ILE d   1      -1.361  -0.091  17.891  0.00  0.00    -0.079 N 
BRANCH 130 131
ATOM    131  CM1 ILE d   1      -2.587   0.720  18.156  0.00  0.00     0.067 C 
ATOM    132  H83 ILE d   1      -3.305   0.121  18.735  0.00  0.00     0.068 H 
ATOM    133  H84 ILE d   1      -3.044   1.017  17.201  0.00  0.00     0.068 H 
ATOM    134  H85 ILE d   1      -2.315   1.620  18.727  0.00  0.00     0.068 H 
ENDBRANCH 130 131
BRANCH 130 135
ATOM    135  CM2 ILE d   1      -0.772  -0.575  19.174  0.00  0.00     0.067 C 
ATOM    136  H86 ILE d   1       0.129  -1.170  18.962  0.00  0.00     0.068 H 
ATOM    137  H87 ILE d   1      -1.508  -1.199  19.703  0.00  0.00     0.068 H 
ATOM    138  H88 ILE d   1      -0.503   0.287  19.802  0.00  0.00     0.068 H 
ENDBRANCH 130 135
BRANCH 130 139
ATOM    139  CM3 ILE d   1      -1.750  -1.282  17.070  0.00  0.00     0.067 C 
ATOM    140  H89 ILE d   1      -2.187  -0.945  16.119  0.00  0.00     0.068 H 
ATOM    141  H90 ILE d   1      -2.490  -1.881  17.621  0.00  0.00     0.068 H 
ATOM    142  H91 ILE d   1      -0.859  -1.895  16.867  0.00  0.00     0.068 H 
ENDBRANCH 130 139
ENDBRANCH 127 130
ENDBRANCH 124 127
ENDBRANCH 121 124
ENDBRANCH 118 121
ENDBRANCH 116 118
BRANCH 116 143
ATOM    143  C   ILE d   1       2.562   4.508  14.335  0.00  0.00     0.241 C 
ATOM    144  O   ILE d   1       3.588   4.375  15.003  0.00  0.00    -0.271 OA
ATOM    145  N   ILE d   1       2.103   5.706  13.993  0.00  0.00    -0.346 N 
ATOM    146  H92 ILE d   1       1.263   5.777  13.455  0.00  0.00     0.163 HD
BRANCH 145 147
ATOM    147  CA  ILE d   1       2.806   6.918  14.390  0.00  0.00     0.090 C 
ATOM    148  H93 ILE d   1       3.838   6.641  14.650  0.00  0.00     0.087 H 
BRANCH 147 149
ATOM    149  C   ILE d   1       2.168   7.574  15.615  0.00  0.00     0.241 C 
ATOM    150  O   ILE d   1       0.999   7.342  15.927  0.00  0.00    -0.271 OA
ATOM    151  N   ILE d   1       2.954   8.395  16.296  0.00  0.00    -0.346 N 
ATOM    152 0H10 ILE d   1       3.890   8.534  15.974  0.00  0.00     0.163 HD
BRANCH 151 153
ATOM    153  CA  ILE d   1       2.519   9.105  17.493  0.00  0.00     0.090 C 
ATOM    154 1H10 ILE d   1       1.857   8.451  18.079  0.00  0.00     0.087 H 
BRANCH 153 155
ATOM    155  C   ILE d   1       1.730  10.345  17.079  0.00  0.00     0.243 C 
ATOM    156  O   ILE d   1       1.601  10.656  15.891  0.00  0.00    -0.271 OA
ATOM    157  N   ILE d   1       1.156  11.086  18.047  0.00  0.00    -0.336 N 
ATOM    158  CA  ILE d   1       0.522  12.348  17.645  0.00  0.00     0.098 C 
ATOM    159  CD  ILE d   1       0.902  10.773  19.465  0.00  0.00    -0.001 C 
ATOM    160  CB  ILE d   1      -0.225  12.791  18.911  0.00  0.00    -0.035 C 
ATOM    161 1H11 ILE d   1      -0.182  12.175  16.818  0.00  0.00     0.089 H 
ATOM    162  CG  ILE d   1      -0.318  11.573  19.769  0.00  0.00    -0.048 C 
ATOM    163 2H11 ILE d   1      -1.230  13.158  18.655  0.00  0.00     0.036 H 
ATOM    164 3H11 ILE d   1       0.334  13.584  19.429  0.00  0.00     0.036 H 
ATOM    165 4H11 ILE d   1      -1.224  10.999  19.524  0.00  0.00     0.035 H 
ATOM    166 5H11 ILE d   1      -0.338  11.853  20.832  0.00  0.00     0.035 H 
ATOM    167 6H11 ILE d   1       1.747  11.085  20.097  0.00  0.00     0.064 H 
ATOM    168 7H11 ILE d   1       0.716   9.698  19.606  0.00  0.00     0.064 H 
BRANCH 158 169
ATOM    169  C   ILE d   1       1.538  13.408  17.217  0.00  0.00     0.196 C 
ATOM    170  O   ILE d   1       1.198  14.266  16.400  0.00  0.00    -0.646 OA
ATOM    171  OXT ILE d   1       2.672  13.378  17.700  0.00  0.00    -0.646 OA
ENDBRANCH 158 169
ENDBRANCH 153 155
BRANCH 153 172
ATOM    172  CB  ILE d   1       3.739   9.447  18.346  0.00  0.00    -0.035 C 
ATOM    173 2H10 ILE d   1       3.400  10.065  19.190  0.00  0.00     0.037 H 
ATOM    174 3H10 ILE d   1       4.436  10.027  17.723  0.00  0.00     0.037 H 
BRANCH 172 175
ATOM    175  CG  ILE d   1       4.501   8.251  18.915  0.00  0.00    -0.059 C 
ATOM    176 4H10 ILE d   1       4.612   7.502  18.117  0.00  0.00     0.038 H 
BRANCH 175 177
ATOM    177  CD1 ILE d   1       5.890   8.673  19.368  0.00  0.00    -0.073 C 
ATOM    178 5H10 ILE d   1       6.424   7.801  19.774  0.00  0.00     0.028 H 
ATOM    179 6H10 ILE d   1       5.803   9.445  20.147  0.00  0.00     0.028 H 
ATOM    180 7H10 ILE d   1       6.448   9.078  18.511  0.00  0.00     0.028 H 
ENDBRANCH 175 177
BRANCH 175 181
ATOM    181  CD2 ILE d   1       3.723   7.614  20.060  0.00  0.00    -0.073 C 
ATOM    182 8H10 ILE d   1       2.724   7.319  19.705  0.00  0.00     0.028 H 
ATOM    183 9H10 ILE d   1       3.621   8.338  20.882  0.00  0.00     0.028 H 
ATOM    184 0H11 ILE d   1       4.262   6.725  20.420  0.00  0.00     0.028 H 
ENDBRANCH 175 181
ENDBRANCH 172 175
ENDBRANCH 153 172
ENDBRANCH 151 153
ENDBRANCH 147 149
BRANCH 147 185
ATOM    185  CB  ILE d   1       2.852   7.914  13.229  0.00  0.00    -0.030 C 
ATOM    186  H94 ILE d   1       3.689   8.606  13.403  0.00  0.00     0.037 H 
ATOM    187  H95 ILE d   1       1.907   8.477  13.222  0.00  0.00     0.037 H 
BRANCH 185 188
ATOM    188  CG  ILE d   1       3.037   7.282  11.858  0.00  0.00     0.011 C 
ATOM    189  H96 ILE d   1       2.946   8.070  11.096  0.00  0.00     0.047 H 
ATOM    190  H97 ILE d   1       2.244   6.535  11.709  0.00  0.00     0.047 H 
BRANCH 188 191
ATOM    191  CD  ILE d   1       4.382   6.597  11.683  0.00  0.00     0.215 C 
ATOM    192  OE1 ILE d   1       5.273   6.706  12.529  0.00  0.00    -0.274 OA
ATOM    193  NE2 ILE d   1       4.537   5.886  10.571  0.00  0.00    -0.370 N 
ATOM    194  H98 ILE d   1       5.400   5.411  10.397  0.00  0.00     0.159 HD
ATOM    195  H99 ILE d   1       3.791   5.826   9.908  0.00  0.00     0.159 HD
ENDBRANCH 188 191
ENDBRANCH 185 188
ENDBRANCH 147 185
ENDBRANCH 145 147
ENDBRANCH 116 143
ENDBRANCH 114 116
ENDBRANCH 110 112
BRANCH 110 196
ATOM    196  CB  ILE d   1       5.541   1.716  11.990  0.00  0.00    -0.036 C 
ATOM    197  H62 ILE d   1       5.534   2.476  12.785  0.00  0.00     0.036 H 
ATOM    198  H63 ILE d   1       6.012   2.133  11.088  0.00  0.00     0.036 H 
BRANCH 196 199
ATOM    199  CG  ILE d   1       6.370   0.548  12.459  0.00  0.00    -0.048 C 
ATOM    200  H64 ILE d   1       7.416   0.696  12.152  0.00  0.00     0.035 H 
ATOM    201  H65 ILE d   1       5.983  -0.379  12.010  0.00  0.00     0.035 H 
BRANCH 199 202
ATOM    202  CD  ILE d   1       6.300   0.443  13.963  0.00  0.00     0.009 C 
ATOM    203  H66 ILE d   1       5.275   0.670  14.291  0.00  0.00     0.064 H 
ATOM    204  H67 ILE d   1       6.996   1.170  14.406  0.00  0.00     0.064 H 
BRANCH 202 205
ATOM    205  NE  ILE d   1       6.658  -0.893  14.415  0.00  0.00    -0.227 N 
ATOM    206  CZ  ILE d   1       6.614  -1.285  15.682  0.00  0.00     0.665 C 
ATOM    207  NH1 ILE d   1       6.224  -0.442  16.629  0.00  0.00    -0.235 N 
ATOM    208  NH2 ILE d   1       6.959  -2.523  15.997  0.00  0.00    -0.235 N 
ATOM    209  H69 ILE d   1       6.191  -0.750  17.611  0.00  0.00     0.174 HD
ATOM    210  H70 ILE d   1       5.954   0.521  16.382  0.00  0.00     0.174 HD
ATOM    211  H71 ILE d   1       7.262  -3.176  15.261  0.00  0.00     0.174 HD
ATOM    212  H72 ILE d   1       6.925  -2.833  16.979  0.00  0.00     0.174 HD
ATOM    213  H68 ILE d   1       6.964  -1.577  13.708  0.00  0.00     0.177 HD
ENDBRANCH 202 205
ENDBRANCH 199 202
ENDBRANCH 196 199
ENDBRANCH 110 196
ENDBRANCH 108 110
ENDBRANCH   1 106
BRANCH   1 214
ATOM    214  CB  ILE d   1       2.282   1.437   7.676  0.00  0.00    -0.049 C 
ATOM    215  H57 ILE d   1       2.800   2.345   8.018  0.00  0.00     0.030 H 
ATOM    216  H58 ILE d   1       1.249   1.440   8.053  0.00  0.00     0.030 H 
ATOM    217  H59 ILE d   1       2.271   1.413   6.576  0.00  0.00     0.030 H 
ENDBRANCH   1 214
TORSDOF 56
