REMARK  12 active torsions:
REMARK  status: ('A' for Active; 'I' for Inactive)
REMARK    1  A    between atoms: C8_2  and  O8_1 
REMARK    2  A    between atoms: C7_3  and  C8_2 
REMARK    3  A    between atoms: C7_3  and  O7_4 
REMARK    4  A    between atoms: C6_5  and  C7_3 
REMARK    5  A    between atoms: C6_5  and  O6_6 
REMARK    6  A    between atoms: C5_7  and  C6_5 
REMARK    7  A    between atoms: C1_18  and  C9_9 
REMARK    8  A    between atoms: C1_18  and  O1_12 
REMARK    9  A    between atoms: C3_14  and  O3_15 
REMARK   10  A    between atoms: C4_16  and  N4_17 
REMARK       I    between atoms: N4_17  and  C10_19 
REMARK   11  A    between atoms: C10_19  and  C11_21 
REMARK   12  A    between atoms: C11_21  and  O11_22 
ROOT
ATOM      1  C5  NGE d   1       2.804  -1.260  25.459  0.00  0.00     0.091 C 
ATOM      2  O5  NGE d   1       2.278  -1.252  24.108  0.00  0.00    -0.336 OA
ATOM      3  C2  NGE d   1       3.878   0.463  23.486  0.00  0.00     0.023 C 
ATOM      4  C3  NGE d   1       4.479   0.432  24.848  0.00  0.00     0.063 C 
ATOM      5  C4  NGE d   1       4.294  -0.907  25.468  0.00  0.00     0.065 C 
ATOM      6  C1  NGE d   1       2.400   0.100  23.549  0.00  0.00     0.256 C 
ATOM      7  H8  NGE d   1       2.277  -0.514  26.072  0.00  0.00     0.090 H 
ATOM      8  H10 NGE d   1       4.401  -0.259  22.842  0.00  0.00     0.045 H 
ATOM      9  H11 NGE d   1       3.985   1.474  23.066  0.00  0.00     0.045 H 
ATOM     10  H12 NGE d   1       3.943   1.162  25.472  0.00  0.00     0.086 H 
ATOM     11  H14 NGE d   1       4.866  -1.665  24.912  0.00  0.00     0.080 H 
ENDROOT
BRANCH   1  12
ATOM     12  C6  NGE d   1       2.477  -2.636  25.968  0.00  0.00     0.089 C 
ATOM     13  H6  NGE d   1       2.845  -2.773  26.995  0.00  0.00     0.091 H 
BRANCH  12  14
ATOM     14  C7  NGE d   1       0.953  -2.873  25.914  0.00  0.00     0.083 C 
ATOM     15  H4  NGE d   1       0.629  -2.725  24.873  0.00  0.00     0.090 H 
BRANCH  14  16
ATOM     16  C8  NGE d   1       0.626  -4.325  26.327  0.00  0.00     0.043 C 
ATOM     17  H2  NGE d   1      -0.466  -4.437  26.392  0.00  0.00     0.078 H 
ATOM     18  H3  NGE d   1       1.020  -5.009  25.560  0.00  0.00     0.078 H 
BRANCH  16  19
ATOM     19  O8  NGE d   1       1.189  -4.662  27.564  0.00  0.00    -0.398 OA
ATOM     20  H1  NGE d   1       0.850  -4.080  28.234  0.00  0.00     0.209 HD
ENDBRANCH  16  19
ENDBRANCH  14  16
BRANCH  14  21
ATOM     21  O7  NGE d   1       0.225  -1.991  26.720  0.00  0.00    -0.391 OA
ATOM     22  H5  NGE d   1       0.463  -2.126  27.630  0.00  0.00     0.210 HD
ENDBRANCH  14  21
ENDBRANCH  12  14
BRANCH  12  23
ATOM     23  O6  NGE d   1       3.114  -3.517  25.080  0.00  0.00    -0.390 OA
ATOM     24  H7  NGE d   1       2.798  -3.360  24.198  0.00  0.00     0.210 HD
ENDBRANCH  12  23
ENDBRANCH   1  12
BRANCH   5  25
ATOM     25  N4  NGE d   1       4.762  -0.844  26.880  0.00  0.00    -0.350 N 
ATOM     26  C10 NGE d   1       6.076  -1.232  27.281  0.00  0.00     0.241 C 
ATOM     27  O10 NGE d   1       6.901  -1.652  26.515  0.00  0.00    -0.271 OA
ATOM     28  H15 NGE d   1       4.127  -0.515  27.579  0.00  0.00     0.163 HD
BRANCH  26  29
ATOM     29  C11 NGE d   1       6.358  -1.083  28.768  0.00  0.00     0.090 C 
ATOM     30  H16 NGE d   1       7.212  -0.406  28.917  0.00  0.00     0.088 H 
ATOM     31  H17 NGE d   1       6.590  -2.067  29.202  0.00  0.00     0.088 H 
BRANCH  29  32
ATOM     32  O11 NGE d   1       5.219  -0.550  29.388  0.00  0.00    -0.392 OA
ATOM     33  H18 NGE d   1       5.021   0.298  29.009  0.00  0.00     0.210 HD
ENDBRANCH  29  32
ENDBRANCH  26  29
ENDBRANCH   5  25
BRANCH   6  34
ATOM     34  C9  NGE d   1       1.708   0.032  22.231  0.00  0.00     0.238 C 
ATOM     35  O9B NGE d   1       1.759  -1.067  21.613  0.00  0.00    -0.644 OA
ATOM     36  O9A NGE d   1       1.042   1.007  21.780  0.00  0.00    -0.644 OA
ENDBRANCH   6  34
BRANCH   6  37
ATOM     37  O1  NGE d   1       1.769   1.027  24.386  0.00  0.00    -0.357 OA
ATOM     38  H9  NGE d   1       2.177   1.006  25.244  0.00  0.00     0.213 HD
ENDBRANCH   6  37
BRANCH   4  39
ATOM     39  O3  NGE d   1       5.908   0.850  24.796  0.00  0.00    -0.393 OA
ATOM     40  H13 NGE d   1       6.276   0.825  25.671  0.00  0.00     0.210 HD
ENDBRANCH   4  39
TORSDOF 12
