REMARK  32 active torsions:
REMARK  status: ('A' for Active; 'I' for Inactive)
REMARK    1  A    between atoms: N_1  and  CA_2 
REMARK    2  A    between atoms: CA_2  and  C_3 
REMARK    3  A    between atoms: CA_2  and  CB_5 
REMARK       I    between atoms: C_3  and  N_9 
REMARK    4  A    between atoms: CB_5  and  CG1_6 
REMARK    5  A    between atoms: CB_5  and  CG2_7 
REMARK    6  A    between atoms: CG1_6  and  CD1_8 
REMARK    7  A    between atoms: N_9  and  CA_10 
REMARK    8  A    between atoms: CA_10  and  C_11 
REMARK    9  A    between atoms: CA_10  and  CB_13 
REMARK       I    between atoms: C_11  and  N_18 
REMARK   10  A    between atoms: CB_13  and  CG_14 
REMARK   11  A    between atoms: CG_14  and  CD_15 
REMARK       I    between atoms: CD_15  and  NE2_17 
REMARK   12  A    between atoms: CA_19  and  C_20 
REMARK       I    between atoms: C_20  and  N_25 
REMARK   13  A    between atoms: N_25  and  CA_26 
REMARK   14  A    between atoms: CA_26  and  CB_27 
REMARK   15  A    between atoms: CA_26  and  C_34 
REMARK   16  A    between atoms: CB_27  and  CG2_28 
REMARK   17  A    between atoms: CB_27  and  OG1_29 
REMARK   18  A    between atoms: OG1_29  and  P_30 
REMARK       I    between atoms: C_34  and  N_36 
REMARK   19  A    between atoms: N_36  and  CA_37 
REMARK   20  A    between atoms: CA_37  and  C_38 
REMARK   21  A    between atoms: CA_37  and  CB_40 
REMARK       I    between atoms: C_38  and  N_45 
REMARK   22  A    between atoms: CB_40  and  CG_41 
REMARK   23  A    between atoms: CG_41  and  CD_42 
REMARK       I    between atoms: CD_42  and  NE2_44 
REMARK   24  A    between atoms: N_45  and  CA_46 
REMARK   25  A    between atoms: CA_46  and  C_47 
REMARK   26  A    between atoms: CA_46  and  CB_49 
REMARK       I    between atoms: C_47  and  N_56 
REMARK   27  A    between atoms: CB_49  and  CG_50 
REMARK   28  A    between atoms: N_56  and  CA_57 
REMARK   29  A    between atoms: CA_57  and  C_58 
REMARK   30  A    between atoms: CA_57  and  CB_60 
REMARK   31  A    between atoms: CB_60  and  CG1_61 
REMARK   32  A    between atoms: CB_60  and  CG2_62 
ROOT
ATOM      1  CA  TPO d   1      33.252  12.579  49.847  0.00  0.00     0.114 C 
ATOM      2  H30 TPO d   1      33.521  13.548  49.402  0.00  0.00     0.091 H 
ENDROOT
BRANCH   1   3
ATOM      3  N   TPO d   1      34.469  11.834  50.147  0.00  0.00    -0.344 N 
ATOM      4  C   PRO d   1      35.438  12.322  50.920  0.00  0.00     0.241 C 
ATOM      5  O   PRO d   1      35.433  13.459  51.397  0.00  0.00    -0.271 OA
ATOM      6  H29 TPO d   1      34.581  10.920  49.757  0.00  0.00     0.163 HD
BRANCH   4   7
ATOM      7  CA  PRO d   1      36.635  11.418  51.182  0.00  0.00     0.091 C 
ATOM      8  N   PRO d   1      37.889  12.177  51.156  0.00  0.00    -0.337 N 
ATOM      9  C   GLN d   1      38.230  12.838  50.041  0.00  0.00     0.243 C 
ATOM     10  CD  PRO d   1      38.593  12.175  52.451  0.00  0.00    -0.001 C 
ATOM     11  O   GLN d   1      37.557  12.761  49.009  0.00  0.00    -0.271 OA
ATOM     12  CG  PRO d   1      37.891  11.130  53.228  0.00  0.00    -0.048 C 
ATOM     13  H27 PRO d   1      38.509  13.154  52.945  0.00  0.00     0.064 H 
ATOM     14  H28 PRO d   1      39.655  11.920  52.320  0.00  0.00     0.064 H 
ATOM     15  CB  PRO d   1      36.579  10.841  52.601  0.00  0.00    -0.036 C 
ATOM     16  H25 PRO d   1      38.500  10.214  53.242  0.00  0.00     0.035 H 
ATOM     17  H26 PRO d   1      37.735  11.483  54.258  0.00  0.00     0.035 H 
ATOM     18  H23 PRO d   1      36.408   9.755  52.563  0.00  0.00     0.036 H 
ATOM     19  H24 PRO d   1      35.771  11.320  53.174  0.00  0.00     0.036 H 
ATOM     20  H22 PRO d   1      36.654  10.612  50.434  0.00  0.00     0.087 H 
BRANCH   9  21
ATOM     21  CA  GLN d   1      39.478  13.707  50.088  0.00  0.00     0.090 C 
ATOM     22  H15 GLN d   1      40.211  13.240  50.763  0.00  0.00     0.087 H 
BRANCH  21  23
ATOM     23  N   GLN d   1      40.077  13.824  48.766  0.00  0.00    -0.346 N 
ATOM     24  C   ILE d   1      40.844  12.836  48.324  0.00  0.00     0.249 C 
ATOM     25  O   ILE d   1      40.999  11.786  48.951  0.00  0.00    -0.271 OA
ATOM     26  H14 GLN d   1      39.913  14.633  48.202  0.00  0.00     0.163 HD
BRANCH  24  27
ATOM     27  CA  ILE d   1      41.558  13.078  46.995  0.00  0.00     0.179 C 
ATOM     28  H4  ILE d   1      41.421  14.134  46.719  0.00  0.00     0.099 H 
BRANCH  27  29
ATOM     29  N   ILE d   1      42.989  12.831  47.163  0.00  0.00    -0.066 N 
ATOM     30  H1  ILE d   1      43.344  13.409  47.909  0.00  0.00     0.275 HD
ATOM     31  H2  ILE d   1      43.471  13.054  46.306  0.00  0.00     0.275 HD
ATOM     32  H3  ILE d   1      43.138  11.860  47.390  0.00  0.00     0.275 HD
ENDBRANCH  27  29
BRANCH  27  33
ATOM     33  CB  ILE d   1      40.959  12.209  45.853  0.00  0.00    -0.022 C 
ATOM     34  H5  ILE d   1      41.517  12.438  44.933  0.00  0.00     0.043 H 
BRANCH  33  35
ATOM     35  CG1 ILE d   1      39.491  12.565  45.608  0.00  0.00    -0.063 C 
ATOM     36  H6  ILE d   1      38.947  12.468  46.559  0.00  0.00     0.033 H 
ATOM     37  H7  ILE d   1      39.079  11.854  44.876  0.00  0.00     0.033 H 
BRANCH  35  38
ATOM     38  CD1 ILE d   1      39.284  13.965  45.081  0.00  0.00    -0.076 C 
ATOM     39  H11 ILE d   1      38.209  14.145  44.931  0.00  0.00     0.027 H 
ATOM     40  H12 ILE d   1      39.812  14.078  44.123  0.00  0.00     0.027 H 
ATOM     41  H13 ILE d   1      39.680  14.692  45.806  0.00  0.00     0.027 H 
ENDBRANCH  35  38
ENDBRANCH  33  35
BRANCH  33  42
ATOM     42  CG2 ILE d   1      41.124  10.716  46.133  0.00  0.00    -0.070 C 
ATOM     43  H8  ILE d   1      42.187  10.491  46.305  0.00  0.00     0.028 H 
ATOM     44  H9  ILE d   1      40.762  10.139  45.270  0.00  0.00     0.028 H 
ATOM     45  H10 ILE d   1      40.542  10.444  47.026  0.00  0.00     0.028 H 
ENDBRANCH  33  42
ENDBRANCH  27  33
ENDBRANCH  24  27
ENDBRANCH  21  23
BRANCH  21  46
ATOM     46  CB  GLN d   1      39.107  15.078  50.638  0.00  0.00    -0.030 C 
ATOM     47  H16 GLN d   1      38.534  14.936  51.566  0.00  0.00     0.037 H 
ATOM     48  H17 GLN d   1      38.479  15.592  49.895  0.00  0.00     0.037 H 
BRANCH  46  49
ATOM     49  CG  GLN d   1      40.293  15.950  50.941  0.00  0.00     0.011 C 
ATOM     50  H18 GLN d   1      39.946  16.986  51.070  0.00  0.00     0.047 H 
ATOM     51  H19 GLN d   1      40.993  15.901  50.094  0.00  0.00     0.047 H 
BRANCH  49  52
ATOM     52  CD  GLN d   1      41.030  15.516  52.213  0.00  0.00     0.215 C 
ATOM     53  OE1 GLN d   1      40.750  14.463  52.779  0.00  0.00    -0.274 OA
ATOM     54  NE2 GLN d   1      41.990  16.320  52.645  0.00  0.00    -0.370 N 
ATOM     55  H20 GLN d   1      42.504  16.087  53.470  0.00  0.00     0.159 HD
ATOM     56  H21 GLN d   1      42.201  17.160  52.146  0.00  0.00     0.159 HD
ENDBRANCH  49  52
ENDBRANCH  46  49
ENDBRANCH  21  46
ENDBRANCH   9  21
ENDBRANCH   4   7
ENDBRANCH   1   3
BRANCH   1  57
ATOM     57  CB  TPO d   1      32.401  11.796  48.862  0.00  0.00     0.076 C 
ATOM     58  H31 TPO d   1      32.041  10.867  49.328  0.00  0.00     0.087 H 
BRANCH  57  59
ATOM     59  CG2 TPO d   1      31.217  12.634  48.369  0.00  0.00    -0.049 C 
ATOM     60  H32 TPO d   1      30.620  12.043  47.659  0.00  0.00     0.031 H 
ATOM     61  H33 TPO d   1      31.591  13.539  47.869  0.00  0.00     0.031 H 
ATOM     62  H34 TPO d   1      30.589  12.921  49.225  0.00  0.00     0.031 H 
ENDBRANCH  57  59
BRANCH  57  63
ATOM     63  OG1 TPO d   1      33.212  11.515  47.731  0.00  0.00    -0.275 OA
BRANCH  63  64
ATOM     64  P   TPO d   1      33.398   9.928  47.506  0.00  0.00     0.422 P 
ATOM     65  O1P TPO d   1      32.100   9.266  47.166  0.00  0.00    -0.617 OA
ATOM     66  O2P TPO d   1      34.472   9.776  46.316  0.00  0.00    -0.617 OA
ATOM     67  O3P TPO d   1      34.013   9.233  48.811  0.00  0.00    -0.617 OA
ENDBRANCH  63  64
ENDBRANCH  57  63
ENDBRANCH   1  57
BRANCH   1  68
ATOM     68  C   TPO d   1      32.476  12.816  51.124  0.00  0.00     0.243 C 
ATOM     69  O   TPO d   1      32.363  11.912  51.950  0.00  0.00    -0.271 OA
ATOM     70  N   GLN d   1      31.960  14.028  51.298  0.00  0.00    -0.346 N 
ATOM     71  H35 GLN d   1      32.094  14.726  50.595  0.00  0.00     0.163 HD
BRANCH  70  72
ATOM     72  CA  GLN d   1      31.199  14.356  52.503  0.00  0.00     0.090 C 
ATOM     73  H36 GLN d   1      31.544  13.707  53.321  0.00  0.00     0.087 H 
BRANCH  72  74
ATOM     74  C   GLN d   1      29.717  14.111  52.276  0.00  0.00     0.241 C 
ATOM     75  O   GLN d   1      29.257  14.131  51.139  0.00  0.00    -0.271 OA
ATOM     76  N   PHE d   1      28.979  13.898  53.362  0.00  0.00    -0.346 N 
ATOM     77  H43 PHE d   1      29.425  13.848  54.256  0.00  0.00     0.163 HD
BRANCH  76  78
ATOM     78  CA  PHE d   1      27.535  13.737  53.274  0.00  0.00     0.093 C 
ATOM     79  H44 PHE d   1      27.311  13.088  52.415  0.00  0.00     0.088 H 
BRANCH  78  80
ATOM     80  C   PHE d   1      26.851  15.081  53.062  0.00  0.00     0.241 C 
ATOM     81  O   PHE d   1      27.379  16.143  53.404  0.00  0.00    -0.271 OA
ATOM     82  N   VAL d   1      25.649  15.017  52.497  0.00  0.00    -0.344 N 
ATOM     83  H52 VAL d   1      25.291  14.125  52.221  0.00  0.00     0.163 HD
BRANCH  82  84
ATOM     84  CA  VAL d   1      24.838  16.200  52.267  0.00  0.00     0.099 C 
ATOM     85  H53 VAL d   1      25.511  17.057  52.115  0.00  0.00     0.090 H 
BRANCH  84  86
ATOM     86  C   VAL d   1      23.968  16.483  53.484  0.00  0.00     0.197 C 
ATOM     87  O   VAL d   1      24.387  17.176  54.412  0.00  0.00    -0.646 OA
ATOM     88  OXT VAL d   1      22.828  16.025  53.565  0.00  0.00    -0.646 OA
ENDBRANCH  84  86
BRANCH  84  89
ATOM     89  CB  VAL d   1      23.977  16.036  51.004  0.00  0.00    -0.032 C 
ATOM     90  H54 VAL d   1      23.131  16.736  51.064  0.00  0.00     0.042 H 
BRANCH  89  91
ATOM     91  CG1 VAL d   1      24.787  16.361  49.760  0.00  0.00    -0.071 C 
ATOM     92  H55 VAL d   1      24.155  16.238  48.868  0.00  0.00     0.028 H 
ATOM     93  H56 VAL d   1      25.649  15.680  49.695  0.00  0.00     0.028 H 
ATOM     94  H57 VAL d   1      25.144  17.400  49.816  0.00  0.00     0.028 H 
ENDBRANCH  89  91
BRANCH  89  95
ATOM     95  CG2 VAL d   1      23.430  14.617  50.919  0.00  0.00    -0.071 C 
ATOM     96  H58 VAL d   1      22.846  14.394  51.824  0.00  0.00     0.028 H 
ATOM     97  H59 VAL d   1      24.265  13.906  50.837  0.00  0.00     0.028 H 
ATOM     98  H60 VAL d   1      22.783  14.526  50.034  0.00  0.00     0.028 H 
ENDBRANCH  89  95
ENDBRANCH  84  89
ENDBRANCH  82  84
ENDBRANCH  78  80
BRANCH  78  99
ATOM     99  CB  PHE d   1      26.978  13.084  54.538  0.00  0.00    -0.014 C 
ATOM    100  H45 PHE d   1      25.891  12.964  54.417  0.00  0.00     0.043 H 
ATOM    101  H46 PHE d   1      27.180  13.749  55.390  0.00  0.00     0.043 H 
BRANCH  99 102
ATOM    102  CG  PHE d   1      27.571  11.744  54.834  0.00  0.00    -0.056 A 
ATOM    103  CD1 PHE d   1      27.337  10.667  53.989  0.00  0.00    -0.077 A 
ATOM    104  CE1 PHE d   1      27.887   9.426  54.257  0.00  0.00    -0.082 A 
ATOM    105  H47 PHE d   1      26.717  10.800  53.110  0.00  0.00     0.084 H 
ATOM    106  CZ  PHE d   1      28.674   9.252  55.377  0.00  0.00    -0.083 A 
ATOM    107  H49 PHE d   1      27.700   8.593  53.589  0.00  0.00     0.083 H 
ATOM    108  CE2 PHE d   1      28.911  10.319  56.232  0.00  0.00    -0.082 A 
ATOM    109  H51 PHE d   1      29.107   8.281  55.589  0.00  0.00     0.083 H 
ATOM    110  CD2 PHE d   1      28.360  11.555  55.957  0.00  0.00    -0.077 A 
ATOM    111  H50 PHE d   1      29.527  10.183  57.113  0.00  0.00     0.083 H 
ATOM    112  H48 PHE d   1      28.547  12.386  56.627  0.00  0.00     0.084 H 
ENDBRANCH  99 102
ENDBRANCH  78  99
ENDBRANCH  76  78
ENDBRANCH  72  74
BRANCH  72 113
ATOM    113  CB  GLN d   1      31.419  15.808  52.907  0.00  0.00    -0.030 C 
ATOM    114  H37 GLN d   1      30.801  16.016  53.793  0.00  0.00     0.037 H 
ATOM    115  H38 GLN d   1      31.095  16.450  52.075  0.00  0.00     0.037 H 
BRANCH 113 116
ATOM    116  CG  GLN d   1      32.857  16.154  53.240  0.00  0.00     0.011 C 
ATOM    117  H39 GLN d   1      33.452  16.114  52.316  0.00  0.00     0.047 H 
ATOM    118  H40 GLN d   1      33.241  15.413  53.956  0.00  0.00     0.047 H 
BRANCH 116 119
ATOM    119  CD  GLN d   1      32.998  17.536  53.849  0.00  0.00     0.215 C 
ATOM    120  OE1 GLN d   1      34.057  17.893  54.361  0.00  0.00    -0.274 OA
ATOM    121  NE2 GLN d   1      31.927  18.321  53.798  0.00  0.00    -0.370 N 
ATOM    122  H41 GLN d   1      31.964  19.243  54.184  0.00  0.00     0.159 HD
ATOM    123  H42 GLN d   1      31.084  17.990  53.373  0.00  0.00     0.159 HD
ENDBRANCH 116 119
ENDBRANCH 113 116
ENDBRANCH  72 113
ENDBRANCH  70  72
ENDBRANCH   1  68
TORSDOF 32
