REMARK  6 active torsions:
REMARK  status: ('A' for Active; 'I' for Inactive)
REMARK    1  A    between atoms: C07_7  and  C08_8 
REMARK    2  A    between atoms: C08_8  and  C09_9 
REMARK    3  A    between atoms: C09_9  and  O10_10 
REMARK    4  A    between atoms: C09_9  and  C11_11 
REMARK    5  A    between atoms: C12_12  and  C13_13 
REMARK    6  A    between atoms: C12_12  and  C16_16 
ROOT
ATOM      1  C08 94X d   1      -0.050 -15.818  -8.306  0.00  0.00    -0.014 C 
ATOM      2  H5  94X d   1       0.424 -15.053  -7.673  0.00  0.00     0.044 H 
ATOM      3  H6  94X d   1      -0.800 -15.343  -8.956  0.00  0.00     0.044 H 
ENDROOT
BRANCH   1   4
ATOM      4  C07 94X d   1      -0.758 -16.787  -7.411  0.00  0.00    -0.055 A 
ATOM      5  C04 94X d   1      -2.148 -16.964  -7.508  0.00  0.00    -0.075 A 
ATOM      6  C03 94X d   1      -2.828 -17.854  -6.686  0.00  0.00    -0.066 A 
ATOM      7  H2  94X d   1      -2.704 -16.392  -8.242  0.00  0.00     0.084 H 
ATOM      8  C02 94X d   1      -2.096 -18.571  -5.763  0.00  0.00     0.011 A 
ATOM      9  H1  94X d   1      -3.901 -17.981  -6.768  0.00  0.00     0.085 H 
ATOM     10 BR1  94X d   1      -3.022 -19.825  -4.595  0.00  0.00    -0.051 Br
ATOM     11  C05 94X d   1      -0.734 -18.436  -5.631  0.00  0.00    -0.066 A 
ATOM     12  C06 94X d   1      -0.067 -17.539  -6.464  0.00  0.00    -0.075 A 
ATOM     13  H3  94X d   1      -0.190 -19.015  -4.894  0.00  0.00     0.085 H 
ATOM     14  H4  94X d   1       1.007 -17.425  -6.373  0.00  0.00     0.084 H 
ENDBRANCH   1   4
BRANCH   1  15
ATOM     15  C09 94X d   1       1.057 -16.447  -9.220  0.00  0.00     0.056 C 
ATOM     16  H7  94X d   1       0.706 -17.424  -9.584  0.00  0.00     0.089 H 
BRANCH  15  17
ATOM     17  O10 94X d   1       2.189 -16.619  -8.400  0.00  0.00    -0.391 OA
ATOM     18  H8  94X d   1       2.463 -15.775  -8.060  0.00  0.00     0.210 HD
ENDBRANCH  15  17
BRANCH  15  19
ATOM     19  C11 94X d   1       1.432 -15.589 -10.432  0.00  0.00    -0.063 C 
ATOM     20  C12 94X d   1       2.455 -14.720 -10.542  0.00  0.00     0.013 C 
ATOM     21  H9  94X d   1       0.796 -15.694 -11.309  0.00  0.00     0.082 H 
BRANCH  20  22
ATOM     22  C13 94X d   1       3.506 -14.397  -9.438  0.00  0.00     0.204 C 
ATOM     23  O14 94X d   1       3.163 -14.509  -8.246  0.00  0.00    -0.644 OA
ATOM     24  O15 94X d   1       4.650 -14.039  -9.837  0.00  0.00    -0.644 OA
ENDBRANCH  20  22
BRANCH  20  25
ATOM     25  C16 94X d   1       2.624 -13.977 -11.817  0.00  0.00    -0.045 C 
ATOM     26  H10 94X d   1       1.836 -14.277 -12.523  0.00  0.00     0.033 H 
ATOM     27  H11 94X d   1       3.610 -14.207 -12.248  0.00  0.00     0.033 H 
ATOM     28  H12 94X d   1       2.552 -12.896 -11.624  0.00  0.00     0.033 H 
ENDBRANCH  20  25
ENDBRANCH  15  19
ENDBRANCH   1  15
TORSDOF 6
