REMARK  5 active torsions:
REMARK  status: ('A' for Active; 'I' for Inactive)
REMARK    1  A    between atoms: CAA_1  and  CAG_7 
REMARK    2  A    between atoms: CAD_4  and  NAJ_17 
REMARK    3  A    between atoms: NAM_18  and  CAF_6 
REMARK       I    between atoms: CAG_7  and  NAI_16 
REMARK    4  A    between atoms: CAN_8  and  CAO_9 
REMARK       I    between atoms: CAN_8  and  NAM_18 
REMARK    5  A    between atoms: CAO_9  and  CAP_10 
ROOT
ATOM      1  CAN 95C d   1     -21.193 -17.469  -6.662  0.00  0.00     0.226 C 
ATOM      2  NAM 95C d   1     -21.040 -17.780  -5.276  0.00  0.00    -0.326 N 
ATOM      3  OAV 95C d   1     -22.077 -17.988  -7.338  0.00  0.00    -0.273 OA
ATOM      4  H13 95C d   1     -20.273 -17.368  -4.784  0.00  0.00     0.169 HD
ENDROOT
BRANCH   2   5
ATOM      5  CAF 95C d   1     -21.922 -18.650  -4.545  0.00  0.00     0.052 A 
ATOM      6  CAA 95C d   1     -22.030 -18.482  -3.157  0.00  0.00     0.058 A 
ATOM      7  CAB 95C d   1     -22.872 -19.296  -2.395  0.00  0.00    -0.063 A 
ATOM      8  CAC 95C d   1     -23.624 -20.292  -3.005  0.00  0.00    -0.050 A 
ATOM      9  H1  95C d   1     -22.939 -19.150  -1.323  0.00  0.00     0.085 H 
ATOM     10  CAD 95C d   1     -23.505 -20.453  -4.387  0.00  0.00     0.105 A 
ATOM     11  H2  95C d   1     -24.284 -20.926  -2.425  0.00  0.00     0.087 H 
ATOM     12  CAE 95C d   1     -22.670 -19.644  -5.168  0.00  0.00    -0.024 A 
ATOM     13  H3  95C d   1     -22.608 -19.790  -6.240  0.00  0.00     0.090 H 
BRANCH   6  14
ATOM     14  CAG 95C d   1     -21.202 -17.413  -2.436  0.00  0.00     0.251 C 
ATOM     15  NAI 95C d   1     -20.310 -16.541  -3.123  0.00  0.00    -0.366 N 
ATOM     16  H11 95C d   1     -19.788 -15.857  -2.614  0.00  0.00     0.159 HD
ATOM     17  H12 95C d   1     -20.205 -16.613  -4.115  0.00  0.00     0.159 HD
ATOM     18  OAH 95C d   1     -21.333 -17.295  -1.234  0.00  0.00    -0.268 OA
ENDBRANCH   6  14
BRANCH  10  19
ATOM     19  NAJ 95C d   1     -24.273 -21.436  -5.038  0.00  0.00    -0.116 N 
ATOM     20  OAK 95C d   1     -24.420 -21.395  -6.238  0.00  0.00    -0.532 OA
ATOM     21  OAL 95C d   1     -24.830 -22.298  -4.414  0.00  0.00    -0.532 OA
ENDBRANCH  10  19
ENDBRANCH   2   5
BRANCH   1  22
ATOM     22  CAO 95C d   1     -20.184 -16.493  -7.276  0.00  0.00     0.033 C 
ATOM     23  H4  95C d   1     -19.370 -16.301  -6.561  0.00  0.00     0.054 H 
ATOM     24  H5  95C d   1     -20.686 -15.546  -7.522  0.00  0.00     0.054 H 
BRANCH  22  25
ATOM     25  CAP 95C d   1     -19.621 -17.115  -8.535  0.00  0.00    -0.050 A 
ATOM     26  CAQ 95C d   1     -20.463 -17.216  -9.656  0.00  0.00    -0.076 A 
ATOM     27  CAR 95C d   1     -19.964 -17.799 -10.822  0.00  0.00    -0.082 A 
ATOM     28  H6  95C d   1     -21.482 -16.848  -9.616  0.00  0.00     0.084 H 
ATOM     29  CAS 95C d   1     -18.651 -18.286 -10.851  0.00  0.00    -0.083 A 
ATOM     30  H7  95C d   1     -20.591 -17.875 -11.703  0.00  0.00     0.083 H 
ATOM     31  CAT 95C d   1     -17.815 -18.180  -9.715  0.00  0.00    -0.082 A 
ATOM     32  H8  95C d   1     -18.271 -18.749 -11.754  0.00  0.00     0.083 H 
ATOM     33  CAU 95C d   1     -18.300 -17.590  -8.542  0.00  0.00    -0.076 A 
ATOM     34  H9  95C d   1     -16.799 -18.556  -9.753  0.00  0.00     0.083 H 
ATOM     35  H10 95C d   1     -17.672 -17.502  -7.663  0.00  0.00     0.084 H 
ENDBRANCH  22  25
ENDBRANCH   1  22
TORSDOF 5
