REMARK  13 active torsions:
REMARK  status: ('A' for Active; 'I' for Inactive)
REMARK    1  A    between atoms: C1_1  and  O2_3 
REMARK       I    between atoms: C1_1  and  N_11 
REMARK    2  A    between atoms: O2_3  and  C2_4 
REMARK    3  A    between atoms: C2_4  and  C3_5 
REMARK    4  A    between atoms: N_11  and  CA_12 
REMARK    5  A    between atoms: CA_12  and  C_13 
REMARK    6  A    between atoms: CA_12  and  CB_15 
REMARK       I    between atoms: C_13  and  N_22 
REMARK    7  A    between atoms: CB_15  and  CG_16 
REMARK    8  A    between atoms: N_22  and  CA_23 
REMARK    9  A    between atoms: CA_23  and  CB_26 
REMARK   10  A    between atoms: CA_23  and  C_24 
REMARK       I    between atoms: C_24  and  N_33 
REMARK   11  A    between atoms: CB_26  and  CG_27 
REMARK   12  A    between atoms: N_33  and  CA_34 
REMARK   13  A    between atoms: CA_34  and  C_35 
ROOT
ATOM      1  CA  DPN d   1     -26.322 -22.844 -36.233  0.00  0.00     0.091 C 
ATOM      2  H9  DPN d   1     -26.663 -21.928 -35.728  0.00  0.00     0.087 H 
ENDROOT
BRANCH   1   3
ATOM      3  N   DPN d   1     -24.957 -22.675 -36.637  0.00  0.00    -0.347 N 
ATOM      4  C1  PHQ d   1     -24.487 -21.350 -36.380  0.00  0.00     0.357 C 
ATOM      5  O1  PHQ d   1     -25.449 -20.486 -36.649  0.00  0.00    -0.165 OA
ATOM      6  H8  DPN d   1     -24.401 -23.397 -37.049  0.00  0.00     0.159 HD
BRANCH   4   7
ATOM      7  O2  PHQ d   1     -23.492 -21.322 -37.343  0.00  0.00    -0.326 OA
BRANCH   7   8
ATOM      8  C2  PHQ d   1     -22.884 -20.008 -37.539  0.00  0.00     0.049 C 
ATOM      9  H1  PHQ d   1     -21.800 -20.053 -37.359  0.00  0.00     0.082 H 
ATOM     10  H2  PHQ d   1     -23.337 -19.268 -36.863  0.00  0.00     0.082 H 
BRANCH   8  11
ATOM     11  C3  PHQ d   1     -23.175 -19.645 -39.015  0.00  0.00    -0.034 A 
ATOM     12  C4  PHQ d   1     -22.754 -18.436 -39.558  0.00  0.00    -0.075 A 
ATOM     13  C5  PHQ d   1     -23.056 -18.158 -40.925  0.00  0.00    -0.082 A 
ATOM     14  H3  PHQ d   1     -22.208 -17.719 -38.955  0.00  0.00     0.084 H 
ATOM     15  C6  PHQ d   1     -23.755 -19.068 -41.725  0.00  0.00    -0.083 A 
ATOM     16  H4  PHQ d   1     -22.735 -17.216 -41.355  0.00  0.00     0.083 H 
ATOM     17  C7  PHQ d   1     -24.190 -20.297 -41.182  0.00  0.00    -0.082 A 
ATOM     18  H5  PHQ d   1     -23.963 -18.830 -42.762  0.00  0.00     0.083 H 
ATOM     19  C8  PHQ d   1     -23.899 -20.577 -39.834  0.00  0.00    -0.075 A 
ATOM     20  H6  PHQ d   1     -24.736 -21.009 -41.790  0.00  0.00     0.083 H 
ATOM     21  H7  PHQ d   1     -24.228 -21.516 -39.404  0.00  0.00     0.084 H 
ENDBRANCH   8  11
ENDBRANCH   7   8
ENDBRANCH   4   7
ENDBRANCH   1   3
BRANCH   1  22
ATOM     22  C   DPN d   1     -27.143 -23.057 -37.475  0.00  0.00     0.241 C 
ATOM     23  O   DPN d   1     -26.602 -23.115 -38.519  0.00  0.00    -0.271 OA
ATOM     24  N   PHE d   1     -28.461 -23.159 -37.335  0.00  0.00    -0.346 N 
ATOM     25  H17 PHE d   1     -28.853 -23.236 -36.418  0.00  0.00     0.163 HD
BRANCH  24  26
ATOM     26  CA  PHE d   1     -29.352 -23.161 -38.501  0.00  0.00     0.093 C 
ATOM     27  H18 PHE d   1     -29.229 -24.128 -39.010  0.00  0.00     0.088 H 
BRANCH  26  28
ATOM     28  CB  PHE d   1     -30.796 -23.009 -38.068  0.00  0.00    -0.014 C 
ATOM     29  H19 PHE d   1     -31.413 -22.883 -38.970  0.00  0.00     0.043 H 
ATOM     30  H20 PHE d   1     -30.874 -22.108 -37.442  0.00  0.00     0.043 H 
BRANCH  28  31
ATOM     31  CG  PHE d   1     -31.331 -24.154 -37.298  0.00  0.00    -0.056 A 
ATOM     32  CD1 PHE d   1     -31.356 -24.115 -35.910  0.00  0.00    -0.077 A 
ATOM     33  CE1 PHE d   1     -31.898 -25.172 -35.181  0.00  0.00    -0.082 A 
ATOM     34  H21 PHE d   1     -30.951 -23.255 -35.389  0.00  0.00     0.084 H 
ATOM     35  CZ  PHE d   1     -32.412 -26.276 -35.849  0.00  0.00    -0.083 A 
ATOM     36  H23 PHE d   1     -31.918 -25.133 -34.098  0.00  0.00     0.083 H 
ATOM     37  CE2 PHE d   1     -32.380 -26.316 -37.236  0.00  0.00    -0.082 A 
ATOM     38  H25 PHE d   1     -32.836 -27.102 -35.290  0.00  0.00     0.083 H 
ATOM     39  CD2 PHE d   1     -31.853 -25.257 -37.948  0.00  0.00    -0.077 A 
ATOM     40  H24 PHE d   1     -32.770 -27.180 -37.761  0.00  0.00     0.083 H 
ATOM     41  H22 PHE d   1     -31.848 -25.291 -39.032  0.00  0.00     0.084 H 
ENDBRANCH  28  31
ENDBRANCH  26  28
BRANCH  26  42
ATOM     42  C   PHE d   1     -29.077 -22.048 -39.514  0.00  0.00     0.241 C 
ATOM     43  O   PHE d   1     -28.697 -20.938 -39.144  0.00  0.00    -0.271 OA
ATOM     44  N   GLY d   1     -29.286 -22.358 -40.789  0.00  0.00    -0.349 N 
ATOM     45  H26 GLY d   1     -29.330 -23.322 -41.053  0.00  0.00     0.163 HD
BRANCH  44  46
ATOM     46  CA  GLY d   1     -29.452 -21.342 -41.809  0.00  0.00     0.075 C 
ATOM     47  H27 GLY d   1     -29.534 -20.366 -41.309  0.00  0.00     0.080 H 
ATOM     48  H28 GLY d   1     -30.384 -21.554 -42.354  0.00  0.00     0.080 H 
BRANCH  46  49
ATOM     49  C   GLY d   1     -28.331 -21.261 -42.813  0.00  0.00     0.191 C 
ATOM     50  O   GLY d   1     -28.243 -20.270 -43.542  0.00  0.00    -0.647 OA
ATOM     51  OXT GLY d   1     -27.520 -22.187 -42.889  0.00  0.00    -0.647 OA
ENDBRANCH  46  49
ENDBRANCH  44  46
ENDBRANCH  26  42
ENDBRANCH  24  26
ENDBRANCH   1  22
BRANCH   1  52
ATOM     52  CB  DPN d   1     -26.486 -24.060 -35.226  0.00  0.00    -0.014 C 
ATOM     53  H10 DPN d   1     -26.198 -24.987 -35.744  0.00  0.00     0.043 H 
ATOM     54  H11 DPN d   1     -27.541 -24.123 -34.919  0.00  0.00     0.043 H 
BRANCH  52  55
ATOM     55  CG  DPN d   1     -25.619 -23.910 -33.972  0.00  0.00    -0.056 A 
ATOM     56  CD1 DPN d   1     -24.805 -24.967 -33.565  0.00  0.00    -0.077 A 
ATOM     57  CE1 DPN d   1     -24.003 -24.820 -32.418  0.00  0.00    -0.082 A 
ATOM     58  H12 DPN d   1     -24.790 -25.894 -34.127  0.00  0.00     0.084 H 
ATOM     59  CZ  DPN d   1     -24.018 -23.641 -31.724  0.00  0.00    -0.083 A 
ATOM     60  H14 DPN d   1     -23.375 -25.639 -32.085  0.00  0.00     0.083 H 
ATOM     61  CE2 DPN d   1     -24.852 -22.579 -32.138  0.00  0.00    -0.082 A 
ATOM     62  H16 DPN d   1     -23.386 -23.521 -30.851  0.00  0.00     0.083 H 
ATOM     63  CD2 DPN d   1     -25.648 -22.719 -33.261  0.00  0.00    -0.077 A 
ATOM     64  H15 DPN d   1     -24.869 -21.653 -31.575  0.00  0.00     0.083 H 
ATOM     65  H13 DPN d   1     -26.288 -21.906 -33.582  0.00  0.00     0.084 H 
ENDBRANCH  52  55
ENDBRANCH   1  52
TORSDOF 13
