REMARK  2 active torsions:
REMARK  status: ('A' for Active; 'I' for Inactive)
REMARK    1  A    between atoms: C1_1  and  C2_2 
REMARK    2  A    between atoms: C1_1  and  N15_9 
ROOT
ATOM      1  C2  ZXI d   1      31.415  17.245   3.961  0.00  0.00    -0.033 A 
ATOM      2  C3  ZXI d   1      30.990  16.872   2.685  0.00  0.00    -0.074 A 
ATOM      3  C4  ZXI d   1      29.723  16.353   2.495  0.00  0.00    -0.066 A 
ATOM      4  C5  ZXI d   1      28.895  16.222   3.592  0.00  0.00     0.006 A 
ATOM      5  C6  ZXI d   1      29.300  16.611   4.861  0.00  0.00    -0.066 A 
ATOM      6  C7  ZXI d   1      30.570  17.126   5.055  0.00  0.00    -0.074 A 
ATOM      7  I14 ZXI d   1      26.986  15.471   3.318  0.00  0.00    -0.045 I 
ATOM      8  H3  ZXI d   1      31.657  16.990   1.839  0.00  0.00     0.084 H 
ATOM      9  H4  ZXI d   1      29.387  16.056   1.508  0.00  0.00     0.085 H 
ATOM     10  H5  ZXI d   1      28.622  16.512   5.701  0.00  0.00     0.085 H 
ATOM     11  H6  ZXI d   1      30.898  17.430   6.042  0.00  0.00     0.084 H 
ENDROOT
BRANCH   1  12
ATOM     12  C1  ZXI d   1      32.782  17.813   4.130  0.00  0.00     0.103 C 
ATOM     13  H1  ZXI d   1      33.057  17.765   5.194  0.00  0.00     0.082 H 
ATOM     14  H2  ZXI d   1      32.773  18.862   3.800  0.00  0.00     0.082 H 
BRANCH  12  15
ATOM     15  N15 ZXI d   1      33.797  17.072   3.340  0.00  0.00    -0.075 N 
ATOM     16  H7  ZXI d   1      34.704  17.488   3.483  0.00  0.00     0.274 HD
ATOM     17  H8  ZXI d   1      33.558  17.115   2.362  0.00  0.00     0.274 HD
ATOM     18  H9  ZXI d   1      33.818  16.110   3.639  0.00  0.00     0.274 HD
ENDBRANCH  12  15
ENDBRANCH   1  12
TORSDOF 2
