REMARK  5 active torsions:
REMARK  status: ('A' for Active; 'I' for Inactive)
REMARK    1  A    between atoms: C18_2  and  C19_3 
REMARK       I    between atoms: C18_2  and  N17_5 
REMARK    2  A    between atoms: C19_3  and  C20_4 
REMARK    3  A    between atoms: N17_5  and  C15_6 
REMARK    4  A    between atoms: C11_8  and  C7_12 
REMARK    5  A    between atoms: C3_18  and  C10_19 
ROOT
ATOM      1  C15 MOL d   1      11.089  -2.565 -12.665  0.00  0.00     0.035 A 
ATOM      2  C16 MOL d   1      11.539  -3.793 -13.187  0.00  0.00    -0.045 A 
ATOM      3  C11 MOL d   1      10.769  -4.969 -13.079  0.00  0.00    -0.005 A 
ATOM      4  C12 MOL d   1       9.557  -4.926 -12.400  0.00  0.00    -0.071 A 
ATOM      5  C13 MOL d   1       9.090  -3.721 -11.902  0.00  0.00    -0.080 A 
ATOM      6  C14 MOL d   1       9.850  -2.552 -12.030  0.00  0.00    -0.057 A 
ATOM      7  H7  MOL d   1      12.501  -3.835 -13.684  0.00  0.00     0.088 H 
ATOM      8  H8  MOL d   1       8.979  -5.832 -12.261  0.00  0.00     0.084 H 
ATOM      9  H9  MOL d   1       8.126  -3.683 -11.408  0.00  0.00     0.083 H 
ATOM     10  H10 MOL d   1       9.467  -1.621 -11.628  0.00  0.00     0.086 H 
ENDROOT
BRANCH   3  11
ATOM     11  C7  MOL d   1      11.236  -6.305 -13.604  0.00  0.00     0.073 A 
ATOM     12  N8  MOL d   1      10.770  -7.474 -13.128  0.00  0.00    -0.276 N 
ATOM     13  N9  MOL d   1      11.420  -8.544 -13.789  0.00  0.00    -0.174 NA
ATOM     14  H11 MOL d   1      10.052  -7.575 -12.396  0.00  0.00     0.189 HD
ATOM     15  C5  MOL d   1      12.293  -8.117 -14.690  0.00  0.00     0.090 A 
ATOM     16  C6  MOL d   1      12.194  -6.638 -14.591  0.00  0.00     0.023 A 
ATOM     17  C4  MOL d   1      13.175  -8.719 -15.570  0.00  0.00    -0.047 A 
ATOM     18  C1  MOL d   1      13.014  -5.869 -15.422  0.00  0.00    -0.068 A 
ATOM     19  C2  MOL d   1      13.889  -6.508 -16.310  0.00  0.00    -0.076 A 
ATOM     20  H17 MOL d   1      12.973  -4.787 -15.380  0.00  0.00     0.085 H 
ATOM     21  C3  MOL d   1      13.967  -7.901 -16.383  0.00  0.00    -0.060 A 
ATOM     22  H16 MOL d   1      14.520  -5.908 -16.955  0.00  0.00     0.084 H 
ATOM     23  H12 MOL d   1      13.251  -9.799 -15.628  0.00  0.00     0.088 H 
BRANCH  21  24
ATOM     24  C10 MOL d   1      14.933  -8.514 -17.362  0.00  0.00    -0.051 C 
ATOM     25  H13 MOL d   1      15.460  -7.716 -17.905  0.00  0.00     0.033 H 
ATOM     26  H14 MOL d   1      14.381  -9.142 -18.077  0.00  0.00     0.033 H 
ATOM     27  H15 MOL d   1      15.663  -9.132 -16.819  0.00  0.00     0.033 H 
ENDBRANCH  21  24
ENDBRANCH   3  11
BRANCH   1  28
ATOM     28  N17 MOL d   1      11.747  -1.358 -12.739  0.00  0.00    -0.327 N 
ATOM     29  C18 MOL d   1      12.951  -1.120 -13.323  0.00  0.00     0.221 C 
ATOM     30  O21 MOL d   1      13.562  -1.976 -13.959  0.00  0.00    -0.273 OA
ATOM     31  H6  MOL d   1      11.291  -0.574 -12.319  0.00  0.00     0.169 HD
BRANCH  29  32
ATOM     32  C19 MOL d   1      13.654   0.222 -13.186  0.00  0.00     0.006 C 
ATOM     33  H1  MOL d   1      13.046   1.008 -13.658  0.00  0.00     0.046 H 
ATOM     34  H2  MOL d   1      14.637   0.176 -13.676  0.00  0.00     0.046 H 
BRANCH  32  35
ATOM     35  C20 MOL d   1      13.832   0.530 -11.727  0.00  0.00    -0.068 C 
ATOM     36  H3  MOL d   1      14.340   1.499 -11.616  0.00  0.00     0.028 H 
ATOM     37  H4  MOL d   1      14.439  -0.258 -11.257  0.00  0.00     0.028 H 
ATOM     38  H5  MOL d   1      12.847   0.574 -11.239  0.00  0.00     0.028 H 
ENDBRANCH  32  35
ENDBRANCH  29  32
ENDBRANCH   1  28
TORSDOF 5
