REMARK  4 active torsions:
REMARK  status: ('A' for Active; 'I' for Inactive)
REMARK    1  A    between atoms: C18_2  and  C19_3 
REMARK       I    between atoms: C18_2  and  N17_5 
REMARK    2  A    between atoms: N17_5  and  C15_6 
REMARK    3  A    between atoms: C11_8  and  C7_12 
REMARK    4  A    between atoms: C3_18  and  C10_19 
ROOT
ATOM      1  C15 MOL d   1      10.591   5.007  14.170  0.00  0.00     0.035 A 
ATOM      2  C16 MOL d   1      11.094   6.275  14.548  0.00  0.00    -0.045 A 
ATOM      3  C11 MOL d   1      10.372   7.440  14.236  0.00  0.00    -0.005 A 
ATOM      4  C12 MOL d   1       9.160   7.368  13.559  0.00  0.00    -0.071 A 
ATOM      5  C13 MOL d   1       8.665   6.131  13.175  0.00  0.00    -0.080 A 
ATOM      6  C14 MOL d   1       9.368   4.973  13.477  0.00  0.00    -0.057 A 
ATOM      7  H5  MOL d   1      12.037   6.348  15.078  0.00  0.00     0.088 H 
ATOM      8  H6  MOL d   1       8.606   8.272  13.333  0.00  0.00     0.084 H 
ATOM      9  H7  MOL d   1       7.726   6.068  12.637  0.00  0.00     0.083 H 
ATOM     10  H8  MOL d   1       8.963   4.016  13.170  0.00  0.00     0.086 H 
ENDROOT
BRANCH   3  11
ATOM     11  C7  MOL d   1      10.810   8.797  14.661  0.00  0.00     0.073 A 
ATOM     12  N8  MOL d   1      10.489   9.927  14.000  0.00  0.00    -0.276 N 
ATOM     13  N9  MOL d   1      11.016  11.032  14.694  0.00  0.00    -0.174 NA
ATOM     14  H9  MOL d   1       9.945   9.974  13.127  0.00  0.00     0.189 HD
ATOM     15  C5  MOL d   1      11.652  10.673  15.790  0.00  0.00     0.090 A 
ATOM     16  C6  MOL d   1      11.509   9.191  15.832  0.00  0.00     0.023 A 
ATOM     17  C4  MOL d   1      12.319  11.360  16.783  0.00  0.00    -0.047 A 
ATOM     18  C1  MOL d   1      12.077   8.492  16.915  0.00  0.00    -0.068 A 
ATOM     19  C2  MOL d   1      12.749   9.227  17.902  0.00  0.00    -0.076 A 
ATOM     20  H15 MOL d   1      11.997   7.413  16.984  0.00  0.00     0.085 H 
ATOM     21  C3  MOL d   1      12.859  10.634  17.822  0.00  0.00    -0.060 A 
ATOM     22  H14 MOL d   1      13.193   8.706  18.743  0.00  0.00     0.084 H 
ATOM     23  H10 MOL d   1      12.415  12.439  16.747  0.00  0.00     0.088 H 
BRANCH  21  24
ATOM     24  C10 MOL d   1      13.558  11.412  18.891  0.00  0.00    -0.051 C 
ATOM     25  H11 MOL d   1      13.941  10.721  19.656  0.00  0.00     0.033 H 
ATOM     26  H12 MOL d   1      12.851  12.116  19.354  0.00  0.00     0.033 H 
ATOM     27  H13 MOL d   1      14.396  11.971  18.449  0.00  0.00     0.033 H 
ENDBRANCH  21  24
ENDBRANCH   3  11
BRANCH   1  28
ATOM     28  N17 MOL d   1      11.210   3.783  14.361  0.00  0.00    -0.324 N 
ATOM     29  C18 MOL d   1      12.476   3.539  14.760  0.00  0.00     0.244 C 
ATOM     30  O21 MOL d   1      13.266   4.410  15.111  0.00  0.00    -0.268 OA
ATOM     31  H4  MOL d   1      10.647   2.977  14.180  0.00  0.00     0.169 HD
BRANCH  29  32
ATOM     32  C19 MOL d   1      12.950   2.124  14.689  0.00  0.00    -0.026 C 
ATOM     33  C20 MOL d   1      14.218   1.805  14.891  0.00  0.00    -0.116 C 
ATOM     34  H2  MOL d   1      14.534   0.764  14.833  0.00  0.00     0.067 H 
ATOM     35  H3  MOL d   1      14.946   2.583  15.116  0.00  0.00     0.067 H 
ATOM     36  H1  MOL d   1      12.233   1.335  14.465  0.00  0.00     0.090 H 
ENDBRANCH  29  32
ENDBRANCH   1  28
TORSDOF 4
