REMARK  7 active torsions:
REMARK  status: ('A' for Active; 'I' for Inactive)
REMARK    1  A    between atoms: CAZ_1  and  OAY_2 
REMARK    2  A    between atoms: OAY_2  and  CAW_3 
REMARK    3  A    between atoms: CAR_9  and  SAO_10 
REMARK    4  A    between atoms: SAO_10  and  NAN_13 
REMARK    5  A    between atoms: NAN_13  and  CAB_14 
REMARK    6  A    between atoms: CAH_18  and  CAL_19 
REMARK    7  A    between atoms: CAH_18  and  CAM_20 
ROOT
ATOM      1  CAB EFL d   1      11.590  -9.288  -2.065  0.00  0.00     0.045 A 
ATOM      2  CAC EFL d   1      11.346  -8.228  -1.206  0.00  0.00    -0.022 A 
ATOM      3  CAD EFL d   1      12.344  -7.292  -0.931  0.00  0.00     0.099 A 
ATOM      4  OAG EFL d   1      12.134  -6.207  -0.114  0.00  0.00    -0.329 OA
ATOM      5  CAH EFL d   1      13.110  -5.891   0.866  0.00  0.00     0.141 C 
ATOM      6  CAI EFL d   1      14.357  -5.702   0.042  0.00  0.00     0.256 C 
ATOM      7  OAK EFL d   1      15.326  -4.907   0.267  0.00  0.00    -0.270 OA
ATOM      8  NAJ EFL d   1      14.562  -6.448  -1.112  0.00  0.00    -0.322 N 
ATOM      9  CAE EFL d   1      13.599  -7.413  -1.496  0.00  0.00     0.068 A 
ATOM     10  CAF EFL d   1      13.878  -8.509  -2.330  0.00  0.00    -0.052 A 
ATOM     11  CAA EFL d   1      12.862  -9.442  -2.626  0.00  0.00    -0.054 A 
ATOM     12  H8  EFL d   1      10.371  -8.125  -0.744  0.00  0.00     0.091 H 
ATOM     13  H15 EFL d   1      15.382  -6.305  -1.666  0.00  0.00     0.169 HD
ATOM     14  H16 EFL d   1      14.871  -8.637  -2.745  0.00  0.00     0.087 H 
ATOM     15  H17 EFL d   1      13.067 -10.277  -3.287  0.00  0.00     0.087 H 
ENDROOT
BRANCH   1  16
ATOM     16  NAN EFL d   1      10.665 -10.227  -2.325  0.00  0.00    -0.280 N 
ATOM     17  H7  EFL d   1      10.909 -11.190  -2.213  0.00  0.00     0.179 HD
BRANCH  16  18
ATOM     18  SAO EFL d   1       9.107  -9.835  -2.834  0.00  0.00     0.266 S 
ATOM     19  OAP EFL d   1       8.474  -8.897  -1.876  0.00  0.00    -0.200 OA
ATOM     20  OAQ EFL d   1       8.421 -11.156  -3.066  0.00  0.00    -0.200 OA
BRANCH  18  21
ATOM     21  CAR EFL d   1       9.379  -8.942  -4.318  0.00  0.00     0.114 A 
ATOM     22  CAW EFL d   1       9.994  -9.568  -5.423  0.00  0.00     0.091 A 
ATOM     23  CAV EFL d   1      10.194  -8.845  -6.633  0.00  0.00    -0.048 A 
ATOM     24  CAU EFL d   1       9.795  -7.515  -6.654  0.00  0.00    -0.063 A 
ATOM     25  H4  EFL d   1      10.640  -9.314  -7.503  0.00  0.00     0.087 H 
ATOM     26  CAT EFL d   1       9.254  -6.921  -5.529  0.00  0.00     0.012 A 
ATOM     27  H5  EFL d   1       9.909  -6.936  -7.563  0.00  0.00     0.085 H 
ATOM     28 BR   EFL d   1       8.791  -5.123  -5.619  0.00  0.00    -0.051 Br
ATOM     29  CAS EFL d   1       9.048  -7.598  -4.371  0.00  0.00    -0.041 A 
ATOM     30  H6  EFL d   1       8.633  -7.097  -3.504  0.00  0.00     0.088 H 
BRANCH  22  31
ATOM     31  OAY EFL d   1      10.304 -10.878  -5.243  0.00  0.00    -0.354 OA
BRANCH  31  32
ATOM     32  CAZ EFL d   1      10.769 -11.639  -6.390  0.00  0.00     0.010 C 
ATOM     33  H1  EFL d   1      10.977 -12.675  -6.083  0.00  0.00     0.066 H 
ATOM     34  H2  EFL d   1      11.688 -11.182  -6.785  0.00  0.00     0.066 H 
ATOM     35  H3  EFL d   1       9.994 -11.636  -7.170  0.00  0.00     0.066 H 
ENDBRANCH  31  32
ENDBRANCH  22  31
ENDBRANCH  18  21
ENDBRANCH  16  18
ENDBRANCH   1  16
BRANCH   5  36
ATOM     36  CAL EFL d   1      12.863  -4.620   1.475  0.00  0.00    -0.039 C 
ATOM     37  H9  EFL d   1      13.641  -4.416   2.226  0.00  0.00     0.032 H 
ATOM     38  H10 EFL d   1      11.877  -4.632   1.963  0.00  0.00     0.032 H 
ATOM     39  H11 EFL d   1      12.882  -3.835   0.705  0.00  0.00     0.032 H 
ENDBRANCH   5  36
BRANCH   5  40
ATOM     40  CAM EFL d   1      13.471  -7.120   1.678  0.00  0.00    -0.039 C 
ATOM     41  H12 EFL d   1      14.228  -6.853   2.430  0.00  0.00     0.032 H 
ATOM     42  H13 EFL d   1      13.876  -7.895   1.010  0.00  0.00     0.032 H 
ATOM     43  H14 EFL d   1      12.572  -7.503   2.182  0.00  0.00     0.032 H 
ENDBRANCH   5  40
TORSDOF 7
