REMARK  9 active torsions:
REMARK  status: ('A' for Active; 'I' for Inactive)
REMARK    1  A    between atoms: CBA_1  and  OAK_2 
REMARK    2  A    between atoms: OAK_2  and  CAB_3 
REMARK    3  A    between atoms: CAH_9  and  CAX_10 
REMARK    4  A    between atoms: CAH_9  and  CAY_11 
REMARK    5  A    between atoms: CAC_15  and  NAL_16 
REMARK    6  A    between atoms: NAL_16  and  SAM_17 
REMARK    7  A    between atoms: SAM_17  and  CAP_20 
REMARK    8  A    between atoms: CAQ_26  and  OAV_27 
REMARK    9  A    between atoms: OAV_27  and  CBB_28 
ROOT
ATOM      1  CAB EFM d   1      12.654   9.221   2.691  0.00  0.00     0.097 A 
ATOM      2  CAA EFM d   1      13.689   8.280   2.447  0.00  0.00    -0.020 A 
ATOM      3  CAF EFM d   1      13.410   7.296   1.490  0.00  0.00     0.071 A 
ATOM      4  NAJ EFM d   1      14.394   6.315   1.156  0.00  0.00    -0.322 N 
ATOM      5  CAI EFM d   1      14.230   5.632  -0.033  0.00  0.00     0.256 C 
ATOM      6  OAZ EFM d   1      15.070   4.785  -0.286  0.00  0.00    -0.270 OA
ATOM      7  CAH EFM d   1      13.058   5.872  -0.836  0.00  0.00     0.141 C 
ATOM      8  OAG EFM d   1      11.944   6.269  -0.031  0.00  0.00    -0.329 OA
ATOM      9  CAE EFM d   1      12.208   7.305   0.852  0.00  0.00     0.099 A 
ATOM     10  CAD EFM d   1      11.243   8.221   1.072  0.00  0.00    -0.019 A 
ATOM     11  CAC EFM d   1      11.457   9.231   2.002  0.00  0.00     0.078 A 
ATOM     12  H4  EFM d   1      14.638   8.321   2.970  0.00  0.00     0.091 H 
ATOM     13  H5  EFM d   1      15.170   6.130   1.759  0.00  0.00     0.169 HD
ATOM     14  H12 EFM d   1      10.307   8.170   0.527  0.00  0.00     0.091 H 
ENDROOT
BRANCH  11  15
ATOM     15  NAL EFM d   1      10.603  10.237   2.309  0.00  0.00    -0.278 N 
ATOM     16  H13 EFM d   1      10.899  11.190   2.237  0.00  0.00     0.179 HD
BRANCH  15  17
ATOM     17  SAM EFM d   1       9.039   9.869   2.813  0.00  0.00     0.266 S 
ATOM     18  OAN EFM d   1       8.406   8.922   1.895  0.00  0.00    -0.200 OA
ATOM     19  OAO EFM d   1       8.320  11.138   3.047  0.00  0.00    -0.200 OA
BRANCH  17  20
ATOM     20  CAP EFM d   1       9.310   9.021   4.310  0.00  0.00     0.114 A 
ATOM     21  CAU EFM d   1       8.983   7.658   4.393  0.00  0.00    -0.041 A 
ATOM     22  CAT EFM d   1       9.123   7.001   5.547  0.00  0.00     0.012 A 
ATOM     23  H14 EFM d   1       8.615   7.137   3.517  0.00  0.00     0.088 H 
ATOM     24 BR   EFM d   1       8.648   5.195   5.687  0.00  0.00    -0.051 Br
ATOM     25  CAS EFM d   1       9.663   7.618   6.685  0.00  0.00    -0.063 A 
ATOM     26  CAR EFM d   1      10.033   8.952   6.645  0.00  0.00    -0.048 A 
ATOM     27  H15 EFM d   1       9.791   7.049   7.599  0.00  0.00     0.085 H 
ATOM     28  CAQ EFM d   1       9.889   9.636   5.433  0.00  0.00     0.091 A 
ATOM     29  H16 EFM d   1      10.422   9.451   7.525  0.00  0.00     0.087 H 
BRANCH  28  30
ATOM     30  OAV EFM d   1      10.143  10.943   5.224  0.00  0.00    -0.354 OA
BRANCH  30  31
ATOM     31  CBB EFM d   1      10.664  11.681   6.373  0.00  0.00     0.010 C 
ATOM     32  H17 EFM d   1      10.833  12.730   6.089  0.00  0.00     0.066 H 
ATOM     33  H18 EFM d   1      11.614  11.231   6.698  0.00  0.00     0.066 H 
ATOM     34  H19 EFM d   1       9.937  11.637   7.197  0.00  0.00     0.066 H 
ENDBRANCH  30  31
ENDBRANCH  28  30
ENDBRANCH  17  20
ENDBRANCH  15  17
ENDBRANCH  11  15
BRANCH   1  35
ATOM     35  OAK EFM d   1      12.769  10.281   3.621  0.00  0.00    -0.354 OA
BRANCH  35  36
ATOM     36  CBA EFM d   1      13.896  10.238   4.490  0.00  0.00     0.010 C 
ATOM     37  H1  EFM d   1      13.875  11.109   5.161  0.00  0.00     0.066 H 
ATOM     38  H2  EFM d   1      14.820  10.257   3.893  0.00  0.00     0.066 H 
ATOM     39  H3  EFM d   1      13.864   9.314   5.087  0.00  0.00     0.066 H 
ENDBRANCH  35  36
ENDBRANCH   1  35
BRANCH   7  40
ATOM     40  CAX EFM d   1      13.345   6.977  -1.800  0.00  0.00    -0.039 C 
ATOM     41  H6  EFM d   1      12.454   7.166  -2.417  0.00  0.00     0.032 H 
ATOM     42  H7  EFM d   1      14.186   6.689  -2.448  0.00  0.00     0.032 H 
ATOM     43  H8  EFM d   1      13.607   7.890  -1.244  0.00  0.00     0.032 H 
ENDBRANCH   7  40
BRANCH   7  44
ATOM     44  CAY EFM d   1      12.618   4.614  -1.557  0.00  0.00    -0.039 C 
ATOM     45  H9  EFM d   1      12.415   3.822  -0.821  0.00  0.00     0.032 H 
ATOM     46  H10 EFM d   1      13.415   4.285  -2.240  0.00  0.00     0.032 H 
ATOM     47  H11 EFM d   1      11.704   4.822  -2.133  0.00  0.00     0.032 H 
ENDBRANCH   7  44
TORSDOF 9
