REMARK  8 active torsions:
REMARK  status: ('A' for Active; 'I' for Inactive)
REMARK    1  A    between atoms: CAZ_1  and  OAY_2 
REMARK    2  A    between atoms: OAY_2  and  CAT_3 
REMARK    3  A    between atoms: CAS_9  and  SAP_10 
REMARK    4  A    between atoms: SAP_10  and  NAO_13 
REMARK    5  A    between atoms: NAO_13  and  CAC_14 
REMARK    6  A    between atoms: CAH_18  and  CAL_19 
REMARK    7  A    between atoms: CAH_18  and  CAM_20 
REMARK    8  A    between atoms: CAB_26  and  OAN_27 
ROOT
ATOM      1  CAC EFN d   1     -11.475   9.227  -2.053  0.00  0.00     0.078 A 
ATOM      2  CAD EFN d   1     -11.229   8.187  -1.146  0.00  0.00    -0.019 A 
ATOM      3  CAE EFN d   1     -12.227   7.290  -0.917  0.00  0.00     0.099 A 
ATOM      4  OAG EFN d   1     -11.969   6.229  -0.048  0.00  0.00    -0.329 OA
ATOM      5  CAH EFN d   1     -13.084   5.881   0.805  0.00  0.00     0.141 C 
ATOM      6  CAI EFN d   1     -14.290   5.655  -0.007  0.00  0.00     0.256 C 
ATOM      7  OAK EFN d   1     -15.132   4.804   0.267  0.00  0.00    -0.270 OA
ATOM      8  NAJ EFN d   1     -14.460   6.364  -1.157  0.00  0.00    -0.322 N 
ATOM      9  CAF EFN d   1     -13.467   7.328  -1.487  0.00  0.00     0.071 A 
ATOM     10  CAA EFN d   1     -13.760   8.341  -2.409  0.00  0.00    -0.020 A 
ATOM     11  CAB EFN d   1     -12.733   9.269  -2.665  0.00  0.00     0.095 A 
ATOM     12  H8  EFN d   1     -10.273   8.100  -0.642  0.00  0.00     0.091 H 
ATOM     13  H15 EFN d   1     -15.253   6.213  -1.747  0.00  0.00     0.169 HD
ATOM     14  H16 EFN d   1     -14.725   8.407  -2.899  0.00  0.00     0.091 H 
ENDROOT
BRANCH   1  15
ATOM     15  NAO EFN d   1     -10.591  10.225  -2.321  0.00  0.00    -0.278 N 
ATOM     16  H7  EFN d   1     -10.862  11.182  -2.220  0.00  0.00     0.179 HD
BRANCH  15  17
ATOM     17  SAP EFN d   1      -9.052   9.834  -2.819  0.00  0.00     0.266 S 
ATOM     18  OAQ EFN d   1      -8.442   8.877  -1.908  0.00  0.00    -0.200 OA
ATOM     19  OAR EFN d   1      -8.283  11.098  -3.056  0.00  0.00    -0.200 OA
BRANCH  17  20
ATOM     20  CAS EFN d   1      -9.307   9.007  -4.329  0.00  0.00     0.114 A 
ATOM     21  CAT EFN d   1      -9.900   9.623  -5.434  0.00  0.00     0.091 A 
ATOM     22  CAU EFN d   1     -10.052   8.940  -6.635  0.00  0.00    -0.048 A 
ATOM     23  CAV EFN d   1      -9.697   7.593  -6.699  0.00  0.00    -0.063 A 
ATOM     24  H4  EFN d   1     -10.441   9.448  -7.510  0.00  0.00     0.087 H 
ATOM     25  CAW EFN d   1      -9.181   6.962  -5.571  0.00  0.00     0.012 A 
ATOM     26  H5  EFN d   1      -9.822   7.040  -7.623  0.00  0.00     0.085 H 
ATOM     27 BR   EFN d   1      -8.682   5.146  -5.644  0.00  0.00    -0.051 Br
ATOM     28  CAX EFN d   1      -8.995   7.638  -4.408  0.00  0.00    -0.041 A 
ATOM     29  H6  EFN d   1      -8.605   7.121  -3.538  0.00  0.00     0.088 H 
BRANCH  21  30
ATOM     30  OAY EFN d   1     -10.183  10.940  -5.231  0.00  0.00    -0.354 OA
BRANCH  30  31
ATOM     31  CAZ EFN d   1     -10.751  11.646  -6.351  0.00  0.00     0.010 C 
ATOM     32  H1  EFN d   1     -10.935  12.693  -6.069  0.00  0.00     0.066 H 
ATOM     33  H2  EFN d   1     -11.700  11.172  -6.640  0.00  0.00     0.066 H 
ATOM     34  H3  EFN d   1     -10.051  11.612  -7.199  0.00  0.00     0.066 H 
ENDBRANCH  30  31
ENDBRANCH  21  30
ENDBRANCH  17  20
ENDBRANCH  15  17
ENDBRANCH   1  15
BRANCH  11  35
ATOM     35  OAN EFN d   1     -12.948  10.319  -3.568  0.00  0.00    -0.358 OA
ATOM     36  H17 EFN d   1     -12.163  10.850  -3.627  0.00  0.00     0.217 HD
ENDBRANCH  11  35
BRANCH   5  37
ATOM     37  CAL EFN d   1     -13.267   7.007   1.791  0.00  0.00    -0.039 C 
ATOM     38  H9  EFN d   1     -14.110   6.776   2.459  0.00  0.00     0.032 H 
ATOM     39  H10 EFN d   1     -13.475   7.940   1.247  0.00  0.00     0.032 H 
ATOM     40  H11 EFN d   1     -12.350   7.126   2.386  0.00  0.00     0.032 H 
ENDBRANCH   5  37
BRANCH   5  41
ATOM     41  CAM EFN d   1     -12.632   4.599   1.503  0.00  0.00    -0.039 C 
ATOM     42  H12 EFN d   1     -13.425   4.252   2.182  0.00  0.00     0.032 H 
ATOM     43  H13 EFN d   1     -11.717   4.798   2.079  0.00  0.00     0.032 H 
ATOM     44  H14 EFN d   1     -12.429   3.823   0.750  0.00  0.00     0.032 H 
ENDBRANCH   5  41
TORSDOF 8
