REMARK  4 active torsions:
REMARK  status: ('A' for Active; 'I' for Inactive)
REMARK    1  A    between atoms: C7_5  and  O1_12 
REMARK    2  A    between atoms: S_13  and  C4_6 
REMARK    3  A    between atoms: C3_9  and  S_13 
REMARK    4  A    between atoms: C_14  and  O_15 
ROOT
ATOM      1  S   A8K d   1     -23.752  19.898 -18.589  0.00  0.00    -0.091 SA
ENDROOT
BRANCH   1   2
ATOM      2  C4  A8K d   1     -22.751  19.443 -19.981  0.00  0.00     0.005 A 
ATOM      3  C9  A8K d   1     -21.381  19.435 -19.806  0.00  0.00    -0.064 A 
ATOM      4  C8  A8K d   1     -20.553  18.908 -20.775  0.00  0.00    -0.050 A 
ATOM      5  H3  A8K d   1     -20.953  19.846 -18.899  0.00  0.00     0.085 H 
ATOM      6  C7  A8K d   1     -21.092  18.356 -21.921  0.00  0.00     0.065 A 
ATOM      7  H4  A8K d   1     -19.478  18.927 -20.637  0.00  0.00     0.087 H 
ATOM      8  C6  A8K d   1     -22.467  18.328 -22.093  0.00  0.00    -0.050 A 
ATOM      9  C5  A8K d   1     -23.295  18.879 -21.130  0.00  0.00    -0.064 A 
ATOM     10  H6  A8K d   1     -22.894  17.875 -22.981  0.00  0.00     0.087 H 
ATOM     11  H5  A8K d   1     -24.370  18.871 -21.272  0.00  0.00     0.085 H 
BRANCH   6  12
ATOM     12  O1  A8K d   1     -20.229  17.869 -22.842  0.00  0.00    -0.361 OA
ATOM     13  H9  A8K d   1     -19.338  17.985 -22.532  0.00  0.00     0.217 HD
ENDBRANCH   6  12
ENDBRANCH   1   2
BRANCH   1  14
ATOM     14  C3  A8K d   1     -25.371  20.105 -19.271  0.00  0.00     0.005 A 
ATOM     15  C10 A8K d   1     -25.522  21.311 -19.949  0.00  0.00    -0.064 A 
ATOM     16  C11 A8K d   1     -26.748  21.659 -20.487  0.00  0.00    -0.050 A 
ATOM     17  H2  A8K d   1     -24.676  21.980 -20.056  0.00  0.00     0.085 H 
ATOM     18  C   A8K d   1     -27.827  20.799 -20.361  0.00  0.00     0.065 A 
ATOM     19  H1  A8K d   1     -26.864  22.603 -21.006  0.00  0.00     0.087 H 
ATOM     20  C1  A8K d   1     -27.670  19.585 -19.698  0.00  0.00    -0.050 A 
ATOM     21  C2  A8K d   1     -26.443  19.242 -19.162  0.00  0.00    -0.064 A 
ATOM     22  H8  A8K d   1     -28.511  18.908 -19.602  0.00  0.00     0.087 H 
ATOM     23  H7  A8K d   1     -26.322  18.292 -18.654  0.00  0.00     0.085 H 
BRANCH  18  24
ATOM     24  O   A8K d   1     -29.029  21.156 -20.880  0.00  0.00    -0.361 OA
ATOM     25  H10 A8K d   1     -28.954  22.008 -21.293  0.00  0.00     0.217 HD
ENDBRANCH  18  24
ENDBRANCH   1  14
TORSDOF 4
