REMARK  3 active torsions:
REMARK  status: ('A' for Active; 'I' for Inactive)
REMARK    1  A    between atoms: C5_5  and  O7_7 
REMARK    2  A    between atoms: O7_7  and  C8_8 
REMARK    3  A    between atoms: C11_11  and  O14_14 
ROOT
ATOM      1  C8  HX8 d   1      -5.486 -20.261 -19.553  0.00  0.00     0.076 A 
ATOM      2  C9  HX8 d   1      -5.200 -21.435 -20.233  0.00  0.00    -0.048 A 
ATOM      3  C10 HX8 d   1      -3.911 -21.689 -20.663  0.00  0.00    -0.048 A 
ATOM      4  C11 HX8 d   1      -2.904 -20.768 -20.421  0.00  0.00     0.065 A 
ATOM      5  C12 HX8 d   1      -3.190 -19.597 -19.732  0.00  0.00    -0.048 A 
ATOM      6  C13 HX8 d   1      -4.481 -19.348 -19.292  0.00  0.00    -0.048 A 
ATOM      7  H6  HX8 d   1      -5.988 -22.154 -20.427  0.00  0.00     0.087 H 
ATOM      8  H7  HX8 d   1      -3.688 -22.610 -21.190  0.00  0.00     0.087 H 
ATOM      9  H8  HX8 d   1      -2.403 -18.877 -19.538  0.00  0.00     0.087 H 
ATOM     10  H9  HX8 d   1      -4.702 -18.439 -18.744  0.00  0.00     0.087 H 
ENDROOT
BRANCH   1  11
ATOM     11  O7  HX8 d   1      -6.835 -20.129 -19.214  0.00  0.00    -0.311 OA
BRANCH  11  12
ATOM     12  C5  HX8 d   1      -7.729 -19.601 -20.156  0.00  0.00     0.076 A 
ATOM     13  C4  HX8 d   1      -9.089 -19.592 -19.895  0.00  0.00    -0.050 A 
ATOM     14  C3  HX8 d   1      -9.959 -19.081 -20.843  0.00  0.00    -0.080 A 
ATOM     15  H4  HX8 d   1      -9.469 -19.981 -18.957  0.00  0.00     0.087 H 
ATOM     16  C2  HX8 d   1      -9.478 -18.555 -22.021  0.00  0.00    -0.083 A 
ATOM     17  H3  HX8 d   1     -11.027 -19.095 -20.656  0.00  0.00     0.083 H 
ATOM     18  C1  HX8 d   1      -8.120 -18.526 -22.255  0.00  0.00    -0.080 A 
ATOM     19  H2  HX8 d   1     -10.166 -18.165 -22.763  0.00  0.00     0.083 H 
ATOM     20  C6  HX8 d   1      -7.235 -19.054 -21.327  0.00  0.00    -0.050 A 
ATOM     21  H1  HX8 d   1      -7.741 -18.087 -23.171  0.00  0.00     0.083 H 
ATOM     22  H5  HX8 d   1      -6.168 -19.038 -21.517  0.00  0.00     0.087 H 
ENDBRANCH  11  12
ENDBRANCH   1  11
BRANCH   4  23
ATOM     23  O14 HX8 d   1      -1.643 -20.998 -20.895  0.00  0.00    -0.361 OA
ATOM     24  H10 HX8 d   1      -1.621 -21.838 -21.338  0.00  0.00     0.217 HD
ENDBRANCH   4  23
TORSDOF 3
