REMARK  10 active torsions:
REMARK  status: ('A' for Active; 'I' for Inactive)
REMARK    1  A    between atoms: O3B_8  and  PG_1 
REMARK    2  A    between atoms: PB_5  and  O3B_8 
REMARK    3  A    between atoms: O3A_12  and  PB_5 
REMARK    4  A    between atoms: PA_9  and  O3A_12 
REMARK    5  A    between atoms: PA_9  and  O5'_13 
REMARK    6  A    between atoms: O5'_13  and  C5'_14 
REMARK    7  A    between atoms: C5'_14  and  C4'_15 
REMARK    8  A    between atoms: C3'_17  and  O3'_18 
REMARK    9  A    between atoms: C2'_19  and  O2'_20 
REMARK   10  A    between atoms: C1'_21  and  N9_22 
ROOT
ATOM      1  C4' ATP d   1      -9.281  34.508 -14.166  0.00  0.00     0.089 C 
ATOM      2  O4' ATP d   1      -9.043  35.143 -12.916  0.00  0.00    -0.353 OA
ATOM      3  C3' ATP d   1      -8.662  33.141 -14.041  0.00  0.00     0.091 C 
ATOM      4  C2' ATP d   1      -8.087  33.112 -12.641  0.00  0.00     0.105 C 
ATOM      5  C1' ATP d   1      -7.863  34.592 -12.386  0.00  0.00     0.139 C 
ATOM      6  H3  ATP d   1      -8.823  35.070 -14.994  0.00  0.00     0.090 H 
ATOM      7  H4  ATP d   1      -9.382  32.328 -14.213  0.00  0.00     0.091 H 
ATOM      8  H6  ATP d   1      -8.800  32.695 -11.915  0.00  0.00     0.093 H 
ATOM      9  H8  ATP d   1      -6.985  34.932 -12.955  0.00  0.00     0.122 H 
ENDROOT
BRANCH   1  10
ATOM     10  C5' ATP d   1     -10.765  34.405 -14.367  0.00  0.00     0.058 C 
ATOM     11  H1  ATP d   1     -11.139  35.306 -14.874  0.00  0.00     0.079 H 
ATOM     12  H2  ATP d   1     -11.002  33.518 -14.973  0.00  0.00     0.079 H 
BRANCH  10  13
ATOM     13  O5' ATP d   1     -11.362  34.288 -13.077  0.00  0.00    -0.287 OA
BRANCH  13  14
ATOM     14  PA  ATP d   1     -12.895  33.827 -13.091  0.00  0.00     0.417 P 
ATOM     15  O1A ATP d   1     -13.806  35.027 -12.927  0.00  0.00    -0.624 OA
ATOM     16  O2A ATP d   1     -13.135  32.604 -12.223  0.00  0.00    -0.624 OA
BRANCH  14  17
ATOM     17  O3A ATP d   1     -12.844  33.374 -14.617  0.00  0.00    -0.180 OA
BRANCH  17  18
ATOM     18  PB  ATP d   1     -14.282  33.252 -15.239  0.00  0.00     0.428 P 
ATOM     19  O1B ATP d   1     -14.600  34.391 -16.167  0.00  0.00    -0.624 OA
ATOM     20  O2B ATP d   1     -15.174  32.884 -14.083  0.00  0.00    -0.624 OA
BRANCH  18  21
ATOM     21  O3B ATP d   1     -14.113  32.022 -16.185  0.00  0.00    -0.173 OA
BRANCH  21  22
ATOM     22  PG  ATP d   1     -15.474  31.933 -16.986  0.00  0.00     0.431 P 
ATOM     23  O1G ATP d   1     -15.198  32.907 -18.107  0.00  0.00    -0.616 OA
ATOM     24  O2G ATP d   1     -16.547  32.514 -16.078  0.00  0.00    -0.616 OA
ATOM     25  O3G ATP d   1     -15.577  30.429 -17.261  0.00  0.00    -0.616 OA
ENDBRANCH  21  22
ENDBRANCH  18  21
ENDBRANCH  17  18
ENDBRANCH  14  17
ENDBRANCH  13  14
ENDBRANCH  10  13
ENDBRANCH   1  10
BRANCH   3  26
ATOM     26  O3' ATP d   1      -7.592  33.113 -14.980  0.00  0.00    -0.390 OA
ATOM     27  H5  ATP d   1      -7.162  32.267 -14.944  0.00  0.00     0.210 HD
ENDBRANCH   3  26
BRANCH   5  28
ATOM     28  N9  ATP d   1      -7.673  35.007 -10.980  0.00  0.00    -0.294 N 
ATOM     29  C8  ATP d   1      -8.251  34.529  -9.863  0.00  0.00     0.071 A 
ATOM     30  N7  ATP d   1      -7.802  35.170  -8.748  0.00  0.00    -0.236 NA
ATOM     31  H9  ATP d   1      -8.988  33.727  -9.852  0.00  0.00     0.144 H 
ATOM     32  C5  ATP d   1      -6.916  36.079  -9.173  0.00  0.00     0.149 A 
ATOM     33  C6  ATP d   1      -6.062  37.097  -8.552  0.00  0.00     0.155 A 
ATOM     34  C4  ATP d   1      -6.835  35.960 -10.628  0.00  0.00     0.167 A 
ATOM     35  N6  ATP d   1      -6.054  37.281  -7.221  0.00  0.00    -0.382 N 
ATOM     36  N1  ATP d   1      -5.280  37.838  -9.347  0.00  0.00    -0.222 NA
ATOM     37  H10 ATP d   1      -5.447  38.001  -6.804  0.00  0.00     0.157 HD
ATOM     38  H11 ATP d   1      -6.655  36.702  -6.617  0.00  0.00     0.157 HD
ATOM     39  C2  ATP d   1      -5.263  37.677 -10.681  0.00  0.00     0.091 A 
ATOM     40  N3  ATP d   1      -6.015  36.773 -11.325  0.00  0.00    -0.222 NA
ATOM     41  H12 ATP d   1      -4.607  38.311 -11.267  0.00  0.00     0.146 H 
ENDBRANCH   5  28
BRANCH   4  42
ATOM     42  O2' ATP d   1      -6.895  32.325 -12.633  0.00  0.00    -0.388 OA
ATOM     43  H7  ATP d   1      -6.261  32.706 -13.229  0.00  0.00     0.210 HD
ENDBRANCH   4  42
TORSDOF 10
