REMARK  25 active torsions:
REMARK  status: ('A' for Active; 'I' for Inactive)
REMARK    1  A    between atoms: O13_26  and  C12_1 
REMARK    2  A    between atoms: C15_3  and  C14_2 
REMARK    3  A    between atoms: C14_2  and  O13_26 
REMARK    4  A    between atoms: O16_27  and  C15_3 
REMARK    5  A    between atoms: C18_5  and  C17_4 
REMARK    6  A    between atoms: C17_4  and  O16_27 
REMARK    7  A    between atoms: O19_28  and  C18_5 
REMARK    8  A    between atoms: C21_7  and  C20_6 
REMARK    9  A    between atoms: C20_6  and  O19_28 
REMARK   10  A    between atoms: O22_29  and  C21_7 
REMARK   11  A    between atoms: C24_9  and  C23_8 
REMARK   12  A    between atoms: C23_8  and  O22_29 
REMARK   13  A    between atoms: O25_30  and  C24_9 
REMARK   14  A    between atoms: C27_11  and  C26_10 
REMARK   15  A    between atoms: C26_10  and  O25_30 
REMARK   16  A    between atoms: O28_31  and  C27_11 
REMARK   17  A    between atoms: C29_12  and  O28_31 
REMARK   18  A    between atoms: C32_15  and  C35_18 
REMARK   19  A    between atoms: C35_18  and  C36_19 
REMARK   20  A    between atoms: C35_18  and  C37_20 
REMARK   21  A    between atoms: C35_18  and  C38_21 
REMARK   22  A    between atoms: C38_21  and  C39_22 
REMARK   23  A    between atoms: C39_22  and  C40_23 
REMARK   24  A    between atoms: C39_22  and  C41_24 
REMARK   25  A    between atoms: C39_22  and  C42_25 
ROOT
ATOM      1  C27 EGC d   1     -14.969  24.484  10.352  0.00  0.00     0.046 C 
ATOM      2  H22 EGC d   1     -14.523  23.769   9.645  0.00  0.00     0.078 H 
ATOM      3  H23 EGC d   1     -14.228  24.751  11.120  0.00  0.00     0.078 H 
ENDROOT
BRANCH   1   4
ATOM      4  C26 EGC d   1     -16.167  23.858  11.008  0.00  0.00     0.040 C 
ATOM      5  H20 EGC d   1     -15.856  22.934  11.517  0.00  0.00     0.077 H 
ATOM      6  H21 EGC d   1     -16.914  23.618  10.237  0.00  0.00     0.077 H 
BRANCH   4   7
ATOM      7  O25 EGC d   1     -16.756  24.752  11.973  0.00  0.00    -0.387 OA
BRANCH   7   8
ATOM      8  C24 EGC d   1     -17.957  25.429  11.551  0.00  0.00     0.039 C 
ATOM      9  H18 EGC d   1     -17.759  25.999  10.631  0.00  0.00     0.077 H 
ATOM     10  H19 EGC d   1     -18.753  24.693  11.363  0.00  0.00     0.077 H 
BRANCH   8  11
ATOM     11  C23 EGC d   1     -18.386  26.381  12.669  0.00  0.00     0.039 C 
ATOM     12  H16 EGC d   1     -17.855  26.129  13.599  0.00  0.00     0.077 H 
ATOM     13  H17 EGC d   1     -19.471  26.301  12.832  0.00  0.00     0.077 H 
BRANCH  11  14
ATOM     14  O22 EGC d   1     -18.056  27.698  12.269  0.00  0.00    -0.387 OA
BRANCH  14  15
ATOM     15  C21 EGC d   1     -18.192  28.720  13.264  0.00  0.00     0.039 C 
ATOM     16  H14 EGC d   1     -18.945  28.417  14.006  0.00  0.00     0.077 H 
ATOM     17  H15 EGC d   1     -17.226  28.880  13.766  0.00  0.00     0.077 H 
BRANCH  15  18
ATOM     18  C20 EGC d   1     -18.636  30.011  12.575  0.00  0.00     0.039 C 
ATOM     19  H12 EGC d   1     -18.009  30.199  11.691  0.00  0.00     0.077 H 
ATOM     20  H13 EGC d   1     -18.549  30.857  13.273  0.00  0.00     0.077 H 
BRANCH  18  21
ATOM     21  O19 EGC d   1     -20.000  29.845  12.178  0.00  0.00    -0.387 OA
BRANCH  21  22
ATOM     22  C18 EGC d   1     -20.931  30.924  12.386  0.00  0.00     0.039 C 
ATOM     23  H10 EGC d   1     -20.542  31.827  11.892  0.00  0.00     0.077 H 
ATOM     24  H11 EGC d   1     -21.898  30.649  11.939  0.00  0.00     0.077 H 
BRANCH  22  25
ATOM     25  C17 EGC d   1     -21.143  31.226  13.863  0.00  0.00     0.039 C 
ATOM     26  H8  EGC d   1     -20.715  32.214  14.088  0.00  0.00     0.077 H 
ATOM     27  H9  EGC d   1     -20.628  30.459  14.460  0.00  0.00     0.077 H 
BRANCH  25  28
ATOM     28  O16 EGC d   1     -22.524  31.232  14.216  0.00  0.00    -0.387 OA
BRANCH  28  29
ATOM     29  C15 EGC d   1     -22.776  31.648  15.564  0.00  0.00     0.039 C 
ATOM     30  H6  EGC d   1     -22.293  30.941  16.255  0.00  0.00     0.077 H 
ATOM     31  H7  EGC d   1     -22.355  32.653  15.715  0.00  0.00     0.077 H 
BRANCH  29  32
ATOM     32  C14 EGC d   1     -24.277  31.686  15.856  0.00  0.00     0.039 C 
ATOM     33  H4  EGC d   1     -24.813  32.064  14.973  0.00  0.00     0.077 H 
ATOM     34  H5  EGC d   1     -24.468  32.349  16.713  0.00  0.00     0.077 H 
BRANCH  32  35
ATOM     35  O13 EGC d   1     -24.735  30.365  16.163  0.00  0.00    -0.394 OA
BRANCH  35  36
ATOM     36  C12 EGC d   1     -26.109  30.163  15.798  0.00  0.00     0.004 C 
ATOM     37  H1  EGC d   1     -26.409  29.136  16.054  0.00  0.00     0.066 H 
ATOM     38  H2  EGC d   1     -26.228  30.320  14.716  0.00  0.00     0.066 H 
ATOM     39  H3  EGC d   1     -26.742  30.877  16.344  0.00  0.00     0.066 H 
ENDBRANCH  35  36
ENDBRANCH  32  35
ENDBRANCH  29  32
ENDBRANCH  28  29
ENDBRANCH  25  28
ENDBRANCH  22  25
ENDBRANCH  21  22
ENDBRANCH  18  21
ENDBRANCH  15  18
ENDBRANCH  14  15
ENDBRANCH  11  14
ENDBRANCH   8  11
ENDBRANCH   7   8
ENDBRANCH   4   7
ENDBRANCH   1   4
BRANCH   1  40
ATOM     40  O28 EGC d   1     -15.372  25.663   9.647  0.00  0.00    -0.349 OA
BRANCH  40  41
ATOM     41  C29 EGC d   1     -14.463  26.377   8.901  0.00  0.00     0.068 A 
ATOM     42  C30 EGC d   1     -14.929  27.524   8.342  0.00  0.00    -0.050 A 
ATOM     43  C31 EGC d   1     -14.081  28.310   7.554  0.00  0.00    -0.073 A 
ATOM     44  H24 EGC d   1     -15.956  27.830   8.506  0.00  0.00     0.087 H 
ATOM     45  C32 EGC d   1     -12.743  27.954   7.344  0.00  0.00    -0.050 A 
ATOM     46  H25 EGC d   1     -14.468  29.213   7.096  0.00  0.00     0.084 H 
ATOM     47  C33 EGC d   1     -12.307  26.774   7.918  0.00  0.00    -0.073 A 
ATOM     48  C34 EGC d   1     -13.132  25.993   8.714  0.00  0.00    -0.050 A 
ATOM     49  H26 EGC d   1     -11.288  26.449   7.740  0.00  0.00     0.084 H 
ATOM     50  H27 EGC d   1     -12.749  25.095   9.186  0.00  0.00     0.087 H 
BRANCH  45  51
ATOM     51  C35 EGC d   1     -11.822  28.783   6.502  0.00  0.00    -0.020 C 
BRANCH  51  52
ATOM     52  C36 EGC d   1     -12.507  29.983   5.879  0.00  0.00    -0.065 C 
ATOM     53  H28 EGC d   1     -11.781  30.548   5.276  0.00  0.00     0.028 H 
ATOM     54  H29 EGC d   1     -12.906  30.631   6.673  0.00  0.00     0.028 H 
ATOM     55  H30 EGC d   1     -13.331  29.642   5.235  0.00  0.00     0.028 H 
ENDBRANCH  51  52
BRANCH  51  56
ATOM     56  C37 EGC d   1     -11.395  27.929   5.289  0.00  0.00    -0.065 C 
ATOM     57  H31 EGC d   1     -10.882  27.022   5.641  0.00  0.00     0.028 H 
ATOM     58  H32 EGC d   1     -10.713  28.512   4.652  0.00  0.00     0.028 H 
ATOM     59  H33 EGC d   1     -12.285  27.644   4.709  0.00  0.00     0.028 H 
ENDBRANCH  51  56
BRANCH  51  60
ATOM     60  C38 EGC d   1     -10.498  29.151   7.243  0.00  0.00    -0.049 C 
ATOM     61  H34 EGC d   1      -9.885  29.694   6.509  0.00  0.00     0.035 H 
ATOM     62  H35 EGC d   1     -10.015  28.193   7.487  0.00  0.00     0.035 H 
BRANCH  60  63
ATOM     63  C39 EGC d   1     -10.445  29.990   8.538  0.00  0.00    -0.050 C 
BRANCH  63  64
ATOM     64  C40 EGC d   1      -9.031  29.964   9.048  0.00  0.00    -0.070 C 
ATOM     65  H36 EGC d   1      -8.964  30.556   9.973  0.00  0.00     0.028 H 
ATOM     66  H37 EGC d   1      -8.360  30.392   8.289  0.00  0.00     0.028 H 
ATOM     67  H38 EGC d   1      -8.735  28.925   9.255  0.00  0.00     0.028 H 
ENDBRANCH  63  64
BRANCH  63  68
ATOM     68  C41 EGC d   1     -10.811  31.444   8.256  0.00  0.00    -0.070 C 
ATOM     69  H39 EGC d   1     -11.844  31.496   7.880  0.00  0.00     0.028 H 
ATOM     70  H40 EGC d   1     -10.125  31.855   7.501  0.00  0.00     0.028 H 
ATOM     71  H41 EGC d   1     -10.729  32.029   9.184  0.00  0.00     0.028 H 
ENDBRANCH  63  68
BRANCH  63  72
ATOM     72  C42 EGC d   1     -11.252  29.388   9.703  0.00  0.00    -0.070 C 
ATOM     73  H42 EGC d   1     -10.946  28.343   9.859  0.00  0.00     0.028 H 
ATOM     74  H43 EGC d   1     -12.325  29.424   9.463  0.00  0.00     0.028 H 
ATOM     75  H44 EGC d   1     -11.061  29.967  10.619  0.00  0.00     0.028 H 
ENDBRANCH  63  72
ENDBRANCH  60  63
ENDBRANCH  51  60
ENDBRANCH  45  51
ENDBRANCH  40  41
ENDBRANCH   1  40
TORSDOF 25
