REMARK  25 active torsions:
REMARK  status: ('A' for Active; 'I' for Inactive)
REMARK    1  A    between atoms: O13_26  and  C12_1 
REMARK    2  A    between atoms: C15_3  and  C14_2 
REMARK    3  A    between atoms: C14_2  and  O13_26 
REMARK    4  A    between atoms: O16_27  and  C15_3 
REMARK    5  A    between atoms: C18_5  and  C17_4 
REMARK    6  A    between atoms: C17_4  and  O16_27 
REMARK    7  A    between atoms: O19_28  and  C18_5 
REMARK    8  A    between atoms: C21_7  and  C20_6 
REMARK    9  A    between atoms: C20_6  and  O19_28 
REMARK   10  A    between atoms: O22_29  and  C21_7 
REMARK   11  A    between atoms: C24_9  and  C23_8 
REMARK   12  A    between atoms: C23_8  and  O22_29 
REMARK   13  A    between atoms: O25_30  and  C24_9 
REMARK   14  A    between atoms: C27_11  and  C26_10 
REMARK   15  A    between atoms: C26_10  and  O25_30 
REMARK   16  A    between atoms: O28_31  and  C27_11 
REMARK   17  A    between atoms: C29_12  and  O28_31 
REMARK   18  A    between atoms: C32_15  and  C35_18 
REMARK   19  A    between atoms: C35_18  and  C36_19 
REMARK   20  A    between atoms: C35_18  and  C37_20 
REMARK   21  A    between atoms: C35_18  and  C38_21 
REMARK   22  A    between atoms: C38_21  and  C39_22 
REMARK   23  A    between atoms: C39_22  and  C40_23 
REMARK   24  A    between atoms: C39_22  and  C41_24 
REMARK   25  A    between atoms: C39_22  and  C42_25 
ROOT
ATOM      1  C27 EGC d   1     -14.944  24.397  23.618  0.00  0.00     0.046 C 
ATOM      2  H22 EGC d   1     -14.520  23.656  22.924  0.00  0.00     0.078 H 
ATOM      3  H23 EGC d   1     -14.198  24.647  24.387  0.00  0.00     0.078 H 
ENDROOT
BRANCH   1   4
ATOM      4  C26 EGC d   1     -16.175  23.809  24.287  0.00  0.00     0.040 C 
ATOM      5  H20 EGC d   1     -15.909  22.864  24.783  0.00  0.00     0.077 H 
ATOM      6  H21 EGC d   1     -16.951  23.620  23.531  0.00  0.00     0.077 H 
BRANCH   4   7
ATOM      7  O25 EGC d   1     -16.672  24.747  25.267  0.00  0.00    -0.387 OA
BRANCH   7   8
ATOM      8  C24 EGC d   1     -18.013  25.179  25.026  0.00  0.00     0.039 C 
ATOM      9  H18 EGC d   1     -18.087  25.578  24.004  0.00  0.00     0.077 H 
ATOM     10  H19 EGC d   1     -18.694  24.322  25.135  0.00  0.00     0.077 H 
BRANCH   8  11
ATOM     11  C23 EGC d   1     -18.409  26.263  26.017  0.00  0.00     0.039 C 
ATOM     12  H16 EGC d   1     -17.944  26.066  26.994  0.00  0.00     0.077 H 
ATOM     13  H17 EGC d   1     -19.503  26.286  26.130  0.00  0.00     0.077 H 
BRANCH  11  14
ATOM     14  O22 EGC d   1     -17.947  27.511  25.501  0.00  0.00    -0.387 OA
BRANCH  14  15
ATOM     15  C21 EGC d   1     -18.064  28.600  26.426  0.00  0.00     0.039 C 
ATOM     16  H14 EGC d   1     -18.689  28.300  27.280  0.00  0.00     0.077 H 
ATOM     17  H15 EGC d   1     -17.067  28.895  26.786  0.00  0.00     0.077 H 
BRANCH  15  18
ATOM     18  C20 EGC d   1     -18.712  29.759  25.693  0.00  0.00     0.039 C 
ATOM     19  H12 EGC d   1     -18.332  29.818  24.662  0.00  0.00     0.077 H 
ATOM     20  H13 EGC d   1     -18.503  30.704  26.215  0.00  0.00     0.077 H 
BRANCH  18  21
ATOM     21  O19 EGC d   1     -20.118  29.497  25.688  0.00  0.00    -0.387 OA
BRANCH  21  22
ATOM     22  C18 EGC d   1     -20.918  30.653  25.512  0.00  0.00     0.039 C 
ATOM     23  H10 EGC d   1     -20.463  31.300  24.748  0.00  0.00     0.077 H 
ATOM     24  H11 EGC d   1     -21.926  30.355  25.187  0.00  0.00     0.077 H 
BRANCH  22  25
ATOM     25  C17 EGC d   1     -21.015  31.416  26.834  0.00  0.00     0.039 C 
ATOM     26  H8  EGC d   1     -20.477  32.371  26.740  0.00  0.00     0.077 H 
ATOM     27  H9  EGC d   1     -20.557  30.814  27.633  0.00  0.00     0.077 H 
BRANCH  25  28
ATOM     28  O16 EGC d   1     -22.384  31.677  27.167  0.00  0.00    -0.387 OA
BRANCH  28  29
ATOM     29  C15 EGC d   1     -23.076  30.811  28.108  0.00  0.00     0.039 C 
ATOM     30  H6  EGC d   1     -23.665  30.065  27.555  0.00  0.00     0.077 H 
ATOM     31  H7  EGC d   1     -22.340  30.298  28.744  0.00  0.00     0.077 H 
BRANCH  29  32
ATOM     32  C14 EGC d   1     -24.014  31.657  28.987  0.00  0.00     0.039 C 
ATOM     33  H4  EGC d   1     -24.289  32.567  28.434  0.00  0.00     0.077 H 
ATOM     34  H5  EGC d   1     -23.479  31.935  29.907  0.00  0.00     0.077 H 
BRANCH  32  35
ATOM     35  O13 EGC d   1     -25.217  30.956  29.348  0.00  0.00    -0.394 OA
BRANCH  35  36
ATOM     36  C12 EGC d   1     -26.386  31.418  28.620  0.00  0.00     0.004 C 
ATOM     37  H1  EGC d   1     -27.268  30.845  28.941  0.00  0.00     0.066 H 
ATOM     38  H2  EGC d   1     -26.227  31.273  27.541  0.00  0.00     0.066 H 
ATOM     39  H3  EGC d   1     -26.548  32.486  28.827  0.00  0.00     0.066 H 
ENDBRANCH  35  36
ENDBRANCH  32  35
ENDBRANCH  29  32
ENDBRANCH  28  29
ENDBRANCH  25  28
ENDBRANCH  22  25
ENDBRANCH  21  22
ENDBRANCH  18  21
ENDBRANCH  15  18
ENDBRANCH  14  15
ENDBRANCH  11  14
ENDBRANCH   8  11
ENDBRANCH   7   8
ENDBRANCH   4   7
ENDBRANCH   1   4
BRANCH   1  40
ATOM     40  O28 EGC d   1     -15.290  25.592  22.885  0.00  0.00    -0.349 OA
BRANCH  40  41
ATOM     41  C29 EGC d   1     -14.349  26.298  22.158  0.00  0.00     0.068 A 
ATOM     42  C30 EGC d   1     -13.014  25.879  21.971  0.00  0.00    -0.050 A 
ATOM     43  C31 EGC d   1     -12.122  26.655  21.209  0.00  0.00    -0.073 A 
ATOM     44  H24 EGC d   1     -12.674  24.952  22.418  0.00  0.00     0.087 H 
ATOM     45  C32 EGC d   1     -12.509  27.905  20.699  0.00  0.00    -0.050 A 
ATOM     46  H25 EGC d   1     -11.123  26.283  21.013  0.00  0.00     0.084 H 
ATOM     47  C33 EGC d   1     -13.872  28.287  20.876  0.00  0.00    -0.073 A 
ATOM     48  C34 EGC d   1     -14.770  27.497  21.598  0.00  0.00    -0.050 A 
ATOM     49  H26 EGC d   1     -14.220  29.215  20.438  0.00  0.00     0.084 H 
ATOM     50  H27 EGC d   1     -15.797  27.820  21.721  0.00  0.00     0.087 H 
BRANCH  45  51
ATOM     51  C35 EGC d   1     -11.623  28.758  19.866  0.00  0.00    -0.020 C 
BRANCH  51  52
ATOM     52  C36 EGC d   1     -12.366  29.952  19.243  0.00  0.00    -0.065 C 
ATOM     53  H28 EGC d   1     -11.664  30.546  18.640  0.00  0.00     0.028 H 
ATOM     54  H29 EGC d   1     -12.785  30.581  20.042  0.00  0.00     0.028 H 
ATOM     55  H30 EGC d   1     -13.180  29.583  18.602  0.00  0.00     0.028 H 
ENDBRANCH  51  52
BRANCH  51  56
ATOM     56  C37 EGC d   1     -11.371  27.883  18.617  0.00  0.00    -0.065 C 
ATOM     57  H31 EGC d   1     -10.834  26.970  18.912  0.00  0.00     0.028 H 
ATOM     58  H32 EGC d   1     -10.766  28.446  17.891  0.00  0.00     0.028 H 
ATOM     59  H33 EGC d   1     -12.334  27.611  18.160  0.00  0.00     0.028 H 
ENDBRANCH  51  56
BRANCH  51  60
ATOM     60  C38 EGC d   1     -10.227  29.076  20.549  0.00  0.00    -0.049 C 
ATOM     61  H34 EGC d   1      -9.539  29.359  19.738  0.00  0.00     0.035 H 
ATOM     62  H35 EGC d   1      -9.884  28.139  21.011  0.00  0.00     0.035 H 
BRANCH  60  63
ATOM     63  C39 EGC d   1     -10.107  30.132  21.594  0.00  0.00    -0.050 C 
BRANCH  63  64
ATOM     64  C40 EGC d   1     -11.036  29.762  22.758  0.00  0.00    -0.070 C 
ATOM     65  H36 EGC d   1     -10.964  30.529  23.543  0.00  0.00     0.028 H 
ATOM     66  H37 EGC d   1     -10.737  28.787  23.170  0.00  0.00     0.028 H 
ATOM     67  H38 EGC d   1     -12.073  29.705  22.396  0.00  0.00     0.028 H 
ENDBRANCH  63  64
BRANCH  63  68
ATOM     68  C41 EGC d   1     -10.395  31.556  21.054  0.00  0.00    -0.070 C 
ATOM     69  H39 EGC d   1      -9.709  31.779  20.224  0.00  0.00     0.028 H 
ATOM     70  H40 EGC d   1     -10.247  32.291  21.859  0.00  0.00     0.028 H 
ATOM     71  H41 EGC d   1     -11.434  31.609  20.696  0.00  0.00     0.028 H 
ENDBRANCH  63  68
BRANCH  63  72
ATOM     72  C42 EGC d   1      -8.651  30.014  22.110  0.00  0.00    -0.070 C 
ATOM     73  H42 EGC d   1      -8.477  28.995  22.486  0.00  0.00     0.028 H 
ATOM     74  H43 EGC d   1      -8.490  30.737  22.923  0.00  0.00     0.028 H 
ATOM     75  H44 EGC d   1      -7.952  30.226  21.287  0.00  0.00     0.028 H 
ENDBRANCH  63  72
ENDBRANCH  60  63
ENDBRANCH  51  60
ENDBRANCH  45  51
ENDBRANCH  40  41
ENDBRANCH   1  40
TORSDOF 25
