REMARK  7 active torsions:
REMARK  status: ('A' for Active; 'I' for Inactive)
REMARK    1  A    between atoms: CAA_1  and  CAH_2 
REMARK    2  A    between atoms: CAH_2  and  CAI_3 
REMARK    3  A    between atoms: CAI_3  and  CAJ_4 
REMARK    4  A    between atoms: CAJ_4  and  OAK_5 
REMARK    5  A    between atoms: OAK_5  and  CAL_6 
REMARK    6  A    between atoms: CAL_6  and  CAN_8 
REMARK    7  A    between atoms: CAM_11  and  OAC_12 
ROOT
ATOM      1  OAK 27K d   1      21.649  23.144  19.543  0.00  0.00    -0.318 OA
ENDROOT
BRANCH   1   2
ATOM      2  CAJ 27K d   1      20.415  23.885  19.339  0.00  0.00     0.029 C 
ATOM      3  H8  27K d   1      20.291  24.117  18.271  0.00  0.00     0.075 H 
ATOM      4  H9  27K d   1      19.559  23.288  19.687  0.00  0.00     0.075 H 
BRANCH   2   5
ATOM      5  CAI 27K d   1      20.504  25.165  20.134  0.00  0.00    -0.045 C 
ATOM      6  H6  27K d   1      21.393  25.106  20.779  0.00  0.00     0.036 H 
ATOM      7  H7  27K d   1      20.619  26.000  19.427  0.00  0.00     0.036 H 
BRANCH   5   8
ATOM      8  CAH 27K d   1      19.299  25.454  21.015  0.00  0.00    -0.067 C 
ATOM      9  H4  27K d   1      18.405  25.515  20.377  0.00  0.00     0.032 H 
ATOM     10  H5  27K d   1      19.183  24.628  21.732  0.00  0.00     0.032 H 
BRANCH   8  11
ATOM     11  CAA 27K d   1      19.431  26.755  21.791  0.00  0.00    -0.076 C 
ATOM     12  H1  27K d   1      18.532  26.907  22.407  0.00  0.00     0.027 H 
ATOM     13  H2  27K d   1      19.539  27.593  21.087  0.00  0.00     0.027 H 
ATOM     14  H3  27K d   1      20.317  26.706  22.441  0.00  0.00     0.027 H 
ENDBRANCH   8  11
ENDBRANCH   5   8
ENDBRANCH   2   5
ENDBRANCH   1   2
BRANCH   1  15
ATOM     15  CAL 27K d   1      21.803  21.980  18.895  0.00  0.00     0.293 C 
ATOM     16  OAB 27K d   1      20.986  21.530  18.129  0.00  0.00    -0.259 OA
BRANCH  15  17
ATOM     17  CAN 27K d   1      23.120  21.340  19.182  0.00  0.00     0.039 A 
ATOM     18  CAF 27K d   1      24.106  21.991  19.924  0.00  0.00    -0.065 A 
ATOM     19  CAD 27K d   1      25.377  21.455  20.040  0.00  0.00    -0.050 A 
ATOM     20  H10 27K d   1      23.874  22.929  20.416  0.00  0.00     0.085 H 
ATOM     21  CAM 27K d   1      25.679  20.247  19.427  0.00  0.00     0.065 A 
ATOM     22  H11 27K d   1      26.136  21.979  20.610  0.00  0.00     0.087 H 
ATOM     23  CAE 27K d   1      24.699  19.574  18.710  0.00  0.00    -0.050 A 
ATOM     24  CAG 27K d   1      23.432  20.116  18.592  0.00  0.00    -0.065 A 
ATOM     25  H13 27K d   1      24.927  18.623  18.242  0.00  0.00     0.087 H 
ATOM     26  H14 27K d   1      22.672  19.582  18.034  0.00  0.00     0.085 H 
BRANCH  21  27
ATOM     27  OAC 27K d   1      26.936  19.723  19.516  0.00  0.00    -0.361 OA
ATOM     28  H12 27K d   1      27.152  19.574  20.429  0.00  0.00     0.217 HD
ENDBRANCH  21  27
ENDBRANCH  15  17
ENDBRANCH   1  15
TORSDOF 7
