REMARK  11 active torsions:
REMARK  status: ('A' for Active; 'I' for Inactive)
REMARK    1  A    between atoms: C11_2  and  C10_1 
REMARK    2  A    between atoms: C10_1  and  C09_23 
REMARK       I    between atoms: N13_21  and  C11_2 
REMARK    3  A    between atoms: C14_3  and  N13_21 
REMARK       I    between atoms: C23_6  and  N25_7 
REMARK    4  A    between atoms: C20_14  and  C23_6 
REMARK    5  A    between atoms: N25_7  and  C26_8 
REMARK    6  A    between atoms: C20_14  and  C21_15 
REMARK    7  A    between atoms: C20_14  and  C22_16 
REMARK    8  A    between atoms: C17_17  and  C20_14 
REMARK    9  A    between atoms: C06_28  and  S03_29 
REMARK   10  A    between atoms: S03_29  and  C02_32 
REMARK   11  A    between atoms: C02_32  and  C01_33 
ROOT
ATOM      1  C14 9A0 d   1     -17.806  24.103 -30.569  0.00  0.00     0.034 A 
ATOM      2  C15 9A0 d   1     -18.455  24.857 -29.650  0.00  0.00    -0.057 A 
ATOM      3  C17 9A0 d   1     -20.570  24.597 -30.888  0.00  0.00    -0.041 A 
ATOM      4  C16 9A0 d   1     -19.812  25.084 -29.830  0.00  0.00    -0.073 A 
ATOM      5  C18 9A0 d   1     -19.903  23.842 -31.821  0.00  0.00    -0.073 A 
ATOM      6  C19 9A0 d   1     -18.554  23.608 -31.651  0.00  0.00    -0.057 A 
ATOM      7  H3  9A0 d   1     -17.929  25.272 -28.798  0.00  0.00     0.086 H 
ATOM      8  H16 9A0 d   1     -20.320  25.688 -29.087  0.00  0.00     0.084 H 
ATOM      9  H17 9A0 d   1     -20.428  23.436 -32.678  0.00  0.00     0.084 H 
ATOM     10  H18 9A0 d   1     -18.042  23.008 -32.395  0.00  0.00     0.086 H 
ENDROOT
BRANCH   1  11
ATOM     11  N13 9A0 d   1     -16.412  23.746 -30.548  0.00  0.00    -0.327 N 
ATOM     12  C11 9A0 d   1     -15.430  24.249 -29.637  0.00  0.00     0.226 C 
ATOM     13  O12 9A0 d   1     -15.682  25.047 -28.747  0.00  0.00    -0.273 OA
ATOM     14  H19 9A0 d   1     -16.101  23.086 -31.232  0.00  0.00     0.169 HD
BRANCH  12  15
ATOM     15  C10 9A0 d   1     -14.026  23.743 -29.828  0.00  0.00     0.033 C 
ATOM     16  H1  9A0 d   1     -14.035  22.788 -30.374  0.00  0.00     0.054 H 
ATOM     17  H2  9A0 d   1     -13.534  23.604 -28.854  0.00  0.00     0.054 H 
BRANCH  15  18
ATOM     18  C09 9A0 d   1     -13.318  24.788 -30.622  0.00  0.00    -0.049 A 
ATOM     19  C08 9A0 d   1     -12.414  25.623 -29.924  0.00  0.00    -0.075 A 
ATOM     20  C07 9A0 d   1     -11.748  26.582 -30.623  0.00  0.00    -0.062 A 
ATOM     21  H20 9A0 d   1     -12.256  25.502 -28.858  0.00  0.00     0.084 H 
ATOM     22  C06 9A0 d   1     -11.932  26.750 -31.998  0.00  0.00     0.059 A 
ATOM     23  H21 9A0 d   1     -11.057  27.233 -30.099  0.00  0.00     0.085 H 
ATOM     24  C33 9A0 d   1     -12.846  25.922 -32.662  0.00  0.00    -0.062 A 
ATOM     25  C32 9A0 d   1     -13.556  24.935 -31.988  0.00  0.00    -0.075 A 
ATOM     26  H23 9A0 d   1     -13.003  26.054 -33.726  0.00  0.00     0.085 H 
ATOM     27  H22 9A0 d   1     -14.268  24.303 -32.505  0.00  0.00     0.084 H 
BRANCH  22  28
ATOM     28  S03 9A0 d   1     -11.071  28.112 -32.802  0.00  0.00     0.175 S 
ATOM     29  O04 9A0 d   1     -11.121  28.036 -34.223  0.00  0.00    -0.223 OA
ATOM     30  O05 9A0 d   1      -9.684  28.084 -32.456  0.00  0.00    -0.223 OA
BRANCH  28  31
ATOM     31  C02 9A0 d   1     -11.582  29.669 -32.167  0.00  0.00     0.030 C 
ATOM     32  H24 9A0 d   1     -11.136  30.470 -32.774  0.00  0.00     0.056 H 
ATOM     33  H25 9A0 d   1     -11.240  29.764 -31.126  0.00  0.00     0.056 H 
BRANCH  31  34
ATOM     34  C01 9A0 d   1     -13.076  29.796 -32.207  0.00  0.00    -0.064 C 
ATOM     35  H26 9A0 d   1     -13.371  30.776 -31.805  0.00  0.00     0.028 H 
ATOM     36  H27 9A0 d   1     -13.528  28.999 -31.598  0.00  0.00     0.028 H 
ATOM     37  H28 9A0 d   1     -13.424  29.706 -33.247  0.00  0.00     0.028 H 
ENDBRANCH  31  34
ENDBRANCH  28  31
ENDBRANCH  22  28
ENDBRANCH  15  18
ENDBRANCH  12  15
ENDBRANCH   1  11
BRANCH   3  38
ATOM     38  C20 9A0 d   1     -22.081  24.909 -30.950  0.00  0.00     0.061 C 
BRANCH  38  39
ATOM     39  C23 9A0 d   1     -22.302  26.421 -30.895  0.00  0.00     0.234 C 
ATOM     40  O24 9A0 d   1     -23.019  26.896 -30.039  0.00  0.00    -0.272 OA
ATOM     41  N25 9A0 d   1     -21.656  27.230 -31.895  0.00  0.00    -0.326 N 
ATOM     42  H4  9A0 d   1     -21.098  26.771 -32.586  0.00  0.00     0.169 HD
BRANCH  41  43
ATOM     43  C26 9A0 d   1     -21.769  28.644 -31.953  0.00  0.00     0.034 A 
ATOM     44  C31 9A0 d   1     -20.635  29.360 -32.286  0.00  0.00    -0.057 A 
ATOM     45  C30 9A0 d   1     -20.674  30.723 -32.366  0.00  0.00    -0.081 A 
ATOM     46  H5  9A0 d   1     -19.707  28.836 -32.485  0.00  0.00     0.086 H 
ATOM     47  C29 9A0 d   1     -21.839  31.406 -32.127  0.00  0.00    -0.083 A 
ATOM     48  H6  9A0 d   1     -19.774  31.271 -32.621  0.00  0.00     0.083 H 
ATOM     49  C28 9A0 d   1     -22.993  30.713 -31.792  0.00  0.00    -0.081 A 
ATOM     50  H7  9A0 d   1     -21.858  32.487 -32.200  0.00  0.00     0.083 H 
ATOM     51  C27 9A0 d   1     -22.952  29.326 -31.713  0.00  0.00    -0.057 A 
ATOM     52  H8  9A0 d   1     -23.916  31.247 -31.594  0.00  0.00     0.083 H 
ATOM     53  H9  9A0 d   1     -23.851  28.774 -31.462  0.00  0.00     0.086 H 
ENDBRANCH  41  43
ENDBRANCH  38  39
BRANCH  38  54
ATOM     54  C21 9A0 d   1     -22.706  24.235 -29.711  0.00  0.00    -0.057 C 
ATOM     55  H10 9A0 d   1     -23.790  24.423 -29.699  0.00  0.00     0.029 H 
ATOM     56  H11 9A0 d   1     -22.252  24.650 -28.799  0.00  0.00     0.029 H 
ATOM     57  H12 9A0 d   1     -22.522  23.151 -29.751  0.00  0.00     0.029 H 
ENDBRANCH  38  54
BRANCH  38  58
ATOM     58  C22 9A0 d   1     -22.759  24.444 -32.239  0.00  0.00    -0.057 C 
ATOM     59  H13 9A0 d   1     -22.290  24.943 -33.100  0.00  0.00     0.029 H 
ATOM     60  H14 9A0 d   1     -23.828  24.700 -32.204  0.00  0.00     0.029 H 
ATOM     61  H15 9A0 d   1     -22.646  23.355 -32.340  0.00  0.00     0.029 H 
ENDBRANCH  38  58
ENDBRANCH   3  38
TORSDOF 11
