REMARK  4 active torsions:
REMARK  status: ('A' for Active; 'I' for Inactive)
REMARK       I    between atoms: CAN_2  and  N_3 
REMARK    1  A    between atoms: CA_5  and  C_6 
REMARK       I    between atoms: C_6  and  NAA_8 
REMARK    2  A    between atoms: CAO_11  and  NAK_12 
REMARK    3  A    between atoms: NAK_12  and  OAL_13 
REMARK    4  A    between atoms: OAL_13  and  SAR_14 
ROOT
ATOM      1  OAC NXL d   1       9.911  -7.847 -30.593  0.00  0.00    -0.284 OA
ATOM      2  CAN NXL d   1      11.025  -7.420 -30.819  0.00  0.00     0.171 C 
ATOM      3  N   NXL d   1      11.387  -6.226 -30.316  0.00  0.00    -0.344 N 
ATOM      4  CAJ NXL d   1      12.741  -5.726 -30.493  0.00  0.00     0.027 C 
ATOM      5  CA  NXL d   1      10.445  -5.427 -29.550  0.00  0.00     0.091 C 
ATOM      6  CB  NXL d   1      11.088  -4.763 -28.296  0.00  0.00    -0.036 C 
ATOM      7  CAH NXL d   1      12.544  -4.340 -28.502  0.00  0.00    -0.032 C 
ATOM      8  CAO NXL d   1      13.326  -5.473 -29.089  0.00  0.00     0.147 C 
ATOM      9  H1  NXL d   1      11.724  -7.997 -31.422  0.00  0.00     0.180 H 
ATOM     10  H2  NXL d   1      12.723  -4.788 -31.068  0.00  0.00     0.067 H 
ATOM     11  H3  NXL d   1      13.350  -6.471 -31.026  0.00  0.00     0.067 H 
ATOM     12  H4  NXL d   1       9.627  -6.080 -29.212  0.00  0.00     0.087 H 
ATOM     13  H7  NXL d   1      11.050  -5.482 -27.464  0.00  0.00     0.036 H 
ATOM     14  H8  NXL d   1      10.501  -3.870 -28.036  0.00  0.00     0.036 H 
ATOM     15  H9  NXL d   1      12.982  -4.058 -27.533  0.00  0.00     0.036 H 
ATOM     16  H10 NXL d   1      12.580  -3.479 -29.186  0.00  0.00     0.036 H 
ATOM     17  H11 NXL d   1      14.397  -5.229 -29.141  0.00  0.00     0.091 H 
ENDROOT
BRANCH   8  18
ATOM     18  NAK NXL d   1      13.098  -6.722 -28.250  0.00  0.00     0.061 N 
ATOM     19  H12 NXL d   1      12.160  -7.066 -28.386  0.00  0.00     0.316 HD
ATOM     20  H13 NXL d   1      13.242  -6.516 -27.274  0.00  0.00     0.316 HD
BRANCH  18  21
ATOM     21  OAL NXL d   1      14.008  -7.653 -28.675  0.00  0.00    -0.054 OA
BRANCH  21  22
ATOM     22  SAR NXL d   1      13.412  -9.216 -28.353  0.00  0.00     0.279 S 
ATOM     23  OAD NXL d   1      13.305  -9.273 -26.931  0.00  0.00    -0.571 OA
ATOM     24  OAE NXL d   1      12.167  -9.191 -29.024  0.00  0.00    -0.571 OA
ATOM     25  OAG NXL d   1      14.483  -9.968 -28.940  0.00  0.00    -0.571 OA
ENDBRANCH  21  22
ENDBRANCH  18  21
ENDBRANCH   8  18
BRANCH   5  26
ATOM     26  C   NXL d   1       9.879  -4.348 -30.468  0.00  0.00     0.238 C 
ATOM     27  O   NXL d   1      10.554  -3.410 -30.894  0.00  0.00    -0.271 OA
ATOM     28  NAA NXL d   1       8.562  -4.448 -30.866  0.00  0.00    -0.368 N 
ATOM     29  H5  NXL d   1       8.167  -3.753 -31.468  0.00  0.00     0.159 HD
ATOM     30  H6  NXL d   1       8.002  -5.215 -30.553  0.00  0.00     0.159 HD
ENDBRANCH   5  26
TORSDOF 4
