REMARK  6 active torsions:
REMARK  status: ('A' for Active; 'I' for Inactive)
REMARK    1  A    between atoms: C15_16  and  O2_2 
REMARK    2  A    between atoms: O2_2  and  C17_18 
REMARK       I    between atoms: C2_4  and  N3_5 
REMARK    3  A    between atoms: C3_9  and  C2_4 
REMARK       I    between atoms: N3_5  and  C1_6 
REMARK       I    between atoms: C1_6  and  N2_7 
REMARK    4  A    between atoms: C12_11  and  C13_12 
REMARK    5  A    between atoms: N6_23  and  C5_19 
REMARK    6  A    between atoms: C4_21  and  N4_22 
ROOT
ATOM      1  C3  30I d   1      -0.737  33.699  -2.998  0.00  0.00     0.171 A 
ATOM      2  N7  30I d   1      -1.033  33.542  -1.688  0.00  0.00    -0.235 NA
ATOM      3  C12 30I d   1      -0.742  32.416  -0.997  0.00  0.00     0.116 A 
ATOM      4  C5  30I d   1      -0.138  31.364  -1.690  0.00  0.00     0.158 A 
ATOM      5  N5  30I d   1       0.171  31.522  -2.990  0.00  0.00    -0.209 NA
ATOM      6  C4  30I d   1      -0.112  32.656  -3.664  0.00  0.00     0.158 A 
ENDROOT
BRANCH   4   7
ATOM      7  N6  30I d   1       0.293  30.163  -1.122  0.00  0.00    -0.364 N 
ATOM      8  C11 30I d   1       0.140  28.912  -1.875  0.00  0.00    -0.004 C 
ATOM      9  C10 30I d   1       0.315  27.673  -0.979  0.00  0.00    -0.050 C 
ATOM     10  H15 30I d   1      -0.865  28.888  -2.322  0.00  0.00     0.064 H 
ATOM     11  H16 30I d   1       0.897  28.883  -2.672  0.00  0.00     0.064 H 
ATOM     12  C9  30I d   1       1.778  27.298  -0.734  0.00  0.00    -0.064 C 
ATOM     13  H1  30I d   1      -0.187  26.821  -1.461  0.00  0.00     0.035 H 
ATOM     14  H2  30I d   1      -0.160  27.876  -0.008  0.00  0.00     0.035 H 
ATOM     15  C8  30I d   1       2.408  28.130   0.378  0.00  0.00    -0.064 C 
ATOM     16  H17 30I d   1       2.345  27.460  -1.662  0.00  0.00     0.033 H 
ATOM     17  H18 30I d   1       1.829  26.236  -0.454  0.00  0.00     0.033 H 
ATOM     18  C7  30I d   1       2.423  29.605  -0.007  0.00  0.00    -0.050 C 
ATOM     19  H19 30I d   1       3.440  27.789   0.546  0.00  0.00     0.033 H 
ATOM     20  H20 30I d   1       1.824  28.002   1.302  0.00  0.00     0.033 H 
ATOM     21  C6  30I d   1       1.044  30.251   0.154  0.00  0.00    -0.004 C 
ATOM     22  H21 30I d   1       2.738  29.695  -1.057  0.00  0.00     0.035 H 
ATOM     23  H22 30I d   1       3.141  30.134   0.638  0.00  0.00     0.035 H 
ATOM     24  H23 30I d   1       0.485  29.726   0.943  0.00  0.00     0.064 H 
ATOM     25  H24 30I d   1       1.167  31.308   0.433  0.00  0.00     0.064 H 
ENDBRANCH   4   7
BRANCH   3  26
ATOM     26  C13 30I d   1      -1.207  32.419   0.430  0.00  0.00     0.032 A 
ATOM     27  C14 30I d   1      -0.683  33.265   1.392  0.00  0.00     0.020 A 
ATOM     28  N8  30I d   1      -1.188  33.247   2.648  0.00  0.00    -0.218 NA
ATOM     29  H8  30I d   1       0.128  33.939   1.141  0.00  0.00     0.116 H 
ATOM     30  C15 30I d   1      -2.215  32.429   3.004  0.00  0.00     0.267 A 
ATOM     31  N9  30I d   1      -2.756  31.607   2.077  0.00  0.00    -0.218 NA
ATOM     32  C16 30I d   1      -2.282  31.602   0.821  0.00  0.00     0.020 A 
ATOM     33  H9  30I d   1      -2.741  30.949   0.087  0.00  0.00     0.116 H 
BRANCH  30  34
ATOM     34  O2  30I d   1      -2.708  32.429   4.290  0.00  0.00    -0.324 OA
BRANCH  34  35
ATOM     35  C17 30I d   1      -1.909  32.074   5.424  0.00  0.00     0.013 C 
ATOM     36  H10 30I d   1      -2.516  32.148   6.338  0.00  0.00     0.067 H 
ATOM     37  H11 30I d   1      -1.051  32.759   5.497  0.00  0.00     0.067 H 
ATOM     38  H12 30I d   1      -1.545  31.042   5.308  0.00  0.00     0.067 H 
ENDBRANCH  34  35
ENDBRANCH  30  34
ENDBRANCH   3  26
BRANCH   6  39
ATOM     39  N4  30I d   1       0.230  32.730  -4.975  0.00  0.00    -0.382 N 
ATOM     40  H13 30I d   1       0.693  31.932  -5.432  0.00  0.00     0.157 HD
ATOM     41  H14 30I d   1       0.026  33.584  -5.513  0.00  0.00     0.157 HD
ENDBRANCH   6  39
BRANCH   1  42
ATOM     42  C2  30I d   1      -1.070  35.004  -3.660  0.00  0.00     0.292 C 
ATOM     43  O1  30I d   1      -1.121  35.065  -4.881  0.00  0.00    -0.265 OA
ATOM     44  N3  30I d   1      -1.222  36.046  -2.825  0.00  0.00    -0.155 N 
ATOM     45  C1  30I d   1      -1.459  37.334  -3.112  0.00  0.00     0.672 C 
ATOM     46  H3  30I d   1      -1.148  35.830  -1.851  0.00  0.00     0.187 HD
ATOM     47  N2  30I d   1      -1.573  37.788  -4.358  0.00  0.00    -0.235 N 
ATOM     48  N1  30I d   1      -1.566  38.133  -2.145  0.00  0.00    -0.235 N 
ATOM     49  H4  30I d   1      -1.756  38.788  -4.527  0.00  0.00     0.174 HD
ATOM     50  H5  30I d   1      -1.479  37.140  -5.153  0.00  0.00     0.174 HD
ATOM     51  H6  30I d   1      -1.479  37.787  -1.179  0.00  0.00     0.174 HD
ATOM     52  H7  30I d   1      -1.741  39.133  -2.320  0.00  0.00     0.174 HD
ENDBRANCH   1  42
TORSDOF 6
