REMARK  1 active torsions:
REMARK  status: ('A' for Active; 'I' for Inactive)
REMARK    1  A    between atoms: N_1  and  C25_25 
ROOT
ATOM      1  N   SAU d   1     -15.517  -5.618  27.008  0.00  0.00    -0.379 N 
ATOM      2  C1  SAU d   1     -21.524  -3.753  25.589  0.00  0.00     0.115 C 
ATOM      3  O1  SAU d   1     -20.468  -4.689  25.505  0.00  0.00    -0.323 OA
ATOM      4  C2  SAU d   1     -19.582  -2.726  26.134  0.00  0.00     0.105 A 
ATOM      5  O2  SAU d   1     -20.886  -2.512  25.757  0.00  0.00    -0.323 OA
ATOM      6  C3  SAU d   1     -19.332  -4.065  26.009  0.00  0.00     0.105 A 
ATOM      7  O3  SAU d   1     -10.050  -5.789  29.112  0.00  0.00    -0.323 OA
ATOM      8  C4  SAU d   1     -18.595  -1.806  26.564  0.00  0.00    -0.037 A 
ATOM      9  O4  SAU d   1     -11.588  -7.074  28.104  0.00  0.00    -0.322 OA
ATOM     10  C5  SAU d   1     -17.344  -2.351  26.876  0.00  0.00    -0.021 A 
ATOM     11  C6  SAU d   1     -17.102  -3.728  26.775  0.00  0.00     0.004 A 
ATOM     12  C7  SAU d   1     -18.097  -4.603  26.323  0.00  0.00    -0.035 A 
ATOM     13  C8  SAU d   1     -16.349  -1.469  27.328  0.00  0.00    -0.071 A 
ATOM     14  C9  SAU d   1     -15.098  -1.954  27.685  0.00  0.00    -0.069 A 
ATOM     15  C10 SAU d   1     -15.815  -4.252  27.135  0.00  0.00     0.052 A 
ATOM     16  C12 SAU d   1     -14.296  -6.123  27.430  0.00  0.00     0.022 C 
ATOM     17  C13 SAU d   1     -13.271  -5.209  27.804  0.00  0.00     0.007 A 
ATOM     18  C14 SAU d   1     -13.541  -3.882  27.940  0.00  0.00    -0.013 A 
ATOM     19  C15 SAU d   1     -14.824  -3.361  27.570  0.00  0.00     0.002 A 
ATOM     20  C18 SAU d   1     -12.585  -3.077  28.556  0.00  0.00    -0.069 A 
ATOM     21  C19 SAU d   1     -11.346  -3.586  28.925  0.00  0.00    -0.047 A 
ATOM     22  C20 SAU d   1     -11.115  -4.946  28.762  0.00  0.00     0.105 A 
ATOM     23  C21 SAU d   1     -12.047  -5.759  28.198  0.00  0.00     0.113 A 
ATOM     24  C23 SAU d   1     -10.491  -7.113  29.031  0.00  0.00     0.115 C 
ATOM     25  H1  SAU d   1     -22.173  -3.976  26.449  0.00  0.00     0.118 H 
ATOM     26  H2  SAU d   1     -22.123  -3.760  24.666  0.00  0.00     0.118 H 
ATOM     27  H3  SAU d   1     -18.796  -0.744  26.646  0.00  0.00     0.089 H 
ATOM     28  H4  SAU d   1     -17.906  -5.665  26.223  0.00  0.00     0.089 H 
ATOM     29  H5  SAU d   1     -16.558  -0.408  27.398  0.00  0.00     0.084 H 
ATOM     30  H6  SAU d   1     -14.333  -1.277  28.048  0.00  0.00     0.085 H 
ATOM     31  H7  SAU d   1     -13.898  -6.737  26.609  0.00  0.00     0.071 H 
ATOM     32  H8  SAU d   1     -14.494  -6.762  28.303  0.00  0.00     0.071 H 
ATOM     33  H9  SAU d   1     -12.812  -2.035  28.751  0.00  0.00     0.085 H 
ATOM     34  H10 SAU d   1     -10.578  -2.937  29.330  0.00  0.00     0.087 H 
ATOM     35  H11 SAU d   1     -10.827  -7.471  30.015  0.00  0.00     0.118 H 
ATOM     36  H12 SAU d   1      -9.690  -7.767  28.657  0.00  0.00     0.118 H 
ENDROOT
BRANCH   1  37
ATOM     37  C25 SAU d   1     -16.209  -6.882  26.726  0.00  0.00    -0.018 C 
ATOM     38  H13 SAU d   1     -17.227  -6.670  26.368  0.00  0.00     0.056 H 
ATOM     39  H14 SAU d   1     -16.261  -7.484  27.645  0.00  0.00     0.056 H 
ATOM     40  H15 SAU d   1     -15.657  -7.438  25.954  0.00  0.00     0.056 H 
ENDBRANCH   1  37
TORSDOF 1
