REMARK  4 active torsions:
REMARK  status: ('A' for Active; 'I' for Inactive)
REMARK    1  A    between atoms: N1_4  and  S_1 
REMARK    2  A    between atoms: S_1  and  C4_10 
REMARK    3  A    between atoms: C11_17  and  N1_4 
REMARK    4  A    between atoms: C11_17  and  C12_18 
ROOT
ATOM      1  S   PYV d   1     -21.984  -3.493  30.267  0.00  0.00     0.260 S 
ATOM      2  O1  PYV d   1     -20.587  -3.929  30.288  0.00  0.00    -0.201 OA
ATOM      3  O2  PYV d   1     -21.945  -2.404  29.288  0.00  0.00    -0.201 OA
ENDROOT
BRANCH   1   4
ATOM      4  N1  PYV d   1     -23.033  -4.756  29.787  0.00  0.00    -0.310 N 
ATOM      5  H1  PYV d   1     -22.666  -5.667  29.597  0.00  0.00     0.172 HD
BRANCH   4   6
ATOM      6  C11 PYV d   1     -24.458  -4.504  29.655  0.00  0.00     0.043 C 
ATOM      7  H8  PYV d   1     -24.812  -4.953  28.715  0.00  0.00     0.074 H 
ATOM      8  H9  PYV d   1     -24.625  -3.417  29.628  0.00  0.00     0.074 H 
BRANCH   6   9
ATOM      9  C12 PYV d   1     -25.258  -5.096  30.815  0.00  0.00     0.052 A 
ATOM     10  N2  PYV d   1     -25.672  -6.380  30.757  0.00  0.00    -0.264 NA
ATOM     11  C13 PYV d   1     -26.385  -6.908  31.777  0.00  0.00     0.003 A 
ATOM     12  C14 PYV d   1     -26.701  -6.134  32.880  0.00  0.00    -0.066 A 
ATOM     13  H10 PYV d   1     -26.710  -7.941  31.731  0.00  0.00     0.114 H 
ATOM     14  C15 PYV d   1     -26.293  -4.843  32.939  0.00  0.00    -0.080 A 
ATOM     15  H11 PYV d   1     -27.274  -6.560  33.696  0.00  0.00     0.085 H 
ATOM     16  C16 PYV d   1     -25.580  -4.315  31.915  0.00  0.00    -0.058 A 
ATOM     17  H12 PYV d   1     -26.536  -4.235  33.803  0.00  0.00     0.083 H 
ATOM     18  H13 PYV d   1     -25.261  -3.280  31.956  0.00  0.00     0.086 H 
ENDBRANCH   6   9
ENDBRANCH   4   6
ENDBRANCH   1   4
BRANCH   1  19
ATOM     19  C4  PYV d   1     -22.527  -2.945  31.906  0.00  0.00     0.090 A 
ATOM     20  C3  PYV d   1     -22.584  -3.660  33.110  0.00  0.00    -0.001 A 
ATOM     21  C2  PYV d   1     -23.040  -3.049  34.250  0.00  0.00    -0.007 A 
ATOM     22  C7  PYV d   1     -22.177  -5.006  33.132  0.00  0.00    -0.071 A 
ATOM     23  C1  PYV d   1     -23.447  -1.703  34.203  0.00  0.00     0.022 A 
ATOM     24  C10 PYV d   1     -23.094  -3.779  35.451  0.00  0.00    -0.071 A 
ATOM     25 BR   PYV d   1     -24.121  -0.640  35.679  0.00  0.00    -0.050 Br
ATOM     26  C6  PYV d   1     -23.390  -0.995  33.007  0.00  0.00    -0.064 A 
ATOM     27  C5  PYV d   1     -22.929  -1.618  31.851  0.00  0.00    -0.058 A 
ATOM     28  H3  PYV d   1     -23.705   0.042  32.975  0.00  0.00     0.085 H 
ATOM     29  H2  PYV d   1     -22.884  -1.071  30.916  0.00  0.00     0.086 H 
ATOM     30  C9  PYV d   1     -22.688  -5.108  35.472  0.00  0.00    -0.082 A 
ATOM     31  H7  PYV d   1     -23.452  -3.306  36.358  0.00  0.00     0.084 H 
ATOM     32  C8  PYV d   1     -22.231  -5.725  34.315  0.00  0.00    -0.082 A 
ATOM     33  H6  PYV d   1     -22.728  -5.668  36.400  0.00  0.00     0.083 H 
ATOM     34  H5  PYV d   1     -21.919  -6.763  34.337  0.00  0.00     0.083 H 
ATOM     35  H4  PYV d   1     -21.822  -5.480  32.224  0.00  0.00     0.084 H 
ENDBRANCH   1  19
TORSDOF 4
