REMARK  15 active torsions:
REMARK  status: ('A' for Active; 'I' for Inactive)
REMARK    1  A    between atoms: C6_6  and  N6_7 
REMARK    2  A    between atoms: C1'_13  and  N9_10 
REMARK    3  A    between atoms: O3A_26  and  PA_11 
REMARK    4  A    between atoms: PA_11  and  O5'_34 
REMARK    5  A    between atoms: PB_12  and  O3A_26 
REMARK    6  A    between atoms: O5D_36  and  PB_12 
REMARK    7  A    between atoms: C1D_16  and  O1D_17 
REMARK    8  A    between atoms: C2'_18  and  O2'_19 
REMARK    9  A    between atoms: C2D_22  and  O2D_23 
REMARK   10  A    between atoms: C3'_24  and  O3'_25 
REMARK   11  A    between atoms: C3D_27  and  O3D_28 
REMARK   12  A    between atoms: C5'_33  and  C4'_29 
REMARK   13  A    between atoms: C5D_35  and  C4D_31 
REMARK   14  A    between atoms: O5'_34  and  C5'_33 
REMARK   15  A    between atoms: C5D_35  and  O5D_36 
ROOT
ATOM      1  C5' AR6 d   1      21.573   0.649 -16.368  0.00  0.00     0.058 C 
ATOM      2  H18 AR6 d   1      22.389   0.941 -17.046  0.00  0.00     0.079 H 
ATOM      3  H19 AR6 d   1      20.608   0.946 -16.805  0.00  0.00     0.079 H 
ENDROOT
BRANCH   1   4
ATOM      4  C4' AR6 d   1      21.758   1.332 -15.014  0.00  0.00     0.089 C 
ATOM      5  C3' AR6 d   1      23.260   1.176 -14.534  0.00  0.00     0.091 C 
ATOM      6  C2' AR6 d   1      23.133   1.067 -13.004  0.00  0.00     0.105 C 
ATOM      7  H12 AR6 d   1      23.728   0.281 -14.970  0.00  0.00     0.091 H 
ATOM      8  C1' AR6 d   1      21.912   0.581 -12.741  0.00  0.00     0.139 C 
ATOM      9  H8  AR6 d   1      23.905   0.400 -12.592  0.00  0.00     0.093 H 
ATOM     10  O4' AR6 d   1      21.024   0.714 -14.124  0.00  0.00    -0.353 OA
ATOM     11  H5  AR6 d   1      21.449   1.184 -11.946  0.00  0.00     0.122 H 
ATOM     12  H16 AR6 d   1      21.480   2.394 -15.083  0.00  0.00     0.090 H 
BRANCH   5  13
ATOM     13  O3' AR6 d   1      23.973   2.258 -14.829  0.00  0.00    -0.390 OA
ATOM     14  H13 AR6 d   1      23.535   3.028 -14.486  0.00  0.00     0.210 HD
ENDBRANCH   5  13
BRANCH   6  15
ATOM     15  O2' AR6 d   1      23.287   2.429 -12.450  0.00  0.00    -0.388 OA
ATOM     16  H9  AR6 d   1      23.164   2.402 -11.508  0.00  0.00     0.210 HD
ENDBRANCH   6  15
BRANCH   8  17
ATOM     17  N9  AR6 d   1      21.949  -0.770 -12.319  0.00  0.00    -0.294 N 
ATOM     18  C4  AR6 d   1      21.116  -1.389 -11.471  0.00  0.00     0.167 A 
ATOM     19  N3  AR6 d   1      20.041  -0.969 -10.784  0.00  0.00    -0.222 NA
ATOM     20  C5  AR6 d   1      21.516  -2.656 -11.351  0.00  0.00     0.149 A 
ATOM     21  C2  AR6 d   1      19.372  -1.833  -9.976  0.00  0.00     0.091 A 
ATOM     22  N1  AR6 d   1      19.782  -3.119  -9.863  0.00  0.00    -0.222 NA
ATOM     23  H1  AR6 d   1      18.507  -1.492  -9.420  0.00  0.00     0.146 H 
ATOM     24  C6  AR6 d   1      20.838  -3.528 -10.536  0.00  0.00     0.155 A 
ATOM     25  N7  AR6 d   1      22.589  -2.824 -12.119  0.00  0.00    -0.236 NA
ATOM     26  C8  AR6 d   1      22.857  -1.661 -12.715  0.00  0.00     0.071 A 
ATOM     27  H4  AR6 d   1      23.677  -1.472 -13.406  0.00  0.00     0.144 H 
BRANCH  24  28
ATOM     28  N6  AR6 d   1      21.002  -4.927 -10.190  0.00  0.00    -0.382 N 
ATOM     29  H2  AR6 d   1      21.774  -5.472 -10.599  0.00  0.00     0.157 HD
ATOM     30  H3  AR6 d   1      20.346  -5.376  -9.535  0.00  0.00     0.157 HD
ENDBRANCH  24  28
ENDBRANCH   8  17
ENDBRANCH   1   4
BRANCH   1  31
ATOM     31  O5' AR6 d   1      21.596  -0.736 -16.169  0.00  0.00    -0.287 OA
BRANCH  31  32
ATOM     32  PA  AR6 d   1      21.956  -1.644 -17.475  0.00  0.00     0.417 P 
ATOM     33  O1A AR6 d   1      23.118  -1.040 -18.203  0.00  0.00    -0.624 OA
ATOM     34  O2A AR6 d   1      22.216  -3.053 -17.049  0.00  0.00    -0.624 OA
BRANCH  32  35
ATOM     35  O3A AR6 d   1      20.631  -1.661 -18.442  0.00  0.00    -0.180 OA
BRANCH  35  36
ATOM     36  PB  AR6 d   1      20.510  -0.927 -19.909  0.00  0.00     0.417 P 
ATOM     37  O1B AR6 d   1      21.325   0.332 -19.991  0.00  0.00    -0.624 OA
ATOM     38  O2B AR6 d   1      19.039  -0.748 -20.126  0.00  0.00    -0.624 OA
BRANCH  36  39
ATOM     39  O5D AR6 d   1      21.015  -1.942 -21.092  0.00  0.00    -0.287 OA
BRANCH  39  40
ATOM     40  C5D AR6 d   1      20.261  -3.116 -21.313  0.00  0.00     0.058 C 
ATOM     41  H20 AR6 d   1      19.894  -3.539 -20.366  0.00  0.00     0.079 H 
ATOM     42  H21 AR6 d   1      19.410  -2.924 -21.983  0.00  0.00     0.079 H 
BRANCH  40  43
ATOM     43  C4D AR6 d   1      21.274  -4.023 -21.962  0.00  0.00     0.090 C 
ATOM     44  C3D AR6 d   1      20.744  -5.549 -22.115  0.00  0.00     0.092 C 
ATOM     45  C2D AR6 d   1      20.915  -6.083 -20.914  0.00  0.00     0.110 C 
ATOM     46  H14 AR6 d   1      19.691  -5.591 -22.429  0.00  0.00     0.091 H 
ATOM     47  C1D AR6 d   1      22.217  -5.456 -20.425  0.00  0.00     0.156 C 
ATOM     48  H10 AR6 d   1      20.072  -5.867 -20.241  0.00  0.00     0.094 H 
ATOM     49  O4D AR6 d   1      22.310  -4.078 -21.184  0.00  0.00    -0.349 OA
ATOM     50  H6  AR6 d   1      22.224  -5.329 -19.332  0.00  0.00     0.133 H 
ATOM     51  H17 AR6 d   1      21.547  -3.622 -22.949  0.00  0.00     0.090 H 
BRANCH  44  52
ATOM     52  O3D AR6 d   1      21.586  -6.198 -23.066  0.00  0.00    -0.390 OA
ATOM     53  H15 AR6 d   1      21.368  -7.122 -23.102  0.00  0.00     0.210 HD
ENDBRANCH  44  52
BRANCH  45  54
ATOM     54  O2D AR6 d   1      21.116  -7.534 -21.063  0.00  0.00    -0.388 OA
ATOM     55  H11 AR6 d   1      21.808  -7.694 -21.694  0.00  0.00     0.210 HD
ENDBRANCH  45  54
BRANCH  47  56
ATOM     56  O1D AR6 d   1      23.187  -6.167 -20.809  0.00  0.00    -0.369 OA
ATOM     57  H7  AR6 d   1      23.129  -6.300 -21.748  0.00  0.00     0.212 HD
ENDBRANCH  47  56
ENDBRANCH  40  43
ENDBRANCH  39  40
ENDBRANCH  36  39
ENDBRANCH  35  36
ENDBRANCH  32  35
ENDBRANCH  31  32
ENDBRANCH   1  31
TORSDOF 15
