REMARK  15 active torsions:
REMARK  status: ('A' for Active; 'I' for Inactive)
REMARK    1  A    between atoms: C6_6  and  N6_7 
REMARK    2  A    between atoms: C1'_13  and  N9_10 
REMARK    3  A    between atoms: O3A_26  and  PA_11 
REMARK    4  A    between atoms: PA_11  and  O5'_34 
REMARK    5  A    between atoms: PB_12  and  O3A_26 
REMARK    6  A    between atoms: O5D_36  and  PB_12 
REMARK    7  A    between atoms: C1D_16  and  O1D_17 
REMARK    8  A    between atoms: C2'_18  and  O2'_19 
REMARK    9  A    between atoms: C2D_22  and  O2D_23 
REMARK   10  A    between atoms: C3'_24  and  O3'_25 
REMARK   11  A    between atoms: C3D_27  and  O3D_28 
REMARK   12  A    between atoms: C5'_33  and  C4'_29 
REMARK   13  A    between atoms: C5D_35  and  C4D_31 
REMARK   14  A    between atoms: O5'_34  and  C5'_33 
REMARK   15  A    between atoms: C5D_35  and  O5D_36 
ROOT
ATOM      1  C5' AR6 d   1      14.639 -12.139  -1.488  0.00  0.00     0.058 C 
ATOM      2  H18 AR6 d   1      15.040 -13.030  -1.993  0.00  0.00     0.079 H 
ATOM      3  H19 AR6 d   1      14.633 -12.305  -0.401  0.00  0.00     0.079 H 
ENDROOT
BRANCH   1   4
ATOM      4  C4' AR6 d   1      13.226 -11.837  -1.987  0.00  0.00     0.089 C 
ATOM      5  C3' AR6 d   1      13.309 -11.511  -3.534  0.00  0.00     0.091 C 
ATOM      6  C2' AR6 d   1      12.115 -10.541  -3.743  0.00  0.00     0.105 C 
ATOM      7  H12 AR6 d   1      14.253 -10.999  -3.771  0.00  0.00     0.091 H 
ATOM      8  C1' AR6 d   1      11.997  -9.852  -2.592  0.00  0.00     0.139 C 
ATOM      9  H8  AR6 d   1      12.324  -9.856  -4.578  0.00  0.00     0.093 H 
ATOM     10  O4' AR6 d   1      12.793 -10.728  -1.442  0.00  0.00    -0.353 OA
ATOM     11  H5  AR6 d   1      10.934  -9.777  -2.320  0.00  0.00     0.122 H 
ATOM     12  H16 AR6 d   1      12.550 -12.680  -1.781  0.00  0.00     0.090 H 
BRANCH   5  13
ATOM     13  O3' AR6 d   1      13.245 -12.628  -4.260  0.00  0.00    -0.390 OA
ATOM     14  H13 AR6 d   1      12.456 -13.106  -4.034  0.00  0.00     0.210 HD
ENDBRANCH   5  13
BRANCH   6  15
ATOM     15  O2' AR6 d   1      10.869 -11.290  -4.026  0.00  0.00    -0.388 OA
ATOM     16  H9  AR6 d   1      10.145 -10.680  -4.103  0.00  0.00     0.210 HD
ENDBRANCH   6  15
BRANCH   8  17
ATOM     17  N9  AR6 d   1      12.519  -8.533  -2.714  0.00  0.00    -0.294 N 
ATOM     18  C4  AR6 d   1      12.165  -7.385  -2.087  0.00  0.00     0.167 A 
ATOM     19  N3  AR6 d   1      11.250  -7.079  -1.131  0.00  0.00    -0.222 NA
ATOM     20  C5  AR6 d   1      12.961  -6.413  -2.570  0.00  0.00     0.149 A 
ATOM     21  C2  AR6 d   1      11.154  -5.793  -0.697  0.00  0.00     0.091 A 
ATOM     22  N1  AR6 d   1      11.967  -4.808  -1.206  0.00  0.00    -0.222 NA
ATOM     23  H1  AR6 d   1      10.424  -5.541   0.063  0.00  0.00     0.146 H 
ATOM     24  C6  AR6 d   1      12.868  -5.109  -2.130  0.00  0.00     0.155 A 
ATOM     25  N7  AR6 d   1      13.789  -6.929  -3.476  0.00  0.00    -0.236 NA
ATOM     26  C8  AR6 d   1      13.507  -8.227  -3.557  0.00  0.00     0.071 A 
ATOM     27  H4  AR6 d   1      14.009  -8.935  -4.215  0.00  0.00     0.144 H 
BRANCH  24  28
ATOM     28  N6  AR6 d   1      13.610  -3.886  -2.497  0.00  0.00    -0.382 N 
ATOM     29  H2  AR6 d   1      14.355  -3.929  -3.206  0.00  0.00     0.157 HD
ATOM     30  H3  AR6 d   1      13.382  -2.990  -2.043  0.00  0.00     0.157 HD
ENDBRANCH  24  28
ENDBRANCH   8  17
ENDBRANCH   1   4
BRANCH   1  31
ATOM     31  O5' AR6 d   1      15.411 -11.013  -1.803  0.00  0.00    -0.287 OA
BRANCH  31  32
ATOM     32  PA  AR6 d   1      17.019 -11.156  -1.685  0.00  0.00     0.417 P 
ATOM     33  O1A AR6 d   1      17.522 -11.903  -2.866  0.00  0.00    -0.624 OA
ATOM     34  O2A AR6 d   1      17.581  -9.780  -1.634  0.00  0.00    -0.624 OA
BRANCH  32  35
ATOM     35  O3A AR6 d   1      17.351 -11.927  -0.266  0.00  0.00    -0.180 OA
BRANCH  35  36
ATOM     36  PB  AR6 d   1      18.046 -13.404  -0.112  0.00  0.00     0.417 P 
ATOM     37  O1B AR6 d   1      17.817 -14.133  -1.410  0.00  0.00    -0.624 OA
ATOM     38  O2B AR6 d   1      17.426 -14.256   0.989  0.00  0.00    -0.624 OA
BRANCH  36  39
ATOM     39  O5D AR6 d   1      19.656 -13.132   0.072  0.00  0.00    -0.287 OA
BRANCH  39  40
ATOM     40  C5D AR6 d   1      20.111 -11.800  -0.055  0.00  0.00     0.058 C 
ATOM     41  H20 AR6 d   1      19.425 -11.229  -0.697  0.00  0.00     0.079 H 
ATOM     42  H21 AR6 d   1      20.166 -11.326   0.936  0.00  0.00     0.079 H 
BRANCH  40  43
ATOM     43  C4D AR6 d   1      21.480 -11.846  -0.679  0.00  0.00     0.090 C 
ATOM     44  C3D AR6 d   1      22.511 -10.939   0.206  0.00  0.00     0.092 C 
ATOM     45  C2D AR6 d   1      22.227  -9.693  -0.182  0.00  0.00     0.110 C 
ATOM     46  H14 AR6 d   1      22.323 -11.064   1.282  0.00  0.00     0.091 H 
ATOM     47  C1D AR6 d   1      21.988  -9.845  -1.682  0.00  0.00     0.156 C 
ATOM     48  H10 AR6 d   1      21.330  -9.313   0.329  0.00  0.00     0.094 H 
ATOM     49  O4D AR6 d   1      21.389 -11.294  -1.848  0.00  0.00    -0.349 OA
ATOM     50  H6  AR6 d   1      21.284  -9.080  -2.041  0.00  0.00     0.133 H 
ATOM     51  H17 AR6 d   1      21.839 -12.883  -0.755  0.00  0.00     0.090 H 
BRANCH  44  52
ATOM     52  O3D AR6 d   1      23.869 -11.298  -0.081  0.00  0.00    -0.390 OA
ATOM     53  H15 AR6 d   1      24.020 -11.238  -1.017  0.00  0.00     0.210 HD
ENDBRANCH  44  52
BRANCH  45  54
ATOM     54  O2D AR6 d   1      23.364  -8.786   0.071  0.00  0.00    -0.388 OA
ATOM     55  H11 AR6 d   1      24.147  -9.142  -0.332  0.00  0.00     0.210 HD
ENDBRANCH  45  54
BRANCH  47  56
ATOM     56  O1D AR6 d   1      23.072  -9.775  -2.338  0.00  0.00    -0.369 OA
ATOM     57  H7  AR6 d   1      23.686 -10.419  -2.003  0.00  0.00     0.212 HD
ENDBRANCH  47  56
ENDBRANCH  40  43
ENDBRANCH  39  40
ENDBRANCH  36  39
ENDBRANCH  35  36
ENDBRANCH  32  35
ENDBRANCH  31  32
ENDBRANCH   1  31
TORSDOF 15
