REMARK  15 active torsions:
REMARK  status: ('A' for Active; 'I' for Inactive)
REMARK    1  A    between atoms: C6_6  and  N6_7 
REMARK    2  A    between atoms: C1'_13  and  N9_10 
REMARK    3  A    between atoms: O3A_26  and  PA_11 
REMARK    4  A    between atoms: PA_11  and  O5'_34 
REMARK    5  A    between atoms: PB_12  and  O3A_26 
REMARK    6  A    between atoms: O5D_36  and  PB_12 
REMARK    7  A    between atoms: C1D_16  and  O1D_17 
REMARK    8  A    between atoms: C2'_18  and  O2'_19 
REMARK    9  A    between atoms: C2D_22  and  O2D_23 
REMARK   10  A    between atoms: C3'_24  and  O3'_25 
REMARK   11  A    between atoms: C3D_27  and  O3D_28 
REMARK   12  A    between atoms: C5'_33  and  C4'_29 
REMARK   13  A    between atoms: C5D_35  and  C4D_31 
REMARK   14  A    between atoms: O5'_34  and  C5'_33 
REMARK   15  A    between atoms: C5D_35  and  O5D_36 
ROOT
ATOM      1  C5' AR6 d   1      17.940  -6.614   1.678  0.00  0.00     0.058 C 
ATOM      2  H18 AR6 d   1      18.907  -6.598   2.203  0.00  0.00     0.079 H 
ATOM      3  H19 AR6 d   1      18.098  -6.396   0.612  0.00  0.00     0.079 H 
ENDROOT
BRANCH   1   4
ATOM      4  C4' AR6 d   1      16.967  -5.607   2.301  0.00  0.00     0.089 C 
ATOM      5  C3' AR6 d   1      16.646  -5.992   3.813  0.00  0.00     0.091 C 
ATOM      6  C2' AR6 d   1      15.201  -5.458   4.005  0.00  0.00     0.105 C 
ATOM      7  H12 AR6 d   1      16.673  -7.084   3.942  0.00  0.00     0.091 H 
ATOM      8  C1' AR6 d   1      14.622  -5.536   2.794  0.00  0.00     0.139 C 
ATOM      9  H8  AR6 d   1      14.658  -6.088   4.725  0.00  0.00     0.093 H 
ATOM     10  O4' AR6 d   1      15.816  -5.718   1.679  0.00  0.00    -0.353 OA
ATOM     11  H5  AR6 d   1      14.065  -4.611   2.585  0.00  0.00     0.122 H 
ATOM     12  H16 AR6 d   1      17.372  -4.587   2.229  0.00  0.00     0.090 H 
BRANCH   5  13
ATOM     13  O3' AR6 d   1      17.496  -5.443   4.681  0.00  0.00    -0.390 OA
ATOM     14  H13 AR6 d   1      17.507  -4.501   4.559  0.00  0.00     0.210 HD
ENDBRANCH   5  13
BRANCH   6  15
ATOM     15  O2' AR6 d   1      15.214  -4.065   4.497  0.00  0.00    -0.388 OA
ATOM     16  H9  AR6 d   1      14.322  -3.746   4.564  0.00  0.00     0.210 HD
ENDBRANCH   6  15
BRANCH   8  17
ATOM     17  N9  AR6 d   1      13.727  -6.628   2.780  0.00  0.00    -0.294 N 
ATOM     18  C4  AR6 d   1      12.614  -6.733   2.053  0.00  0.00     0.167 A 
ATOM     19  N3  AR6 d   1      12.076  -5.902   1.147  0.00  0.00    -0.222 NA
ATOM     20  C5  AR6 d   1      12.031  -7.904   2.357  0.00  0.00     0.149 A 
ATOM     21  C2  AR6 d   1      10.929  -6.258   0.545  0.00  0.00     0.091 A 
ATOM     22  N1  AR6 d   1      10.332  -7.435   0.847  0.00  0.00    -0.222 NA
ATOM     23  H1  AR6 d   1      10.478  -5.598  -0.188  0.00  0.00     0.146 H 
ATOM     24  C6  AR6 d   1      10.864  -8.257   1.734  0.00  0.00     0.155 A 
ATOM     25  N7  AR6 d   1      12.776  -8.525   3.277  0.00  0.00    -0.236 NA
ATOM     26  C8  AR6 d   1      13.817  -7.733   3.531  0.00  0.00     0.071 A 
ATOM     27  H4  AR6 d   1      14.616  -7.950   4.239  0.00  0.00     0.144 H 
BRANCH  24  28
ATOM     28  N6  AR6 d   1       9.975  -9.408   1.805  0.00  0.00    -0.382 N 
ATOM     29  H2  AR6 d   1      10.193 -10.188   2.441  0.00  0.00     0.157 HD
ATOM     30  H3  AR6 d   1       9.129  -9.442   1.219  0.00  0.00     0.157 HD
ENDBRANCH  24  28
ENDBRANCH   8  17
ENDBRANCH   1   4
BRANCH   1  31
ATOM     31  O5' AR6 d   1      17.305  -7.851   1.843  0.00  0.00    -0.287 OA
BRANCH  31  32
ATOM     32  PA  AR6 d   1      18.182  -9.228   1.839  0.00  0.00     0.417 P 
ATOM     33  O1A AR6 d   1      19.241  -9.208   2.905  0.00  0.00    -0.624 OA
ATOM     34  O2A AR6 d   1      17.221 -10.364   2.026  0.00  0.00    -0.624 OA
BRANCH  32  35
ATOM     35  O3A AR6 d   1      18.902  -9.327   0.371  0.00  0.00    -0.180 OA
BRANCH  35  36
ATOM     36  PB  AR6 d   1      20.515  -9.099   0.152  0.00  0.00     0.417 P 
ATOM     37  O1B AR6 d   1      21.013  -7.976   1.036  0.00  0.00    -0.624 OA
ATOM     38  O2B AR6 d   1      20.720  -8.796  -1.306  0.00  0.00    -0.624 OA
BRANCH  36  39
ATOM     39  O5D AR6 d   1      21.251 -10.554   0.470  0.00  0.00    -0.287 OA
BRANCH  39  40
ATOM     40  C5D AR6 d   1      20.787 -11.676  -0.253  0.00  0.00     0.058 C 
ATOM     41  H20 AR6 d   1      19.712 -11.568  -0.461  0.00  0.00     0.079 H 
ATOM     42  H21 AR6 d   1      21.337 -11.762  -1.202  0.00  0.00     0.079 H 
BRANCH  40  43
ATOM     43  C4D AR6 d   1      21.024 -12.904   0.588  0.00  0.00     0.090 C 
ATOM     44  C3D AR6 d   1      20.708 -14.248  -0.290  0.00  0.00     0.092 C 
ATOM     45  C2D AR6 d   1      19.453 -14.592  -0.002  0.00  0.00     0.110 C 
ATOM     46  H14 AR6 d   1      20.819 -14.051  -1.367  0.00  0.00     0.091 H 
ATOM     47  C1D AR6 d   1      19.285 -14.174   1.464  0.00  0.00     0.156 C 
ATOM     48  H10 AR6 d   1      18.741 -14.056  -0.647  0.00  0.00     0.094 H 
ATOM     49  O4D AR6 d   1      20.197 -12.881   1.595  0.00  0.00    -0.349 OA
ATOM     50  H6  AR6 d   1      18.233 -13.932   1.677  0.00  0.00     0.133 H 
ATOM     51  H17 AR6 d   1      22.064 -12.921   0.946  0.00  0.00     0.090 H 
BRANCH  44  52
ATOM     52  O3D AR6 d   1      21.608 -15.276   0.118  0.00  0.00    -0.390 OA
ATOM     53  H15 AR6 d   1      21.394 -16.082  -0.338  0.00  0.00     0.210 HD
ENDBRANCH  44  52
BRANCH  45  54
ATOM     54  O2D AR6 d   1      19.259 -16.052  -0.156  0.00  0.00    -0.388 OA
ATOM     55  H11 AR6 d   1      19.901 -16.513   0.371  0.00  0.00     0.210 HD
ENDBRANCH  45  54
BRANCH  47  56
ATOM     56  O1D AR6 d   1      19.676 -15.086   2.267  0.00  0.00    -0.369 OA
ATOM     57  H7  AR6 d   1      19.118 -15.849   2.173  0.00  0.00     0.212 HD
ENDBRANCH  47  56
ENDBRANCH  40  43
ENDBRANCH  39  40
ENDBRANCH  36  39
ENDBRANCH  35  36
ENDBRANCH  32  35
ENDBRANCH  31  32
ENDBRANCH   1  31
TORSDOF 15
