REMARK  15 active torsions:
REMARK  status: ('A' for Active; 'I' for Inactive)
REMARK    1  A    between atoms: C6_6  and  N6_7 
REMARK    2  A    between atoms: C1'_13  and  N9_10 
REMARK    3  A    between atoms: O3A_26  and  PA_11 
REMARK    4  A    between atoms: PA_11  and  O5'_34 
REMARK    5  A    between atoms: PB_12  and  O3A_26 
REMARK    6  A    between atoms: O5D_36  and  PB_12 
REMARK    7  A    between atoms: C1D_16  and  O1D_17 
REMARK    8  A    between atoms: C2'_18  and  O2'_19 
REMARK    9  A    between atoms: C2D_22  and  O2D_23 
REMARK   10  A    between atoms: C3'_24  and  O3'_25 
REMARK   11  A    between atoms: C3D_27  and  O3D_28 
REMARK   12  A    between atoms: C5'_33  and  C4'_29 
REMARK   13  A    between atoms: C5D_35  and  C4D_31 
REMARK   14  A    between atoms: O5'_34  and  C5'_33 
REMARK   15  A    between atoms: C5D_35  and  O5D_36 
ROOT
ATOM      1  C5' AR6 d   1      16.958  66.821  -1.479  0.00  0.00     0.058 C 
ATOM      2  H18 AR6 d   1      16.502  67.692  -1.973  0.00  0.00     0.079 H 
ATOM      3  H19 AR6 d   1      16.966  66.980  -0.391  0.00  0.00     0.079 H 
ENDROOT
BRANCH   1   4
ATOM      4  C4' AR6 d   1      18.391  66.617  -1.991  0.00  0.00     0.089 C 
ATOM      5  C3' AR6 d   1      18.338  66.246  -3.529  0.00  0.00     0.091 C 
ATOM      6  C2' AR6 d   1      19.534  65.286  -3.709  0.00  0.00     0.105 C 
ATOM      7  H12 AR6 d   1      17.390  65.755  -3.793  0.00  0.00     0.091 H 
ATOM      8  C1' AR6 d   1      19.675  64.642  -2.546  0.00  0.00     0.139 C 
ATOM      9  H8  AR6 d   1      19.368  64.585  -4.541  0.00  0.00     0.093 H 
ATOM     10  O4' AR6 d   1      18.979  65.603  -1.399  0.00  0.00    -0.353 OA
ATOM     11  H5  AR6 d   1      20.745  64.538  -2.315  0.00  0.00     0.122 H 
ATOM     12  H16 AR6 d   1      18.973  67.537  -1.832  0.00  0.00     0.090 H 
BRANCH   5  13
ATOM     13  O3' AR6 d   1      18.498  67.341  -4.255  0.00  0.00    -0.390 OA
ATOM     14  H13 AR6 d   1      19.292  67.787  -3.983  0.00  0.00     0.210 HD
ENDBRANCH   5  13
BRANCH   6  15
ATOM     15  O2' AR6 d   1      20.739  66.099  -3.932  0.00  0.00    -0.388 OA
ATOM     16  H9  AR6 d   1      21.501  65.532  -3.962  0.00  0.00     0.210 HD
ENDBRANCH   6  15
BRANCH   8  17
ATOM     17  N9  AR6 d   1      19.121  63.339  -2.626  0.00  0.00    -0.294 N 
ATOM     18  C4  AR6 d   1      19.537  62.225  -1.991  0.00  0.00     0.167 A 
ATOM     19  N3  AR6 d   1      20.529  62.019  -1.097  0.00  0.00    -0.222 NA
ATOM     20  C5  AR6 d   1      18.747  61.208  -2.373  0.00  0.00     0.149 A 
ATOM     21  C2  AR6 d   1      20.727  60.776  -0.601  0.00  0.00     0.091 A 
ATOM     22  N1  AR6 d   1      19.928  59.751  -0.992  0.00  0.00    -0.222 NA
ATOM     23  H1  AR6 d   1      21.526  60.598   0.110  0.00  0.00     0.146 H 
ATOM     24  C6  AR6 d   1      18.953  59.947  -1.859  0.00  0.00     0.155 A 
ATOM     25  N7  AR6 d   1      17.854  61.679  -3.250  0.00  0.00    -0.236 NA
ATOM     26  C8  AR6 d   1      18.090  62.987  -3.406  0.00  0.00     0.071 A 
ATOM     27  H4  AR6 d   1      17.534  63.657  -4.061  0.00  0.00     0.144 H 
BRANCH  24  28
ATOM     28  N6  AR6 d   1      18.330  58.641  -2.025  0.00  0.00    -0.382 N 
ATOM     29  H2  AR6 d   1      17.529  58.530  -2.663  0.00  0.00     0.157 HD
ATOM     30  H3  AR6 d   1      18.690  57.829  -1.504  0.00  0.00     0.157 HD
ENDBRANCH  24  28
ENDBRANCH   8  17
ENDBRANCH   1   4
BRANCH   1  31
ATOM     31  O5' AR6 d   1      16.233  65.658  -1.790  0.00  0.00    -0.287 OA
BRANCH  31  32
ATOM     32  PA  AR6 d   1      14.601  65.722  -1.783  0.00  0.00     0.417 P 
ATOM     33  O1A AR6 d   1      14.168  66.505  -2.987  0.00  0.00    -0.624 OA
ATOM     34  O2A AR6 d   1      14.069  64.326  -1.918  0.00  0.00    -0.624 OA
BRANCH  32  35
ATOM     35  O3A AR6 d   1      14.123  66.425  -0.337  0.00  0.00    -0.180 OA
BRANCH  35  36
ATOM     36  PB  AR6 d   1      13.633  68.000  -0.063  0.00  0.00     0.417 P 
ATOM     37  O1B AR6 d   1      14.015  68.847  -1.263  0.00  0.00    -0.624 OA
ATOM     38  O2B AR6 d   1      14.283  68.670   1.144  0.00  0.00    -0.624 OA
BRANCH  36  39
ATOM     39  O5D AR6 d   1      11.966  67.971   0.072  0.00  0.00    -0.287 OA
BRANCH  39  40
ATOM     40  C5D AR6 d   1      11.370  66.705   0.327  0.00  0.00     0.058 C 
ATOM     41  H20 AR6 d   1      12.109  65.916   0.122  0.00  0.00     0.079 H 
ATOM     42  H21 AR6 d   1      11.069  66.660   1.384  0.00  0.00     0.079 H 
BRANCH  40  43
ATOM     43  C4D AR6 d   1      10.151  66.471  -0.540  0.00  0.00     0.090 C 
ATOM     44  C3D AR6 d   1       9.009  65.657   0.313  0.00  0.00     0.092 C 
ATOM     45  C2D AR6 d   1       9.225  64.369   0.014  0.00  0.00     0.110 C 
ATOM     46  H14 AR6 d   1       9.151  65.821   1.391  0.00  0.00     0.091 H 
ATOM     47  C1D AR6 d   1       9.563  64.435  -1.464  0.00  0.00     0.156 C 
ATOM     48  H10 AR6 d   1      10.060  63.964   0.604  0.00  0.00     0.094 H 
ATOM     49  O4D AR6 d   1      10.494  65.711  -1.541  0.00  0.00    -0.349 OA
ATOM     50  H6  AR6 d   1      10.095  63.531  -1.796  0.00  0.00     0.133 H 
ATOM     51  H17 AR6 d   1       9.751  67.431  -0.899  0.00  0.00     0.090 H 
BRANCH  44  52
ATOM     52  O3D AR6 d   1       7.686  66.088  -0.047  0.00  0.00    -0.390 OA
ATOM     53  H15 AR6 d   1       7.562  65.978  -0.983  0.00  0.00     0.210 HD
ENDBRANCH  44  52
BRANCH  45  54
ATOM     54  O2D AR6 d   1       8.030  63.526   0.209  0.00  0.00    -0.388 OA
ATOM     55  H11 AR6 d   1       7.298  63.901  -0.267  0.00  0.00     0.210 HD
ENDBRANCH  45  54
BRANCH  47  56
ATOM     56  O1D AR6 d   1       8.510  64.590  -2.158  0.00  0.00    -0.369 OA
ATOM     57  H7  AR6 d   1       8.025  65.339  -1.832  0.00  0.00     0.212 HD
ENDBRANCH  47  56
ENDBRANCH  40  43
ENDBRANCH  39  40
ENDBRANCH  36  39
ENDBRANCH  35  36
ENDBRANCH  32  35
ENDBRANCH  31  32
ENDBRANCH   1  31
TORSDOF 15
