REMARK  13 active torsions:
REMARK  status: ('A' for Active; 'I' for Inactive)
REMARK    1  A    between atoms: CAW_10  and  OAF_11 
REMARK    2  A    between atoms: CAX_12  and  CAP_13 
REMARK    3  A    between atoms: CAP_13  and  CAI_14 
REMARK    4  A    between atoms: CAV_15  and  CAD_16 
REMARK    5  A    between atoms: CAV_15  and  CAR_17 
REMARK    6  A    between atoms: CAR_17  and  CAO_18 
REMARK    7  A    between atoms: CAO_18  and  CAH_19 
REMARK    8  A    between atoms: CAU_20  and  CAC_21 
REMARK    9  A    between atoms: CAU_20  and  CAQ_22 
REMARK   10  A    between atoms: CAQ_22  and  CAN_23 
REMARK   11  A    between atoms: CAN_23  and  CAG_24 
REMARK   12  A    between atoms: CAT_25  and  CAB_26 
REMARK   13  A    between atoms: CAT_25  and  CAA_27 
ROOT
ATOM      1  CAR MOL d   1     256.731  49.063 133.369  0.00  0.00    -0.042 C 
ATOM      2  H12 MOL d   1     256.628  48.010 133.669  0.00  0.00     0.040 H 
ATOM      3  H13 MOL d   1     257.691  49.205 132.851  0.00  0.00     0.040 H 
ENDROOT
BRANCH   1   4
ATOM      4  CAV MOL d   1     256.623  49.974 134.559  0.00  0.00    -0.087 C 
ATOM      5  CAI MOL d   1     255.896  49.698 135.648  0.00  0.00    -0.097 C 
ATOM      6  H8  MOL d   1     255.475  48.709 135.821  0.00  0.00     0.077 H 
BRANCH   5   7
ATOM      7  CAP MOL d   1     255.700  50.781 136.580  0.00  0.00    -0.017 C 
ATOM      8  H6  MOL d   1     256.351  50.596 137.447  0.00  0.00     0.046 H 
ATOM      9  H7  MOL d   1     256.010  51.711 136.080  0.00  0.00     0.046 H 
BRANCH   7  10
ATOM     10  CAX MOL d   1     254.330  50.981 137.085  0.00  0.00     0.055 A 
ATOM     11  CAY MOL d   1     254.054  52.124 137.822  0.00  0.00     0.297 A 
ATOM     12  OAE MOL d   1     254.923  53.002 137.992  0.00  0.00    -0.259 OA
ATOM     13  OAS MOL d   1     252.820  52.319 138.378  0.00  0.00    -0.274 OA
ATOM     14  CAZ MOL d   1     251.828  51.392 138.204  0.00  0.00     0.092 A 
ATOM     15  CBA MOL d   1     252.079  50.234 137.464  0.00  0.00     0.032 A 
ATOM     16  CAL MOL d   1     250.581  51.618 138.775  0.00  0.00    -0.049 A 
ATOM     17  CAM MOL d   1     251.081  49.293 137.308  0.00  0.00    -0.068 A 
ATOM     18  CAW MOL d   1     253.335  50.020 136.900  0.00  0.00     0.091 A 
ATOM     19  CAK MOL d   1     249.840  49.520 137.886  0.00  0.00    -0.082 A 
ATOM     20  H1  MOL d   1     251.265  48.388 136.741  0.00  0.00     0.085 H 
ATOM     21  CAJ MOL d   1     249.589  50.671 138.614  0.00  0.00    -0.080 A 
ATOM     22  H2  MOL d   1     249.054  48.784 137.766  0.00  0.00     0.083 H 
ATOM     23  H3  MOL d   1     248.613  50.829 139.058  0.00  0.00     0.083 H 
ATOM     24  H4  MOL d   1     250.390  52.524 139.338  0.00  0.00     0.087 H 
BRANCH  18  25
ATOM     25  OAF MOL d   1     253.569  48.881 136.180  0.00  0.00    -0.359 OA
ATOM     26  H5  MOL d   1     254.465  48.885 135.865  0.00  0.00     0.217 HD
ENDBRANCH  18  25
ENDBRANCH   7  10
ENDBRANCH   5   7
BRANCH   4  27
ATOM     27  CAD MOL d   1     257.389  51.224 134.488  0.00  0.00    -0.055 C 
ATOM     28  H9  MOL d   1     257.919  51.275 133.525  0.00  0.00     0.033 H 
ATOM     29  H10 MOL d   1     258.119  51.254 135.310  0.00  0.00     0.033 H 
ATOM     30  H11 MOL d   1     256.703  52.080 134.575  0.00  0.00     0.033 H 
ENDBRANCH   4  27
ENDBRANCH   1   4
BRANCH   1  31
ATOM     31  CAO MOL d   1     255.553  49.498 132.474  0.00  0.00    -0.046 C 
ATOM     32  H14 MOL d   1     255.211  50.487 132.814  0.00  0.00     0.039 H 
ATOM     33  H15 MOL d   1     254.740  48.767 132.597  0.00  0.00     0.039 H 
BRANCH  31  34
ATOM     34  CAH MOL d   1     255.882  49.593 131.000  0.00  0.00    -0.101 C 
ATOM     35  CAU MOL d   1     255.654  48.589 130.121  0.00  0.00    -0.087 C 
ATOM     36  H16 MOL d   1     256.325  50.516 130.627  0.00  0.00     0.077 H 
BRANCH  35  37
ATOM     37  CAC MOL d   1     255.090  47.255 130.536  0.00  0.00    -0.055 C 
ATOM     38  H17 MOL d   1     254.995  46.606 129.653  0.00  0.00     0.033 H 
ATOM     39  H18 MOL d   1     254.100  47.401 130.992  0.00  0.00     0.033 H 
ATOM     40  H19 MOL d   1     255.764  46.783 131.266  0.00  0.00     0.033 H 
ENDBRANCH  35  37
BRANCH  35  41
ATOM     41  CAQ MOL d   1     256.043  48.793 128.674  0.00  0.00    -0.042 C 
ATOM     42  H20 MOL d   1     256.780  48.023 128.403  0.00  0.00     0.040 H 
ATOM     43  H21 MOL d   1     256.501  49.788 128.577  0.00  0.00     0.040 H 
BRANCH  41  44
ATOM     44  CAN MOL d   1     254.883  48.706 127.697  0.00  0.00    -0.046 C 
ATOM     45  H22 MOL d   1     254.401  49.690 127.600  0.00  0.00     0.039 H 
ATOM     46  H23 MOL d   1     254.147  47.971 128.055  0.00  0.00     0.039 H 
BRANCH  44  47
ATOM     47  CAG MOL d   1     255.440  48.267 126.349  0.00  0.00    -0.101 C 
ATOM     48  CAT MOL d   1     255.173  48.884 125.174  0.00  0.00    -0.091 C 
ATOM     49  H24 MOL d   1     256.097  47.399 126.329  0.00  0.00     0.077 H 
BRANCH  48  50
ATOM     50  CAB MOL d   1     255.777  48.366 123.906  0.00  0.00    -0.055 C 
ATOM     51  H25 MOL d   1     255.449  48.990 123.062  0.00  0.00     0.033 H 
ATOM     52  H26 MOL d   1     255.452  47.328 123.742  0.00  0.00     0.033 H 
ATOM     53  H27 MOL d   1     256.874  48.399 123.982  0.00  0.00     0.033 H 
ENDBRANCH  48  50
BRANCH  48  54
ATOM     54  CAA MOL d   1     254.283  50.080 125.087  0.00  0.00    -0.055 C 
ATOM     55  H28 MOL d   1     253.918  50.340 126.092  0.00  0.00     0.033 H 
ATOM     56  H29 MOL d   1     253.427  49.854 124.434  0.00  0.00     0.033 H 
ATOM     57  H30 MOL d   1     254.847  50.928 124.671  0.00  0.00     0.033 H 
ENDBRANCH  48  54
ENDBRANCH  44  47
ENDBRANCH  41  44
ENDBRANCH  35  41
ENDBRANCH  31  34
ENDBRANCH   1  31
TORSDOF 13
