REMARK  17 active torsions:
REMARK  status: ('A' for Active; 'I' for Inactive)
REMARK    1  A    between atoms: CAH_8  and  CAA_1 
REMARK    2  A    between atoms: CAW_23  and  OAD_4 
REMARK    3  A    between atoms: CAI_9  and  CAH_8 
REMARK    4  A    between atoms: CAJ_10  and  CAI_9 
REMARK    5  A    between atoms: CAK_11  and  CAJ_10 
REMARK    6  A    between atoms: CAL_12  and  CAK_11 
REMARK    7  A    between atoms: CAM_13  and  CAL_12 
REMARK    8  A    between atoms: CAN_14  and  CAM_13 
REMARK    9  A    between atoms: CAO_15  and  CAN_14 
REMARK   10  A    between atoms: CAP_16  and  CAO_15 
REMARK   11  A    between atoms: CAQ_17  and  CAP_16 
REMARK   12  A    between atoms: CAR_18  and  CAQ_17 
REMARK   13  A    between atoms: CAS_19  and  CAR_18 
REMARK   14  A    between atoms: CAT_20  and  CAS_19 
REMARK   15  A    between atoms: OAU_21  and  CAT_20 
REMARK   16  A    between atoms: CAX_24  and  OAU_21 
REMARK   17  A    between atoms: CAY_25  and  CAV_22 
ROOT
ATOM      1  CAP HJX d   1      15.370  13.081  44.440  0.00  0.00    -0.065 C 
ATOM      2  H24 HJX d   1      15.681  12.989  43.389  0.00  0.00     0.033 H 
ATOM      3  H25 HJX d   1      16.118  13.668  44.993  0.00  0.00     0.033 H 
ENDROOT
BRANCH   1   4
ATOM      4  CAO HJX d   1      15.319  11.689  45.044  0.00  0.00    -0.065 C 
ATOM      5  H22 HJX d   1      16.282  11.496  45.538  0.00  0.00     0.033 H 
ATOM      6  H23 HJX d   1      14.513  11.671  45.792  0.00  0.00     0.033 H 
BRANCH   4   7
ATOM      7  CAN HJX d   1      15.064  10.562  44.044  0.00  0.00    -0.065 C 
ATOM      8  H20 HJX d   1      15.038  10.990  43.031  0.00  0.00     0.033 H 
ATOM      9  H21 HJX d   1      15.887   9.836  44.115  0.00  0.00     0.033 H 
BRANCH   7  10
ATOM     10  CAM HJX d   1      13.745   9.832  44.300  0.00  0.00    -0.065 C 
ATOM     11  H18 HJX d   1      13.211  10.375  45.094  0.00  0.00     0.033 H 
ATOM     12  H19 HJX d   1      13.157   9.868  43.371  0.00  0.00     0.033 H 
BRANCH  10  13
ATOM     13  CAL HJX d   1      13.850   8.376  44.725  0.00  0.00    -0.065 C 
ATOM     14  H16 HJX d   1      12.995   7.825  44.307  0.00  0.00     0.033 H 
ATOM     15  H17 HJX d   1      14.786   7.960  44.324  0.00  0.00     0.033 H 
BRANCH  13  16
ATOM     16  CAK HJX d   1      13.848   8.202  46.237  0.00  0.00    -0.065 C 
ATOM     17  H14 HJX d   1      14.176   9.134  46.721  0.00  0.00     0.033 H 
ATOM     18  H15 HJX d   1      12.836   7.946  46.583  0.00  0.00     0.033 H 
BRANCH  16  19
ATOM     19  CAJ HJX d   1      14.808   7.079  46.577  0.00  0.00    -0.065 C 
ATOM     20  H12 HJX d   1      14.841   6.385  45.724  0.00  0.00     0.033 H 
ATOM     21  H13 HJX d   1      15.806   7.515  46.734  0.00  0.00     0.033 H 
BRANCH  19  22
ATOM     22  CAI HJX d   1      14.433   6.290  47.818  0.00  0.00    -0.065 C 
ATOM     23  H10 HJX d   1      14.730   6.854  48.714  0.00  0.00     0.033 H 
ATOM     24  H11 HJX d   1      13.345   6.125  47.832  0.00  0.00     0.033 H 
BRANCH  22  25
ATOM     25  CAH HJX d   1      15.153   4.939  47.804  0.00  0.00    -0.069 C 
ATOM     26  H8  HJX d   1      14.758   4.337  46.972  0.00  0.00     0.032 H 
ATOM     27  H9  HJX d   1      16.228   5.114  47.652  0.00  0.00     0.032 H 
BRANCH  25  28
ATOM     28  CAA HJX d   1      14.961   4.161  49.109  0.00  0.00    -0.077 C 
ATOM     29  H1  HJX d   1      15.496   3.202  49.046  0.00  0.00     0.027 H 
ATOM     30  H2  HJX d   1      13.889   3.973  49.269  0.00  0.00     0.027 H 
ATOM     31  H3  HJX d   1      15.360   4.749  49.949  0.00  0.00     0.027 H 
ENDBRANCH  25  28
ENDBRANCH  22  25
ENDBRANCH  19  22
ENDBRANCH  16  19
ENDBRANCH  13  16
ENDBRANCH  10  13
ENDBRANCH   7  10
ENDBRANCH   4   7
ENDBRANCH   1   4
BRANCH   1  32
ATOM     32  CAQ HJX d   1      14.042  13.838  44.481  0.00  0.00    -0.065 C 
ATOM     33  H26 HJX d   1      13.883  14.236  45.494  0.00  0.00     0.033 H 
ATOM     34  H27 HJX d   1      13.224  13.148  44.225  0.00  0.00     0.033 H 
BRANCH  32  35
ATOM     35  CAR HJX d   1      14.054  15.001  43.478  0.00  0.00    -0.063 C 
ATOM     36  H28 HJX d   1      14.709  14.709  42.644  0.00  0.00     0.033 H 
ATOM     37  H29 HJX d   1      14.482  15.874  43.992  0.00  0.00     0.033 H 
BRANCH  35  38
ATOM     38  CAS HJX d   1      12.712  15.436  42.876  0.00  0.00    -0.045 C 
ATOM     39  H30 HJX d   1      12.426  16.401  43.320  0.00  0.00     0.036 H 
ATOM     40  H31 HJX d   1      11.955  14.678  43.126  0.00  0.00     0.036 H 
BRANCH  38  41
ATOM     41  CAT HJX d   1      12.756  15.596  41.351  0.00  0.00     0.026 C 
ATOM     42  H32 HJX d   1      12.240  14.746  40.880  0.00  0.00     0.075 H 
ATOM     43  H33 HJX d   1      13.804  15.620  41.017  0.00  0.00     0.075 H 
BRANCH  41  44
ATOM     44  OAU HJX d   1      12.117  16.798  40.975  0.00  0.00    -0.350 OA
BRANCH  44  45
ATOM     45  CAX HJX d   1      10.713  16.927  41.013  0.00  0.00     0.088 A 
ATOM     46  CAG HJX d   1       9.934  15.821  40.671  0.00  0.00    -0.050 A 
ATOM     47  CAE HJX d   1       8.558  15.899  40.673  0.00  0.00    -0.078 A 
ATOM     48  H7  HJX d   1      10.417  14.889  40.400  0.00  0.00     0.087 H 
ATOM     49  CAF HJX d   1       7.938  17.091  41.001  0.00  0.00    -0.050 A 
ATOM     50  H5  HJX d   1       7.964  15.029  40.418  0.00  0.00     0.083 H 
ATOM     51  CAW HJX d   1       8.698  18.199  41.343  0.00  0.00     0.085 A 
ATOM     52  H6  HJX d   1       6.856  17.159  40.991  0.00  0.00     0.087 H 
ATOM     53  CAY HJX d   1      10.098  18.155  41.347  0.00  0.00     0.107 A 
BRANCH  51  54
ATOM     54  OAD HJX d   1       8.001  19.361  41.685  0.00  0.00    -0.360 OA
ATOM     55  H4  HJX d   1       8.620  20.049  41.899  0.00  0.00     0.217 HD
ENDBRANCH  51  54
BRANCH  53  56
ATOM     56  CAV HJX d   1      10.903  19.439  41.702  0.00  0.00     0.215 C 
ATOM     57  OAB HJX d   1      12.067  19.640  41.269  0.00  0.00    -0.644 OA
ATOM     58  OAC HJX d   1      10.428  20.374  42.406  0.00  0.00    -0.644 OA
ENDBRANCH  53  56
ENDBRANCH  44  45
ENDBRANCH  41  44
ENDBRANCH  38  41
ENDBRANCH  35  38
ENDBRANCH  32  35
ENDBRANCH   1  32
TORSDOF 17
