REMARK  9 active torsions:
REMARK  status: ('A' for Active; 'I' for Inactive)
REMARK    1  A    between atoms: N_1  and  CA_2 
REMARK    2  A    between atoms: CA_2  and  C_3 
REMARK    3  A    between atoms: CA_2  and  CB_5 
REMARK    4  A    between atoms: CB_5  and  CG_6 
REMARK    5  A    between atoms: CG_6  and  CD_7 
REMARK    6  A    between atoms: NE_8  and  CZ_9 
REMARK    7  A    between atoms: CZ_9  and  NH1_10 
REMARK    8  A    between atoms: CZ_9  and  NH2_11 
REMARK    9  A    between atoms: NH1_10  and  OH1_12 
ROOT
ATOM      1  CG  HAR d   1      -2.435  17.244  -9.473  0.00  0.00    -0.032 C 
ATOM      2  H7  HAR d   1      -3.400  17.252 -10.001  0.00  0.00     0.041 H 
ATOM      3  H8  HAR d   1      -2.611  17.227  -8.387  0.00  0.00     0.041 H 
ENDROOT
BRANCH   1   4
ATOM      4  CB  HAR d   1      -1.723  18.572  -9.801  0.00  0.00    -0.025 C 
ATOM      5  H5  HAR d   1      -1.020  18.817  -8.991  0.00  0.00     0.037 H 
ATOM      6  H6  HAR d   1      -1.171  18.464 -10.746  0.00  0.00     0.037 H 
BRANCH   4   7
ATOM      7  CA  HAR d   1      -2.741  19.694  -9.939  0.00  0.00     0.182 C 
ATOM      8  H4  HAR d   1      -2.204  20.654  -9.944  0.00  0.00     0.101 H 
BRANCH   7   9
ATOM      9  N   HAR d   1      -3.692  19.696  -8.772  0.00  0.00    -0.065 N 
ATOM     10  H1  HAR d   1      -3.171  19.790  -7.914  0.00  0.00     0.275 HD
ATOM     11  H2  HAR d   1      -4.208  18.831  -8.758  0.00  0.00     0.275 HD
ATOM     12  H3  HAR d   1      -4.333  20.468  -8.862  0.00  0.00     0.275 HD
ENDBRANCH   7   9
BRANCH   7  13
ATOM     13  C   HAR d   1      -3.494  19.551 -11.281  0.00  0.00     0.204 C 
ATOM     14  O   HAR d   1      -2.859  20.009 -12.268  0.00  0.00    -0.646 OA
ATOM     15  OXT HAR d   1      -4.656  19.010 -11.270  0.00  0.00    -0.646 OA
ENDBRANCH   7  13
ENDBRANCH   4   7
ENDBRANCH   1   4
BRANCH   1  16
ATOM     16  CD  HAR d   1      -1.738  15.952  -9.834  0.00  0.00    -0.019 C 
ATOM     17  NE  HAR d   1      -0.514  15.739  -9.447  0.00  0.00    -0.242 NA
ATOM     18  H9  HAR d   1      -2.262  15.198 -10.419  0.00  0.00     0.107 H 
BRANCH  17  19
ATOM     19  CZ  HAR d   1       0.114  14.454  -9.760  0.00  0.00     0.372 C 
ATOM     20  H10 HAR d   1      -0.001  14.255 -10.836  0.00  0.00     0.181 H 
BRANCH  19  21
ATOM     21  NH1 HAR d   1      -0.665  13.412  -9.024  0.00  0.00    -0.019 N 
ATOM     22  H11 HAR d   1      -0.498  12.540  -9.502  0.00  0.00     0.346 HD
ATOM     23  H12 HAR d   1      -1.637  13.665  -9.115  0.00  0.00     0.346 HD
BRANCH  21  24
ATOM     24  OH1 HAR d   1      -0.443  13.164  -7.651  0.00  0.00    -0.195 OA
ATOM     25  H16 HAR d   1      -1.025  12.473  -7.357  0.00  0.00     0.257 HD
ENDBRANCH  21  24
ENDBRANCH  19  21
BRANCH  19  26
ATOM     26  NH2 HAR d   1       1.529  14.514  -9.497  0.00  0.00    -0.024 N 
ATOM     27  H13 HAR d   1       1.942  15.250 -10.048  0.00  0.00     0.279 HD
ATOM     28  H14 HAR d   1       1.954  13.633  -9.741  0.00  0.00     0.279 HD
ATOM     29  H15 HAR d   1       1.681  14.701  -8.518  0.00  0.00     0.279 HD
ENDBRANCH  19  26
ENDBRANCH  17  19
ENDBRANCH   1  16
TORSDOF 9
