REMARK  5 active torsions:
REMARK  status: ('A' for Active; 'I' for Inactive)
REMARK    1  A    between atoms: N_1  and  CA_2 
REMARK    2  A    between atoms: CA_2  and  CB_3 
REMARK    3  A    between atoms: CA_2  and  C_6 
REMARK    4  A    between atoms: CB_3  and  CG_4 
REMARK    5  A    between atoms: CG_4  and  CD_5 
ROOT
ATOM      1  CB  NVA d   1      -1.765 -18.940  12.759  0.00  0.00    -0.029 C 
ATOM      2  H5  NVA d   1      -1.245 -19.227  11.834  0.00  0.00     0.036 H 
ATOM      3  H6  NVA d   1      -1.108 -19.125  13.622  0.00  0.00     0.036 H 
ENDROOT
BRANCH   1   4
ATOM      4  CA  NVA d   1      -3.024 -19.831  12.906  0.00  0.00     0.182 C 
ATOM      5  H4  NVA d   1      -2.697 -20.881  12.882  0.00  0.00     0.101 H 
BRANCH   4   6
ATOM      6  N   NVA d   1      -3.940 -19.622  11.786  0.00  0.00    -0.065 N 
ATOM      7  H1  NVA d   1      -3.453 -19.785  10.919  0.00  0.00     0.275 HD
ATOM      8  H2  NVA d   1      -4.284 -18.675  11.806  0.00  0.00     0.275 HD
ATOM      9  H3  NVA d   1      -4.715 -20.262  11.861  0.00  0.00     0.275 HD
ENDBRANCH   4   6
BRANCH   4  10
ATOM     10  C   NVA d   1      -3.727 -19.593  14.252  0.00  0.00     0.204 C 
ATOM     11  O   NVA d   1      -4.913 -19.172  14.111  0.00  0.00    -0.646 OA
ATOM     12  OXT NVA d   1      -2.922 -19.887  15.176  0.00  0.00    -0.646 OA
ENDBRANCH   4  10
ENDBRANCH   1   4
BRANCH   1  13
ATOM     13  CG  NVA d   1      -2.064 -17.437  12.696  0.00  0.00    -0.066 C 
ATOM     14  H7  NVA d   1      -2.696 -17.172  13.557  0.00  0.00     0.032 H 
ATOM     15  H8  NVA d   1      -2.609 -17.230  11.763  0.00  0.00     0.032 H 
BRANCH  13  16
ATOM     16  CD  NVA d   1      -0.812 -16.561  12.728  0.00  0.00    -0.076 C 
ATOM     17  H9  NVA d   1      -1.104 -15.502  12.680  0.00  0.00     0.027 H 
ATOM     18  H10 NVA d   1      -0.172 -16.804  11.867  0.00  0.00     0.027 H 
ATOM     19  H11 NVA d   1      -0.259 -16.746  13.660  0.00  0.00     0.027 H 
ENDBRANCH  13  16
ENDBRANCH   1  13
TORSDOF 5
