REMARK  6 active torsions:
REMARK  status: ('A' for Active; 'I' for Inactive)
REMARK    1  A    between atoms: C3_4  and  N1_5 
REMARK    2  A    between atoms: C5_8  and  C6_9 
REMARK    3  A    between atoms: C6_9  and  C7_10 
REMARK    4  A    between atoms: C7_10  and  C8_11 
REMARK    5  A    between atoms: C7_10  and  C9_14 
REMARK    6  A    between atoms: C9_14  and  SE1_15 
ROOT
ATOM      1  C6  9B3 d   1      35.365 -21.230   0.916  0.00  0.00    -0.027 C 
ATOM      2  H5  9B3 d   1      35.004 -20.647   0.056  0.00  0.00     0.041 H 
ATOM      3  H6  9B3 d   1      36.454 -21.107   1.012  0.00  0.00     0.041 H 
ENDROOT
BRANCH   1   4
ATOM      4  C5  9B3 d   1      35.110 -22.688   0.601  0.00  0.00    -0.038 A 
ATOM      5  C1  9B3 d   1      35.611 -23.673   1.435  0.00  0.00    -0.051 A 
ATOM      6  C2  9B3 d   1      35.401 -25.012   1.149  0.00  0.00     0.080 A 
ATOM      7  H1  9B3 d   1      36.172 -23.394   2.319  0.00  0.00     0.087 H 
ATOM      8 CL1  9B3 d   1      35.986 -26.085   2.324  0.00  0.00    -0.080 Cl
ATOM      9  C3  9B3 d   1      34.708 -25.446   0.021  0.00  0.00     0.142 A 
ATOM     10  N2  9B3 d   1      34.195 -24.570  -0.887  0.00  0.00    -0.242 NA
ATOM     11  C4  9B3 d   1      34.414 -23.179  -0.574  0.00  0.00     0.011 A 
ATOM     12  H4  9B3 d   1      34.029 -22.443  -1.271  0.00  0.00     0.115 H 
BRANCH   9  13
ATOM     13  N1  9B3 d   1      34.590 -26.761  -0.111  0.00  0.00    -0.383 N 
ATOM     14  H2  9B3 d   1      34.090 -27.154  -0.921  0.00  0.00     0.157 HD
ATOM     15  H3  9B3 d   1      34.998 -27.388   0.597  0.00  0.00     0.157 HD
ENDBRANCH   9  13
ENDBRANCH   1   4
BRANCH   1  16
ATOM     16  C7  9B3 d   1      34.700 -20.588   2.233  0.00  0.00     0.034 C 
ATOM     17  H7  9B3 d   1      33.631 -20.848   2.221  0.00  0.00     0.057 H 
BRANCH  16  18
ATOM     18  C8  9B3 d   1      35.303 -21.227   3.449  0.00  0.00     0.177 C 
ATOM     19  O1  9B3 d   1      34.523 -22.086   3.937  0.00  0.00    -0.648 OA
ATOM     20  O2  9B3 d   1      36.534 -21.016   3.827  0.00  0.00    -0.648 OA
ENDBRANCH  16  18
BRANCH  16  21
ATOM     21  C9  9B3 d   1      34.781 -19.008   2.258  0.00  0.00    -0.051 C 
ATOM     22  H8  9B3 d   1      34.078 -18.616   1.509  0.00  0.00     0.034 H 
ATOM     23  H9  9B3 d   1      35.806 -18.712   1.989  0.00  0.00     0.034 H 
BRANCH  21  24
ATOM     24 SE1  9B3 d   1      34.377 -18.260   3.861  0.00  0.00     0.000 Se
ATOM     25  H10 9B3 d   1      34.694 -16.427   3.086  0.00  0.00     0.000 HD
ENDBRANCH  21  24
ENDBRANCH  16  21
ENDBRANCH   1  16
TORSDOF 6
