REMARK  10 active torsions:
REMARK  status: ('A' for Active; 'I' for Inactive)
REMARK    1  A    between atoms: C4_11  and  C5_10 
REMARK    2  A    between atoms: C4_11  and  C3_12 
REMARK    3  A    between atoms: N14_16  and  N62_17 
REMARK    4  A    between atoms: N62_17  and  C63_18 
REMARK    5  A    between atoms: N62_17  and  C68_19 
REMARK    6  A    between atoms: N16_21  and  C17_22 
REMARK    7  A    between atoms: C17_22  and  C19_23 
REMARK       I    between atoms: C19_23  and  N20_25 
REMARK    8  A    between atoms: N20_25  and  C21_26 
REMARK    9  A    between atoms: C26_28  and  C60_32 
REMARK   10  A    between atoms: N71_35  and  C67_36 
ROOT
ATOM      1  C1  9C9 d   1     -10.969  24.766  51.586  0.00  0.00     0.226 C 
ATOM      2  O2  9C9 d   1     -10.657  24.473  50.428  0.00  0.00    -0.273 OA
ATOM      3  C3  9C9 d   1     -11.729  23.795  52.431  0.00  0.00     0.043 C 
ATOM      4  C11 9C9 d   1     -13.134  24.243  52.648  0.00  0.00     0.005 C 
ATOM      5  N12 9C9 d   1     -13.297  25.321  53.591  0.00  0.00    -0.375 N 
ATOM      6  C13 9C9 d   1     -12.454  26.330  53.824  0.00  0.00     0.132 C 
ATOM      7  N14 9C9 d   1     -12.923  27.286  54.502  0.00  0.00    -0.185 NA
ATOM      8  C15 9C9 d   1     -10.936  26.258  53.562  0.00  0.00     0.053 C 
ATOM      9  N16 9C9 d   1     -10.597  25.909  52.163  0.00  0.00    -0.336 N 
ATOM     10  H6  9C9 d   1     -11.230  23.713  53.408  0.00  0.00     0.057 H 
ATOM     11  H7  9C9 d   1     -13.713  23.382  53.013  0.00  0.00     0.065 H 
ATOM     12  H8  9C9 d   1     -13.539  24.574  51.680  0.00  0.00     0.065 H 
ATOM     13  H9  9C9 d   1     -14.163  25.312  54.149  0.00  0.00     0.160 HD
ATOM     14  H16 9C9 d   1     -10.503  25.496  54.226  0.00  0.00     0.076 H 
ATOM     15  H17 9C9 d   1     -10.495  27.239  53.793  0.00  0.00     0.076 H 
ENDROOT
BRANCH   9  16
ATOM     16  C17 9C9 d   1      -9.737  26.859  51.436  0.00  0.00     0.072 C 
ATOM     17  H18 9C9 d   1      -9.477  27.697  52.100  0.00  0.00     0.079 H 
ATOM     18  H19 9C9 d   1     -10.278  27.242  50.558  0.00  0.00     0.079 H 
BRANCH  16  19
ATOM     19  C19 9C9 d   1      -8.446  26.155  50.973  0.00  0.00     0.240 C 
ATOM     20  O30 9C9 d   1      -7.951  25.278  51.667  0.00  0.00    -0.271 OA
ATOM     21  N20 9C9 d   1      -7.907  26.570  49.799  0.00  0.00    -0.326 N 
ATOM     22  H20 9C9 d   1      -8.344  27.327  49.314  0.00  0.00     0.169 HD
BRANCH  21  23
ATOM     23  C21 9C9 d   1      -6.773  25.989  49.240  0.00  0.00     0.035 A 
ATOM     24  C25 9C9 d   1      -5.844  25.231  49.994  0.00  0.00    -0.046 A 
ATOM     25  C26 9C9 d   1      -4.743  24.633  49.354  0.00  0.00    -0.021 A 
ATOM     26  H21 9C9 d   1      -5.981  25.112  51.063  0.00  0.00     0.088 H 
ATOM     27  C27 9C9 d   1      -4.542  24.825  47.989  0.00  0.00    -0.072 A 
ATOM     28  C28 9C9 d   1      -5.446  25.571  47.249  0.00  0.00    -0.080 A 
ATOM     29  H22 9C9 d   1      -3.676  24.390  47.504  0.00  0.00     0.084 H 
ATOM     30  C29 9C9 d   1      -6.542  26.165  47.870  0.00  0.00    -0.057 A 
ATOM     31  H23 9C9 d   1      -5.299  25.693  46.182  0.00  0.00     0.083 H 
ATOM     32  H24 9C9 d   1      -7.225  26.771  47.286  0.00  0.00     0.086 H 
BRANCH  25  33
ATOM     33  C60 9C9 d   1      -3.740  23.830  50.124  0.00  0.00     0.011 A 
ATOM     34  C64 9C9 d   1      -3.995  22.968  51.202  0.00  0.00     0.034 A 
ATOM     35  N63 9C9 d   1      -2.813  22.427  51.597  0.00  0.00    -0.185 NA
ATOM     36  H25 9C9 d   1      -4.970  22.768  51.644  0.00  0.00     0.118 H 
ATOM     37  N71 9C9 d   1      -1.845  22.949  50.733  0.00  0.00    -0.285 N 
ATOM     38  C61 9C9 d   1      -2.375  23.789  49.859  0.00  0.00     0.010 A 
ATOM     39  H29 9C9 d   1      -1.846  24.341  49.083  0.00  0.00     0.115 H 
BRANCH  37  40
ATOM     40  C67 9C9 d   1      -0.448  22.499  50.987  0.00  0.00     0.002 C 
ATOM     41  H26 9C9 d   1       0.227  22.967  50.255  0.00  0.00     0.059 H 
ATOM     42  H27 9C9 d   1      -0.392  21.405  50.890  0.00  0.00     0.059 H 
ATOM     43  H28 9C9 d   1      -0.147  22.793  52.003  0.00  0.00     0.059 H 
ENDBRANCH  37  40
ENDBRANCH  25  33
ENDBRANCH  21  23
ENDBRANCH  16  19
ENDBRANCH   9  16
BRANCH   3  44
ATOM     44  C4  9C9 d   1     -11.734  22.422  51.755  0.00  0.00    -0.025 C 
ATOM     45  H4  9C9 d   1     -12.179  22.534  50.755  0.00  0.00     0.041 H 
ATOM     46  H5  9C9 d   1     -10.692  22.085  51.657  0.00  0.00     0.041 H 
BRANCH  44  47
ATOM     47  C5  9C9 d   1     -12.516  21.341  52.506  0.00  0.00    -0.014 A 
ATOM     48  C6  9C9 d   1     -11.973  20.673  53.601  0.00  0.00     0.042 A 
ATOM     49 CL1  9C9 d   1     -10.433  21.192  54.321  0.00  0.00    -0.084 Cl
ATOM     50  C7  9C9 d   1     -12.645  19.612  54.185  0.00  0.00    -0.061 A 
ATOM     51  C8  9C9 d   1     -13.831  19.152  53.645  0.00  0.00    -0.080 A 
ATOM     52  H1  9C9 d   1     -12.238  19.139  55.072  0.00  0.00     0.086 H 
ATOM     53  C9  9C9 d   1     -14.375  19.807  52.552  0.00  0.00    -0.061 A 
ATOM     54  H2  9C9 d   1     -14.330  18.289  54.071  0.00  0.00     0.083 H 
ATOM     55  C10 9C9 d   1     -13.685  20.861  51.960  0.00  0.00     0.042 A 
ATOM     56  H3  9C9 d   1     -15.337  19.499  52.158  0.00  0.00     0.086 H 
ATOM     57 CL2  9C9 d   1     -14.390  21.692  50.575  0.00  0.00    -0.084 Cl
ENDBRANCH  44  47
ENDBRANCH   3  44
BRANCH   7  58
ATOM     58  N62 9C9 d   1     -14.219  27.176  54.878  0.00  0.00    -0.215 NA
BRANCH  58  59
ATOM     59  C63 9C9 d   1     -15.122  28.187  54.290  0.00  0.00    -0.014 C 
ATOM     60  H10 9C9 d   1     -16.147  28.018  54.652  0.00  0.00     0.051 H 
ATOM     61  H11 9C9 d   1     -15.102  28.103  53.193  0.00  0.00     0.051 H 
ATOM     62  H12 9C9 d   1     -14.790  29.193  54.587  0.00  0.00     0.051 H 
ENDBRANCH  58  59
BRANCH  58  63
ATOM     63  C68 9C9 d   1     -14.337  27.108  56.351  0.00  0.00    -0.014 C 
ATOM     64  H13 9C9 d   1     -15.397  27.019  56.630  0.00  0.00     0.051 H 
ATOM     65  H14 9C9 d   1     -13.916  28.022  56.795  0.00  0.00     0.051 H 
ATOM     66  H15 9C9 d   1     -13.785  26.232  56.723  0.00  0.00     0.051 H 
ENDBRANCH  58  63
ENDBRANCH   7  58
TORSDOF 10
