REMARK  5 active torsions:
REMARK  status: ('A' for Active; 'I' for Inactive)
REMARK    1  A    between atoms: O1_1  and  C2_2 
REMARK    2  A    between atoms: C1_7  and  C3_8 
REMARK    3  A    between atoms: C3_8  and  C6_10 
REMARK    4  A    between atoms: C6_10  and  C7_11 
REMARK    5  A    between atoms: C7_11  and  C5_12 
ROOT
ATOM      1  C6  MOL d   1      40.024  14.424  47.004  0.00  0.00    -0.001 C 
ATOM      2  H6  MOL d   1      40.779  13.636  46.867  0.00  0.00     0.045 H 
ATOM      3  H7  MOL d   1      40.526  15.382  47.205  0.00  0.00     0.045 H 
ENDROOT
BRANCH   1   4
ATOM      4  C3  MOL d   1      39.305  14.078  48.251  0.00  0.00     0.162 C 
ATOM      5  O2  MOL d   1      39.575  14.725  49.303  0.00  0.00    -0.292 OA
BRANCH   4   6
ATOM      6  C1  MOL d   1      38.223  13.039  48.113  0.00  0.00     0.043 A 
ATOM      7  C2  MOL d   1      37.050  13.115  48.876  0.00  0.00     0.079 A 
ATOM      8  C8  MOL d   1      35.992  12.230  48.658  0.00  0.00    -0.050 A 
ATOM      9  C10 MOL d   1      36.133  11.187  47.742  0.00  0.00    -0.080 A 
ATOM     10  H2  MOL d   1      35.062  12.353  49.200  0.00  0.00     0.087 H 
ATOM     11  C9  MOL d   1      37.333  11.039  47.048  0.00  0.00    -0.082 A 
ATOM     12  H3  MOL d   1      35.315  10.496  47.571  0.00  0.00     0.083 H 
ATOM     13  C4  MOL d   1      38.354  11.978  47.202  0.00  0.00    -0.067 A 
ATOM     14  H4  MOL d   1      37.474  10.192  46.386  0.00  0.00     0.083 H 
ATOM     15  H5  MOL d   1      39.259  11.887  46.612  0.00  0.00     0.085 H 
BRANCH   7  16
ATOM     16  O1  MOL d   1      36.854  14.119  49.771  0.00  0.00    -0.360 OA
ATOM     17  H1  MOL d   1      37.641  14.648  49.829  0.00  0.00     0.217 HD
ENDBRANCH   7  16
ENDBRANCH   4   6
ENDBRANCH   1   4
BRANCH   1  18
ATOM     18  C7  MOL d   1      39.369  14.583  45.691  0.00  0.00    -0.033 C 
ATOM     19  H8  MOL d   1      38.399  15.053  45.911  0.00  0.00     0.040 H 
ATOM     20  H9  MOL d   1      39.206  13.558  45.327  0.00  0.00     0.040 H 
BRANCH  18  21
ATOM     21  C5  MOL d   1      39.901  15.327  44.521  0.00  0.00    -0.040 A 
ATOM     22  C12 MOL d   1      41.131  15.998  44.577  0.00  0.00     0.008 A 
ATOM     23  N1  MOL d   1      41.622  16.631  43.464  0.00  0.00    -0.273 NA
ATOM     24  H10 MOL d   1      41.695  16.016  45.502  0.00  0.00     0.115 H 
ATOM     25  C14 MOL d   1      40.936  16.585  42.279  0.00  0.00     0.002 A 
ATOM     26  C13 MOL d   1      39.687  15.966  42.232  0.00  0.00    -0.066 A 
ATOM     27  H11 MOL d   1      41.361  17.026  41.385  0.00  0.00     0.114 H 
ATOM     28  C11 MOL d   1      39.144  15.356  43.354  0.00  0.00    -0.074 A 
ATOM     29  H12 MOL d   1      39.130  15.961  41.302  0.00  0.00     0.085 H 
ATOM     30  H13 MOL d   1      38.155  14.913  43.322  0.00  0.00     0.084 H 
ENDBRANCH  18  21
ENDBRANCH   1  18
TORSDOF 5
