REMARK  5 active torsions:
REMARK  status: ('A' for Active; 'I' for Inactive)
REMARK    1  A    between atoms: C12_11  and  C16_1 
REMARK    2  A    between atoms: C10_13  and  C7_2 
REMARK    3  A    between atoms: C3_12  and  O2_20 
REMARK    4  A    between atoms: C10_13  and  C11_17 
REMARK    5  A    between atoms: C1_14  and  O1_21 
ROOT
ATOM      1  C10 9CU d   1      18.591  16.337  28.312  0.00  0.00    -0.016 C 
ATOM      2  H14 9CU d   1      18.156  16.967  29.102  0.00  0.00     0.040 H 
ATOM      3  H15 9CU d   1      19.168  16.965  27.617  0.00  0.00     0.040 H 
ENDROOT
BRANCH   1   4
ATOM      4  C7  9CU d   1      17.479  15.632  27.555  0.00  0.00     0.054 C 
ATOM      5  C6  9CU d   1      16.418  16.631  27.275  0.00  0.00    -0.015 C 
ATOM      6  C5  9CU d   1      15.472  16.071  26.436  0.00  0.00    -0.034 A 
ATOM      7  H5  9CU d   1      16.862  17.513  26.791  0.00  0.00     0.044 H 
ATOM      8  H6  9CU d   1      15.940  16.933  28.218  0.00  0.00     0.044 H 
ATOM      9  C9  9CU d   1      15.821  15.095  25.495  0.00  0.00     0.079 A 
ATOM     10  C4  9CU d   1      14.160  16.510  26.558  0.00  0.00    -0.044 A 
ATOM     11  C8  9CU d   1      17.140  14.646  25.376  0.00  0.00     0.297 C 
ATOM     12  C1  9CU d   1      14.813  14.581  24.688  0.00  0.00     0.085 A 
ATOM     13  O3  9CU d   1      18.004  15.082  26.307  0.00  0.00    -0.311 OA
ATOM     14  O4  9CU d   1      17.482  13.807  24.544  0.00  0.00    -0.259 OA
ATOM     15  C2  9CU d   1      13.512  15.009  24.814  0.00  0.00    -0.018 A 
ATOM     16  C3  9CU d   1      13.166  15.967  25.748  0.00  0.00     0.068 A 
ATOM     17  H7  9CU d   1      12.747  14.589  24.171  0.00  0.00     0.092 H 
ATOM     18  H12 9CU d   1      13.910  17.275  27.284  0.00  0.00     0.088 H 
ATOM     19  H4  9CU d   1      17.068  14.816  28.168  0.00  0.00     0.084 H 
BRANCH  12  20
ATOM     20  O1  9CU d   1      15.155  13.664  23.733  0.00  0.00    -0.360 OA
ATOM     21  H20 9CU d   1      16.086  13.484  23.788  0.00  0.00     0.217 HD
ENDBRANCH  12  20
BRANCH  16  22
ATOM     22  O2  9CU d   1      11.857  16.380  25.862  0.00  0.00    -0.361 OA
ATOM     23  H19 9CU d   1      11.804  17.312  25.685  0.00  0.00     0.217 HD
ENDBRANCH  16  22
ENDBRANCH   1   4
BRANCH   1  24
ATOM     24  C11 9CU d   1      19.501  15.304  28.934  0.00  0.00     0.041 C 
ATOM     25  C15 9CU d   1      20.609  16.002  29.635  0.00  0.00    -0.041 C 
ATOM     26  C14 9CU d   1      21.511  14.971  30.129  0.00  0.00    -0.060 C 
ATOM     27  H10 9CU d   1      21.140  16.666  28.937  0.00  0.00     0.036 H 
ATOM     28  H11 9CU d   1      20.213  16.593  30.474  0.00  0.00     0.036 H 
ATOM     29  C13 9CU d   1      20.760  14.037  31.082  0.00  0.00    -0.041 C 
ATOM     30  H8  9CU d   1      22.347  15.444  30.665  0.00  0.00     0.033 H 
ATOM     31  H9  9CU d   1      21.901  14.390  29.280  0.00  0.00     0.033 H 
ATOM     32  C12 9CU d   1      19.499  13.488  30.412  0.00  0.00     0.035 C 
ATOM     33  H16 9CU d   1      20.476  14.595  31.986  0.00  0.00     0.036 H 
ATOM     34  H17 9CU d   1      21.416  13.199  31.360  0.00  0.00     0.036 H 
ATOM     35  O5  9CU d   1      18.701  14.585  29.888  0.00  0.00    -0.381 OA
ATOM     36  H13 9CU d   1      19.773  12.794  29.604  0.00  0.00     0.082 H 
ATOM     37  H18 9CU d   1      19.903  14.623  28.170  0.00  0.00     0.083 H 
BRANCH  32  38
ATOM     38  C16 9CU d   1      18.660  12.783  31.457  0.00  0.00    -0.052 C 
ATOM     39  H1  9CU d   1      19.231  11.943  31.880  0.00  0.00     0.030 H 
ATOM     40  H2  9CU d   1      17.738  12.403  30.992  0.00  0.00     0.030 H 
ATOM     41  H3  9CU d   1      18.402  13.491  32.258  0.00  0.00     0.030 H 
ENDBRANCH  32  38
ENDBRANCH   1  24
TORSDOF 5
