REMARK  5 active torsions:
REMARK  status: ('A' for Active; 'I' for Inactive)
REMARK    1  A    between atoms: C12_4  and  C16_5 
REMARK    2  A    between atoms: C11_7  and  C10_8 
REMARK    3  A    between atoms: C10_8  and  C7_9 
REMARK    4  A    between atoms: C3_17  and  O2_18 
REMARK    5  A    between atoms: C1_20  and  O1_21 
ROOT
ATOM      1  C10 9CF d   1      77.200 405.570  30.783  0.00  0.00    -0.016 C 
ATOM      2  H12 9CF d   1      77.412 406.639  30.930  0.00  0.00     0.040 H 
ATOM      3  H13 9CF d   1      77.858 405.170  29.997  0.00  0.00     0.040 H 
ENDROOT
BRANCH   1   4
ATOM      4  C11 9CF d   1      75.754 405.420  30.328  0.00  0.00     0.041 C 
ATOM      5  C15 9CF d   1      75.340 406.777  29.796  0.00  0.00    -0.041 C 
ATOM      6  C14 9CF d   1      74.259 406.647  28.760  0.00  0.00    -0.060 C 
ATOM      7  H1  9CF d   1      74.967 407.390  30.629  0.00  0.00     0.036 H 
ATOM      8  H2  9CF d   1      76.214 407.267  29.343  0.00  0.00     0.036 H 
ATOM      9  C13 9CF d   1      74.639 405.647  27.691  0.00  0.00    -0.041 C 
ATOM     10  H3  9CF d   1      74.093 407.628  28.290  0.00  0.00     0.033 H 
ATOM     11  H4  9CF d   1      73.332 406.313  29.249  0.00  0.00     0.033 H 
ATOM     12  C12 9CF d   1      74.839 404.311  28.340  0.00  0.00     0.035 C 
ATOM     13  H5  9CF d   1      75.571 405.964  27.200  0.00  0.00     0.036 H 
ATOM     14  H6  9CF d   1      73.835 405.580  26.943  0.00  0.00     0.036 H 
ATOM     15  O5  9CF d   1      75.876 404.417  29.318  0.00  0.00    -0.381 OA
ATOM     16  H7  9CF d   1      73.903 403.962  28.801  0.00  0.00     0.082 H 
ATOM     17  H11 9CF d   1      75.079 405.099  31.135  0.00  0.00     0.083 H 
BRANCH  12  18
ATOM     18  C16 9CF d   1      75.318 403.333  27.276  0.00  0.00    -0.052 C 
ATOM     19  H8  9CF d   1      75.472 402.343  27.730  0.00  0.00     0.030 H 
ATOM     20  H9  9CF d   1      76.266 403.692  26.849  0.00  0.00     0.030 H 
ATOM     21  H10 9CF d   1      74.562 403.258  26.480  0.00  0.00     0.030 H 
ENDBRANCH  12  18
ENDBRANCH   1   4
BRANCH   1  22
ATOM     22  C7  9CF d   1      77.496 404.832  32.088  0.00  0.00     0.054 C 
ATOM     23  C6  9CF d   1      78.536 403.763  31.765  0.00  0.00    -0.015 C 
ATOM     24  C5  9CF d   1      78.451 402.647  32.592  0.00  0.00    -0.034 A 
ATOM     25  H15 9CF d   1      79.537 404.205  31.876  0.00  0.00     0.044 H 
ATOM     26  H16 9CF d   1      78.392 403.438  30.724  0.00  0.00     0.044 H 
ATOM     27  C9  9CF d   1      77.417 402.468  33.521  0.00  0.00     0.079 A 
ATOM     28  C4  9CF d   1      79.441 401.682  32.458  0.00  0.00    -0.044 A 
ATOM     29  C8  9CF d   1      76.417 403.437  33.669  0.00  0.00     0.297 C 
ATOM     30  C1  9CF d   1      77.409 401.308  34.291  0.00  0.00     0.085 A 
ATOM     31  O3  9CF d   1      76.274 404.288  32.619  0.00  0.00    -0.311 OA
ATOM     32  O4  9CF d   1      75.720 403.506  34.683  0.00  0.00    -0.259 OA
ATOM     33  C2  9CF d   1      78.401 400.340  34.163  0.00  0.00    -0.018 A 
ATOM     34  C3  9CF d   1      79.414 400.543  33.239  0.00  0.00     0.068 A 
ATOM     35  H19 9CF d   1      78.382 399.445  34.774  0.00  0.00     0.092 H 
ATOM     36  H17 9CF d   1      80.238 401.823  31.737  0.00  0.00     0.088 H 
ATOM     37  H14 9CF d   1      77.917 405.532  32.825  0.00  0.00     0.084 H 
BRANCH  30  38
ATOM     38  O1  9CF d   1      76.394 401.181  35.179  0.00  0.00    -0.360 OA
ATOM     39  H20 9CF d   1      75.824 401.938  35.117  0.00  0.00     0.217 HD
ENDBRANCH  30  38
BRANCH  34  40
ATOM     40  O2  9CF d   1      80.388 399.635  33.080  0.00  0.00    -0.361 OA
ATOM     41  H18 9CF d   1      80.244 398.910  33.677  0.00  0.00     0.217 HD
ENDBRANCH  34  40
ENDBRANCH   1  22
TORSDOF 5
