REMARK  5 active torsions:
REMARK  status: ('A' for Active; 'I' for Inactive)
REMARK    1  A    between atoms: C1_1  and  O1_21 
REMARK    2  A    between atoms: C3_4  and  O2_20 
REMARK    3  A    between atoms: C10_10  and  C7_5 
REMARK    4  A    between atoms: C11_11  and  C10_10 
REMARK    5  A    between atoms: C12_12  and  C16_17 
ROOT
ATOM      1  C10 9CC d   1      18.764 -16.099 -27.349  0.00  0.00    -0.016 C 
ATOM      2  H6  9CC d   1      19.078 -16.997 -26.797  0.00  0.00     0.040 H 
ATOM      3  H7  9CC d   1      19.523 -15.312 -27.232  0.00  0.00     0.040 H 
ENDROOT
BRANCH   1   4
ATOM      4  C7  9CC d   1      17.417 -15.595 -26.775  0.00  0.00     0.054 C 
ATOM      5  C6  9CC d   1      16.401 -16.735 -26.643  0.00  0.00    -0.015 C 
ATOM      6  C5  9CC d   1      15.291 -16.310 -25.885  0.00  0.00    -0.034 A 
ATOM      7  H3  9CC d   1      16.877 -17.591 -26.142  0.00  0.00     0.044 H 
ATOM      8  H4  9CC d   1      16.063 -17.038 -27.645  0.00  0.00     0.044 H 
ATOM      9  C4  9CC d   1      14.037 -16.876 -26.144  0.00  0.00    -0.044 A 
ATOM     10  C9  9CC d   1      15.434 -15.318 -24.893  0.00  0.00     0.079 A 
ATOM     11  C3  9CC d   1      12.914 -16.478 -25.420  0.00  0.00     0.068 A 
ATOM     12  H1  9CC d   1      13.938 -17.631 -26.915  0.00  0.00     0.088 H 
ATOM     13  C2  9CC d   1      13.061 -15.509 -24.444  0.00  0.00    -0.018 A 
ATOM     14  C1  9CC d   1      14.291 -14.938 -24.164  0.00  0.00     0.085 A 
ATOM     15  H5  9CC d   1      12.190 -15.188 -23.884  0.00  0.00     0.092 H 
ATOM     16  C8  9CC d   1      16.695 -14.766 -24.636  0.00  0.00     0.297 C 
ATOM     17  O3  9CC d   1      17.711 -15.093 -25.476  0.00  0.00    -0.311 OA
ATOM     18  O4  9CC d   1      16.889 -14.026 -23.677  0.00  0.00    -0.259 OA
ATOM     19  H2  9CC d   1      17.003 -14.802 -27.416  0.00  0.00     0.084 H 
BRANCH  11  20
ATOM     20  O2  9CC d   1      11.666 -17.013 -25.640  0.00  0.00    -0.361 OA
ATOM     21  H19 9CC d   1      11.718 -17.660 -26.333  0.00  0.00     0.217 HD
ENDBRANCH  11  20
BRANCH  14  22
ATOM     22  O1  9CC d   1      14.382 -13.979 -23.161  0.00  0.00    -0.360 OA
ATOM     23  H20 9CC d   1      14.988 -14.278 -22.493  0.00  0.00     0.217 HD
ENDBRANCH  14  22
ENDBRANCH   1   4
BRANCH   1  24
ATOM     24  C11 9CC d   1      18.623 -16.447 -28.840  0.00  0.00     0.041 C 
ATOM     25  C15 9CC d   1      19.990 -16.766 -29.579  0.00  0.00    -0.041 C 
ATOM     26  C14 9CC d   1      20.748 -15.472 -29.678  0.00  0.00    -0.060 C 
ATOM     27  H14 9CC d   1      19.792 -17.166 -30.584  0.00  0.00     0.036 H 
ATOM     28  H15 9CC d   1      20.570 -17.500 -29.000  0.00  0.00     0.036 H 
ATOM     29  C13 9CC d   1      19.899 -14.477 -30.499  0.00  0.00    -0.041 C 
ATOM     30  H12 9CC d   1      20.926 -15.067 -28.671  0.00  0.00     0.033 H 
ATOM     31  H13 9CC d   1      21.712 -15.642 -30.180  0.00  0.00     0.033 H 
ATOM     32  C12 9CC d   1      18.594 -14.161 -29.820  0.00  0.00     0.035 C 
ATOM     33  H10 9CC d   1      20.468 -13.545 -30.627  0.00  0.00     0.036 H 
ATOM     34  H11 9CC d   1      19.690 -14.917 -31.485  0.00  0.00     0.036 H 
ATOM     35  O5  9CC d   1      17.857 -15.387 -29.509  0.00  0.00    -0.381 OA
ATOM     36  H9  9CC d   1      18.792 -13.606 -28.891  0.00  0.00     0.082 H 
ATOM     37  H8  9CC d   1      18.023 -17.367 -28.896  0.00  0.00     0.083 H 
BRANCH  32  38
ATOM     38  C16 9CC d   1      17.727 -13.307 -30.767  0.00  0.00    -0.052 C 
ATOM     39  H16 9CC d   1      16.771 -13.072 -30.277  0.00  0.00     0.030 H 
ATOM     40  H17 9CC d   1      17.536 -13.867 -31.694  0.00  0.00     0.030 H 
ATOM     41  H18 9CC d   1      18.256 -12.373 -31.006  0.00  0.00     0.030 H 
ENDBRANCH  32  38
ENDBRANCH   1  24
TORSDOF 5
