REMARK  5 active torsions:
REMARK  status: ('A' for Active; 'I' for Inactive)
REMARK    1  A    between atoms: C12_9  and  C16_10 
REMARK    2  A    between atoms: C10_13  and  C11_12 
REMARK    3  A    between atoms: C10_13  and  C7_14 
REMARK    4  A    between atoms: C3_18  and  O2_19 
REMARK    5  A    between atoms: C1_20  and  O1_21 
ROOT
ATOM      1  C10 9CX d   1      21.093 -16.426 -24.828  0.00  0.00    -0.016 C 
ATOM      2  H16 9CX d   1      21.958 -17.047 -24.554  0.00  0.00     0.040 H 
ATOM      3  H17 9CX d   1      20.634 -16.822 -25.746  0.00  0.00     0.040 H 
ENDROOT
BRANCH   1   4
ATOM      4  C11 9CX d   1      21.549 -14.971 -25.059  0.00  0.00     0.041 C 
ATOM      5  C15 9CX d   1      23.066 -14.971 -25.506  0.00  0.00    -0.041 C 
ATOM      6  C14 9CX d   1      23.152 -15.365 -26.866  0.00  0.00    -0.060 C 
ATOM      7  H5  9CX d   1      23.484 -13.960 -25.389  0.00  0.00     0.036 H 
ATOM      8  H6  9CX d   1      23.633 -15.677 -24.882  0.00  0.00     0.036 H 
ATOM      9  C13 9CX d   1      22.378 -14.308 -27.632  0.00  0.00    -0.041 C 
ATOM     10  H7  9CX d   1      22.698 -16.357 -27.011  0.00  0.00     0.033 H 
ATOM     11  H8  9CX d   1      24.201 -15.390 -27.195  0.00  0.00     0.033 H 
ATOM     12  C12 9CX d   1      20.889 -14.308 -27.329  0.00  0.00     0.035 C 
ATOM     13  H9  9CX d   1      22.514 -14.489 -28.709  0.00  0.00     0.036 H 
ATOM     14  H10 9CX d   1      22.786 -13.320 -27.371  0.00  0.00     0.036 H 
ATOM     15  O5  9CX d   1      20.636 -14.178 -25.917  0.00  0.00    -0.381 OA
ATOM     16  H11 9CX d   1      20.429 -15.236 -27.700  0.00  0.00     0.082 H 
ATOM     17  H15 9CX d   1      21.520 -14.478 -24.076  0.00  0.00     0.083 H 
BRANCH  12  18
ATOM     18  C16 9CX d   1      20.315 -13.104 -28.050  0.00  0.00    -0.052 C 
ATOM     19  H12 9CX d   1      19.232 -13.050 -27.867  0.00  0.00     0.030 H 
ATOM     20  H13 9CX d   1      20.500 -13.200 -29.130  0.00  0.00     0.030 H 
ATOM     21  H14 9CX d   1      20.796 -12.188 -27.676  0.00  0.00     0.030 H 
ENDBRANCH  12  18
ENDBRANCH   1   4
BRANCH   1  22
ATOM     22  C7  9CX d   1      20.075 -16.437 -23.699  0.00  0.00     0.054 C 
ATOM     23  C6  9CX d   1      18.681 -16.337 -24.300  0.00  0.00    -0.015 C 
ATOM     24  C5  9CX d   1      17.746 -16.085 -23.285  0.00  0.00    -0.034 A 
ATOM     25  H1  9CX d   1      18.656 -15.516 -25.032  0.00  0.00     0.044 H 
ATOM     26  H2  9CX d   1      18.430 -17.283 -24.802  0.00  0.00     0.044 H 
ATOM     27  C4  9CX d   1      16.518 -16.696 -23.466  0.00  0.00    -0.044 A 
ATOM     28  C9  9CX d   1      18.022 -15.255 -22.160  0.00  0.00     0.079 A 
ATOM     29  C3  9CX d   1      15.498 -16.559 -22.561  0.00  0.00     0.068 A 
ATOM     30  H4  9CX d   1      16.358 -17.302 -24.351  0.00  0.00     0.088 H 
ATOM     31  C2  9CX d   1      15.704 -15.780 -21.447  0.00  0.00    -0.018 A 
ATOM     32  C1  9CX d   1      16.921 -15.136 -21.247  0.00  0.00     0.085 A 
ATOM     33  H3  9CX d   1      14.910 -15.666 -20.717  0.00  0.00     0.092 H 
ATOM     34  C8  9CX d   1      19.379 -14.676 -22.067  0.00  0.00     0.297 C 
ATOM     35  O3  9CX d   1      20.355 -15.306 -22.820  0.00  0.00    -0.311 OA
ATOM     36  O4  9CX d   1      19.743 -13.715 -21.351  0.00  0.00    -0.259 OA
ATOM     37  H18 9CX d   1      20.159 -17.373 -23.128  0.00  0.00     0.084 H 
BRANCH  29  38
ATOM     38  O2  9CX d   1      14.343 -17.195 -22.813  0.00  0.00    -0.361 OA
ATOM     39  H19 9CX d   1      13.726 -17.018 -22.113  0.00  0.00     0.217 HD
ENDBRANCH  29  38
BRANCH  32  40
ATOM     40  O1  9CX d   1      17.012 -14.401 -20.114  0.00  0.00    -0.360 OA
ATOM     41  H20 9CX d   1      17.708 -14.748 -19.568  0.00  0.00     0.217 HD
ENDBRANCH  32  40
ENDBRANCH   1  22
TORSDOF 5
