REMARK  11 active torsions:
REMARK  status: ('A' for Active; 'I' for Inactive)
REMARK    1  A    between atoms: N_1  and  CA_2 
REMARK    2  A    between atoms: CA_2  and  CB_3 
REMARK    3  A    between atoms: CA_2  and  C_6 
REMARK    4  A    between atoms: CB_3  and  CG_4 
REMARK    5  A    between atoms: CG_4  and  SD_5 
REMARK    6  A    between atoms: SD_5  and  C5'_9 
REMARK    7  A    between atoms: C5'_9  and  C4'_10 
REMARK    8  A    between atoms: C3'_12  and  O3'_13 
REMARK    9  A    between atoms: C2'_14  and  O2'_15 
REMARK   10  A    between atoms: C1'_16  and  N9_17 
REMARK   11  A    between atoms: C6_21  and  N6_22 
ROOT
ATOM      1  C4' SAH d   1       5.409 -16.368 -11.218  0.00  0.00     0.076 C 
ATOM      2  O4' SAH d   1       4.431 -16.481 -10.232  0.00  0.00    -0.355 OA
ATOM      3  C3' SAH d   1       6.348 -17.532 -10.933  0.00  0.00     0.090 C 
ATOM      4  C2' SAH d   1       6.461 -17.453  -9.410  0.00  0.00     0.105 C 
ATOM      5  C1' SAH d   1       5.021 -17.098  -9.045  0.00  0.00     0.139 C 
ATOM      6  H11 SAH d   1       5.949 -15.412 -11.142  0.00  0.00     0.088 H 
ATOM      7  H12 SAH d   1       5.947 -18.498 -11.272  0.00  0.00     0.091 H 
ATOM      8  H14 SAH d   1       6.772 -18.414  -8.974  0.00  0.00     0.093 H 
ATOM      9  H16 SAH d   1       5.050 -16.362  -8.228  0.00  0.00     0.122 H 
ENDROOT
BRANCH   1  10
ATOM     10  C5' SAH d   1       4.721 -16.464 -12.594  0.00  0.00     0.003 C 
ATOM     11  H9  SAH d   1       4.063 -15.590 -12.713  0.00  0.00     0.052 H 
ATOM     12  H10 SAH d   1       5.499 -16.446 -13.371  0.00  0.00     0.052 H 
BRANCH  10  13
ATOM     13  SD  SAH d   1       3.711 -17.982 -12.824  0.00  0.00    -0.166 SA
BRANCH  13  14
ATOM     14  CG  SAH d   1       4.794 -18.849 -14.021  0.00  0.00    -0.021 C 
ATOM     15  H7  SAH d   1       4.373 -18.718 -15.029  0.00  0.00     0.049 H 
ATOM     16  H8  SAH d   1       5.794 -18.392 -13.979  0.00  0.00     0.049 H 
BRANCH  14  17
ATOM     17  CB  SAH d   1       4.936 -20.339 -13.751  0.00  0.00    -0.021 C 
ATOM     18  H5  SAH d   1       4.965 -20.512 -12.665  0.00  0.00     0.037 H 
ATOM     19  H6  SAH d   1       4.077 -20.872 -14.184  0.00  0.00     0.037 H 
BRANCH  17  20
ATOM     20  CA  SAH d   1       6.227 -20.858 -14.383  0.00  0.00     0.183 C 
ATOM     21  H4  SAH d   1       6.968 -20.045 -14.358  0.00  0.00     0.101 H 
BRANCH  20  22
ATOM     22  N   SAH d   1       6.014 -21.232 -15.795  0.00  0.00    -0.065 N 
ATOM     23  H1  SAH d   1       5.646 -20.441 -16.300  0.00  0.00     0.275 HD
ATOM     24  H2  SAH d   1       5.359 -21.997 -15.845  0.00  0.00     0.275 HD
ATOM     25  H3  SAH d   1       6.891 -21.513 -16.204  0.00  0.00     0.275 HD
ENDBRANCH  20  22
BRANCH  20  26
ATOM     26  C   SAH d   1       6.792 -22.042 -13.568  0.00  0.00     0.204 C 
ATOM     27  O   SAH d   1       6.374 -23.195 -13.840  0.00  0.00    -0.646 OA
ATOM     28  OXT SAH d   1       7.617 -21.763 -12.672  0.00  0.00    -0.646 OA
ENDBRANCH  20  26
ENDBRANCH  17  20
ENDBRANCH  14  17
ENDBRANCH  13  14
ENDBRANCH  10  13
ENDBRANCH   1  10
BRANCH   3  29
ATOM     29  O3' SAH d   1       7.607 -17.254 -11.557  0.00  0.00    -0.390 OA
ATOM     30  H13 SAH d   1       8.207 -17.971 -11.390  0.00  0.00     0.210 HD
ENDBRANCH   3  29
BRANCH   5  31
ATOM     31  N9  SAH d   1       4.148 -18.240  -8.592  0.00  0.00    -0.294 N 
ATOM     32  C8  SAH d   1       3.029 -18.668  -9.198  0.00  0.00     0.071 A 
ATOM     33  N7  SAH d   1       2.500 -19.663  -8.462  0.00  0.00    -0.236 NA
ATOM     34  H17 SAH d   1       2.619 -18.276 -10.128  0.00  0.00     0.144 H 
ATOM     35  C5  SAH d   1       3.262 -19.823  -7.370  0.00  0.00     0.149 A 
ATOM     36  C6  SAH d   1       3.170 -20.667  -6.324  0.00  0.00     0.155 A 
ATOM     37  C4  SAH d   1       4.291 -18.966  -7.467  0.00  0.00     0.167 A 
ATOM     38  N1  SAH d   1       4.067 -20.684  -5.337  0.00  0.00    -0.222 NA
ATOM     39  C2  SAH d   1       5.142 -19.780  -5.378  0.00  0.00     0.091 A 
ATOM     40  N3  SAH d   1       5.214 -18.921  -6.499  0.00  0.00    -0.222 NA
ATOM     41  H20 SAH d   1       5.882 -19.743  -4.587  0.00  0.00     0.146 H 
BRANCH  36  42
ATOM     42  N6  SAH d   1       2.175 -21.568  -6.338  0.00  0.00    -0.382 N 
ATOM     43  H18 SAH d   1       2.070 -22.231  -5.557  0.00  0.00     0.157 HD
ATOM     44  H19 SAH d   1       1.517 -21.596  -7.130  0.00  0.00     0.157 HD
ENDBRANCH  36  42
ENDBRANCH   5  31
BRANCH   4  45
ATOM     45  O2' SAH d   1       7.400 -16.370  -8.972  0.00  0.00    -0.388 OA
ATOM     46  H15 SAH d   1       8.265 -16.540  -9.326  0.00  0.00     0.210 HD
ENDBRANCH   4  45
TORSDOF 11
