REMARK  9 active torsions:
REMARK  status: ('A' for Active; 'I' for Inactive)
REMARK    1  A    between atoms: CAA_1  and  CAK_2 
REMARK    2  A    between atoms: CAK_2  and  NAZ_3 
REMARK    3  A    between atoms: NAZ_3  and  CAL_4 
REMARK    4  A    between atoms: NAZ_3  and  CAN_6 
REMARK    5  A    between atoms: CAL_4  and  CAB_5 
REMARK    6  A    between atoms: CAN_6  and  CAU_7 
REMARK    7  A    between atoms: CAT_12  and  CAM_13 
REMARK    8  A    between atoms: CAM_13  and  NAP_14 
REMARK       I    between atoms: NAP_14  and  CAS_15 
REMARK    9  A    between atoms: CAS_15  and  CAV_17 
ROOT
ATOM      1  CAU MOL d   1      47.091 119.213  18.394  0.00  0.00    -0.033 A 
ATOM      2  CAH MOL d   1      46.342 119.662  17.297  0.00  0.00    -0.075 A 
ATOM      3  CAF MOL d   1      45.213 118.965  16.849  0.00  0.00    -0.075 A 
ATOM      4  CAG MOL d   1      46.738 118.016  19.035  0.00  0.00    -0.075 A 
ATOM      5  CAE MOL d   1      45.612 117.311  18.590  0.00  0.00    -0.075 A 
ATOM      6  CAT MOL d   1      44.844 117.798  17.515  0.00  0.00    -0.041 A 
ATOM      7  H14 MOL d   1      46.643 120.568  16.785  0.00  0.00     0.084 H 
ATOM      8  H15 MOL d   1      44.639 119.325  16.003  0.00  0.00     0.084 H 
ATOM      9  H16 MOL d   1      47.328 117.642  19.863  0.00  0.00     0.084 H 
ATOM     10  H17 MOL d   1      45.330 116.384  19.077  0.00  0.00     0.084 H 
ENDROOT
BRANCH   6  11
ATOM     11  CAM MOL d   1      43.734 117.105  17.096  0.00  0.00     0.019 C 
ATOM     12  H18 MOL d   1      42.981 117.802  16.700  0.00  0.00     0.071 H 
ATOM     13  H19 MOL d   1      43.304 116.537  17.934  0.00  0.00     0.071 H 
BRANCH  11  14
ATOM     14  NAP MOL d   1      44.175 116.193  16.047  0.00  0.00    -0.353 N 
ATOM     15  CAS MOL d   1      44.017 114.869  16.109  0.00  0.00     0.253 C 
ATOM     16  OAC MOL d   1      43.511 114.344  17.108  0.00  0.00    -0.268 OA
ATOM     17  H20 MOL d   1      44.619 116.580  15.239  0.00  0.00     0.163 HD
BRANCH  15  18
ATOM     18  CAV MOL d   1      44.456 114.100  15.069  0.00  0.00     0.057 A 
ATOM     19  CAY MOL d   1      44.841 114.477  13.790  0.00  0.00     0.084 A 
ATOM     20  CAW MOL d   1      44.918 115.680  13.132  0.00  0.00     0.282 A 
ATOM     21  CAX MOL d   1      45.183 113.382  13.043  0.00  0.00     0.091 A 
ATOM     22  OAD MOL d   1      44.601 116.764  13.638  0.00  0.00    -0.265 OA
ATOM     23  NAQ MOL d   1      45.369 115.769  11.769  0.00  0.00    -0.205 NA
ATOM     24  CAI MOL d   1      45.659 114.682  11.086  0.00  0.00     0.068 A 
ATOM     25  NAO MOL d   1      45.546 113.464  11.754  0.00  0.00    -0.344 N 
ATOM     26  H21 MOL d   1      45.974 114.732  10.045  0.00  0.00     0.143 H 
ATOM     27  H22 MOL d   1      45.749 112.595  11.239  0.00  0.00     0.167 HD
ATOM     28  SAR MOL d   1      44.971 111.972  13.933  0.00  0.00    -0.082 SA
ATOM     29  CAJ MOL d   1      44.435 112.764  15.295  0.00  0.00    -0.027 A 
ATOM     30  H23 MOL d   1      44.118 112.285  16.220  0.00  0.00     0.096 H 
ENDBRANCH  15  18
ENDBRANCH  11  14
ENDBRANCH   6  11
BRANCH   1  31
ATOM     31  CAN MOL d   1      48.196 119.959  18.822  0.00  0.00     0.107 C 
ATOM     32  H12 MOL d   1      49.009 119.267  19.088  0.00  0.00     0.083 H 
ATOM     33  H13 MOL d   1      48.524 120.610  17.998  0.00  0.00     0.083 H 
BRANCH  31  34
ATOM     34  NAZ MOL d   1      47.880 120.804  20.004  0.00  0.00    -0.068 N 
ATOM     35  H6  MOL d   1      46.893 120.766  20.205  0.00  0.00     0.280 HD
BRANCH  34  36
ATOM     36  CAK MOL d   1      48.259 122.209  19.676  0.00  0.00     0.081 C 
ATOM     37  H4  MOL d   1      49.357 122.274  19.676  0.00  0.00     0.075 H 
ATOM     38  H5  MOL d   1      47.878 122.438  18.670  0.00  0.00     0.075 H 
BRANCH  36  39
ATOM     39  CAA MOL d   1      47.715 123.282  20.650  0.00  0.00    -0.053 C 
ATOM     40  H1  MOL d   1      48.048 124.278  20.322  0.00  0.00     0.029 H 
ATOM     41  H2  MOL d   1      48.094 123.084  21.663  0.00  0.00     0.029 H 
ATOM     42  H3  MOL d   1      46.616 123.248  20.657  0.00  0.00     0.029 H 
ENDBRANCH  36  39
ENDBRANCH  34  36
BRANCH  34  43
ATOM     43  CAL MOL d   1      48.639 120.260  21.167  0.00  0.00     0.081 C 
ATOM     44  H7  MOL d   1      49.482 120.934  21.381  0.00  0.00     0.075 H 
ATOM     45  H8  MOL d   1      49.024 119.265  20.899  0.00  0.00     0.075 H 
BRANCH  43  46
ATOM     46  CAB MOL d   1      47.784 120.127  22.440  0.00  0.00    -0.053 C 
ATOM     47  H9  MOL d   1      48.401 119.722  23.256  0.00  0.00     0.029 H 
ATOM     48  H10 MOL d   1      46.941 119.447  22.246  0.00  0.00     0.029 H 
ATOM     49  H11 MOL d   1      47.399 121.116  22.728  0.00  0.00     0.029 H 
ENDBRANCH  43  46
ENDBRANCH  34  43
ENDBRANCH  31  34
ENDBRANCH   1  31
TORSDOF 9
