REMARK  13 active torsions:
REMARK  status: ('A' for Active; 'I' for Inactive)
REMARK    1  A    between atoms: CAA_1  and  CAJ_2 
REMARK    2  A    between atoms: CAJ_2  and  CAK_3 
REMARK    3  A    between atoms: CAK_3  and  CAL_4 
REMARK    4  A    between atoms: CAL_4  and  CAM_5 
REMARK    5  A    between atoms: CAM_5  and  CAN_6 
REMARK    6  A    between atoms: CAN_6  and  CAO_7 
REMARK    7  A    between atoms: CAO_7  and  CAP_8 
REMARK    8  A    between atoms: CAP_8  and  NAT_9 
REMARK    9  A    between atoms: NAT_9  and  CAQ_10 
REMARK   10  A    between atoms: CAQ_10  and  CAY_11 
REMARK   11  A    between atoms: CAZ_16  and  CAR_17 
REMARK   12  A    between atoms: CAR_17  and  NAU_18 
REMARK       I    between atoms: NAU_18  and  CAX_19 
REMARK   13  A    between atoms: CAX_19  and  CBA_21 
ROOT
ATOM      1  CAQ MOL d   1      48.477 120.783  18.224  0.00  0.00     0.105 C 
ATOM      2  H20 MOL d   1      48.104 121.779  17.945  0.00  0.00     0.083 H 
ATOM      3  H21 MOL d   1      48.737 120.775  19.293  0.00  0.00     0.083 H 
ENDROOT
BRANCH   1   4
ATOM      4  NAT MOL d   1      49.706 120.503  17.439  0.00  0.00    -0.071 N 
ATOM      5  H18 MOL d   1      50.297 119.892  17.981  0.00  0.00     0.277 HD
ATOM      6  H19 MOL d   1      49.438 120.040  16.584  0.00  0.00     0.277 HD
BRANCH   4   7
ATOM      7  CAP MOL d   1      50.488 121.724  17.088  0.00  0.00     0.082 C 
ATOM      8  H16 MOL d   1      51.288 121.433  16.391  0.00  0.00     0.075 H 
ATOM      9  H17 MOL d   1      49.812 122.437  16.593  0.00  0.00     0.075 H 
BRANCH   7  10
ATOM     10  CAO MOL d   1      51.136 122.432  18.307  0.00  0.00    -0.043 C 
ATOM     11  H14 MOL d   1      50.603 123.375  18.498  0.00  0.00     0.035 H 
ATOM     12  H15 MOL d   1      51.050 121.778  19.187  0.00  0.00     0.035 H 
BRANCH  10  13
ATOM     13  CAN MOL d   1      52.621 122.740  18.056  0.00  0.00    -0.064 C 
ATOM     14  H12 MOL d   1      53.216 121.839  18.264  0.00  0.00     0.033 H 
ATOM     15  H13 MOL d   1      52.755 123.034  17.005  0.00  0.00     0.033 H 
BRANCH  13  16
ATOM     16  CAM MOL d   1      53.103 123.883  18.965  0.00  0.00    -0.065 C 
ATOM     17  H10 MOL d   1      53.675 124.604  18.363  0.00  0.00     0.033 H 
ATOM     18  H11 MOL d   1      52.229 124.385  19.406  0.00  0.00     0.033 H 
BRANCH  16  19
ATOM     19  CAL MOL d   1      54.000 123.347  20.097  0.00  0.00    -0.065 C 
ATOM     20  H8  MOL d   1      53.817 122.270  20.224  0.00  0.00     0.033 H 
ATOM     21  H9  MOL d   1      55.055 123.511  19.831  0.00  0.00     0.033 H 
BRANCH  19  22
ATOM     22  CAK MOL d   1      53.692 124.073  21.423  0.00  0.00    -0.065 C 
ATOM     23  H6  MOL d   1      53.016 124.918  21.223  0.00  0.00     0.033 H 
ATOM     24  H7  MOL d   1      53.205 123.370  22.114  0.00  0.00     0.033 H 
BRANCH  22  25
ATOM     25  CAJ MOL d   1      54.983 124.603  22.071  0.00  0.00    -0.069 C 
ATOM     26  H4  MOL d   1      55.421 123.818  22.705  0.00  0.00     0.032 H 
ATOM     27  H5  MOL d   1      55.699 124.880  21.283  0.00  0.00     0.032 H 
BRANCH  25  28
ATOM     28  CAA MOL d   1      54.673 125.836  22.931  0.00  0.00    -0.077 C 
ATOM     29  H1  MOL d   1      55.602 126.206  23.389  0.00  0.00     0.027 H 
ATOM     30  H2  MOL d   1      53.959 125.562  23.721  0.00  0.00     0.027 H 
ATOM     31  H3  MOL d   1      54.236 126.624  22.299  0.00  0.00     0.027 H 
ENDBRANCH  25  28
ENDBRANCH  22  25
ENDBRANCH  19  22
ENDBRANCH  16  19
ENDBRANCH  13  16
ENDBRANCH  10  13
ENDBRANCH   7  10
ENDBRANCH   4   7
ENDBRANCH   1   4
BRANCH   1  32
ATOM     32  CAY MOL d   1      47.453 119.848  18.008  0.00  0.00    -0.033 A 
ATOM     33  CAE MOL d   1      47.397 118.643  18.734  0.00  0.00    -0.075 A 
ATOM     34  CAG MOL d   1      46.351 117.735  18.506  0.00  0.00    -0.075 A 
ATOM     35  H22 MOL d   1      48.161 118.416  19.469  0.00  0.00     0.084 H 
ATOM     36  CAZ MOL d   1      45.330 118.036  17.580  0.00  0.00    -0.041 A 
ATOM     37  H23 MOL d   1      46.328 116.795  19.046  0.00  0.00     0.084 H 
ATOM     38  CAF MOL d   1      45.375 119.250  16.884  0.00  0.00    -0.075 A 
ATOM     39  CAD MOL d   1      46.437 120.140  17.084  0.00  0.00    -0.075 A 
ATOM     40  H25 MOL d   1      44.584 119.502  16.187  0.00  0.00     0.084 H 
ATOM     41  H24 MOL d   1      46.475 121.065  16.519  0.00  0.00     0.084 H 
BRANCH  36  42
ATOM     42  CAR MOL d   1      44.265 117.144  17.365  0.00  0.00     0.019 C 
ATOM     43  H26 MOL d   1      43.338 117.714  17.208  0.00  0.00     0.071 H 
ATOM     44  H27 MOL d   1      44.151 116.493  18.244  0.00  0.00     0.071 H 
BRANCH  42  45
ATOM     45  NAU MOL d   1      44.535 116.319  16.181  0.00  0.00    -0.353 N 
ATOM     46  CAX MOL d   1      44.505 114.983  16.220  0.00  0.00     0.253 C 
ATOM     47  OAB MOL d   1      44.273 114.423  17.297  0.00  0.00    -0.268 OA
ATOM     48  H28 MOL d   1      44.749 116.772  15.316  0.00  0.00     0.163 HD
BRANCH  46  49
ATOM     49  CBA MOL d   1      44.833 114.237  15.101  0.00  0.00     0.057 A 
ATOM     50  CBD MOL d   1      45.197 114.624  13.808  0.00  0.00     0.084 A 
ATOM     51  CBB MOL d   1      45.264 115.837  13.160  0.00  0.00     0.282 A 
ATOM     52  CBC MOL d   1      45.512 113.537  13.017  0.00  0.00     0.091 A 
ATOM     53  OAC MOL d   1      45.031 116.937  13.693  0.00  0.00    -0.265 OA
ATOM     54  NAV MOL d   1      45.625 115.917  11.783  0.00  0.00    -0.205 NA
ATOM     55  CAH MOL d   1      45.915 114.847  11.067  0.00  0.00     0.068 A 
ATOM     56  NAS MOL d   1      45.883 113.618  11.722  0.00  0.00    -0.344 N 
ATOM     57  H29 MOL d   1      46.168 114.922  10.011  0.00  0.00     0.143 H 
ATOM     58  H30 MOL d   1      46.145 112.762  11.213  0.00  0.00     0.167 HD
ATOM     59  SAW MOL d   1      45.341 112.139  13.843  0.00  0.00    -0.082 SA
ATOM     60  CAI MOL d   1      44.888 112.901  15.306  0.00  0.00    -0.027 A 
ATOM     61  H31 MOL d   1      44.678 112.394  16.247  0.00  0.00     0.096 H 
ENDBRANCH  46  49
ENDBRANCH  42  45
ENDBRANCH  36  42
ENDBRANCH   1  32
TORSDOF 13
