REMARK WARNING: 32 MAX_TORS EXCEEDED!!!
REMARK  40 active torsions:
REMARK  status: ('A' for Active; 'I' for Inactive)
REMARK    1  A    between atoms: N_1  and  CA_2 
REMARK    2  A    between atoms: CA_2  and  C_3 
REMARK    3  A    between atoms: CA_2  and  CB_5 
REMARK       I    between atoms: C_3  and  N_7 
REMARK    4  A    between atoms: CB_5  and  OG_6 
REMARK    5  A    between atoms: CA_8  and  C_9 
REMARK       I    between atoms: C_9  and  N_14 
REMARK    6  A    between atoms: N_14  and  CA_15 
REMARK    7  A    between atoms: CA_15  and  C_16 
REMARK    8  A    between atoms: CA_15  and  CB_18 
REMARK       I    between atoms: C_16  and  N_20 
REMARK    9  A    between atoms: CB_18  and  OG_19 
REMARK   10  A    between atoms: N_20  and  CA_21 
REMARK   11  A    between atoms: CA_21  and  CB_22 
REMARK   12  A    between atoms: CA_21  and  C_24 
REMARK   13  A    between atoms: CB_22  and  OG_23 
REMARK   14  A    between atoms: OG_23  and  P_26 
REMARK       I    between atoms: C_24  and  N_30 
REMARK   15  A    between atoms: N_30  and  CA_31 
REMARK   16  A    between atoms: CA_31  and  C_32 
REMARK   17  A    between atoms: CA_31  and  CB_34 
REMARK       I    between atoms: C_32  and  N_35 
REMARK   18  A    between atoms: N_35  and  CA_36 
REMARK   19  A    between atoms: CA_36  and  C_37 
REMARK   20  A    between atoms: CA_36  and  CB_39 
REMARK       I    between atoms: C_37  and  N_44 
REMARK   21  A    between atoms: CB_39  and  CG_40 
REMARK   22  A    between atoms: CG_40  and  CD_41 
REMARK   23  A    between atoms: CD_41  and  CE_42 
REMARK   24  A    between atoms: CE_42  and  NZ_43 
REMARK   25  A    between atoms: N_44  and  CA_45 
REMARK   26  A    between atoms: CA_45  and  C_46 
REMARK   27  A    between atoms: CA_45  and  CB_48 
REMARK       I    between atoms: C_46  and  N_50 
REMARK   28  A    between atoms: CB_48  and  OG_49 
REMARK   29  A    between atoms: N_50  and  CA_51 
REMARK   30  A    between atoms: CA_51  and  C_52 
REMARK   31  A    between atoms: CA_51  and  CB_54 
REMARK       I    between atoms: C_52  and  N_61 
REMARK   32  A    between atoms: CB_54  and  CG_55 
REMARK   33  A    between atoms: CG_55  and  CD_56 
REMARK   34  A    between atoms: CD_56  and  NE_57 
REMARK       I    between atoms: NE_57  and  CZ_58 
REMARK       I    between atoms: CZ_58  and  NH1_59 
REMARK   35  A    between atoms: N_61  and  CA_62 
REMARK   36  A    between atoms: CA_62  and  C_63 
REMARK   37  A    between atoms: CA_62  and  CB_65 
REMARK   38  A    between atoms: CB_65  and  CG_66 
REMARK   39  A    between atoms: CG_66  and  CD1_67 
REMARK   40  A    between atoms: CG_66  and  CD2_68 
ROOT
ATOM      1  CA  LYS d   1     -21.870-109.015  77.160  0.00  0.00     0.089 C 
ATOM      2  H30 LYS d   1     -21.579-109.074  76.101  0.00  0.00     0.087 H 
ENDROOT
BRANCH   1   3
ATOM      3  N   LYS d   1     -22.784-110.114  77.441  0.00  0.00    -0.346 N 
ATOM      4  C   ALA d   1     -23.124-110.928  76.471  0.00  0.00     0.240 C 
ATOM      5  O   ALA d   1     -22.713-110.817  75.343  0.00  0.00    -0.271 OA
ATOM      6  H29 LYS d   1     -23.148-110.246  78.363  0.00  0.00     0.163 HD
BRANCH   4   7
ATOM      7  CA  ALA d   1     -24.078-111.999  76.850  0.00  0.00     0.086 C 
ATOM      8  H25 ALA d   1     -24.633-111.663  77.738  0.00  0.00     0.086 H 
BRANCH   7   9
ATOM      9  N   ALA d   1     -25.021-112.268  75.809  0.00  0.00    -0.346 N 
ATOM     10  C   SEP d   1     -26.061-111.481  75.569  0.00  0.00     0.243 C 
ATOM     11  O   SEP d   1     -26.287-110.424  76.196  0.00  0.00    -0.271 OA
ATOM     12  H24 ALA d   1     -24.891-113.080  75.240  0.00  0.00     0.163 HD
BRANCH  10  13
ATOM     13  CA  SEP d   1     -26.986-111.929  74.481  0.00  0.00     0.110 C 
ATOM     14  H21 SEP d   1     -26.812-112.991  74.254  0.00  0.00     0.090 H 
BRANCH  13  15
ATOM     15  N   SEP d   1     -28.341-111.738  74.942  0.00  0.00    -0.344 N 
ATOM     16  C   SER d   1     -28.799-112.303  76.055  0.00  0.00     0.243 C 
ATOM     17  O   SER d   1     -28.156-113.053  76.747  0.00  0.00    -0.271 OA
ATOM     18  H20 SEP d   1     -28.956-111.161  74.405  0.00  0.00     0.163 HD
BRANCH  16  19
ATOM     19  CA  SER d   1     -30.208-111.938  76.441  0.00  0.00     0.109 C 
ATOM     20  H16 SER d   1     -30.797-111.744  75.532  0.00  0.00     0.090 H 
BRANCH  19  21
ATOM     21  N   SER d   1     -30.864-112.984  77.212  0.00  0.00    -0.344 N 
ATOM     22  C   PRO d   1     -31.295-114.130  76.712  0.00  0.00     0.241 C 
ATOM     23  O   PRO d   1     -31.299-114.360  75.502  0.00  0.00    -0.271 OA
ATOM     24  H15 SER d   1     -30.998-112.825  78.190  0.00  0.00     0.163 HD
BRANCH  22  25
ATOM     25  CA  PRO d   1     -31.780-115.147  77.733  0.00  0.00     0.091 C 
ATOM     26  N   PRO d   1     -32.679-116.148  77.152  0.00  0.00    -0.337 N 
ATOM     27  C   SER d   1     -33.878-115.796  76.688  0.00  0.00     0.253 C 
ATOM     28  CD  PRO d   1     -32.120-117.505  77.257  0.00  0.00    -0.001 C 
ATOM     29  O   SER d   1     -34.233-114.624  76.586  0.00  0.00    -0.271 OA
ATOM     30  CG  PRO d   1     -31.110-117.370  78.368  0.00  0.00    -0.048 C 
ATOM     31  H13 PRO d   1     -31.636-117.807  76.317  0.00  0.00     0.064 H 
ATOM     32  H14 PRO d   1     -32.900-118.235  77.519  0.00  0.00     0.064 H 
ATOM     33  CB  PRO d   1     -30.604-115.983  78.260  0.00  0.00    -0.036 C 
ATOM     34  H11 PRO d   1     -31.587-117.532  79.346  0.00  0.00     0.035 H 
ATOM     35  H12 PRO d   1     -30.291-118.092  78.235  0.00  0.00     0.035 H 
ATOM     36  H9  PRO d   1     -30.284-115.615  79.246  0.00  0.00     0.036 H 
ATOM     37  H10 PRO d   1     -29.758-115.938  77.559  0.00  0.00     0.036 H 
ATOM     38  H8  PRO d   1     -32.281-114.616  78.556  0.00  0.00     0.087 H 
BRANCH  27  39
ATOM     39  CA  SER d   1     -34.804-116.936  76.229  0.00  0.00     0.196 C 
ATOM     40  H4  SER d   1     -34.478-117.859  76.731  0.00  0.00     0.102 H 
BRANCH  39  41
ATOM     41  N   SER d   1     -36.212-116.719  76.568  0.00  0.00    -0.064 N 
ATOM     42  H1  SER d   1     -36.760-117.499  76.240  0.00  0.00     0.275 HD
ATOM     43  H2  SER d   1     -36.537-115.872  76.129  0.00  0.00     0.275 HD
ATOM     44  H3  SER d   1     -36.308-116.637  77.568  0.00  0.00     0.275 HD
ENDBRANCH  39  41
BRANCH  39  45
ATOM     45  CB  SER d   1     -34.650-117.122  74.727  0.00  0.00     0.051 C 
ATOM     46  H5  SER d   1     -35.308-117.937  74.390  0.00  0.00     0.077 H 
ATOM     47  H6  SER d   1     -33.605-117.375  74.495  0.00  0.00     0.077 H 
BRANCH  45  48
ATOM     48  OG  SER d   1     -35.004-115.925  74.060  0.00  0.00    -0.398 OA
ATOM     49  H7  SER d   1     -34.435-115.222  74.351  0.00  0.00     0.209 HD
ENDBRANCH  45  48
ENDBRANCH  39  45
ENDBRANCH  27  39
ENDBRANCH  22  25
ENDBRANCH  19  21
BRANCH  19  50
ATOM     50  CB  SER d   1     -30.114-110.681  77.274  0.00  0.00     0.044 C 
ATOM     51  H17 SER d   1     -29.505-109.941  76.734  0.00  0.00     0.077 H 
ATOM     52  H18 SER d   1     -29.632-110.924  78.232  0.00  0.00     0.077 H 
BRANCH  50  53
ATOM     53  OG  SER d   1     -31.358-110.136  77.526  0.00  0.00    -0.398 OA
ATOM     54  H19 SER d   1     -31.258-109.350  78.050  0.00  0.00     0.209 HD
ENDBRANCH  50  53
ENDBRANCH  19  50
ENDBRANCH  16  19
ENDBRANCH  13  15
BRANCH  13  55
ATOM     55  CB  SEP d   1     -26.748-111.092  73.230  0.00  0.00     0.059 C 
ATOM     56  H22 SEP d   1     -26.708-111.751  72.350  0.00  0.00     0.079 H 
ATOM     57  H23 SEP d   1     -25.795-110.551  73.326  0.00  0.00     0.079 H 
BRANCH  55  58
ATOM     58  OG  SEP d   1     -27.812-110.156  73.075  0.00  0.00    -0.280 OA
BRANCH  58  59
ATOM     59  P   SEP d   1     -27.930-109.266  71.738  0.00  0.00     0.422 P 
ATOM     60  O1P SEP d   1     -26.587-109.436  71.068  0.00  0.00    -0.617 OA
ATOM     61  O2P SEP d   1     -29.084-109.887  70.988  0.00  0.00    -0.617 OA
ATOM     62  O3P SEP d   1     -28.198-107.872  72.252  0.00  0.00    -0.617 OA
ENDBRANCH  58  59
ENDBRANCH  55  58
ENDBRANCH  13  55
ENDBRANCH  10  13
ENDBRANCH   7   9
BRANCH   7  63
ATOM     63  CB  ALA d   1     -23.336-113.255  77.198  0.00  0.00    -0.049 C 
ATOM     64  H26 ALA d   1     -22.612-113.043  77.999  0.00  0.00     0.030 H 
ATOM     65  H27 ALA d   1     -22.802-113.624  76.310  0.00  0.00     0.030 H 
ATOM     66  H28 ALA d   1     -24.049-114.019  77.541  0.00  0.00     0.030 H 
ENDBRANCH   7  63
ENDBRANCH   4   7
ENDBRANCH   1   3
BRANCH   1  67
ATOM     67  C   LYS d   1     -20.612-109.139  78.005  0.00  0.00     0.241 C 
ATOM     68  O   LYS d   1     -20.333-108.281  78.848  0.00  0.00    -0.271 OA
ATOM     69  N   SER d   1     -19.841-110.200  77.787  0.00  0.00    -0.344 N 
ATOM     70  H42 SER d   1     -20.137-110.902  77.140  0.00  0.00     0.163 HD
BRANCH  69  71
ATOM     71  CA  SER d   1     -18.571-110.350  78.480  0.00  0.00     0.109 C 
ATOM     72  H43 SER d   1     -18.492-109.552  79.233  0.00  0.00     0.090 H 
BRANCH  71  73
ATOM     73  C   SER d   1     -17.418-110.191  77.501  0.00  0.00     0.243 C 
ATOM     74  O   SER d   1     -16.850-109.101  77.355  0.00  0.00    -0.271 OA
ATOM     75  N   ARG d   1     -17.133-111.206  76.744  0.00  0.00    -0.346 N 
ATOM     76  H47 ARG d   1     -17.663-112.050  76.829  0.00  0.00     0.163 HD
BRANCH  75  77
ATOM     77  CA  ARG d   1     -16.068-111.132  75.787  0.00  0.00     0.089 C 
ATOM     78  H48 ARG d   1     -15.367-110.335  76.077  0.00  0.00     0.087 H 
BRANCH  77  79
ATOM     79  C   ARG d   1     -16.670-110.822  74.462  0.00  0.00     0.241 C 
ATOM     80  O   ARG d   1     -17.787-111.190  74.193  0.00  0.00    -0.271 OA
ATOM     81  N   LEU d   1     -15.909-110.121  73.650  0.00  0.00    -0.345 N 
ATOM     82  H60 LEU d   1     -14.992-109.854  73.948  0.00  0.00     0.163 HD
BRANCH  81  83
ATOM     83  CA  LEU d   1     -16.374-109.723  72.321  0.00  0.00     0.096 C 
ATOM     84  H61 LEU d   1     -17.426-109.409  72.394  0.00  0.00     0.089 H 
BRANCH  83  85
ATOM     85  C   LEU d   1     -16.277-110.904  71.375  0.00  0.00     0.196 C 
ATOM     86  O   LEU d   1     -15.285-111.630  71.402  0.00  0.00    -0.646 OA
ATOM     87  OXT LEU d   1     -17.191-111.131  70.584  0.00  0.00    -0.646 OA
ENDBRANCH  83  85
BRANCH  83  88
ATOM     88  CB  LEU d   1     -15.548-108.551  71.775  0.00  0.00    -0.034 C 
ATOM     89  H62 LEU d   1     -15.947-108.306  70.779  0.00  0.00     0.037 H 
ATOM     90  H63 LEU d   1     -14.509-108.900  71.678  0.00  0.00     0.037 H 
BRANCH  88  91
ATOM     91  CG  LEU d   1     -15.518-107.273  72.572  0.00  0.00    -0.059 C 
ATOM     92  H64 LEU d   1     -14.757-107.399  73.356  0.00  0.00     0.038 H 
BRANCH  91  93
ATOM     93  CD1 LEU d   1     -15.133-106.115  71.761  0.00  0.00    -0.073 C 
ATOM     94  H65 LEU d   1     -15.127-105.213  72.390  0.00  0.00     0.028 H 
ATOM     95  H66 LEU d   1     -15.854-105.986  70.941  0.00  0.00     0.028 H 
ATOM     96  H67 LEU d   1     -14.128-106.277  71.344  0.00  0.00     0.028 H 
ENDBRANCH  91  93
BRANCH  91  97
ATOM     97  CD2 LEU d   1     -16.811-106.994  73.239  0.00  0.00    -0.073 C 
ATOM     98  H68 LEU d   1     -17.104-107.861  73.849  0.00  0.00     0.028 H 
ATOM     99  H69 LEU d   1     -17.582-106.804  72.478  0.00  0.00     0.028 H 
ATOM    100  H70 LEU d   1     -16.707-106.110  73.885  0.00  0.00     0.028 H 
ENDBRANCH  91  97
ENDBRANCH  88  91
ENDBRANCH  83  88
ENDBRANCH  81  83
ENDBRANCH  77  79
BRANCH  77 101
ATOM    101  CB  ARG d   1     -15.322-112.443  75.696  0.00  0.00    -0.036 C 
ATOM    102  H49 ARG d   1     -14.497-112.426  76.423  0.00  0.00     0.036 H 
ATOM    103  H50 ARG d   1     -14.913-112.541  74.680  0.00  0.00     0.036 H 
BRANCH 101 104
ATOM    104  CG  ARG d   1     -16.183-113.643  75.981  0.00  0.00    -0.048 C 
ATOM    105  H51 ARG d   1     -17.194-113.454  75.591  0.00  0.00     0.035 H 
ATOM    106  H52 ARG d   1     -16.232-113.792  77.070  0.00  0.00     0.035 H 
BRANCH 104 107
ATOM    107  CD  ARG d   1     -15.647-114.896  75.346  0.00  0.00     0.009 C 
ATOM    108  H53 ARG d   1     -16.398-115.694  75.443  0.00  0.00     0.064 H 
ATOM    109  H54 ARG d   1     -14.725-115.194  75.868  0.00  0.00     0.064 H 
BRANCH 107 110
ATOM    110  NE  ARG d   1     -15.350-114.701  73.945  0.00  0.00    -0.227 N 
ATOM    111  CZ  ARG d   1     -14.377-115.328  73.316  0.00  0.00     0.665 C 
ATOM    112  NH1 ARG d   1     -13.614-116.192  73.977  0.00  0.00    -0.235 N 
ATOM    113  NH2 ARG d   1     -14.170-115.089  72.037  0.00  0.00    -0.235 N 
ATOM    114  H56 ARG d   1     -12.852-116.684  73.489  0.00  0.00     0.174 HD
ATOM    115  H57 ARG d   1     -13.784-116.369  74.977  0.00  0.00     0.174 HD
ATOM    116  H58 ARG d   1     -14.768-114.417  71.535  0.00  0.00     0.174 HD
ATOM    117  H59 ARG d   1     -13.410-115.574  71.539  0.00  0.00     0.174 HD
ATOM    118  H55 ARG d   1     -15.929-114.037  73.411  0.00  0.00     0.177 HD
ENDBRANCH 107 110
ENDBRANCH 104 107
ENDBRANCH 101 104
ENDBRANCH  77 101
ENDBRANCH  75  77
ENDBRANCH  71  73
BRANCH  71 119
ATOM    119  CB  SER d   1     -18.510-111.700  79.211  0.00  0.00     0.044 C 
ATOM    120  H44 SER d   1     -19.235-111.685  80.039  0.00  0.00     0.077 H 
ATOM    121  H45 SER d   1     -17.496-111.836  79.614  0.00  0.00     0.077 H 
BRANCH 119 122
ATOM    122  OG  SER d   1     -18.813-112.801  78.362  0.00  0.00    -0.398 OA
ATOM    123  H46 SER d   1     -18.761-113.608  78.861  0.00  0.00     0.209 HD
ENDBRANCH 119 122
ENDBRANCH  71 119
ENDBRANCH  69  71
ENDBRANCH   1  67
BRANCH   1 124
ATOM    124  CB  LYS d   1     -22.549-107.658  77.392  0.00  0.00    -0.038 C 
ATOM    125  H31 LYS d   1     -21.779-106.875  77.335  0.00  0.00     0.036 H 
ATOM    126  H32 LYS d   1     -22.992-107.664  78.399  0.00  0.00     0.036 H 
BRANCH 124 127
ATOM    127  CG  LYS d   1     -23.647-107.319  76.391  0.00  0.00    -0.061 C 
ATOM    128  H33 LYS d   1     -23.966-106.277  76.541  0.00  0.00     0.033 H 
ATOM    129  H34 LYS d   1     -24.503-107.991  76.550  0.00  0.00     0.033 H 
BRANCH 127 130
ATOM    130  CD  LYS d   1     -23.133-107.488  74.967  0.00  0.00    -0.043 C 
ATOM    131  H35 LYS d   1     -23.035-108.563  74.757  0.00  0.00     0.035 H 
ATOM    132  H36 LYS d   1     -22.146-107.008  74.894  0.00  0.00     0.035 H 
BRANCH 130 133
ATOM    133  CE  LYS d   1     -24.045-106.875  73.919  0.00  0.00     0.080 C 
ATOM    134  H37 LYS d   1     -23.495-106.798  72.969  0.00  0.00     0.075 H 
ATOM    135  H38 LYS d   1     -24.345-105.871  74.252  0.00  0.00     0.075 H 
BRANCH 133 136
ATOM    136  NZ  LYS d   1     -25.258-107.690  73.704  0.00  0.00    -0.079 N 
ATOM    137  H39 LYS d   1     -25.837-107.253  73.004  0.00  0.00     0.274 HD
ATOM    138  H40 LYS d   1     -25.772-107.762  74.568  0.00  0.00     0.274 HD
ATOM    139  H41 LYS d   1     -24.993-108.612  73.393  0.00  0.00     0.274 HD
ENDBRANCH 133 136
ENDBRANCH 130 133
ENDBRANCH 127 130
ENDBRANCH 124 127
ENDBRANCH   1 124
TORSDOF 40
