REMARK  7 active torsions:
REMARK  status: ('A' for Active; 'I' for Inactive)
REMARK    1  A    between atoms: C6_6  and  C5_5 
REMARK    2  A    between atoms: C5_5  and  C7_7 
REMARK    3  A    between atoms: C5_5  and  C9_9 
REMARK    4  A    between atoms: C8_8  and  C6_6 
REMARK    5  A    between atoms: C6_6  and  C10_10 
REMARK    6  A    between atoms: C7_7  and  C11_11 
REMARK    7  A    between atoms: C12_12  and  C8_8 
ROOT
ATOM      1  C5  MOL d   1      30.701 -49.285 -50.764  0.00  0.00    -0.051 C 
ATOM      2  H1  MOL d   1      31.120 -48.271 -50.841  0.00  0.00     0.040 H 
ENDROOT
BRANCH   1   3
ATOM      3  C6  MOL d   1      29.255 -49.130 -51.555  0.00  0.00    -0.051 C 
ATOM      4  H2  MOL d   1      29.610 -48.522 -52.400  0.00  0.00     0.040 H 
BRANCH   3   5
ATOM      5  C8  MOL d   1      27.769 -48.512 -51.374  0.00  0.00    -0.038 C 
ATOM      6  H5  MOL d   1      27.353 -49.072 -50.523  0.00  0.00     0.040 H 
ATOM      7  H6  MOL d   1      27.248 -48.806 -52.297  0.00  0.00     0.040 H 
BRANCH   5   8
ATOM      8  C12 MOL d   1      27.291 -47.048 -51.126  0.00  0.00    -0.055 A 
ATOM      9  C14 MOL d   1      27.135 -45.942 -52.010  0.00  0.00    -0.042 A 
ATOM     10  C18 MOL d   1      26.709 -44.704 -51.418  0.00  0.00     0.105 A 
ATOM     11  H14 MOL d   1      27.328 -46.030 -53.073  0.00  0.00     0.088 H 
ATOM     12  O2  MOL d   1      26.478 -43.444 -51.943  0.00  0.00    -0.323 OA
ATOM     13  C20 MOL d   1      26.383 -44.552 -49.988  0.00  0.00     0.105 A 
ATOM     14  C24 MOL d   1      26.227 -42.481 -50.884  0.00  0.00     0.115 C 
ATOM     15  O4  MOL d   1      25.991 -43.278 -49.701  0.00  0.00    -0.323 OA
ATOM     16  H21 MOL d   1      25.344 -41.868 -51.120  0.00  0.00     0.118 H 
ATOM     17  H22 MOL d   1      27.100 -41.827 -50.742  0.00  0.00     0.118 H 
ATOM     18  C22 MOL d   1      26.507 -45.623 -49.144  0.00  0.00    -0.047 A 
ATOM     19  C16 MOL d   1      26.922 -46.777 -49.804  0.00  0.00    -0.074 A 
ATOM     20  H18 MOL d   1      26.305 -45.578 -48.080  0.00  0.00     0.087 H 
ATOM     21  H16 MOL d   1      26.969 -47.647 -49.159  0.00  0.00     0.084 H 
ENDBRANCH   5   8
ENDBRANCH   3   5
BRANCH   3  22
ATOM     22  C10 MOL d   1      28.845 -50.456 -52.123  0.00  0.00    -0.072 C 
ATOM     23  H10 MOL d   1      29.741 -51.060 -52.328  0.00  0.00     0.028 H 
ATOM     24  H11 MOL d   1      28.288 -50.298 -53.058  0.00  0.00     0.028 H 
ATOM     25  H12 MOL d   1      28.205 -50.983 -51.400  0.00  0.00     0.028 H 
ENDBRANCH   3  22
ENDBRANCH   1   3
BRANCH   1  26
ATOM     26  C7  MOL d   1      31.487 -49.974 -49.574  0.00  0.00    -0.038 C 
ATOM     27  H3  MOL d   1      32.422 -50.352 -50.012  0.00  0.00     0.040 H 
ATOM     28  H4  MOL d   1      30.863 -50.821 -49.253  0.00  0.00     0.040 H 
BRANCH  26  29
ATOM     29  C11 MOL d   1      31.897 -49.236 -48.275  0.00  0.00    -0.055 A 
ATOM     30  C13 MOL d   1      32.014 -47.828 -48.159  0.00  0.00    -0.042 A 
ATOM     31  C17 MOL d   1      32.285 -47.262 -46.910  0.00  0.00     0.105 A 
ATOM     32  H13 MOL d   1      31.894 -47.196 -49.031  0.00  0.00     0.088 H 
ATOM     33  O1  MOL d   1      32.446 -45.951 -46.526  0.00  0.00    -0.323 OA
ATOM     34  C19 MOL d   1      32.451 -48.101 -45.727  0.00  0.00     0.105 A 
ATOM     35  C23 MOL d   1      32.546 -45.906 -45.076  0.00  0.00     0.115 C 
ATOM     36  O3  MOL d   1      32.701 -47.283 -44.658  0.00  0.00    -0.323 OA
ATOM     37  H19 MOL d   1      31.634 -45.472 -44.641  0.00  0.00     0.118 H 
ATOM     38  H20 MOL d   1      33.418 -45.310 -44.769  0.00  0.00     0.118 H 
ATOM     39  C21 MOL d   1      32.315 -49.489 -45.810  0.00  0.00    -0.047 A 
ATOM     40  C15 MOL d   1      32.050 -50.023 -47.089  0.00  0.00    -0.074 A 
ATOM     41  H17 MOL d   1      32.408 -50.124 -44.936  0.00  0.00     0.087 H 
ATOM     42  H15 MOL d   1      31.956 -51.099 -47.179  0.00  0.00     0.084 H 
ENDBRANCH  26  29
ENDBRANCH   1  26
BRANCH   1  43
ATOM     43  C9  MOL d   1      31.412 -50.366 -51.573  0.00  0.00    -0.072 C 
ATOM     44  H7  MOL d   1      31.132 -50.275 -52.633  0.00  0.00     0.028 H 
ATOM     45  H8  MOL d   1      31.116 -51.358 -51.200  0.00  0.00     0.028 H 
ATOM     46  H9  MOL d   1      32.500 -50.245 -51.470  0.00  0.00     0.028 H 
ENDBRANCH   1  43
TORSDOF 7
