REMARK WARNING: 32 MAX_TORS EXCEEDED!!!
REMARK  55 active torsions:
REMARK  status: ('A' for Active; 'I' for Inactive)
REMARK    1  A    between atoms: C_1  and  CH3_3 
REMARK       I    between atoms: N_4  and  C_1 
REMARK    2  A    between atoms: CA_5  and  N_4 
REMARK    3  A    between atoms: C_6  and  CA_5 
REMARK    4  A    between atoms: CA_5  and  CB_8 
REMARK       I    between atoms: N_13  and  C_6 
REMARK    5  A    between atoms: CB_8  and  CG_9 
REMARK    6  A    between atoms: CG_9  and  CD_10 
REMARK    7  A    between atoms: CD_10  and  CE_11 
REMARK    8  A    between atoms: CE_11  and  NZ_12 
REMARK    9  A    between atoms: CA_14  and  N_13 
REMARK   10  A    between atoms: C_15  and  CA_14 
REMARK   11  A    between atoms: CA_14  and  CB_17 
REMARK       I    between atoms: N_22  and  C_15 
REMARK   12  A    between atoms: CB_17  and  CG_18 
REMARK   13  A    between atoms: CG_18  and  CD_19 
REMARK   14  A    between atoms: CD_19  and  CE_20 
REMARK   15  A    between atoms: CE_20  and  NZ_21 
REMARK   16  A    between atoms: CA_23  and  N_22 
REMARK   17  A    between atoms: C_24  and  CA_23 
REMARK   18  A    between atoms: CA_23  and  CB_26 
REMARK       I    between atoms: N_33  and  C_24 
REMARK   19  A    between atoms: CB_26  and  CG_27 
REMARK   20  A    between atoms: CG_27  and  CD_28 
REMARK   21  A    between atoms: CD_28  and  NE_29 
REMARK       I    between atoms: NE_29  and  CZ_30 
REMARK       I    between atoms: CZ_30  and  NH1_31 
REMARK       I    between atoms: CZ_30  and  NH2_32 
REMARK   22  A    between atoms: CA_34  and  N_33 
REMARK   23  A    between atoms: C_35  and  CA_34 
REMARK   24  A    between atoms: CA_34  and  CB_37 
REMARK       I    between atoms: N_45  and  C_35 
REMARK   25  A    between atoms: CB_37  and  CG_38 
REMARK   26  A    between atoms: CZ_43  and  OH_44 
REMARK   27  A    between atoms: CA_46  and  N_45 
REMARK   28  A    between atoms: C_47  and  CA_46 
REMARK   29  A    between atoms: CA_46  and  CB_49 
REMARK       I    between atoms: N_51  and  C_47 
REMARK   30  A    between atoms: CB_49  and  OG_50 
REMARK   31  A    between atoms: CA_52  and  N_51 
REMARK   32  A    between atoms: C_53  and  CA_52 
REMARK   33  A    between atoms: CA_52  and  CB_55 
REMARK       I    between atoms: NAC_66  and  C_53 
REMARK   34  A    between atoms: CB_55  and  CG_56 
REMARK   35  A    between atoms: CG_56  and  CD_57 
REMARK   36  A    between atoms: CD_57  and  NE_58 
REMARK       I    between atoms: NE_58  and  CZ_59 
REMARK       I    between atoms: CZ_59  and  NH1_60 
REMARK       I    between atoms: CZ_59  and  NH2_61 
REMARK   37  A    between atoms: CAQ_64  and  CAA_65 
REMARK   38  A    between atoms: CAQ_64  and  NAC_66 
REMARK   39  A    between atoms: CA_72  and  CB_75 
REMARK   40  A    between atoms: CB_75  and  CG_76 
REMARK   41  A    between atoms: CG_76  and  CD_77 
REMARK       I    between atoms: CD_77  and  NE2_79 
REMARK   42  A    between atoms: CA_81  and  CB_84 
REMARK   43  A    between atoms: CB_84  and  CG_85 
REMARK   44  A    between atoms: CG_85  and  CD1_86 
REMARK   45  A    between atoms: CG_85  and  CD2_87 
REMARK   46  A    between atoms: CA_89  and  CB_92 
REMARK   47  A    between atoms: CB_92  and  CG_93 
REMARK   48  A    between atoms: CG_93  and  CD1_94 
REMARK   49  A    between atoms: CG_93  and  CD2_95 
REMARK   50  A    between atoms: CAQ_98  and  CAG_97 
REMARK       I    between atoms: CAG_97  and  N_105 
REMARK   51  A    between atoms: CAQ_98  and  CAA_99 
REMARK   52  A    between atoms: N_105  and  CA_106 
REMARK   53  A    between atoms: CA_106  and  C_107 
REMARK   54  A    between atoms: CA_106  and  CB_109 
REMARK       I    between atoms: C_107  and  N_116 
REMARK   55  A    between atoms: CB_109  and  CG_110 
ROOT
ATOM      1  CA  ACE d   1     -10.357   9.356   2.844  0.00  0.00     0.089 C 
ATOM      2  H58 ACE d   1     -10.841   8.953   3.746  0.00  0.00     0.087 H 
ENDROOT
BRANCH   1   3
ATOM      3  N   ACE d   1      -8.971   9.614   3.123  0.00  0.00    -0.346 N 
ATOM      4  C   ACE d   1      -8.126   8.650   3.414  0.00  0.00     0.243 C 
ATOM      5  O   ACE d   1      -8.470   7.478   3.576  0.00  0.00    -0.271 OA
ATOM      6  H57 ACE d   1      -8.639  10.557   3.095  0.00  0.00     0.163 HD
BRANCH   4   7
ATOM      7  CA  ACE d   1      -6.681   9.102   3.508  0.00  0.00     0.109 C 
ATOM      8  H53 ACE d   1      -6.644  10.056   4.055  0.00  0.00     0.090 H 
BRANCH   7   9
ATOM      9  N   ACE d   1      -5.879   8.135   4.220  0.00  0.00    -0.344 N 
ATOM     10  C   ACE d   1      -6.020   7.980   5.529  0.00  0.00     0.241 C 
ATOM     11  O   ACE d   1      -6.699   8.745   6.249  0.00  0.00    -0.271 OA
ATOM     12  H52 ACE d   1      -5.213   7.579   3.723  0.00  0.00     0.163 HD
BRANCH  10  13
ATOM     13  CA  ACE d   1      -5.328   6.783   6.112  0.00  0.00     0.093 C 
ATOM     14  H44 ACE d   1      -4.575   6.400   5.408  0.00  0.00     0.088 H 
BRANCH  13  15
ATOM     15  N   ACE d   1      -4.673   7.199   7.341  0.00  0.00    -0.346 N 
ATOM     16  C   ACE d   1      -3.429   6.824   7.625  0.00  0.00     0.241 C 
ATOM     17  O   ACE d   1      -2.800   6.000   6.949  0.00  0.00    -0.271 OA
ATOM     18  H43 ACE d   1      -5.168   7.780   7.987  0.00  0.00     0.163 HD
BRANCH  16  19
ATOM     19  CA  ACE d   1      -2.805   7.463   8.850  0.00  0.00     0.089 C 
ATOM     20  H31 ACE d   1      -3.599   7.737   9.560  0.00  0.00     0.087 H 
BRANCH  19  21
ATOM     21  N   ACE d   1      -1.907   6.505   9.485  0.00  0.00    -0.346 N 
ATOM     22  C   ACE d   1      -2.123   6.028  10.699  0.00  0.00     0.241 C 
ATOM     23  O   ACE d   1      -3.052   6.384  11.407  0.00  0.00    -0.271 OA
ATOM     24  H30 ACE d   1      -1.098   6.198   8.984  0.00  0.00     0.163 HD
BRANCH  22  25
ATOM     25  CA  ACE d   1      -1.090   5.048  11.233  0.00  0.00     0.089 C 
ATOM     26  H18 ACE d   1      -0.472   4.679  10.402  0.00  0.00     0.087 H 
BRANCH  25  27
ATOM     27  N   ACE d   1      -0.243   5.789  12.170  0.00  0.00    -0.346 N 
ATOM     28  C   ACE d   1       1.093   5.705  12.081  0.00  0.00     0.241 C 
ATOM     29  O   ACE d   1       1.646   4.801  11.510  0.00  0.00    -0.271 OA
ATOM     30  H17 ACE d   1      -0.661   6.359  12.877  0.00  0.00     0.163 HD
BRANCH  28  31
ATOM     31  CA  ACE d   1       1.947   6.772  12.756  0.00  0.00     0.089 C 
ATOM     32  H5  ACE d   1       3.002   6.520  12.576  0.00  0.00     0.087 H 
BRANCH  31  33
ATOM     33  N   ACE d   1       1.720   8.098  12.167  0.00  0.00    -0.348 N 
ATOM     34  C   ACE d   1       2.477   9.174  12.441  0.00  0.00     0.214 C 
ATOM     35  O   ACE d   1       3.301   9.207  13.333  0.00  0.00    -0.274 OA
ATOM     36  H4  ACE d   1       0.960   8.206  11.526  0.00  0.00     0.163 HD
BRANCH  34  37
ATOM     37  CH3 ACE d   1       2.338  10.383  11.555  0.00  0.00    -0.003 C 
ATOM     38  H1  ACE d   1       1.557  10.198  10.803  0.00  0.00     0.040 H 
ATOM     39  H2  ACE d   1       3.295  10.579  11.050  0.00  0.00     0.040 H 
ATOM     40  H3  ACE d   1       2.060  11.255  12.165  0.00  0.00     0.040 H 
ENDBRANCH  34  37
ENDBRANCH  31  33
BRANCH  31  41
ATOM     41  CB  ACE d   1       1.720   6.717  14.259  0.00  0.00    -0.038 C 
ATOM     42  H6  ACE d   1       0.693   7.058  14.457  0.00  0.00     0.036 H 
ATOM     43  H7  ACE d   1       2.433   7.407  14.733  0.00  0.00     0.036 H 
BRANCH  41  44
ATOM     44  CG  ACE d   1       1.892   5.343  14.914  0.00  0.00    -0.061 C 
ATOM     45  H8  ACE d   1       1.033   4.716  14.633  0.00  0.00     0.033 H 
ATOM     46  H9  ACE d   1       1.905   5.480  16.005  0.00  0.00     0.033 H 
BRANCH  44  47
ATOM     47  CD  ACE d   1       3.161   4.620  14.509  0.00  0.00    -0.043 C 
ATOM     48  H10 ACE d   1       3.163   4.510  13.415  0.00  0.00     0.035 H 
ATOM     49  H11 ACE d   1       3.158   3.625  14.978  0.00  0.00     0.035 H 
BRANCH  47  50
ATOM     50  CE  ACE d   1       4.439   5.344  14.923  0.00  0.00     0.080 C 
ATOM     51  H12 ACE d   1       4.702   5.061  15.953  0.00  0.00     0.075 H 
ATOM     52  H13 ACE d   1       4.276   6.431  14.871  0.00  0.00     0.075 H 
BRANCH  50  53
ATOM     53  NZ  ACE d   1       5.547   4.969  14.012  0.00  0.00    -0.079 N 
ATOM     54  H14 ACE d   1       6.388   5.450  14.290  0.00  0.00     0.274 HD
ATOM     55  H15 ACE d   1       5.308   5.229  13.068  0.00  0.00     0.274 HD
ATOM     56  H16 ACE d   1       5.698   3.974  14.059  0.00  0.00     0.274 HD
ENDBRANCH  50  53
ENDBRANCH  47  50
ENDBRANCH  44  47
ENDBRANCH  41  44
ENDBRANCH  31  41
ENDBRANCH  28  31
ENDBRANCH  25  27
BRANCH  25  57
ATOM     57  CB  ACE d   1      -1.770   3.852  11.897  0.00  0.00    -0.038 C 
ATOM     58  H19 ACE d   1      -2.605   3.529  11.259  0.00  0.00     0.036 H 
ATOM     59  H20 ACE d   1      -2.159   4.172  12.875  0.00  0.00     0.036 H 
BRANCH  57  60
ATOM     60  CG  ACE d   1      -0.841   2.664  12.113  0.00  0.00    -0.061 C 
ATOM     61  H21 ACE d   1       0.052   3.008  12.656  0.00  0.00     0.033 H 
ATOM     62  H22 ACE d   1      -0.543   2.265  11.132  0.00  0.00     0.033 H 
BRANCH  60  63
ATOM     63  CD  ACE d   1      -1.501   1.551  12.913  0.00  0.00    -0.043 C 
ATOM     64  H23 ACE d   1      -1.160   0.582  12.521  0.00  0.00     0.035 H 
ATOM     65  H24 ACE d   1      -2.592   1.630  12.798  0.00  0.00     0.035 H 
BRANCH  63  66
ATOM     66  CE  ACE d   1      -1.155   1.631  14.394  0.00  0.00     0.080 C 
ATOM     67  H25 ACE d   1      -1.272   2.675  14.722  0.00  0.00     0.075 H 
ATOM     68  H26 ACE d   1      -0.107   1.322  14.523  0.00  0.00     0.075 H 
BRANCH  66  69
ATOM     69  NZ  ACE d   1      -2.010   0.767  15.260  0.00  0.00    -0.079 N 
ATOM     70  H27 ACE d   1      -1.726   0.870  16.222  0.00  0.00     0.274 HD
ATOM     71  H28 ACE d   1      -1.907  -0.196  14.980  0.00  0.00     0.274 HD
ATOM     72  H29 ACE d   1      -2.974   1.044  15.163  0.00  0.00     0.274 HD
ENDBRANCH  66  69
ENDBRANCH  63  66
ENDBRANCH  60  63
ENDBRANCH  57  60
ENDBRANCH  25  57
ENDBRANCH  22  25
ENDBRANCH  19  21
BRANCH  19  73
ATOM     73  CB  ACE d   1      -2.045   8.722   8.446  0.00  0.00    -0.036 C 
ATOM     74  H32 ACE d   1      -2.715   9.352   7.843  0.00  0.00     0.036 H 
ATOM     75  H33 ACE d   1      -1.177   8.423   7.839  0.00  0.00     0.036 H 
BRANCH  73  76
ATOM     76  CG  ACE d   1      -1.549   9.538   9.615  0.00  0.00    -0.048 C 
ATOM     77  H34 ACE d   1      -0.862   8.931  10.223  0.00  0.00     0.035 H 
ATOM     78  H35 ACE d   1      -2.403   9.854  10.232  0.00  0.00     0.035 H 
BRANCH  76  79
ATOM     79  CD  ACE d   1      -0.821  10.758   9.093  0.00  0.00     0.009 C 
ATOM     80  H36 ACE d   1      -1.518  11.351   8.483  0.00  0.00     0.064 H 
ATOM     81  H37 ACE d   1       0.022  10.427   8.469  0.00  0.00     0.064 H 
BRANCH  79  82
ATOM     82  NE  ACE d   1      -0.306  11.599  10.168  0.00  0.00    -0.227 N 
ATOM     83  CZ  ACE d   1       0.466  12.672   9.990  0.00  0.00     0.665 C 
ATOM     84  NH1 ACE d   1       0.830  13.060   8.766  0.00  0.00    -0.235 N 
ATOM     85  NH2 ACE d   1       0.871  13.368  11.049  0.00  0.00    -0.235 N 
ATOM     86  H39 ACE d   1       1.427  13.891   8.645  0.00  0.00     0.174 HD
ATOM     87  H40 ACE d   1       0.514  12.528   7.942  0.00  0.00     0.174 HD
ATOM     88  H41 ACE d   1       0.593  13.073  11.996  0.00  0.00     0.174 HD
ATOM     89  H42 ACE d   1       1.462  14.202  10.922  0.00  0.00     0.174 HD
ATOM     90  H38 ACE d   1      -0.557  11.346  11.134  0.00  0.00     0.177 HD
ENDBRANCH  79  82
ENDBRANCH  76  79
ENDBRANCH  73  76
ENDBRANCH  19  73
ENDBRANCH  16  19
ENDBRANCH  13  15
BRANCH  13  91
ATOM     91  CB  ACE d   1      -6.380   5.705   6.365  0.00  0.00    -0.014 C 
ATOM     92  H45 ACE d   1      -6.869   5.476   5.407  0.00  0.00     0.043 H 
ATOM     93  H46 ACE d   1      -7.122   6.112   7.068  0.00  0.00     0.043 H 
BRANCH  91  94
ATOM     94  CG  ACE d   1      -5.853   4.413   6.940  0.00  0.00    -0.056 A 
ATOM     95  CD1 ACE d   1      -5.760   4.226   8.319  0.00  0.00    -0.074 A 
ATOM     96  CE1 ACE d   1      -5.286   3.029   8.851  0.00  0.00    -0.051 A 
ATOM     97  H47 ACE d   1      -6.061   5.025   8.987  0.00  0.00     0.084 H 
ATOM     98  CZ  ACE d   1      -4.922   1.995   8.011  0.00  0.00     0.065 A 
ATOM     99  H49 ACE d   1      -5.203   2.909   9.925  0.00  0.00     0.087 H 
ATOM    100  CE2 ACE d   1      -5.038   2.142   6.639  0.00  0.00    -0.051 A 
ATOM    101  CD2 ACE d   1      -5.520   3.341   6.115  0.00  0.00    -0.074 A 
ATOM    102  H50 ACE d   1      -4.756   1.331   5.977  0.00  0.00     0.087 H 
ATOM    103  H48 ACE d   1      -5.638   3.441   5.042  0.00  0.00     0.084 H 
BRANCH  98 104
ATOM    104  OH  ACE d   1      -4.461   0.819   8.567  0.00  0.00    -0.361 OA
ATOM    105  H51 ACE d   1      -4.449   0.901   9.513  0.00  0.00     0.217 HD
ENDBRANCH  98 104
ENDBRANCH  91  94
ENDBRANCH  13  91
ENDBRANCH  10  13
ENDBRANCH   7   9
BRANCH   7 106
ATOM    106  CB  ACE d   1      -6.139   9.317   2.111  0.00  0.00     0.044 C 
ATOM    107  H54 ACE d   1      -5.072   9.577   2.171  0.00  0.00     0.077 H 
ATOM    108  H55 ACE d   1      -6.690  10.139   1.630  0.00  0.00     0.077 H 
BRANCH 106 109
ATOM    109  OG  ACE d   1      -6.290   8.142   1.342  0.00  0.00    -0.398 OA
ATOM    110  H56 ACE d   1      -5.947   8.290   0.469  0.00  0.00     0.209 HD
ENDBRANCH 106 109
ENDBRANCH   7 106
ENDBRANCH   4   7
ENDBRANCH   1   3
BRANCH   1 111
ATOM    111  C   ACE d   1     -10.484   8.302   1.715  0.00  0.00     0.241 C 
ATOM    112  O   ACE d   1     -11.237   7.327   1.873  0.00  0.00    -0.271 OA
ATOM    113  NAC ACE d   1      -9.721   8.440   0.583  0.00  0.00    -0.342 N 
ATOM    114  H73 ACE d   1      -9.092   9.205   0.441  0.00  0.00     0.163 HD
BRANCH 113 115
ATOM    115  CAQ ACE d   1      -9.901   7.405  -0.368  0.00  0.00     0.110 C 
ATOM    116  CAG ACE d   1      -9.393   6.085   0.067  0.00  0.00     0.246 C 
ATOM    117  OAE ACE d   1     -10.107   5.089  -0.221  0.00  0.00    -0.271 OA
ATOM    118  N   ACE d   1      -8.378   5.968   0.864  0.00  0.00    -0.346 N 
ATOM    119  CA  ACE d   1      -7.977   4.654   1.346  0.00  0.00     0.090 C 
ATOM    120  H81 ACE d   1      -7.870   6.781   1.148  0.00  0.00     0.163 HD
ATOM    121  C   ACE d   1      -9.024   4.050   2.282  0.00  0.00     0.241 C 
ATOM    122  H82 ACE d   1      -7.841   3.987   0.482  0.00  0.00     0.087 H 
ATOM    123  O   ACE d   1      -9.255   2.848   2.234  0.00  0.00    -0.271 OA
ATOM    124  N   ACE d   1      -9.630   4.873   3.141  0.00  0.00    -0.346 N 
ATOM    125  CA  ACE d   1     -10.687   4.324   4.014  0.00  0.00     0.089 C 
ATOM    126  H89 ACE d   1      -9.374   5.838   3.192  0.00  0.00     0.163 HD
ATOM    127  C   ACE d   1     -11.907   3.836   3.234  0.00  0.00     0.241 C 
ATOM    128  H90 ACE d   1     -10.258   3.449   4.524  0.00  0.00     0.087 H 
ATOM    129  O   ACE d   1     -12.445   2.753   3.501  0.00  0.00    -0.271 OA
ATOM    130  N   ACE d   1     -12.346   4.626   2.261  0.00  0.00    -0.346 N 
ATOM    131  CA  ACE d   1     -13.544   4.276   1.532  0.00  0.00     0.089 C 
ATOM    132 0H10 ACE d   1     -11.848   5.463   2.033  0.00  0.00     0.163 HD
ATOM    133  C   ACE d   1     -13.346   3.063   0.628  0.00  0.00     0.241 C 
ATOM    134 1H10 ACE d   1     -14.313   4.019   2.275  0.00  0.00     0.087 H 
ATOM    135  O   ACE d   1     -14.343   2.393   0.347  0.00  0.00    -0.271 OA
ATOM    136  NAC ACE d   1     -12.106   2.796   0.140  0.00  0.00    -0.342 N 
ATOM    137  CAQ ACE d   1     -12.131   1.634  -0.718  0.00  0.00     0.110 C 
ATOM    138 4H11 ACE d   1     -11.287   3.331   0.347  0.00  0.00     0.163 HD
ATOM    139  CAO ACE d   1     -12.367   1.688  -2.232  0.00  0.00    -0.033 C 
ATOM    140  CAM ACE d   1     -12.030   3.010  -2.923  0.00  0.00    -0.059 C 
ATOM    141 5H11 ACE d   1     -13.431   1.477  -2.413  0.00  0.00     0.037 H 
ATOM    142 6H11 ACE d   1     -11.753   0.902  -2.695  0.00  0.00     0.037 H 
ATOM    143  CAK ACE d   1     -13.203   3.556  -3.733  0.00  0.00    -0.050 C 
ATOM    144 7H11 ACE d   1     -11.178   2.848  -3.599  0.00  0.00     0.033 H 
ATOM    145 8H11 ACE d   1     -11.755   3.750  -2.157  0.00  0.00     0.033 H 
ATOM    146  CAI ACE d   1     -12.709   4.567  -4.748  0.00  0.00    -0.107 C 
ATOM    147 9H11 ACE d   1     -13.919   4.042  -3.054  0.00  0.00     0.038 H 
ATOM    148 0H12 ACE d   1     -13.700   2.727  -4.258  0.00  0.00     0.038 H 
ATOM    149  CAI ACE d   1     -12.421   5.855  -4.475  0.00  0.00    -0.107 C 
ATOM    150 1H12 ACE d   1     -12.577   4.228  -5.774  0.00  0.00     0.076 H 
ATOM    151  CAK ACE d   1     -12.501   6.547  -3.142  0.00  0.00    -0.050 C 
ATOM    152  H80 ACE d   1     -12.093   6.464  -5.316  0.00  0.00     0.076 H 
ATOM    153  CAM ACE d   1     -11.075   6.754  -2.618  0.00  0.00    -0.059 C 
ATOM    154  H78 ACE d   1     -12.999   7.521  -3.258  0.00  0.00     0.038 H 
ATOM    155  H79 ACE d   1     -13.070   5.926  -2.435  0.00  0.00     0.038 H 
ATOM    156  CAO ACE d   1     -11.082   7.543  -1.311  0.00  0.00    -0.033 C 
ATOM    157  H76 ACE d   1     -10.610   5.773  -2.443  0.00  0.00     0.033 H 
ATOM    158  H77 ACE d   1     -10.492   7.307  -3.369  0.00  0.00     0.033 H 
ATOM    159  H74 ACE d   1     -11.161   8.607  -1.576  0.00  0.00     0.037 H 
ATOM    160  H75 ACE d   1     -11.979   7.236  -0.753  0.00  0.00     0.037 H 
BRANCH 119 161
ATOM    161  CB  ACE d   1      -6.654   4.768   2.118  0.00  0.00    -0.030 C 
ATOM    162  H83 ACE d   1      -6.485   3.823   2.655  0.00  0.00     0.037 H 
ATOM    163  H84 ACE d   1      -6.748   5.590   2.843  0.00  0.00     0.037 H 
BRANCH 161 164
ATOM    164  CG  ACE d   1      -5.449   5.040   1.248  0.00  0.00     0.011 C 
ATOM    165  H85 ACE d   1      -5.676   5.899   0.600  0.00  0.00     0.047 H 
ATOM    166  H86 ACE d   1      -5.262   4.151   0.627  0.00  0.00     0.047 H 
BRANCH 164 167
ATOM    167  CD  ACE d   1      -4.180   5.353   2.032  0.00  0.00     0.215 C 
ATOM    168  OE1 ACE d   1      -4.190   6.070   3.030  0.00  0.00    -0.274 OA
ATOM    169  NE2 ACE d   1      -3.061   4.835   1.545  0.00  0.00    -0.370 N 
ATOM    170  H87 ACE d   1      -2.191   5.000   2.009  0.00  0.00     0.159 HD
ATOM    171  H88 ACE d   1      -3.087   4.279   0.714  0.00  0.00     0.159 HD
ENDBRANCH 164 167
ENDBRANCH 161 164
ENDBRANCH 119 161
BRANCH 125 172
ATOM    172  CB  ACE d   1     -11.101   5.314   5.086  0.00  0.00    -0.035 C 
ATOM    173  H91 ACE d   1     -11.954   4.893   5.638  0.00  0.00     0.037 H 
ATOM    174  H92 ACE d   1     -11.408   6.250   4.596  0.00  0.00     0.037 H 
BRANCH 172 175
ATOM    175  CG  ACE d   1      -9.982   5.634   6.089  0.00  0.00    -0.059 C 
ATOM    176  H93 ACE d   1      -9.066   5.826   5.512  0.00  0.00     0.038 H 
BRANCH 175 177
ATOM    177  CD1 ACE d   1     -10.316   6.899   6.866  0.00  0.00    -0.073 C 
ATOM    178  H94 ACE d   1      -9.507   7.115   7.579  0.00  0.00     0.028 H 
ATOM    179  H95 ACE d   1     -11.259   6.755   7.414  0.00  0.00     0.028 H 
ATOM    180  H96 ACE d   1     -10.423   7.741   6.167  0.00  0.00     0.028 H 
ENDBRANCH 175 177
BRANCH 175 181
ATOM    181  CD2 ACE d   1      -9.691   4.479   7.029  0.00  0.00    -0.073 C 
ATOM    182  H97 ACE d   1      -9.453   3.580   6.442  0.00  0.00     0.028 H 
ATOM    183  H98 ACE d   1     -10.574   4.285   7.656  0.00  0.00     0.028 H 
ATOM    184  H99 ACE d   1      -8.835   4.735   7.670  0.00  0.00     0.028 H 
ENDBRANCH 175 181
ENDBRANCH 172 175
ENDBRANCH 125 172
BRANCH 131 185
ATOM    185  CB  ACE d   1     -14.070   5.443   0.697  0.00  0.00    -0.035 C 
ATOM    186 2H10 ACE d   1     -14.875   5.056   0.055  0.00  0.00     0.037 H 
ATOM    187 3H10 ACE d   1     -13.242   5.803   0.069  0.00  0.00     0.037 H 
BRANCH 185 188
ATOM    188  CG  ACE d   1     -14.624   6.641   1.460  0.00  0.00    -0.059 C 
ATOM    189 4H10 ACE d   1     -13.867   6.939   2.200  0.00  0.00     0.038 H 
BRANCH 188 190
ATOM    190  CD1 ACE d   1     -14.878   7.836   0.550  0.00  0.00    -0.073 C 
ATOM    191 5H10 ACE d   1     -15.276   8.672   1.145  0.00  0.00     0.028 H 
ATOM    192 6H10 ACE d   1     -15.607   7.558  -0.225  0.00  0.00     0.028 H 
ATOM    193 7H10 ACE d   1     -13.935   8.141   0.074  0.00  0.00     0.028 H 
ENDBRANCH 188 190
BRANCH 188 194
ATOM    194  CD2 ACE d   1     -15.890   6.281   2.209  0.00  0.00    -0.073 C 
ATOM    195 8H10 ACE d   1     -15.696   5.418   2.863  0.00  0.00     0.028 H 
ATOM    196 9H10 ACE d   1     -16.682   6.026   1.489  0.00  0.00     0.028 H 
ATOM    197 0H11 ACE d   1     -16.212   7.138   2.819  0.00  0.00     0.028 H 
ENDBRANCH 188 194
ENDBRANCH 185 188
ENDBRANCH 131 185
BRANCH 137 198
ATOM    198  CAG ACE d   1     -12.357   0.298  -0.069  0.00  0.00     0.246 C 
ATOM    199  OAE ACE d   1     -12.572  -0.664  -0.827  0.00  0.00    -0.271 OA
ATOM    200  N   ACE d   1     -12.460   0.219   1.204  0.00  0.00    -0.345 N 
ATOM    201 2H12 ACE d   1     -12.344   1.052   1.745  0.00  0.00     0.163 HD
BRANCH 200 202
ATOM    202  CA  ACE d   1     -12.742  -1.044   1.910  0.00  0.00     0.093 C 
ATOM    203 3H12 ACE d   1     -12.143  -1.841   1.445  0.00  0.00     0.088 H 
BRANCH 202 204
ATOM    204  C   ACE d   1     -14.203  -1.475   1.868  0.00  0.00     0.238 C 
ATOM    205  O   ACE d   1     -15.019  -1.016   2.662  0.00  0.00    -0.271 OA
ATOM    206  N   ACE d   1     -14.555  -2.447   0.894  0.00  0.00    -0.368 N 
ATOM    207 1H13 ACE d   1     -15.501  -2.765   0.824  0.00  0.00     0.159 HD
ATOM    208 2H13 ACE d   1     -13.857  -2.814   0.279  0.00  0.00     0.159 HD
ENDBRANCH 202 204
BRANCH 202 209
ATOM    209  CB  ACE d   1     -12.295  -0.860   3.357  0.00  0.00    -0.014 C 
ATOM    210 4H12 ACE d   1     -12.822  -1.595   3.983  0.00  0.00     0.043 H 
ATOM    211 5H12 ACE d   1     -12.563   0.157   3.680  0.00  0.00     0.043 H 
BRANCH 209 212
ATOM    212  CG  ACE d   1     -10.835  -1.045   3.538  0.00  0.00    -0.056 A 
ATOM    213  CD1 ACE d   1     -10.310  -2.293   3.852  0.00  0.00    -0.077 A 
ATOM    214  CE1 ACE d   1      -8.945  -2.456   4.003  0.00  0.00    -0.082 A 
ATOM    215 6H12 ACE d   1     -10.973  -3.141   3.979  0.00  0.00     0.084 H 
ATOM    216  CZ  ACE d   1      -8.091  -1.370   3.829  0.00  0.00    -0.083 A 
ATOM    217 8H12 ACE d   1      -8.540  -3.429   4.257  0.00  0.00     0.083 H 
ATOM    218  CE2 ACE d   1      -8.609  -0.126   3.518  0.00  0.00    -0.082 A 
ATOM    219 0H13 ACE d   1      -7.020  -1.500   3.937  0.00  0.00     0.083 H 
ATOM    220  CD2 ACE d   1      -9.972   0.022   3.371  0.00  0.00    -0.077 A 
ATOM    221 9H12 ACE d   1      -7.950   0.725   3.391  0.00  0.00     0.083 H 
ATOM    222 7H12 ACE d   1     -10.376   0.996   3.119  0.00  0.00     0.084 H 
ENDBRANCH 209 212
ENDBRANCH 202 209
ENDBRANCH 200 202
ENDBRANCH 137 198
BRANCH 137 223
ATOM    223  CAA ACE d   1     -10.578   1.569  -0.767  0.00  0.00    -0.044 C 
ATOM    224 1H11 ACE d   1     -10.187   2.489  -1.226  0.00  0.00     0.031 H 
ATOM    225 2H11 ACE d   1     -10.266   0.700  -1.365  0.00  0.00     0.031 H 
ATOM    226 3H11 ACE d   1     -10.183   1.472   0.255  0.00  0.00     0.031 H 
ENDBRANCH 137 223
BRANCH 115 227
ATOM    227  CAA ACE d   1      -8.761   7.892  -1.321  0.00  0.00    -0.044 C 
ATOM    228  H70 ACE d   1      -9.017   8.883  -1.722  0.00  0.00     0.031 H 
ATOM    229  H71 ACE d   1      -8.647   7.179  -2.151  0.00  0.00     0.031 H 
ATOM    230  H72 ACE d   1      -7.817   7.956  -0.760  0.00  0.00     0.031 H 
ENDBRANCH 115 227
ENDBRANCH 113 115
ENDBRANCH   1 111
BRANCH   1 231
ATOM    231  CB  ACE d   1     -11.006  10.689   2.497  0.00  0.00    -0.036 C 
ATOM    232  H59 ACE d   1     -10.468  11.112   1.636  0.00  0.00     0.036 H 
ATOM    233  H60 ACE d   1     -10.892  11.355   3.365  0.00  0.00     0.036 H 
BRANCH 231 234
ATOM    234  CG  ACE d   1     -12.436  10.636   2.153  0.00  0.00    -0.048 C 
ATOM    235  H61 ACE d   1     -13.025  10.380   3.046  0.00  0.00     0.035 H 
ATOM    236  H62 ACE d   1     -12.604   9.878   1.374  0.00  0.00     0.035 H 
BRANCH 234 237
ATOM    237  CD  ACE d   1     -12.849  12.002   1.639  0.00  0.00     0.009 C 
ATOM    238  H63 ACE d   1     -12.261  12.265   0.747  0.00  0.00     0.064 H 
ATOM    239  H64 ACE d   1     -12.694  12.763   2.418  0.00  0.00     0.064 H 
BRANCH 237 240
ATOM    240  NE  ACE d   1     -14.241  11.914   1.305  0.00  0.00    -0.227 N 
ATOM    241  CZ  ACE d   1     -14.717  11.519   0.132  0.00  0.00     0.665 C 
ATOM    242  NH1 ACE d   1     -16.028  11.450  -0.027  0.00  0.00    -0.235 N 
ATOM    243  NH2 ACE d   1     -13.900  11.191  -0.872  0.00  0.00    -0.235 N 
ATOM    244  H66 ACE d   1     -16.422  11.146  -0.929  0.00  0.00     0.174 HD
ATOM    245  H67 ACE d   1     -16.655  11.700   0.751  0.00  0.00     0.174 HD
ATOM    246  H68 ACE d   1     -12.879  11.246  -0.744  0.00  0.00     0.174 HD
ATOM    247  H69 ACE d   1     -14.290  10.883  -1.774  0.00  0.00     0.174 HD
ATOM    248  H65 ACE d   1     -14.922  12.178   2.031  0.00  0.00     0.177 HD
ENDBRANCH 237 240
ENDBRANCH 234 237
ENDBRANCH 231 234
ENDBRANCH   1 231
TORSDOF 55
