REMARK WARNING: 32 MAX_TORS EXCEEDED!!!
REMARK  59 active torsions:
REMARK  status: ('A' for Active; 'I' for Inactive)
REMARK    1  A    between atoms: C_1  and  CH3_3 
REMARK       I    between atoms: N_4  and  C_1 
REMARK    2  A    between atoms: CA_5  and  N_4 
REMARK    3  A    between atoms: C_6  and  CA_5 
REMARK    4  A    between atoms: CA_5  and  CB_8 
REMARK       I    between atoms: N_13  and  C_6 
REMARK    5  A    between atoms: CB_8  and  CG_9 
REMARK    6  A    between atoms: CG_9  and  CD_10 
REMARK    7  A    between atoms: CD_10  and  CE_11 
REMARK    8  A    between atoms: CE_11  and  NZ_12 
REMARK    9  A    between atoms: CA_14  and  N_13 
REMARK   10  A    between atoms: C_15  and  CA_14 
REMARK   11  A    between atoms: CA_14  and  CB_17 
REMARK       I    between atoms: N_22  and  C_15 
REMARK   12  A    between atoms: CB_17  and  CG_18 
REMARK   13  A    between atoms: CG_18  and  CD_19 
REMARK   14  A    between atoms: CD_19  and  CE_20 
REMARK   15  A    between atoms: CE_20  and  NZ_21 
REMARK   16  A    between atoms: CA_23  and  N_22 
REMARK   17  A    between atoms: C_24  and  CA_23 
REMARK   18  A    between atoms: CA_23  and  CB_26 
REMARK       I    between atoms: N_33  and  C_24 
REMARK   19  A    between atoms: CB_26  and  CG_27 
REMARK   20  A    between atoms: CG_27  and  CD_28 
REMARK   21  A    between atoms: CD_28  and  NE_29 
REMARK       I    between atoms: NE_29  and  CZ_30 
REMARK       I    between atoms: CZ_30  and  NH1_31 
REMARK       I    between atoms: CZ_30  and  NH2_32 
REMARK   22  A    between atoms: CA_34  and  N_33 
REMARK   23  A    between atoms: C_35  and  CA_34 
REMARK   24  A    between atoms: CA_34  and  CB_37 
REMARK       I    between atoms: N_45  and  C_35 
REMARK   25  A    between atoms: CB_37  and  CG_38 
REMARK   26  A    between atoms: CZ_43  and  OH_44 
REMARK   27  A    between atoms: CA_46  and  N_45 
REMARK   28  A    between atoms: C_47  and  CA_46 
REMARK   29  A    between atoms: CA_46  and  CB_49 
REMARK       I    between atoms: N_51  and  C_47 
REMARK   30  A    between atoms: CB_49  and  OG_50 
REMARK   31  A    between atoms: CA_52  and  N_51 
REMARK   32  A    between atoms: C_53  and  CA_52 
REMARK   33  A    between atoms: CA_52  and  CB_55 
REMARK       I    between atoms: N_63  and  C_53 
REMARK   34  A    between atoms: CB_55  and  CG_56 
REMARK   35  A    between atoms: CG_56  and  CD_57 
REMARK   36  A    between atoms: CD_57  and  NE_58 
REMARK       I    between atoms: NE_58  and  CZ_59 
REMARK       I    between atoms: CZ_59  and  NH1_60 
REMARK       I    between atoms: CZ_59  and  NH2_61 
REMARK   37  A    between atoms: CA_65  and  N_63 
REMARK   38  A    between atoms: CA_65  and  CB1_70 
REMARK   39  A    between atoms: CA_72  and  CB_75 
REMARK   40  A    between atoms: CB_75  and  CG_76 
REMARK   41  A    between atoms: CG_76  and  CD_77 
REMARK       I    between atoms: CD_77  and  NE2_79 
REMARK   42  A    between atoms: CA_81  and  CB_84 
REMARK   43  A    between atoms: CB_84  and  CG_85 
REMARK   44  A    between atoms: CG_85  and  CD1_86 
REMARK   45  A    between atoms: CG_85  and  CD2_87 
REMARK   46  A    between atoms: CA_89  and  CB_92 
REMARK   47  A    between atoms: CB_92  and  CG_93 
REMARK   48  A    between atoms: CG_93  and  CD1_94 
REMARK   49  A    between atoms: CG_93  and  CD2_95 
REMARK   50  A    between atoms: CA_99  and  C_96 
REMARK       I    between atoms: C_96  and  N_105 
REMARK   51  A    between atoms: CA_99  and  CB1_104 
REMARK   52  A    between atoms: N_105  and  CA_106 
REMARK   53  A    between atoms: CA_106  and  C_107 
REMARK   54  A    between atoms: CA_106  and  CB_109 
REMARK       I    between atoms: C_107  and  N_116 
REMARK   55  A    between atoms: CB_109  and  CG_110 
REMARK   56  A    between atoms: N_116  and  CA_117 
REMARK   57  A    between atoms: CA_117  and  C_118 
REMARK   58  A    between atoms: CA_117  and  CB_120 
REMARK       I    between atoms: C_118  and  N_130 
REMARK   59  A    between atoms: CB_120  and  CG_121 
ROOT
ATOM      1  C   ACE d   1     -14.396 -15.420  38.140  0.00  0.00     0.246 C 
ATOM      2  O   ACE d   1     -13.351 -15.047  38.648  0.00  0.00    -0.271 OA
ATOM      3  CA  ACE d   1     -15.459 -14.402  37.765  0.00  0.00     0.110 C 
ATOM      4  CB  ACE d   1     -16.686 -14.625  38.664  0.00  0.00    -0.033 C 
ATOM      5  CD  ACE d   1     -15.962 -15.838  40.870  0.00  0.00    -0.050 C 
ATOM      6  CE  ACE d   1     -15.676 -15.542  42.332  0.00  0.00    -0.107 C 
ATOM      7  CG  ACE d   1     -16.425 -14.551  40.182  0.00  0.00    -0.059 C 
ATOM      8  N   ACE d   1     -14.670 -16.643  37.919  0.00  0.00    -0.346 N 
ATOM      9  CA  ACE d   1     -13.778 -17.763  38.225  0.00  0.00     0.090 C 
ATOM     10  C   ACE d   1     -12.403 -17.597  37.583  0.00  0.00     0.241 C 
ATOM     11  O   ACE d   1     -11.381 -17.793  38.239  0.00  0.00    -0.271 OA
ATOM     12  N   ACE d   1     -12.387 -17.248  36.298  0.00  0.00    -0.346 N 
ATOM     13  CA  ACE d   1     -11.109 -17.078  35.587  0.00  0.00     0.089 C 
ATOM     14  C   ACE d   1     -10.265 -15.961  36.190  0.00  0.00     0.241 C 
ATOM     15  O   ACE d   1      -9.059 -16.129  36.382  0.00  0.00    -0.271 OA
ATOM     16  N   ACE d   1     -10.895 -14.835  36.521  0.00  0.00    -0.346 N 
ATOM     17  CA  ACE d   1     -10.178 -13.705  37.114  0.00  0.00     0.089 C 
ATOM     18  C   ACE d   1      -9.627 -14.027  38.510  0.00  0.00     0.241 C 
ATOM     19  O   ACE d   1      -8.495 -13.648  38.811  0.00  0.00    -0.271 OA
ATOM     20  N   ACE d   1     -10.396 -14.761  39.334  0.00  0.00    -0.342 N 
ATOM     21  CA  ACE d   1      -9.985 -15.202  40.676  0.00  0.00     0.110 C 
ATOM     22  CB  ACE d   1     -11.031 -16.116  41.336  0.00  0.00    -0.033 C 
ATOM     23  CD  ACE d   1     -13.308 -16.438  42.360  0.00  0.00    -0.050 C 
ATOM     24  CE  ACE d   1     -14.532 -15.790  42.975  0.00  0.00    -0.107 C 
ATOM     25  CG  ACE d   1     -12.302 -15.409  41.843  0.00  0.00    -0.059 C 
ATOM     26  H71 ACE d   1     -17.093 -15.622  38.439  0.00  0.00     0.037 H 
ATOM     27  H72 ACE d   1     -17.433 -13.858  38.412  0.00  0.00     0.037 H 
ATOM     28  H73 ACE d   1     -16.751 -16.600  40.796  0.00  0.00     0.038 H 
ATOM     29  H74 ACE d   1     -15.048 -16.208  40.383  0.00  0.00     0.038 H 
ATOM     30  H75 ACE d   1     -16.478 -15.085  42.910  0.00  0.00     0.076 H 
ATOM     31  H76 ACE d   1     -17.361 -14.235  40.665  0.00  0.00     0.033 H 
ATOM     32  H77 ACE d   1     -15.650 -13.788  40.349  0.00  0.00     0.033 H 
ATOM     33  H81 ACE d   1     -15.557 -16.854  37.508  0.00  0.00     0.163 HD
ATOM     34  H82 ACE d   1     -13.659 -17.841  39.316  0.00  0.00     0.087 H 
ATOM     35  H89 ACE d   1     -13.249 -17.100  35.813  0.00  0.00     0.163 HD
ATOM     36  H90 ACE d   1     -10.542 -18.014  35.700  0.00  0.00     0.087 H 
ATOM     37 0H10 ACE d   1     -11.879 -14.760  36.361  0.00  0.00     0.163 HD
ATOM     38 1H10 ACE d   1      -9.312 -13.497  36.468  0.00  0.00     0.087 H 
ATOM     39 1H11 ACE d   1     -11.306 -15.024  39.014  0.00  0.00     0.163 HD
ATOM     40 2H11 ACE d   1     -10.554 -16.613  42.194  0.00  0.00     0.037 H 
ATOM     41 3H11 ACE d   1     -11.335 -16.872  40.597  0.00  0.00     0.037 H 
ATOM     42 4H11 ACE d   1     -13.628 -17.072  41.520  0.00  0.00     0.038 H 
ATOM     43 5H11 ACE d   1     -12.817 -17.060  43.123  0.00  0.00     0.038 H 
ATOM     44 6H11 ACE d   1     -14.474 -15.504  44.024  0.00  0.00     0.076 H 
ATOM     45 7H11 ACE d   1     -12.755 -14.841  41.018  0.00  0.00     0.033 H 
ATOM     46 8H11 ACE d   1     -12.034 -14.721  42.658  0.00  0.00     0.033 H 
ENDROOT
BRANCH   3  47
ATOM     47  N   ACE d   1     -15.818 -14.580  36.354  0.00  0.00    -0.342 N 
ATOM     48  C   ACE d   1     -14.958 -14.598  35.322  0.00  0.00     0.241 C 
ATOM     49  O   ACE d   1     -13.741 -14.432  35.414  0.00  0.00    -0.271 OA
ATOM     50  H70 ACE d   1     -16.788 -14.698  36.142  0.00  0.00     0.163 HD
BRANCH  48  51
ATOM     51  CA  ACE d   1     -15.603 -14.816  33.948  0.00  0.00     0.089 C 
ATOM     52  H58 ACE d   1     -14.804 -15.015  33.219  0.00  0.00     0.087 H 
BRANCH  51  53
ATOM     53  N   ACE d   1     -16.530 -15.948  33.932  0.00  0.00    -0.346 N 
ATOM     54  C   ACE d   1     -16.221 -17.153  34.392  0.00  0.00     0.243 C 
ATOM     55  O   ACE d   1     -15.083 -17.484  34.745  0.00  0.00    -0.271 OA
ATOM     56  H57 ACE d   1     -17.445 -15.806  33.554  0.00  0.00     0.163 HD
BRANCH  54  57
ATOM     57  CA  ACE d   1     -17.384 -18.133  34.485  0.00  0.00     0.109 C 
ATOM     58  H53 ACE d   1     -18.020 -18.025  33.594  0.00  0.00     0.090 H 
BRANCH  57  59
ATOM     59  N   ACE d   1     -16.874 -19.501  34.535  0.00  0.00    -0.344 N 
ATOM     60  C   ACE d   1     -16.293 -20.065  33.477  0.00  0.00     0.241 C 
ATOM     61  O   ACE d   1     -16.288 -19.550  32.344  0.00  0.00    -0.271 OA
ATOM     62  H52 ACE d   1     -16.963 -20.026  35.382  0.00  0.00     0.163 HD
BRANCH  60  63
ATOM     63  CA  ACE d   1     -15.596 -21.389  33.724  0.00  0.00     0.093 C 
ATOM     64  H44 ACE d   1     -15.925 -21.793  34.693  0.00  0.00     0.088 H 
BRANCH  63  65
ATOM     65  N   ACE d   1     -15.945 -22.340  32.679  0.00  0.00    -0.346 N 
ATOM     66  C   ACE d   1     -16.485 -23.527  32.936  0.00  0.00     0.241 C 
ATOM     67  O   ACE d   1     -16.666 -23.956  34.078  0.00  0.00    -0.271 OA
ATOM     68  H43 ACE d   1     -15.771 -22.090  31.727  0.00  0.00     0.163 HD
BRANCH  66  69
ATOM     69  CA  ACE d   1     -16.868 -24.369  31.724  0.00  0.00     0.089 C 
ATOM     70  H31 ACE d   1     -16.346 -23.980  30.837  0.00  0.00     0.087 H 
BRANCH  69  71
ATOM     71  N   ACE d   1     -16.441 -25.742  31.960  0.00  0.00    -0.346 N 
ATOM     72  C   ACE d   1     -15.601 -26.392  31.156  0.00  0.00     0.241 C 
ATOM     73  O   ACE d   1     -15.211 -25.945  30.075  0.00  0.00    -0.271 OA
ATOM     74  H30 ACE d   1     -16.796 -26.219  32.764  0.00  0.00     0.163 HD
BRANCH  72  75
ATOM     75  CA  ACE d   1     -15.141 -27.763  31.649  0.00  0.00     0.089 C 
ATOM     76  H18 ACE d   1     -15.347 -27.809  32.729  0.00  0.00     0.087 H 
BRANCH  75  77
ATOM     77  N   ACE d   1     -15.883 -28.868  31.020  0.00  0.00    -0.346 N 
ATOM     78  C   ACE d   1     -17.080 -29.242  31.488  0.00  0.00     0.241 C 
ATOM     79  O   ACE d   1     -17.643 -28.642  32.401  0.00  0.00    -0.271 OA
ATOM     80  H17 ACE d   1     -15.488 -29.345  30.234  0.00  0.00     0.163 HD
BRANCH  78  81
ATOM     81  CA  ACE d   1     -17.792 -30.432  30.828  0.00  0.00     0.089 C 
ATOM     82  H5  ACE d   1     -18.863 -30.297  31.042  0.00  0.00     0.087 H 
BRANCH  81  83
ATOM     83  N   ACE d   1     -17.674 -30.457  29.377  0.00  0.00    -0.348 N 
ATOM     84  C   ACE d   1     -18.438 -29.762  28.519  0.00  0.00     0.214 C 
ATOM     85  O   ACE d   1     -18.291 -29.935  27.320  0.00  0.00    -0.274 OA
ATOM     86  H4  ACE d   1     -16.963 -31.042  28.986  0.00  0.00     0.163 HD
BRANCH  84  87
ATOM     87  CH3 ACE d   1     -19.497 -28.783  28.997  0.00  0.00    -0.003 C 
ATOM     88  H1  ACE d   1     -19.495 -28.749  30.096  0.00  0.00     0.040 H 
ATOM     89  H2  ACE d   1     -20.485 -29.110  28.642  0.00  0.00     0.040 H 
ATOM     90  H3  ACE d   1     -19.277 -27.782  28.599  0.00  0.00     0.040 H 
ENDBRANCH  84  87
ENDBRANCH  81  83
BRANCH  81  91
ATOM     91  CB  ACE d   1     -17.390 -31.792  31.462  0.00  0.00    -0.038 C 
ATOM     92  H6  ACE d   1     -17.826 -32.583  30.833  0.00  0.00     0.036 H 
ATOM     93  H7  ACE d   1     -17.844 -31.828  32.463  0.00  0.00     0.036 H 
BRANCH  91  94
ATOM     94  CG  ACE d   1     -15.903 -32.119  31.630  0.00  0.00    -0.061 C 
ATOM     95  H8  ACE d   1     -15.803 -32.935  32.361  0.00  0.00     0.033 H 
ATOM     96  H9  ACE d   1     -15.387 -31.224  32.007  0.00  0.00     0.033 H 
BRANCH  94  97
ATOM     97  CD  ACE d   1     -15.240 -32.549  30.329  0.00  0.00    -0.043 C 
ATOM     98  H10 ACE d   1     -15.073 -31.657  29.707  0.00  0.00     0.035 H 
ATOM     99  H11 ACE d   1     -15.913 -33.242  29.803  0.00  0.00     0.035 H 
BRANCH  97 100
ATOM    100  CE  ACE d   1     -13.907 -33.242  30.554  0.00  0.00     0.080 C 
ATOM    101  H12 ACE d   1     -14.072 -34.172  31.118  0.00  0.00     0.075 H 
ATOM    102  H13 ACE d   1     -13.245 -32.577  31.128  0.00  0.00     0.075 H 
BRANCH 100 103
ATOM    103  NZ  ACE d   1     -13.265 -33.567  29.251  0.00  0.00    -0.079 N 
ATOM    104  H14 ACE d   1     -12.383 -34.026  29.416  0.00  0.00     0.274 HD
ATOM    105  H15 ACE d   1     -13.110 -32.717  28.732  0.00  0.00     0.274 HD
ATOM    106  H16 ACE d   1     -13.868 -34.178  28.723  0.00  0.00     0.274 HD
ENDBRANCH 100 103
ENDBRANCH  97 100
ENDBRANCH  94  97
ENDBRANCH  91  94
ENDBRANCH  81  91
ENDBRANCH  78  81
ENDBRANCH  75  77
BRANCH  75 107
ATOM    107  CB  ACE d   1     -13.624 -27.917  31.460  0.00  0.00    -0.038 C 
ATOM    108  H19 ACE d   1     -13.133 -27.043  31.913  0.00  0.00     0.036 H 
ATOM    109  H20 ACE d   1     -13.415 -27.936  30.380  0.00  0.00     0.036 H 
BRANCH 107 110
ATOM    110  CG  ACE d   1     -13.022 -29.172  32.081  0.00  0.00    -0.061 C 
ATOM    111  H21 ACE d   1     -11.973 -29.256  31.760  0.00  0.00     0.033 H 
ATOM    112  H22 ACE d   1     -13.586 -30.047  31.725  0.00  0.00     0.033 H 
BRANCH 110 113
ATOM    113  CD  ACE d   1     -13.067 -29.148  33.605  0.00  0.00    -0.043 C 
ATOM    114  H23 ACE d   1     -14.032 -28.729  33.926  0.00  0.00     0.035 H 
ATOM    115  H24 ACE d   1     -12.249 -28.512  33.976  0.00  0.00     0.035 H 
BRANCH 113 116
ATOM    116  CE  ACE d   1     -12.914 -30.541  34.195  0.00  0.00     0.080 C 
ATOM    117  H25 ACE d   1     -11.862 -30.852  34.115  0.00  0.00     0.075 H 
ATOM    118  H26 ACE d   1     -13.548 -31.242  33.632  0.00  0.00     0.075 H 
BRANCH 116 119
ATOM    119  NZ  ACE d   1     -13.320 -30.562  35.629  0.00  0.00    -0.079 N 
ATOM    120  H27 ACE d   1     -13.210 -31.494  35.996  0.00  0.00     0.274 HD
ATOM    121  H28 ACE d   1     -14.285 -30.282  35.709  0.00  0.00     0.274 HD
ATOM    122  H29 ACE d   1     -12.740 -29.924  36.152  0.00  0.00     0.274 HD
ENDBRANCH 116 119
ENDBRANCH 113 116
ENDBRANCH 110 113
ENDBRANCH 107 110
ENDBRANCH  75 107
ENDBRANCH  72  75
ENDBRANCH  69  71
BRANCH  69 123
ATOM    123  CB  ACE d   1     -18.374 -24.293  31.475  0.00  0.00    -0.036 C 
ATOM    124  H32 ACE d   1     -18.645 -23.236  31.334  0.00  0.00     0.036 H 
ATOM    125  H33 ACE d   1     -18.888 -24.688  32.364  0.00  0.00     0.036 H 
BRANCH 123 126
ATOM    126  CG  ACE d   1     -18.861 -25.074  30.259  0.00  0.00    -0.048 C 
ATOM    127  H34 ACE d   1     -18.327 -26.035  30.214  0.00  0.00     0.035 H 
ATOM    128  H35 ACE d   1     -18.646 -24.492  29.351  0.00  0.00     0.035 H 
BRANCH 126 129
ATOM    129  CD  ACE d   1     -20.363 -25.344  30.331  0.00  0.00     0.009 C 
ATOM    130  H36 ACE d   1     -20.594 -25.788  31.311  0.00  0.00     0.064 H 
ATOM    131  H37 ACE d   1     -20.632 -26.053  29.534  0.00  0.00     0.064 H 
BRANCH 129 132
ATOM    132  NE  ACE d   1     -21.165 -24.127  30.166  0.00  0.00    -0.227 N 
ATOM    133  CZ  ACE d   1     -22.451 -23.982  30.510  0.00  0.00     0.665 C 
ATOM    134  NH1 ACE d   1     -23.138 -24.975  31.082  0.00  0.00    -0.235 N 
ATOM    135  NH2 ACE d   1     -23.060 -22.812  30.293  0.00  0.00    -0.235 N 
ATOM    136  H39 ACE d   1     -24.126 -24.837  31.337  0.00  0.00     0.174 HD
ATOM    137  H40 ACE d   1     -22.679 -25.878  31.268  0.00  0.00     0.174 HD
ATOM    138  H41 ACE d   1     -22.544 -22.037  29.853  0.00  0.00     0.174 HD
ATOM    139  H42 ACE d   1     -24.045 -22.686  30.566  0.00  0.00     0.174 HD
ATOM    140  H38 ACE d   1     -20.697 -23.310  29.748  0.00  0.00     0.177 HD
ENDBRANCH 129 132
ENDBRANCH 126 129
ENDBRANCH 123 126
ENDBRANCH  69 123
ENDBRANCH  66  69
ENDBRANCH  63  65
BRANCH  63 141
ATOM    141  CB  ACE d   1     -14.075 -21.160  33.771  0.00  0.00    -0.014 C 
ATOM    142  H45 ACE d   1     -13.860 -20.409  34.546  0.00  0.00     0.043 H 
ATOM    143  H46 ACE d   1     -13.750 -20.780  32.791  0.00  0.00     0.043 H 
BRANCH 141 144
ATOM    144  CG  ACE d   1     -13.287 -22.408  34.084  0.00  0.00    -0.056 A 
ATOM    145  CD1 ACE d   1     -13.052 -22.795  35.407  0.00  0.00    -0.074 A 
ATOM    146  CE1 ACE d   1     -12.328 -23.941  35.702  0.00  0.00    -0.051 A 
ATOM    147  H47 ACE d   1     -13.443 -22.189  36.216  0.00  0.00     0.084 H 
ATOM    148  CZ  ACE d   1     -11.838 -24.727  34.676  0.00  0.00     0.065 A 
ATOM    149  H49 ACE d   1     -12.147 -24.219  36.734  0.00  0.00     0.087 H 
ATOM    150  CE2 ACE d   1     -12.070 -24.371  33.355  0.00  0.00    -0.051 A 
ATOM    151  CD2 ACE d   1     -12.785 -23.217  33.067  0.00  0.00    -0.074 A 
ATOM    152  H50 ACE d   1     -11.694 -24.992  32.550  0.00  0.00     0.087 H 
ATOM    153  H48 ACE d   1     -12.956 -22.940  32.033  0.00  0.00     0.084 H 
BRANCH 148 154
ATOM    154  OH  ACE d   1     -11.118 -25.871  34.966  0.00  0.00    -0.361 OA
ATOM    155  H51 ACE d   1     -10.248 -25.800  34.590  0.00  0.00     0.217 HD
ENDBRANCH 148 154
ENDBRANCH 141 144
ENDBRANCH  63 141
ENDBRANCH  60  63
ENDBRANCH  57  59
BRANCH  57 156
ATOM    156  CB  ACE d   1     -18.213 -17.806  35.729  0.00  0.00     0.044 C 
ATOM    157  H54 ACE d   1     -18.992 -18.573  35.855  0.00  0.00     0.077 H 
ATOM    158  H55 ACE d   1     -18.685 -16.821  35.599  0.00  0.00     0.077 H 
BRANCH 156 159
ATOM    159  OG  ACE d   1     -17.392 -17.780  36.889  0.00  0.00    -0.398 OA
ATOM    160  H56 ACE d   1     -16.985 -18.630  37.006  0.00  0.00     0.209 HD
ENDBRANCH 156 159
ENDBRANCH  57 156
ENDBRANCH  54  57
ENDBRANCH  51  53
BRANCH  51 161
ATOM    161  CB  ACE d   1     -16.345 -13.548  33.537  0.00  0.00    -0.036 C 
ATOM    162  H59 ACE d   1     -17.132 -13.354  34.281  0.00  0.00     0.036 H 
ATOM    163  H60 ACE d   1     -16.805 -13.722  32.553  0.00  0.00     0.036 H 
BRANCH 161 164
ATOM    164  CG  ACE d   1     -15.475 -12.321  33.440  0.00  0.00    -0.048 C 
ATOM    165  H61 ACE d   1     -14.671 -12.504  32.711  0.00  0.00     0.035 H 
ATOM    166  H62 ACE d   1     -15.035 -12.110  34.426  0.00  0.00     0.035 H 
BRANCH 164 167
ATOM    167  CD  ACE d   1     -16.289 -11.129  32.994  0.00  0.00     0.009 C 
ATOM    168  H63 ACE d   1     -17.152 -11.007  33.665  0.00  0.00     0.064 H 
ATOM    169  H64 ACE d   1     -16.644 -11.296  31.966  0.00  0.00     0.064 H 
BRANCH 167 170
ATOM    170  NE  ACE d   1     -15.478  -9.923  33.032  0.00  0.00    -0.227 N 
ATOM    171  CZ  ACE d   1     -15.235  -9.187  34.116  0.00  0.00     0.665 C 
ATOM    172  NH1 ACE d   1     -14.468  -8.110  34.004  0.00  0.00    -0.235 N 
ATOM    173  NH2 ACE d   1     -15.734  -9.506  35.309  0.00  0.00    -0.235 N 
ATOM    174  H66 ACE d   1     -14.270  -7.530  34.832  0.00  0.00     0.174 HD
ATOM    175  H67 ACE d   1     -14.070  -7.854  33.089  0.00  0.00     0.174 HD
ATOM    176  H68 ACE d   1     -16.331 -10.339  35.411  0.00  0.00     0.174 HD
ATOM    177  H69 ACE d   1     -15.523  -8.920  36.129  0.00  0.00     0.174 HD
ATOM    178  H65 ACE d   1     -15.055  -9.611  32.146  0.00  0.00     0.177 HD
ENDBRANCH 167 170
ENDBRANCH 164 167
ENDBRANCH 161 164
ENDBRANCH  51 161
ENDBRANCH  48  51
ENDBRANCH   3  47
BRANCH   3 179
ATOM    179  CB1 ACE d   1     -14.973 -12.953  37.943  0.00  0.00    -0.044 C 
ATOM    180  H78 ACE d   1     -14.695 -12.786  38.994  0.00  0.00     0.031 H 
ATOM    181  H79 ACE d   1     -15.779 -12.259  37.662  0.00  0.00     0.031 H 
ATOM    182  H80 ACE d   1     -14.098 -12.778  37.300  0.00  0.00     0.031 H 
ENDBRANCH   3 179
BRANCH   9 183
ATOM    183  CB  ACE d   1     -14.408 -19.042  37.679  0.00  0.00    -0.030 C 
ATOM    184  H83 ACE d   1     -13.600 -19.767  37.502  0.00  0.00     0.037 H 
ATOM    185  H84 ACE d   1     -14.896 -18.796  36.724  0.00  0.00     0.037 H 
BRANCH 183 186
ATOM    186  CG  ACE d   1     -15.438 -19.705  38.569  0.00  0.00     0.011 C 
ATOM    187  H85 ACE d   1     -16.309 -19.040  38.666  0.00  0.00     0.047 H 
ATOM    188  H86 ACE d   1     -14.996 -19.878  39.561  0.00  0.00     0.047 H 
BRANCH 186 189
ATOM    189  CD  ACE d   1     -15.894 -21.037  37.991  0.00  0.00     0.215 C 
ATOM    190  OE1 ACE d   1     -16.564 -21.083  36.952  0.00  0.00    -0.274 OA
ATOM    191  NE2 ACE d   1     -15.520 -22.126  38.649  0.00  0.00    -0.370 N 
ATOM    192  H87 ACE d   1     -15.790 -23.029  38.316  0.00  0.00     0.159 HD
ATOM    193  H88 ACE d   1     -14.967 -22.044  39.478  0.00  0.00     0.159 HD
ENDBRANCH 186 189
ENDBRANCH 183 186
ENDBRANCH   9 183
BRANCH  13 194
ATOM    194  CB  ACE d   1     -11.343 -16.857  34.080  0.00  0.00    -0.035 C 
ATOM    195  H91 ACE d   1     -10.376 -16.619  33.614  0.00  0.00     0.037 H 
ATOM    196  H92 ACE d   1     -12.027 -16.004  33.960  0.00  0.00     0.037 H 
BRANCH 194 197
ATOM    197  CG  ACE d   1     -11.946 -18.061  33.345  0.00  0.00    -0.059 C 
ATOM    198  H93 ACE d   1     -12.842 -18.385  33.894  0.00  0.00     0.038 H 
BRANCH 197 199
ATOM    199  CD1 ACE d   1     -12.363 -17.661  31.936  0.00  0.00    -0.073 C 
ATOM    200  H94 ACE d   1     -12.793 -18.532  31.420  0.00  0.00     0.028 H 
ATOM    201  H95 ACE d   1     -11.483 -17.304  31.381  0.00  0.00     0.028 H 
ATOM    202  H96 ACE d   1     -13.114 -16.859  31.990  0.00  0.00     0.028 H 
ENDBRANCH 197 199
BRANCH 197 203
ATOM    203  CD2 ACE d   1     -10.969 -19.229  33.299  0.00  0.00    -0.073 C 
ATOM    204  H97 ACE d   1     -10.679 -19.505  34.324  0.00  0.00     0.028 H 
ATOM    205  H98 ACE d   1     -10.074 -18.936  32.730  0.00  0.00     0.028 H 
ATOM    206  H99 ACE d   1     -11.449 -20.090  32.810  0.00  0.00     0.028 H 
ENDBRANCH 197 203
ENDBRANCH 194 197
ENDBRANCH  13 194
BRANCH  17 207
ATOM    207  CB  ACE d   1     -11.049 -12.444  37.125  0.00  0.00    -0.035 C 
ATOM    208 2H10 ACE d   1     -10.513 -11.665  37.687  0.00  0.00     0.037 H 
ATOM    209 3H10 ACE d   1     -11.991 -12.685  37.640  0.00  0.00     0.037 H 
BRANCH 207 210
ATOM    210  CG  ACE d   1     -11.396 -11.878  35.743  0.00  0.00    -0.059 C 
ATOM    211 4H10 ACE d   1     -11.898 -12.671  35.169  0.00  0.00     0.038 H 
BRANCH 210 212
ATOM    212  CD1 ACE d   1     -12.356 -10.703  35.881  0.00  0.00    -0.073 C 
ATOM    213 5H10 ACE d   1     -12.596 -10.307  34.883  0.00  0.00     0.028 H 
ATOM    214 6H10 ACE d   1     -11.885  -9.914  36.485  0.00  0.00     0.028 H 
ATOM    215 7H10 ACE d   1     -13.280 -11.040  36.374  0.00  0.00     0.028 H 
ENDBRANCH 210 212
BRANCH 210 216
ATOM    216  CD2 ACE d   1     -10.154 -11.447  34.966  0.00  0.00    -0.073 C 
ATOM    217 8H10 ACE d   1      -9.467 -12.300  34.871  0.00  0.00     0.028 H 
ATOM    218 9H10 ACE d   1      -9.651 -10.629  35.503  0.00  0.00     0.028 H 
ATOM    219 0H11 ACE d   1     -10.450 -11.101  33.965  0.00  0.00     0.028 H 
ENDBRANCH 210 216
ENDBRANCH 207 210
ENDBRANCH  17 207
BRANCH  21 220
ATOM    220  C   ACE d   1      -8.712 -16.036  40.558  0.00  0.00     0.246 C 
ATOM    221  O   ACE d   1      -7.801 -15.880  41.374  0.00  0.00    -0.271 OA
ATOM    222  N   ACE d   1      -8.652 -16.890  39.609  0.00  0.00    -0.345 N 
ATOM    223 2H12 ACE d   1      -9.428 -16.964  38.983  0.00  0.00     0.163 HD
BRANCH 222 224
ATOM    224  CA  ACE d   1      -7.488 -17.772  39.396  0.00  0.00     0.093 C 
ATOM    225 3H12 ACE d   1      -7.262 -18.245  40.363  0.00  0.00     0.088 H 
BRANCH 224 226
ATOM    226  C   ACE d   1      -6.205 -17.070  38.926  0.00  0.00     0.241 C 
ATOM    227  O   ACE d   1      -5.133 -17.672  38.987  0.00  0.00    -0.271 OA
ATOM    228  N   ACE d   1      -6.322 -15.830  38.457  0.00  0.00    -0.346 N 
ATOM    229 1H13 ACE d   1      -7.244 -15.465  38.330  0.00  0.00     0.163 HD
BRANCH 228 230
ATOM    230  CA  ACE d   1      -5.189 -14.961  38.113  0.00  0.00     0.093 C 
ATOM    231 2H13 ACE d   1      -4.544 -15.470  37.382  0.00  0.00     0.088 H 
BRANCH 230 232
ATOM    232  C   ACE d   1      -4.382 -14.656  39.374  0.00  0.00     0.238 C 
ATOM    233  O   ACE d   1      -3.164 -14.537  39.328  0.00  0.00    -0.271 OA
ATOM    234  N   ACE d   1      -5.107 -14.550  40.600  0.00  0.00    -0.368 N 
ATOM    235 1H14 ACE d   1      -4.622 -14.352  41.452  0.00  0.00     0.159 HD
ATOM    236 2H14 ACE d   1      -6.099 -14.674  40.606  0.00  0.00     0.159 HD
ENDBRANCH 230 232
BRANCH 230 237
ATOM    237  CB  ACE d   1      -5.722 -13.653  37.501  0.00  0.00    -0.012 C 
ATOM    238 3H13 ACE d   1      -6.083 -13.027  38.330  0.00  0.00     0.044 H 
ATOM    239 4H13 ACE d   1      -6.566 -13.918  36.847  0.00  0.00     0.044 H 
BRANCH 237 240
ATOM    240  CG  ACE d   1      -4.768 -12.813  36.686  0.00  0.00    -0.028 A 
ATOM    241  CD1 ACE d   1      -3.432 -13.003  36.513  0.00  0.00    -0.015 A 
ATOM    242  NE1 ACE d   1      -2.910 -12.018  35.711  0.00  0.00    -0.365 N 
ATOM    243 5H13 ACE d   1      -2.858 -13.820  36.949  0.00  0.00     0.112 H 
ATOM    244  CE2 ACE d   1      -3.914 -11.160  35.346  0.00  0.00     0.042 A 
ATOM    245 6H13 ACE d   1      -1.923 -11.937  35.429  0.00  0.00     0.165 HD
ATOM    246  CD2 ACE d   1      -5.102 -11.624  35.953  0.00  0.00    -0.002 A 
ATOM    247  CZ2 ACE d   1      -3.879 -10.011  34.541  0.00  0.00    -0.056 A 
ATOM    248  CE3 ACE d   1      -6.298 -10.911  35.742  0.00  0.00    -0.070 A 
ATOM    249  CZ3 ACE d   1      -6.267  -9.773  34.935  0.00  0.00    -0.082 A 
ATOM    250 7H13 ACE d   1      -7.225 -11.240  36.198  0.00  0.00     0.084 H 
ATOM    251  CH2 ACE d   1      -5.061  -9.336  34.343  0.00  0.00    -0.081 A 
ATOM    252 9H13 ACE d   1      -7.181  -9.217  34.760  0.00  0.00     0.083 H 
ATOM    253 0H14 ACE d   1      -5.067  -8.450  33.719  0.00  0.00     0.083 H 
ATOM    254 8H13 ACE d   1      -2.954  -9.668  34.092  0.00  0.00     0.086 H 
ENDBRANCH 237 240
ENDBRANCH 230 237
ENDBRANCH 228 230
ENDBRANCH 224 226
BRANCH 224 255
ATOM    255  CB  ACE d   1      -7.855 -18.882  38.391  0.00  0.00    -0.014 C 
ATOM    256 4H12 ACE d   1      -6.926 -19.383  38.082  0.00  0.00     0.043 H 
ATOM    257 5H12 ACE d   1      -8.325 -18.409  37.516  0.00  0.00     0.043 H 
BRANCH 255 258
ATOM    258  CG  ACE d   1      -8.807 -19.940  38.923  0.00  0.00    -0.056 A 
ATOM    259  CD1 ACE d   1      -8.748 -20.398  40.249  0.00  0.00    -0.077 A 
ATOM    260  CE1 ACE d   1      -9.620 -21.385  40.704  0.00  0.00    -0.082 A 
ATOM    261 6H12 ACE d   1      -8.014 -19.978  40.928  0.00  0.00     0.084 H 
ATOM    262  CZ  ACE d   1     -10.549 -21.939  39.838  0.00  0.00    -0.083 A 
ATOM    263 8H12 ACE d   1      -9.572 -21.719  41.734  0.00  0.00     0.083 H 
ATOM    264  CE2 ACE d   1     -10.602 -21.517  38.518  0.00  0.00    -0.082 A 
ATOM    265 0H13 ACE d   1     -11.234 -22.701  40.192  0.00  0.00     0.083 H 
ATOM    266  CD2 ACE d   1      -9.734 -20.531  38.067  0.00  0.00    -0.077 A 
ATOM    267 9H12 ACE d   1     -11.322 -21.957  37.837  0.00  0.00     0.083 H 
ATOM    268 7H12 ACE d   1      -9.778 -20.216  37.031  0.00  0.00     0.084 H 
ENDBRANCH 255 258
ENDBRANCH 224 255
ENDBRANCH 222 224
ENDBRANCH  21 220
BRANCH  21 269
ATOM    269  CB1 ACE d   1      -9.731 -13.992  41.582  0.00  0.00    -0.044 C 
ATOM    270 9H11 ACE d   1      -9.425 -14.339  42.580  0.00  0.00     0.031 H 
ATOM    271 0H12 ACE d   1     -10.653 -13.398  41.667  0.00  0.00     0.031 H 
ATOM    272 1H12 ACE d   1      -8.933 -13.371  41.149  0.00  0.00     0.031 H 
ENDBRANCH  21 269
TORSDOF 59
