REMARK  6 active torsions:
REMARK  status: ('A' for Active; 'I' for Inactive)
REMARK    1  A    between atoms: C1_1  and  C2_2 
REMARK    2  A    between atoms: C1_1  and  C8_8 
REMARK    3  A    between atoms: C1_1  and  C14_14 
REMARK    4  A    between atoms: C1_1  and  O15_15 
REMARK    5  A    between atoms: C14_14  and  O17_17 
REMARK    6  A    between atoms: O17_17  and  C18_18 
ROOT
ATOM      1  C1  QNB d   1     183.275  25.800 527.685  0.00  0.00     0.201 C 
ENDROOT
BRANCH   1   2
ATOM      2  C2  QNB d   1     183.907  26.845 528.614  0.00  0.00    -0.009 A 
ATOM      3  C3  QNB d   1     184.198  28.125 528.157  0.00  0.00    -0.073 A 
ATOM      4  C4  QNB d   1     184.771  29.063 529.000  0.00  0.00    -0.082 A 
ATOM      5  H1  QNB d   1     183.974  28.392 527.130  0.00  0.00     0.084 H 
ATOM      6  C5  QNB d   1     185.060  28.737 530.306  0.00  0.00    -0.083 A 
ATOM      7  H2  QNB d   1     184.993  30.058 528.630  0.00  0.00     0.083 H 
ATOM      8  C6  QNB d   1     184.779  27.472 530.773  0.00  0.00    -0.082 A 
ATOM      9  H3  QNB d   1     185.507  29.473 530.964  0.00  0.00     0.083 H 
ATOM     10  C7  QNB d   1     184.205  26.531 529.934  0.00  0.00    -0.073 A 
ATOM     11  H4  QNB d   1     185.008  27.212 531.800  0.00  0.00     0.083 H 
ATOM     12  H5  QNB d   1     183.986  25.539 530.312  0.00  0.00     0.084 H 
ENDBRANCH   1   2
BRANCH   1  13
ATOM     13  C8  QNB d   1     183.887  25.869 526.281  0.00  0.00    -0.009 A 
ATOM     14  C9  QNB d   1     185.249  25.665 526.091  0.00  0.00    -0.073 A 
ATOM     15  C10 QNB d   1     185.804  25.728 524.825  0.00  0.00    -0.082 A 
ATOM     16  H6  QNB d   1     185.883  25.454 526.944  0.00  0.00     0.084 H 
ATOM     17  C11 QNB d   1     185.010  25.995 523.732  0.00  0.00    -0.083 A 
ATOM     18  H7  QNB d   1     186.868  25.567 524.693  0.00  0.00     0.083 H 
ATOM     19  C12 QNB d   1     183.659  26.200 523.904  0.00  0.00    -0.082 A 
ATOM     20  H8  QNB d   1     185.446  26.044 522.741  0.00  0.00     0.083 H 
ATOM     21  C13 QNB d   1     183.100  26.137 525.168  0.00  0.00    -0.073 A 
ATOM     22  H9  QNB d   1     183.031  26.412 523.046  0.00  0.00     0.083 H 
ATOM     23  H10 QNB d   1     182.035  26.299 525.291  0.00  0.00     0.084 H 
ENDBRANCH   1  13
BRANCH   1  24
ATOM     24  C14 QNB d   1     181.745  25.989 527.636  0.00  0.00     0.303 C 
ATOM     25  O16 QNB d   1     180.970  25.079 527.732  0.00  0.00    -0.261 OA
BRANCH  24  26
ATOM     26  O17 QNB d   1     181.385  27.272 527.499  0.00  0.00    -0.311 OA
BRANCH  26  27
ATOM     27  C18 QNB d   1     179.965  27.588 527.592  0.00  0.00     0.075 C 
ATOM     28  C19 QNB d   1     179.813  28.967 528.197  0.00  0.00     0.108 C 
ATOM     29  N20 QNB d   1     179.342  29.940 527.210  0.00  0.00    -0.069 N 
ATOM     30  H13 QNB d   1     180.788  29.296 528.585  0.00  0.00     0.080 H 
ATOM     31  H14 QNB d   1     179.088  28.917 529.023  0.00  0.00     0.080 H 
ATOM     32  C21 QNB d   1     180.253  29.967 526.062  0.00  0.00     0.084 C 
ATOM     33  C25 QNB d   1     178.003  29.564 526.745  0.00  0.00     0.084 C 
ATOM     34  H15 QNB d   1     179.307  30.854 527.633  0.00  0.00     0.280 HD
ATOM     35  C22 QNB d   1     180.301  28.609 525.371  0.00  0.00    -0.037 C 
ATOM     36  H16 QNB d   1     181.263  30.229 526.410  0.00  0.00     0.076 H 
ATOM     37  H17 QNB d   1     179.905  30.724 525.344  0.00  0.00     0.076 H 
ATOM     38  C23 QNB d   1     179.440  27.631 526.165  0.00  0.00    -0.024 C 
ATOM     39  H18 QNB d   1     181.339  28.246 525.337  0.00  0.00     0.036 H 
ATOM     40  H19 QNB d   1     179.911  28.700 524.347  0.00  0.00     0.036 H 
ATOM     41  C24 QNB d   1     178.001  28.142 526.197  0.00  0.00    -0.037 C 
ATOM     42  H20 QNB d   1     179.479  26.630 525.710  0.00  0.00     0.044 H 
ATOM     43  H21 QNB d   1     177.392  27.495 526.846  0.00  0.00     0.036 H 
ATOM     44  H22 QNB d   1     177.583  28.137 525.179  0.00  0.00     0.036 H 
ATOM     45  H23 QNB d   1     177.689  30.257 525.951  0.00  0.00     0.076 H 
ATOM     46  H24 QNB d   1     177.298  29.627 527.587  0.00  0.00     0.076 H 
ATOM     47  H12 QNB d   1     179.429  26.837 528.192  0.00  0.00     0.087 H 
ENDBRANCH  26  27
ENDBRANCH  24  26
ENDBRANCH   1  24
BRANCH   1  48
ATOM     48  O15 QNB d   1     183.546  24.502 528.221  0.00  0.00    -0.371 OA
ATOM     49  H11 QNB d   1     183.157  23.841 527.660  0.00  0.00     0.212 HD
ENDBRANCH   1  48
TORSDOF 6
