REMARK WARNING: 32 MAX_TORS EXCEEDED!!!
REMARK  68 active torsions:
REMARK  status: ('A' for Active; 'I' for Inactive)
REMARK    1  A    between atoms: CA_2  and  N_1 
REMARK    2  A    between atoms: C_3  and  CA_2 
REMARK    3  A    between atoms: CA_2  and  CB_5 
REMARK       I    between atoms: N_6  and  C_3 
REMARK    4  A    between atoms: CA_7  and  N_6 
REMARK    5  A    between atoms: C_8  and  CA_7 
REMARK    6  A    between atoms: CA_7  and  CB_10 
REMARK       I    between atoms: N_17  and  C_8 
REMARK    7  A    between atoms: CB_10  and  CG_11 
REMARK    8  A    between atoms: CG_11  and  CD_12 
REMARK    9  A    between atoms: CD_12  and  NE_13 
REMARK       I    between atoms: NE_13  and  CZ_14 
REMARK       I    between atoms: CZ_14  and  NH1_15 
REMARK       I    between atoms: CZ_14  and  NH2_16 
REMARK   10  A    between atoms: CA_18  and  N_17 
REMARK   11  A    between atoms: C_19  and  CA_18 
REMARK   12  A    between atoms: CA_18  and  CB_21 
REMARK       I    between atoms: N_29  and  C_19 
REMARK   13  A    between atoms: CB_21  and  CG_22 
REMARK   14  A    between atoms: CZ_27  and  OH_28 
REMARK   15  A    between atoms: CA_30  and  N_29 
REMARK   16  A    between atoms: C_31  and  CA_30 
REMARK   17  A    between atoms: CA_30  and  CB_33 
REMARK       I    between atoms: N_35  and  C_31 
REMARK   18  A    between atoms: CB_33  and  OG_34 
REMARK   19  A    between atoms: CA_36  and  N_35 
REMARK   20  A    between atoms: C_37  and  CA_36 
REMARK   21  A    between atoms: CA_36  and  CB_39 
REMARK       I    between atoms: N_46  and  C_37 
REMARK   22  A    between atoms: CB_39  and  CG_40 
REMARK   23  A    between atoms: CG_40  and  CD_41 
REMARK   24  A    between atoms: CD_41  and  NE_42 
REMARK       I    between atoms: NE_42  and  CZ_43 
REMARK       I    between atoms: CZ_43  and  NH1_44 
REMARK       I    between atoms: CZ_43  and  NH2_45 
REMARK   25  A    between atoms: CA_47  and  N_46 
REMARK   26  A    between atoms: C_48  and  CA_47 
REMARK   27  A    between atoms: CA_47  and  CB_50 
REMARK       I    between atoms: N_55  and  C_48 
REMARK   28  A    between atoms: CB_50  and  CG_51 
REMARK   29  A    between atoms: CG_51  and  CD_52 
REMARK   30  A    between atoms: CA_56  and  N_55 
REMARK   31  A    between atoms: C_57  and  CA_56 
REMARK   32  A    between atoms: CA_56  and  CB_59 
REMARK       I    between atoms: N_64  and  C_57 
REMARK   33  A    between atoms: CB_59  and  CG_60 
REMARK   34  A    between atoms: CG_60  and  CD_61 
REMARK       I    between atoms: CD_61  and  NE2_63 
REMARK   35  A    between atoms: CA_65  and  N_64 
REMARK   36  A    between atoms: C_66  and  CA_65 
REMARK   37  A    between atoms: CA_65  and  CB_68 
REMARK       I    between atoms: N_72  and  C_66 
REMARK   38  A    between atoms: CB_68  and  CG_69 
REMARK   39  A    between atoms: CG_69  and  CD1_70 
REMARK   40  A    between atoms: CG_69  and  CD2_71 
REMARK   41  A    between atoms: CA_73  and  N_72 
REMARK   42  A    between atoms: C_74  and  CA_73 
REMARK   43  A    between atoms: CA_73  and  CB_76 
REMARK       I    between atoms: N_81  and  C_74 
REMARK   44  A    between atoms: CB_76  and  CG_77 
REMARK   45  A    between atoms: CG_77  and  CD1_78 
REMARK   46  A    between atoms: CG_77  and  CD2_79 
REMARK   47  A    between atoms: CA_83  and  C_80 
REMARK       I    between atoms: C_80  and  N_89 
REMARK   48  A    between atoms: CA_83  and  N_81 
REMARK   49  A    between atoms: CB_84  and  CA_83 
REMARK   50  A    between atoms: CA_83  and  CB1_88 
REMARK   51  A    between atoms: CG_87  and  CB_84 
REMARK   52  A    between atoms: CD_85  and  CE_86 
REMARK   53  A    between atoms: CD_85  and  CG_87 
REMARK   54  A    between atoms: N_89  and  CA_90 
REMARK   55  A    between atoms: CA_90  and  C_91 
REMARK   56  A    between atoms: CA_90  and  CB_93 
REMARK       I    between atoms: C_91  and  N_100 
REMARK   57  A    between atoms: CB_93  and  CG_94 
REMARK   58  A    between atoms: N_100  and  CA_101 
REMARK   59  A    between atoms: CA_101  and  C_102 
REMARK   60  A    between atoms: CA_101  and  CB_104 
REMARK       I    between atoms: C_102  and  N_109 
REMARK   61  A    between atoms: CB_104  and  CG_105 
REMARK   62  A    between atoms: CG_105  and  CD_106 
REMARK       I    between atoms: CD_106  and  NE2_108 
REMARK   63  A    between atoms: N_109  and  CA_110 
REMARK   64  A    between atoms: CA_110  and  C_111 
REMARK   65  A    between atoms: CA_110  and  CB_113 
REMARK   66  A    between atoms: CB_113  and  CG_114 
REMARK   67  A    between atoms: CG_114  and  CD_115 
REMARK   68  A    between atoms: CD_115  and  NE_116 
REMARK       I    between atoms: NE_116  and  CZ_117 
REMARK       I    between atoms: CZ_117  and  NH1_118 
ROOT
ATOM      1  C   LYS d   1      46.670  82.815  90.898  0.00  0.00     0.241 C 
ATOM      2  O   LYS d   1      46.931  83.614  90.000  0.00  0.00    -0.271 OA
ATOM      3  N   LYS d   1      46.314  81.550  90.656  0.00  0.00    -0.346 N 
ATOM      4  H62 LYS d   1      46.172  80.926  91.424  0.00  0.00     0.163 HD
ENDROOT
BRANCH   1   5
ATOM      5  CA  LYS d   1      46.748  83.256  92.370  0.00  0.00     0.090 C 
ATOM      6  H55 LYS d   1      46.632  84.349  92.402  0.00  0.00     0.087 H 
BRANCH   5   7
ATOM      7  N   LYS d   1      45.672  82.669  93.193  0.00  0.00    -0.346 N 
ATOM      8  C   LYS d   1      44.385  82.947  92.970  0.00  0.00     0.241 C 
ATOM      9  O   LYS d   1      44.022  83.735  92.125  0.00  0.00    -0.271 OA
ATOM     10  H54 LYS d   1      45.913  82.046  93.938  0.00  0.00     0.163 HD
BRANCH   8  11
ATOM     11  CA  LYS d   1      43.338  82.218  93.812  0.00  0.00     0.090 C 
ATOM     12  H49 LYS d   1      42.377  82.280  93.280  0.00  0.00     0.087 H 
BRANCH  11  13
ATOM     13  N   LYS d   1      43.676  80.809  93.959  0.00  0.00    -0.346 N 
ATOM     14  C   LYS d   1      43.616  79.948  92.954  0.00  0.00     0.241 C 
ATOM     15  O   LYS d   1      43.377  80.271  91.803  0.00  0.00    -0.271 OA
ATOM     16  H48 LYS d   1      43.966  80.477  94.857  0.00  0.00     0.163 HD
BRANCH  14  17
ATOM     17  CA  LYS d   1      43.855  78.499  93.322  0.00  0.00     0.089 C 
ATOM     18  H36 LYS d   1      44.041  77.923  92.403  0.00  0.00     0.087 H 
BRANCH  17  19
ATOM     19  N   LYS d   1      45.031  78.354  94.203  0.00  0.00    -0.346 N 
ATOM     20  C   LYS d   1      46.228  78.900  93.955  0.00  0.00     0.243 C 
ATOM     21  O   LYS d   1      46.532  79.497  92.895  0.00  0.00    -0.271 OA
ATOM     22  H35 LYS d   1      44.927  77.814  95.038  0.00  0.00     0.163 HD
BRANCH  20  23
ATOM     23  CA  LYS d   1      47.248  78.760  95.081  0.00  0.00     0.109 C 
ATOM     24  H31 LYS d   1      47.241  77.718  95.432  0.00  0.00     0.090 H 
BRANCH  23  25
ATOM     25  N   LYS d   1      48.592  79.073  94.583  0.00  0.00    -0.344 N 
ATOM     26  C   LYS d   1      49.230  78.232  93.773  0.00  0.00     0.241 C 
ATOM     27  O   LYS d   1      48.805  77.106  93.491  0.00  0.00    -0.271 OA
ATOM     28  H30 LYS d   1      49.033  79.928  94.855  0.00  0.00     0.163 HD
BRANCH  26  29
ATOM     29  CA  LYS d   1      50.518  78.711  93.156  0.00  0.00     0.093 C 
ATOM     30  H22 LYS d   1      50.895  79.603  93.677  0.00  0.00     0.088 H 
BRANCH  29  31
ATOM     31  N   LYS d   1      51.470  77.616  93.273  0.00  0.00    -0.346 N 
ATOM     32  C   LYS d   1      52.715  77.795  93.683  0.00  0.00     0.241 C 
ATOM     33  O   LYS d   1      53.177  78.893  93.945  0.00  0.00    -0.271 OA
ATOM     34  H21 LYS d   1      51.171  76.692  93.034  0.00  0.00     0.163 HD
BRANCH  32  35
ATOM     35  CA  LYS d   1      53.565  76.537  93.803  0.00  0.00     0.089 C 
ATOM     36  H9  LYS d   1      53.175  75.780  93.106  0.00  0.00     0.087 H 
BRANCH  35  37
ATOM     37  N   LYS d   1      54.966  76.816  93.447  0.00  0.00    -0.346 N 
ATOM     38  C   LYS d   1      55.667  76.096  92.569  0.00  0.00     0.248 C 
ATOM     39  O   LYS d   1      55.218  75.110  91.980  0.00  0.00    -0.271 OA
ATOM     40  H8  LYS d   1      55.419  77.590  93.889  0.00  0.00     0.163 HD
BRANCH  38  41
ATOM     41  CA  LYS d   1      57.116  76.539  92.335  0.00  0.00     0.172 C 
ATOM     42  H4  LYS d   1      57.286  77.466  92.903  0.00  0.00     0.098 H 
BRANCH  41  43
ATOM     43  N   LYS d   1      58.085  75.506  92.834  0.00  0.00    -0.067 N 
ATOM     44  H1  LYS d   1      59.028  75.822  92.668  0.00  0.00     0.275 HD
ATOM     45  H2  LYS d   1      57.931  74.637  92.346  0.00  0.00     0.275 HD
ATOM     46  H3  LYS d   1      57.947  75.365  93.823  0.00  0.00     0.275 HD
ENDBRANCH  41  43
BRANCH  41  47
ATOM     47  CB  LYS d   1      57.347  76.843  90.840  0.00  0.00    -0.042 C 
ATOM     48  H5  LYS d   1      56.624  77.601  90.504  0.00  0.00     0.030 H 
ATOM     49  H6  LYS d   1      57.212  75.922  90.253  0.00  0.00     0.030 H 
ATOM     50  H7  LYS d   1      58.370  77.222  90.697  0.00  0.00     0.030 H 
ENDBRANCH  41  47
ENDBRANCH  38  41
ENDBRANCH  35  37
BRANCH  35  51
ATOM     51  CB  LYS d   1      53.455  75.990  95.232  0.00  0.00    -0.036 C 
ATOM     52  H10 LYS d   1      52.392  75.972  95.516  0.00  0.00     0.036 H 
ATOM     53  H11 LYS d   1      54.003  76.665  95.905  0.00  0.00     0.036 H 
BRANCH  51  54
ATOM     54  CG  LYS d   1      54.021  74.581  95.398  0.00  0.00    -0.048 C 
ATOM     55  H12 LYS d   1      54.081  74.110  94.406  0.00  0.00     0.035 H 
ATOM     56  H13 LYS d   1      53.337  74.003  96.037  0.00  0.00     0.035 H 
BRANCH  54  57
ATOM     57  CD  LYS d   1      55.407  74.556  96.029  0.00  0.00     0.009 C 
ATOM     58  H14 LYS d   1      55.932  75.487  95.769  0.00  0.00     0.064 H 
ATOM     59  H15 LYS d   1      55.964  73.696  95.628  0.00  0.00     0.064 H 
BRANCH  57  60
ATOM     60  NE  LYS d   1      55.347  74.440  97.490  0.00  0.00    -0.227 N 
ATOM     61  CZ  LYS d   1      56.407  74.333  98.297  0.00  0.00     0.665 C 
ATOM     62  NH1 LYS d   1      57.650  74.336  97.809  0.00  0.00    -0.235 N 
ATOM     63  NH2 LYS d   1      56.225  74.232  99.612  0.00  0.00    -0.235 N 
ATOM     64  H17 LYS d   1      58.454  74.252  98.447  0.00  0.00     0.174 HD
ATOM     65  H18 LYS d   1      57.805  74.422  96.794  0.00  0.00     0.174 HD
ATOM     66  H19 LYS d   1      55.271  74.228 100.001  0.00  0.00     0.174 HD
ATOM     67  H20 LYS d   1      57.038  74.157 100.240  0.00  0.00     0.174 HD
ATOM     68  H16 LYS d   1      54.415  74.441  97.928  0.00  0.00     0.177 HD
ENDBRANCH  57  60
ENDBRANCH  54  57
ENDBRANCH  51  54
ENDBRANCH  35  51
ENDBRANCH  32  35
ENDBRANCH  29  31
BRANCH  29  69
ATOM     69  CB  LYS d   1      50.245  79.036  91.686  0.00  0.00    -0.014 C 
ATOM     70  H23 LYS d   1      49.467  79.812  91.650  0.00  0.00     0.043 H 
ATOM     71  H24 LYS d   1      49.874  78.121  91.200  0.00  0.00     0.043 H 
BRANCH  69  72
ATOM     72  CG  LYS d   1      51.433  79.532  90.897  0.00  0.00    -0.056 A 
ATOM     73  CD1 LYS d   1      51.744  80.889  90.825  0.00  0.00    -0.074 A 
ATOM     74  CE1 LYS d   1      52.832  81.341  90.079  0.00  0.00    -0.051 A 
ATOM     75  H25 LYS d   1      51.129  81.605  91.358  0.00  0.00     0.084 H 
ATOM     76  CZ  LYS d   1      53.623  80.424  89.396  0.00  0.00     0.065 A 
ATOM     77  H27 LYS d   1      53.059  82.400  90.032  0.00  0.00     0.087 H 
ATOM     78  CE2 LYS d   1      53.330  79.073  89.465  0.00  0.00    -0.051 A 
ATOM     79  CD2 LYS d   1      52.235  78.643  90.195  0.00  0.00    -0.074 A 
ATOM     80  H28 LYS d   1      53.956  78.354  88.949  0.00  0.00     0.087 H 
ATOM     81  H26 LYS d   1      51.998  77.585  90.219  0.00  0.00     0.084 H 
BRANCH  76  82
ATOM     82  OH  LYS d   1      54.716  80.824  88.663  0.00  0.00    -0.361 OA
ATOM     83  H29 LYS d   1      54.606  80.553  87.759  0.00  0.00     0.217 HD
ENDBRANCH  76  82
ENDBRANCH  69  72
ENDBRANCH  29  69
ENDBRANCH  26  29
ENDBRANCH  23  25
BRANCH  23  84
ATOM     84  CB  LYS d   1      46.870  79.669  96.259  0.00  0.00     0.044 C 
ATOM     85  H32 LYS d   1      47.601  79.530  97.069  0.00  0.00     0.077 H 
ATOM     86  H33 LYS d   1      45.867  79.394  96.618  0.00  0.00     0.077 H 
BRANCH  84  87
ATOM     87  OG  LYS d   1      46.864  81.034  95.868  0.00  0.00    -0.398 OA
ATOM     88  H34 LYS d   1      46.628  81.575  96.613  0.00  0.00     0.209 HD
ENDBRANCH  84  87
ENDBRANCH  23  84
ENDBRANCH  20  23
ENDBRANCH  17  19
BRANCH  17  89
ATOM     89  CB  LYS d   1      42.565  77.965  93.996  0.00  0.00    -0.036 C 
ATOM     90  H37 LYS d   1      42.264  78.676  94.780  0.00  0.00     0.036 H 
ATOM     91  H38 LYS d   1      42.791  76.990  94.452  0.00  0.00     0.036 H 
BRANCH  89  92
ATOM     92  CG  LYS d   1      41.386  77.785  93.027  0.00  0.00    -0.048 C 
ATOM     93  H39 LYS d   1      41.449  76.771  92.606  0.00  0.00     0.035 H 
ATOM     94  H40 LYS d   1      41.498  78.525  92.221  0.00  0.00     0.035 H 
BRANCH  92  95
ATOM     95  CD  LYS d   1      39.986  77.956  93.629  0.00  0.00     0.009 C 
ATOM     96  H41 LYS d   1      39.290  78.250  92.829  0.00  0.00     0.064 H 
ATOM     97  H42 LYS d   1      40.023  78.747  94.392  0.00  0.00     0.064 H 
BRANCH  95  98
ATOM     98  NE  LYS d   1      39.498  76.729  94.248  0.00  0.00    -0.227 N 
ATOM     99  CZ  LYS d   1      39.686  76.372  95.529  0.00  0.00     0.665 C 
ATOM    100  NH1 LYS d   1      39.210  75.201  95.957  0.00  0.00    -0.235 N 
ATOM    101  NH2 LYS d   1      40.324  77.169  96.401  0.00  0.00    -0.235 N 
ATOM    102  H44 LYS d   1      39.348  74.916  96.937  0.00  0.00     0.174 HD
ATOM    103  H45 LYS d   1      38.705  74.582  95.307  0.00  0.00     0.174 HD
ATOM    104  H46 LYS d   1      40.699  78.077  96.090  0.00  0.00     0.174 HD
ATOM    105  H47 LYS d   1      40.439  76.873  97.381  0.00  0.00     0.174 HD
ATOM    106  H43 LYS d   1      38.964  76.081  93.652  0.00  0.00     0.177 HD
ENDBRANCH  95  98
ENDBRANCH  92  95
ENDBRANCH  89  92
ENDBRANCH  17  89
ENDBRANCH  14  17
ENDBRANCH  11  13
BRANCH  11 107
ATOM    107  CB  LYS d   1      43.157  82.891  95.190  0.00  0.00    -0.029 C 
ATOM    108  H50 LYS d   1      43.212  83.981  95.051  0.00  0.00     0.037 H 
ATOM    109  H51 LYS d   1      43.978  82.563  95.844  0.00  0.00     0.037 H 
BRANCH 107 110
ATOM    110  CG  LYS d   1      41.827  82.560  95.884  0.00  0.00     0.018 C 
ATOM    111  H52 LYS d   1      41.008  82.804  95.192  0.00  0.00     0.049 H 
ATOM    112  H53 LYS d   1      41.744  83.185  96.785  0.00  0.00     0.049 H 
BRANCH 110 113
ATOM    113  CD  LYS d   1      41.679  81.094  96.303  0.00  0.00     0.172 C 
ATOM    114  OE1 LYS d   1      42.624  80.534  96.905  0.00  0.00    -0.648 OA
ATOM    115  OE2 LYS d   1      40.615  80.498  96.020  0.00  0.00    -0.648 OA
ENDBRANCH 110 113
ENDBRANCH 107 110
ENDBRANCH  11 107
ENDBRANCH   8  11
ENDBRANCH   5   7
BRANCH   5 116
ATOM    116  CB  LYS d   1      48.123  82.907  92.935  0.00  0.00    -0.030 C 
ATOM    117  H56 LYS d   1      48.887  83.278  92.236  0.00  0.00     0.037 H 
ATOM    118  H57 LYS d   1      48.197  81.812  93.011  0.00  0.00     0.037 H 
BRANCH 116 119
ATOM    119  CG  LYS d   1      48.405  83.503  94.315  0.00  0.00     0.011 C 
ATOM    120  H58 LYS d   1      47.526  83.331  94.953  0.00  0.00     0.047 H 
ATOM    121  H59 LYS d   1      48.568  84.585  94.199  0.00  0.00     0.047 H 
BRANCH 119 122
ATOM    122  CD  LYS d   1      49.629  82.903  95.008  0.00  0.00     0.215 C 
ATOM    123  OE1 LYS d   1      50.112  81.823  94.655  0.00  0.00    -0.274 OA
ATOM    124  NE2 LYS d   1      50.136  83.617  96.004  0.00  0.00    -0.370 N 
ATOM    125  H60 LYS d   1      50.937  83.284  96.501  0.00  0.00     0.159 HD
ATOM    126  H61 LYS d   1      49.717  84.489  96.258  0.00  0.00     0.159 HD
ENDBRANCH 119 122
ENDBRANCH 116 119
ENDBRANCH   5 116
ENDBRANCH   1   5
BRANCH   3 127
ATOM    127  CA  LYS d   1      46.128  81.059  89.287  0.00  0.00     0.089 C 
ATOM    128  H63 LYS d   1      47.014  81.351  88.705  0.00  0.00     0.087 H 
BRANCH 127 129
ATOM    129  C   LYS d   1      44.902  81.718  88.639  0.00  0.00     0.241 C 
ATOM    130  O   LYS d   1      44.984  82.230  87.517  0.00  0.00    -0.271 OA
ATOM    131  N   LYS d   1      43.788  81.744  89.363  0.00  0.00    -0.346 N 
ATOM    132  H73 LYS d   1      43.796  81.352  90.283  0.00  0.00     0.163 HD
BRANCH 131 133
ATOM    133  CA  LYS d   1      42.533  82.339  88.842  0.00  0.00     0.089 C 
ATOM    134  H74 LYS d   1      42.310  81.832  87.892  0.00  0.00     0.087 H 
BRANCH 133 135
ATOM    135  C   LYS d   1      42.627  83.847  88.529  0.00  0.00     0.241 C 
ATOM    136  O   LYS d   1      41.950  84.316  87.640  0.00  0.00    -0.271 OA
ATOM    137  N   LYS d   1      43.493  84.594  89.236  0.00  0.00    -0.342 N 
ATOM    138  H84 LYS d   1      44.006  84.107  89.943  0.00  0.00     0.163 HD
BRANCH 137 139
ATOM    139  CA  LYS d   1      43.787  86.018  89.114  0.00  0.00     0.110 C 
BRANCH 139 140
ATOM    140  C   LYS d   1      44.332  86.302  87.703  0.00  0.00     0.246 C 
ATOM    141  O   LYS d   1      43.914  87.324  87.117  0.00  0.00    -0.271 OA
ATOM    142  N   LYS d   1      45.179  85.483  87.174  0.00  0.00    -0.345 N 
ATOM    143  H97 LYS d   1      45.456  84.684  87.707  0.00  0.00     0.163 HD
BRANCH 142 144
ATOM    144  CA  LYS d   1      45.759  85.655  85.838  0.00  0.00     0.093 C 
ATOM    145  H98 LYS d   1      46.123  86.690  85.761  0.00  0.00     0.088 H 
BRANCH 144 146
ATOM    146  C   LYS d   1      44.760  85.441  84.714  0.00  0.00     0.241 C 
ATOM    147  O   LYS d   1      44.863  86.085  83.677  0.00  0.00    -0.271 OA
ATOM    148  N   LYS d   1      43.790  84.553  84.903  0.00  0.00    -0.346 N 
ATOM    149 6H10 LYS d   1      43.819  83.945  85.697  0.00  0.00     0.163 HD
BRANCH 148 150
ATOM    150  CA  LYS d   1      42.677  84.461  83.952  0.00  0.00     0.090 C 
ATOM    151 7H10 LYS d   1      43.083  84.153  82.977  0.00  0.00     0.087 H 
BRANCH 150 152
ATOM    152  C   LYS d   1      42.004  85.816  83.799  0.00  0.00     0.241 C 
ATOM    153  O   LYS d   1      41.793  86.285  82.682  0.00  0.00    -0.271 OA
ATOM    154  N   LYS d   1      41.695  86.434  84.938  0.00  0.00    -0.349 N 
ATOM    155 4H11 LYS d   1      41.874  85.963  85.802  0.00  0.00     0.163 HD
BRANCH 154 156
ATOM    156  CA  LYS d   1      41.105  87.772  84.980  0.00  0.00     0.062 C 
ATOM    157 5H11 LYS d   1      40.206  87.758  84.346  0.00  0.00     0.083 H 
BRANCH 156 158
ATOM    158  C   LYS d   1      42.051  88.862  84.406  0.00  0.00     0.109 C 
ATOM    159  O   LYS d   1      41.676  89.483  83.429  0.00  0.00    -0.305 OA
ATOM    160 6H11 LYS d   1      43.019  89.064  84.863  0.00  0.00     0.146 H 
ENDBRANCH 156 158
BRANCH 156 161
ATOM    161  CB  LYS d   1      40.658  88.099  86.421  0.00  0.00    -0.039 C 
ATOM    162 7H11 LYS d   1      41.555  88.123  87.058  0.00  0.00     0.036 H 
ATOM    163 8H11 LYS d   1      39.989  87.294  86.760  0.00  0.00     0.036 H 
BRANCH 161 164
ATOM    164  CG  LYS d   1      39.928  89.417  86.592  0.00  0.00    -0.048 C 
ATOM    165 9H11 LYS d   1      40.429  90.187  85.987  0.00  0.00     0.035 H 
ATOM    166 0H12 LYS d   1      39.956  89.708  87.652  0.00  0.00     0.035 H 
BRANCH 164 167
ATOM    167  CD  LYS d   1      38.485  89.301  86.148  0.00  0.00     0.009 C 
ATOM    168 1H12 LYS d   1      37.907  88.819  86.950  0.00  0.00     0.064 H 
ATOM    169 2H12 LYS d   1      38.444  88.680  85.241  0.00  0.00     0.064 H 
BRANCH 167 170
ATOM    170  NE  LYS d   1      37.888  90.595  85.855  0.00  0.00    -0.227 N 
ATOM    171  CZ  LYS d   1      36.599  90.780  85.587  0.00  0.00     0.665 C 
ATOM    172  NH1 LYS d   1      36.167  92.011  85.320  0.00  0.00    -0.235 N 
ATOM    173  NH2 LYS d   1      35.733  89.754  85.594  0.00  0.00    -0.235 N 
ATOM    174 4H12 LYS d   1      35.172  92.173  85.110  0.00  0.00     0.174 HD
ATOM    175 5H12 LYS d   1      36.828  92.801  85.323  0.00  0.00     0.174 HD
ATOM    176 6H12 LYS d   1      36.065  88.801  85.800  0.00  0.00     0.174 HD
ATOM    177 7H12 LYS d   1      34.736  89.920  85.393  0.00  0.00     0.174 HD
ATOM    178 3H12 LYS d   1      38.504  91.421  85.855  0.00  0.00     0.177 HD
ENDBRANCH 167 170
ENDBRANCH 164 167
ENDBRANCH 161 164
ENDBRANCH 156 161
ENDBRANCH 154 156
ENDBRANCH 150 152
BRANCH 150 179
ATOM    179  CB  LYS d   1      41.631  83.440  84.382  0.00  0.00    -0.030 C 
ATOM    180 8H10 LYS d   1      41.085  83.844  85.247  0.00  0.00     0.037 H 
ATOM    181 9H10 LYS d   1      42.148  82.514  84.674  0.00  0.00     0.037 H 
BRANCH 179 182
ATOM    182  CG  LYS d   1      40.620  83.104  83.286  0.00  0.00     0.011 C 
ATOM    183 0H11 LYS d   1      41.155  82.647  82.441  0.00  0.00     0.047 H 
ATOM    184 1H11 LYS d   1      40.138  84.035  82.954  0.00  0.00     0.047 H 
BRANCH 182 185
ATOM    185  CD  LYS d   1      39.547  82.143  83.758  0.00  0.00     0.215 C 
ATOM    186  OE1 LYS d   1      39.351  81.952  84.962  0.00  0.00    -0.274 OA
ATOM    187  NE2 LYS d   1      38.838  81.532  82.808  0.00  0.00    -0.370 N 
ATOM    188 2H11 LYS d   1      38.116  80.887  83.059  0.00  0.00     0.159 HD
ATOM    189 3H11 LYS d   1      39.028  81.719  81.844  0.00  0.00     0.159 HD
ENDBRANCH 182 185
ENDBRANCH 179 182
ENDBRANCH 150 179
ENDBRANCH 148 150
ENDBRANCH 144 146
BRANCH 144 190
ATOM    190  CB  LYS d   1      46.958  84.714  85.691  0.00  0.00    -0.014 C 
ATOM    191  H99 LYS d   1      47.252  84.688  84.631  0.00  0.00     0.043 H 
ATOM    192 0H10 LYS d   1      46.652  83.707  86.012  0.00  0.00     0.043 H 
BRANCH 190 193
ATOM    193  CG  LYS d   1      48.152  85.130  86.505  0.00  0.00    -0.056 A 
ATOM    194  CD1 LYS d   1      48.869  86.284  86.176  0.00  0.00    -0.077 A 
ATOM    195  CE1 LYS d   1      49.965  86.680  86.932  0.00  0.00    -0.082 A 
ATOM    196 1H10 LYS d   1      48.566  86.877  85.321  0.00  0.00     0.084 H 
ATOM    197  CZ  LYS d   1      50.365  85.922  88.025  0.00  0.00    -0.083 A 
ATOM    198 3H10 LYS d   1      50.508  87.581  86.669  0.00  0.00     0.083 H 
ATOM    199  CE2 LYS d   1      49.662  84.769  88.359  0.00  0.00    -0.082 A 
ATOM    200 5H10 LYS d   1      51.221  86.228  88.615  0.00  0.00     0.083 H 
ATOM    201  CD2 LYS d   1      48.561  84.384  87.601  0.00  0.00    -0.077 A 
ATOM    202 4H10 LYS d   1      49.972  84.171  89.209  0.00  0.00     0.083 H 
ATOM    203 2H10 LYS d   1      48.014  83.488  87.871  0.00  0.00     0.084 H 
ENDBRANCH 190 193
ENDBRANCH 144 190
ENDBRANCH 142 144
ENDBRANCH 139 140
BRANCH 139 204
ATOM    204  CB  LYS d   1      44.786  86.282  90.254  0.00  0.00    -0.033 C 
ATOM    205  H85 LYS d   1      45.147  85.302  90.600  0.00  0.00     0.037 H 
ATOM    206  H86 LYS d   1      44.228  86.774  91.064  0.00  0.00     0.037 H 
BRANCH 204 207
ATOM    207  CG  LYS d   1      46.014  87.137  89.974  0.00  0.00    -0.063 C 
ATOM    208  H92 LYS d   1      46.373  86.928  88.956  0.00  0.00     0.033 H 
ATOM    209  H93 LYS d   1      46.801  86.885  90.700  0.00  0.00     0.033 H 
BRANCH 207 210
ATOM    210  CD  LYS d   1      45.687  88.612  90.091  0.00  0.00    -0.068 C 
ATOM    211  H87 LYS d   1      44.745  88.814  89.560  0.00  0.00     0.032 H 
ATOM    212  H88 LYS d   1      45.571  88.870  91.154  0.00  0.00     0.032 H 
BRANCH 210 213
ATOM    213  CE  LYS d   1      46.784  89.467  89.492  0.00  0.00    -0.077 C 
ATOM    214  H89 LYS d   1      46.517  90.529  89.593  0.00  0.00     0.027 H 
ATOM    215  H90 LYS d   1      46.903  89.218  88.427  0.00  0.00     0.027 H 
ATOM    216  H91 LYS d   1      47.729  89.275  90.021  0.00  0.00     0.027 H 
ENDBRANCH 210 213
ENDBRANCH 207 210
ENDBRANCH 204 207
ENDBRANCH 139 204
BRANCH 139 217
ATOM    217  CB1 LYS d   1      42.496  86.800  89.413  0.00  0.00    -0.044 C 
ATOM    218  H94 LYS d   1      42.693  87.879  89.327  0.00  0.00     0.031 H 
ATOM    219  H95 LYS d   1      42.156  86.569  90.433  0.00  0.00     0.031 H 
ATOM    220  H96 LYS d   1      41.717  86.511  88.692  0.00  0.00     0.031 H 
ENDBRANCH 139 217
ENDBRANCH 137 139
ENDBRANCH 133 135
BRANCH 133 221
ATOM    221  CB  LYS d   1      41.375  82.055  89.798  0.00  0.00    -0.035 C 
ATOM    222  H75 LYS d   1      40.562  82.759  89.569  0.00  0.00     0.037 H 
ATOM    223  H76 LYS d   1      41.730  82.226  90.825  0.00  0.00     0.037 H 
BRANCH 221 224
ATOM    224  CG  LYS d   1      40.810  80.632  89.720  0.00  0.00    -0.059 C 
ATOM    225  H77 LYS d   1      41.648  79.927  89.826  0.00  0.00     0.038 H 
BRANCH 224 226
ATOM    226  CD1 LYS d   1      39.847  80.401  90.870  0.00  0.00    -0.073 C 
ATOM    227  H78 LYS d   1      39.444  79.379  90.811  0.00  0.00     0.028 H 
ATOM    228  H79 LYS d   1      39.021  81.125  90.808  0.00  0.00     0.028 H 
ATOM    229  H80 LYS d   1      40.378  80.531  91.825  0.00  0.00     0.028 H 
ENDBRANCH 224 226
BRANCH 224 230
ATOM    230  CD2 LYS d   1      40.134  80.353  88.376  0.00  0.00    -0.073 C 
ATOM    231  H81 LYS d   1      40.852  80.528  87.561  0.00  0.00     0.028 H 
ATOM    232  H82 LYS d   1      39.271  81.023  88.254  0.00  0.00     0.028 H 
ATOM    233  H83 LYS d   1      39.794  79.308  88.347  0.00  0.00     0.028 H 
ENDBRANCH 224 230
ENDBRANCH 221 224
ENDBRANCH 133 221
ENDBRANCH 131 133
ENDBRANCH 127 129
BRANCH 127 234
ATOM    234  CB  LYS d   1      46.024  79.530  89.235  0.00  0.00    -0.035 C 
ATOM    235  H64 LYS d   1      45.728  79.246  88.214  0.00  0.00     0.037 H 
ATOM    236  H65 LYS d   1      45.241  79.221  89.943  0.00  0.00     0.037 H 
BRANCH 234 237
ATOM    237  CG  LYS d   1      47.309  78.759  89.585  0.00  0.00    -0.059 C 
ATOM    238  H66 LYS d   1      47.654  79.108  90.569  0.00  0.00     0.038 H 
BRANCH 237 239
ATOM    239  CD1 LYS d   1      47.013  77.271  89.683  0.00  0.00    -0.073 C 
ATOM    240  H67 LYS d   1      47.937  76.729  89.933  0.00  0.00     0.028 H 
ATOM    241  H68 LYS d   1      46.626  76.910  88.719  0.00  0.00     0.028 H 
ATOM    242  H69 LYS d   1      46.262  77.097  90.468  0.00  0.00     0.028 H 
ENDBRANCH 237 239
BRANCH 237 243
ATOM    243  CD2 LYS d   1      48.431  79.007  88.582  0.00  0.00    -0.073 C 
ATOM    244  H70 LYS d   1      48.636  80.086  88.520  0.00  0.00     0.028 H 
ATOM    245  H71 LYS d   1      48.127  78.634  87.593  0.00  0.00     0.028 H 
ATOM    246  H72 LYS d   1      49.339  78.480  88.910  0.00  0.00     0.028 H 
ENDBRANCH 237 243
ENDBRANCH 234 237
ENDBRANCH 127 234
ENDBRANCH   3 127
TORSDOF 68
