REMARK  22 active torsions:
REMARK  status: ('A' for Active; 'I' for Inactive)
REMARK    1  A    between atoms: C_1  and  CH3_3 
REMARK       I    between atoms: C_1  and  N_4 
REMARK    2  A    between atoms: N_4  and  CA_5 
REMARK    3  A    between atoms: CA_5  and  C_6 
REMARK    4  A    between atoms: CA_5  and  CB_8 
REMARK       I    between atoms: C_6  and  N_15 
REMARK    5  A    between atoms: CB_8  and  CG_9 
REMARK    6  A    between atoms: CG_9  and  CD_10 
REMARK    7  A    between atoms: CD_10  and  NE_11 
REMARK       I    between atoms: NE_11  and  CZ_12 
REMARK       I    between atoms: CZ_12  and  NH1_13 
REMARK       I    between atoms: CZ_12  and  NH2_14 
REMARK    8  A    between atoms: N_15  and  CA_16 
REMARK    9  A    between atoms: CA_16  and  C_17 
REMARK   10  A    between atoms: CA_16  and  CB_19 
REMARK       I    between atoms: C_17  and  N_27 
REMARK   11  A    between atoms: CB_19  and  CG_20 
REMARK   12  A    between atoms: CZ_25  and  OH_26 
REMARK   13  A    between atoms: N_27  and  CA_28 
REMARK   14  A    between atoms: CA_28  and  C_29 
REMARK   15  A    between atoms: CA_28  and  CB_31 
REMARK       I    between atoms: C_29  and  N_33 
REMARK   16  A    between atoms: CB_31  and  OG_32 
REMARK   17  A    between atoms: N_33  and  CA_34 
REMARK   18  A    between atoms: CA_34  and  C_35 
REMARK   19  A    between atoms: CA_34  and  CB_37 
REMARK   20  A    between atoms: CB_37  and  CG_38 
REMARK   21  A    between atoms: CG_38  and  CD_39 
REMARK   22  A    between atoms: CD_39  and  NE_40 
REMARK       I    between atoms: NE_40  and  CZ_41 
REMARK       I    between atoms: CZ_41  and  NH1_42 
ROOT
ATOM      1  CA  ACE d   1     -17.906  11.031   8.085  0.00  0.00     0.093 C 
ATOM      2  H18 ACE d   1     -17.671  12.099   8.199  0.00  0.00     0.088 H 
ENDROOT
BRANCH   1   3
ATOM      3  N   ACE d   1     -17.106  10.284   9.070  0.00  0.00    -0.346 N 
ATOM      4  C   ACE d   1     -16.284  10.893   9.928  0.00  0.00     0.241 C 
ATOM      5  O   ACE d   1     -16.094  12.110   9.939  0.00  0.00    -0.271 OA
ATOM      6  H17 ACE d   1     -17.181   9.287   9.097  0.00  0.00     0.163 HD
BRANCH   4   7
ATOM      7  CA  ACE d   1     -15.559   9.999  10.934  0.00  0.00     0.089 C 
ATOM      8  H5  ACE d   1     -15.013  10.647  11.636  0.00  0.00     0.087 H 
BRANCH   7   9
ATOM      9  N   ACE d   1     -16.534   9.177  11.722  0.00  0.00    -0.348 N 
ATOM     10  C   ACE d   1     -17.355   9.587  12.731  0.00  0.00     0.214 C 
ATOM     11  O   ACE d   1     -18.112   8.782  13.296  0.00  0.00    -0.274 OA
ATOM     12  H4  ACE d   1     -16.589   8.209  11.478  0.00  0.00     0.163 HD
BRANCH  10  13
ATOM     13  CH3 ACE d   1     -17.352  11.043  13.207  0.00  0.00    -0.003 C 
ATOM     14  H1  ACE d   1     -16.633  11.623  12.609  0.00  0.00     0.040 H 
ATOM     15  H2  ACE d   1     -17.062  11.082  14.268  0.00  0.00     0.040 H 
ATOM     16  H3  ACE d   1     -18.358  11.470  13.086  0.00  0.00     0.040 H 
ENDBRANCH  10  13
ENDBRANCH   7   9
BRANCH   7  17
ATOM     17  CB  ACE d   1     -14.539   9.100  10.222  0.00  0.00    -0.036 C 
ATOM     18  H6  ACE d   1     -15.081   8.452   9.518  0.00  0.00     0.036 H 
ATOM     19  H7  ACE d   1     -14.037   8.479  10.979  0.00  0.00     0.036 H 
BRANCH  17  20
ATOM     20  CG  ACE d   1     -13.473   9.864   9.446  0.00  0.00    -0.048 C 
ATOM     21  H8  ACE d   1     -13.028  10.622  10.107  0.00  0.00     0.035 H 
ATOM     22  H9  ACE d   1     -13.947  10.360   8.586  0.00  0.00     0.035 H 
BRANCH  20  23
ATOM     23  CD  ACE d   1     -12.374   8.949   8.940  0.00  0.00     0.009 C 
ATOM     24  H10 ACE d   1     -11.807   9.476   8.159  0.00  0.00     0.064 H 
ATOM     25  H11 ACE d   1     -12.834   8.046   8.513  0.00  0.00     0.064 H 
BRANCH  23  26
ATOM     26  NE  ACE d   1     -11.452   8.549  10.001  0.00  0.00    -0.227 N 
ATOM     27  CZ  ACE d   1     -10.401   7.744   9.836  0.00  0.00     0.665 C 
ATOM     28  NH1 ACE d   1     -10.110   7.230   8.637  0.00  0.00    -0.235 N 
ATOM     29  NH2 ACE d   1      -9.636   7.446  10.881  0.00  0.00    -0.235 N 
ATOM     30  H13 ACE d   1      -9.295   6.610   8.527  0.00  0.00     0.174 HD
ATOM     31  H14 ACE d   1     -10.701   7.454   7.824  0.00  0.00     0.174 HD
ATOM     32  H15 ACE d   1      -9.854   7.839  11.808  0.00  0.00     0.174 HD
ATOM     33  H16 ACE d   1      -8.825   6.822  10.764  0.00  0.00     0.174 HD
ATOM     34  H12 ACE d   1     -11.627   8.916  10.947  0.00  0.00     0.177 HD
ENDBRANCH  23  26
ENDBRANCH  20  23
ENDBRANCH  17  20
ENDBRANCH   7  17
ENDBRANCH   4   7
ENDBRANCH   1   3
BRANCH   1  35
ATOM     35  C   ACE d   1     -19.399  10.837   8.322  0.00  0.00     0.241 C 
ATOM     36  O   ACE d   1     -19.855   9.717   8.560  0.00  0.00    -0.271 OA
ATOM     37  N   ACE d   1     -20.144  11.934   8.247  0.00  0.00    -0.344 N 
ATOM     38  H26 ACE d   1     -19.694  12.827   8.265  0.00  0.00     0.163 HD
BRANCH  37  39
ATOM     39  CA  ACE d   1     -21.592  11.880   8.139  0.00  0.00     0.109 C 
ATOM     40  H27 ACE d   1     -21.986  11.185   8.895  0.00  0.00     0.090 H 
BRANCH  39  41
ATOM     41  C   ACE d   1     -21.976  11.385   6.745  0.00  0.00     0.243 C 
ATOM     42  O   ACE d   1     -21.140  11.376   5.820  0.00  0.00    -0.271 OA
ATOM     43  N   ACE d   1     -23.243  10.997   6.593  0.00  0.00    -0.348 N 
ATOM     44  H31 ACE d   1     -23.836  10.952   7.397  0.00  0.00     0.163 HD
BRANCH  43  45
ATOM     45  CA  ACE d   1     -23.791  10.635   5.287  0.00  0.00     0.062 C 
ATOM     46  H32 ACE d   1     -23.262   9.738   4.934  0.00  0.00     0.083 H 
BRANCH  45  47
ATOM     47  C   ACE d   1     -23.566  11.758   4.266  0.00  0.00     0.109 C 
ATOM     48  O   ACE d   1     -23.116  11.471   3.147  0.00  0.00    -0.305 OA
ATOM     49  H33 ACE d   1     -23.798  12.791   4.520  0.00  0.00     0.146 H 
ENDBRANCH  45  47
BRANCH  45  50
ATOM     50  CB  ACE d   1     -25.291  10.301   5.380  0.00  0.00    -0.039 C 
ATOM     51  H34 ACE d   1     -25.828  11.197   5.725  0.00  0.00     0.036 H 
ATOM     52  H35 ACE d   1     -25.424   9.490   6.111  0.00  0.00     0.036 H 
BRANCH  50  53
ATOM     53  CG  ACE d   1     -25.890   9.859   4.052  0.00  0.00    -0.048 C 
ATOM     54  H36 ACE d   1     -25.424   8.905   3.765  0.00  0.00     0.035 H 
ATOM     55  H37 ACE d   1     -25.655  10.623   3.297  0.00  0.00     0.035 H 
BRANCH  53  56
ATOM     56  CD  ACE d   1     -27.399   9.664   4.079  0.00  0.00     0.009 C 
ATOM     57  H38 ACE d   1     -27.900  10.636   4.201  0.00  0.00     0.064 H 
ATOM     58  H39 ACE d   1     -27.676   9.002   4.912  0.00  0.00     0.064 H 
BRANCH  56  59
ATOM     59  NE  ACE d   1     -27.794   9.058   2.811  0.00  0.00    -0.227 N 
ATOM     60  CZ  ACE d   1     -27.976   9.716   1.664  0.00  0.00     0.665 C 
ATOM     61  NH1 ACE d   1     -28.303   9.039   0.569  0.00  0.00    -0.235 N 
ATOM     62  NH2 ACE d   1     -27.852  11.036   1.587  0.00  0.00    -0.235 N 
ATOM     63  H41 ACE d   1     -28.446   9.537  -0.321  0.00  0.00     0.174 HD
ATOM     64  H42 ACE d   1     -28.414   8.016   0.610  0.00  0.00     0.174 HD
ATOM     65  H43 ACE d   1     -27.599  11.579   2.425  0.00  0.00     0.174 HD
ATOM     66  H44 ACE d   1     -28.009  11.517   0.690  0.00  0.00     0.174 HD
ATOM     67  H40 ACE d   1     -27.945   8.039   2.801  0.00  0.00     0.177 HD
ENDBRANCH  56  59
ENDBRANCH  53  56
ENDBRANCH  50  53
ENDBRANCH  45  50
ENDBRANCH  43  45
ENDBRANCH  39  41
BRANCH  39  68
ATOM     68  CB  ACE d   1     -22.193  13.269   8.371  0.00  0.00     0.044 C 
ATOM     69  H28 ACE d   1     -21.849  13.650   9.344  0.00  0.00     0.077 H 
ATOM     70  H29 ACE d   1     -23.290  13.188   8.376  0.00  0.00     0.077 H 
BRANCH  68  71
ATOM     71  OG  ACE d   1     -21.800  14.182   7.351  0.00  0.00    -0.398 OA
ATOM     72  H30 ACE d   1     -22.188  15.032   7.522  0.00  0.00     0.209 HD
ENDBRANCH  68  71
ENDBRANCH  39  68
ENDBRANCH  37  39
ENDBRANCH   1  35
BRANCH   1  73
ATOM     73  CB  ACE d   1     -17.577  10.615   6.646  0.00  0.00    -0.014 C 
ATOM     74  H19 ACE d   1     -18.092  11.302   5.959  0.00  0.00     0.043 H 
ATOM     75  H20 ACE d   1     -17.947   9.591   6.487  0.00  0.00     0.043 H 
BRANCH  73  76
ATOM     76  CG  ACE d   1     -16.103  10.643   6.332  0.00  0.00    -0.056 A 
ATOM     77  CD1 ACE d   1     -15.416  11.851   6.185  0.00  0.00    -0.074 A 
ATOM     78  CE1 ACE d   1     -14.047  11.871   5.905  0.00  0.00    -0.051 A 
ATOM     79  H21 ACE d   1     -15.953  12.787   6.290  0.00  0.00     0.084 H 
ATOM     80  CZ  ACE d   1     -13.360  10.676   5.779  0.00  0.00     0.065 A 
ATOM     81  H23 ACE d   1     -13.527  12.815   5.787  0.00  0.00     0.087 H 
ATOM     82  CE2 ACE d   1     -14.024   9.473   5.923  0.00  0.00    -0.051 A 
ATOM     83  CD2 ACE d   1     -15.384   9.461   6.198  0.00  0.00    -0.074 A 
ATOM     84  H24 ACE d   1     -13.483   8.539   5.821  0.00  0.00     0.087 H 
ATOM     85  H22 ACE d   1     -15.895   8.512   6.311  0.00  0.00     0.084 H 
BRANCH  80  86
ATOM     86  OH  ACE d   1     -12.010  10.670   5.512  0.00  0.00    -0.361 OA
ATOM     87  H25 ACE d   1     -11.551  10.229   6.217  0.00  0.00     0.217 HD
ENDBRANCH  80  86
ENDBRANCH  73  76
ENDBRANCH   1  73
TORSDOF 22
