REMARK  8 active torsions:
REMARK  status: ('A' for Active; 'I' for Inactive)
REMARK    1  A    between atoms: C03_16  and  C10_1 
REMARK    2  A    between atoms: C10_1  and  O11_17 
REMARK    3  A    between atoms: O12_13  and  C13_2 
REMARK    4  A    between atoms: N19_8  and  C20_5 
REMARK    5  A    between atoms: N19_8  and  C21_6 
REMARK    6  A    between atoms: C02_14  and  O12_13 
REMARK    7  A    between atoms: C02_14  and  C03_16 
REMARK    8  A    between atoms: C03_16  and  C04_18 
ROOT
ATOM      1  C13 3C0 d   1     183.918  26.952 524.854  0.00  0.00     0.052 C 
ATOM      2  C15 3C0 d   1     183.412  29.472 524.621  0.00  0.00     0.135 C 
ATOM      3  C17 3C0 d   1     184.674  29.179 526.642  0.00  0.00     0.094 A 
ATOM      4  C22 3C0 d   1     183.227  28.618 526.686  0.00  0.00     0.135 C 
ATOM      5  N19 3C0 d   1     182.466  29.465 525.749  0.00  0.00    -0.061 N 
ATOM      6  C14 3C0 d   1     183.459  28.093 523.919  0.00  0.00    -0.011 C 
ATOM      7  C16 3C0 d   1     184.796  29.771 525.261  0.00  0.00     0.094 A 
ATOM      8  O18 3C0 d   1     184.918  30.608 526.458  0.00  0.00    -0.371 OA
ATOM      9  C23 3C0 d   1     183.255  27.146 526.237  0.00  0.00    -0.011 C 
ATOM     10  H3  3C0 d   1     183.548  26.003 524.440  0.00  0.00     0.084 H 
ATOM     11  H4  3C0 d   1     183.139  30.250 523.893  0.00  0.00     0.089 H 
ATOM     12  H5  3C0 d   1     185.412  28.540 527.149  0.00  0.00     0.090 H 
ATOM     13  H12 3C0 d   1     182.804  28.689 527.699  0.00  0.00     0.089 H 
ATOM     14  H13 3C0 d   1     182.452  27.856 523.546  0.00  0.00     0.040 H 
ATOM     15  H14 3C0 d   1     184.159  28.155 523.073  0.00  0.00     0.040 H 
ATOM     16  H15 3C0 d   1     185.640  29.657 524.565  0.00  0.00     0.090 H 
ATOM     17  H16 3C0 d   1     183.817  26.563 526.981  0.00  0.00     0.040 H 
ATOM     18  H17 3C0 d   1     182.221  26.775 526.186  0.00  0.00     0.040 H 
ENDROOT
BRANCH   1  19
ATOM     19  O12 3C0 d   1     185.370  26.858 524.900  0.00  0.00    -0.315 OA
BRANCH  19  20
ATOM     20  C02 3C0 d   1     185.871  25.746 525.504  0.00  0.00     0.270 C 
ATOM     21  O01 3C0 d   1     185.203  24.792 525.901  0.00  0.00    -0.264 OA
BRANCH  20  22
ATOM     22  C03 3C0 d   1     187.395  25.748 525.637  0.00  0.00     0.076 C 
ATOM     23  H18 3C0 d   1     187.839  26.061 524.680  0.00  0.00     0.066 H 
BRANCH  22  24
ATOM     24  C10 3C0 d   1     187.885  24.340 525.974  0.00  0.00     0.033 C 
ATOM     25  H1  3C0 d   1     187.519  24.051 526.970  0.00  0.00     0.075 H 
ATOM     26  H2  3C0 d   1     188.985  24.322 525.968  0.00  0.00     0.075 H 
BRANCH  24  27
ATOM     27  O11 3C0 d   1     187.385  23.423 524.996  0.00  0.00    -0.400 OA
ATOM     28  H19 3C0 d   1     186.435  23.441 525.003  0.00  0.00     0.209 HD
ENDBRANCH  24  27
ENDBRANCH  22  24
BRANCH  22  29
ATOM     29  C04 3C0 d   1     187.780  26.646 526.627  0.00  0.00    -0.043 A 
ATOM     30  C05 3C0 d   1     188.343  27.866 526.268  0.00  0.00    -0.076 A 
ATOM     31  C06 3C0 d   1     188.729  28.771 527.250  0.00  0.00    -0.082 A 
ATOM     32  H20 3C0 d   1     188.481  28.111 525.221  0.00  0.00     0.084 H 
ATOM     33  C07 3C0 d   1     188.552  28.456 528.593  0.00  0.00    -0.083 A 
ATOM     34  H21 3C0 d   1     189.168  29.722 526.969  0.00  0.00     0.083 H 
ATOM     35  C08 3C0 d   1     187.988  27.237 528.952  0.00  0.00    -0.082 A 
ATOM     36  H22 3C0 d   1     188.854  29.161 529.360  0.00  0.00     0.083 H 
ATOM     37  C09 3C0 d   1     187.601  26.331 527.970  0.00  0.00    -0.076 A 
ATOM     38  H23 3C0 d   1     187.850  26.992 529.999  0.00  0.00     0.083 H 
ATOM     39  H24 3C0 d   1     187.161  25.381 528.251  0.00  0.00     0.084 H 
ENDBRANCH  22  29
ENDBRANCH  20  22
ENDBRANCH  19  20
ENDBRANCH   1  19
BRANCH   5  40
ATOM     40  C20 3C0 d   1     182.141  30.804 526.283  0.00  0.00     0.069 C 
ATOM     41  H6  3C0 d   1     181.432  30.703 527.118  0.00  0.00     0.068 H 
ATOM     42  H7  3C0 d   1     181.688  31.415 525.489  0.00  0.00     0.068 H 
ATOM     43  H8  3C0 d   1     183.061  31.290 526.640  0.00  0.00     0.068 H 
ENDBRANCH   5  40
BRANCH   5  44
ATOM     44  C21 3C0 d   1     181.148  28.921 525.374  0.00  0.00     0.069 C 
ATOM     45  H9  3C0 d   1     181.273  27.910 524.958  0.00  0.00     0.068 H 
ATOM     46  H10 3C0 d   1     180.683  29.573 524.620  0.00  0.00     0.068 H 
ATOM     47  H11 3C0 d   1     180.504  28.873 526.264  0.00  0.00     0.068 H 
ENDBRANCH   5  44
TORSDOF 8
