REMARK WARNING: 32 MAX_TORS EXCEEDED!!!
REMARK  62 active torsions:
REMARK  status: ('A' for Active; 'I' for Inactive)
REMARK    1  A    between atoms: C_1  and  CH3_3 
REMARK       I    between atoms: N_4  and  C_1 
REMARK    2  A    between atoms: CA_5  and  N_4 
REMARK    3  A    between atoms: C_6  and  CA_5 
REMARK    4  A    between atoms: CA_5  and  CB_8 
REMARK       I    between atoms: N_15  and  C_6 
REMARK    5  A    between atoms: CB_8  and  CG_9 
REMARK    6  A    between atoms: CG_9  and  CD_10 
REMARK    7  A    between atoms: CD_10  and  NE_11 
REMARK       I    between atoms: NE_11  and  CZ_12 
REMARK       I    between atoms: CZ_12  and  NH1_13 
REMARK       I    between atoms: CZ_12  and  NH2_14 
REMARK    8  A    between atoms: CA_16  and  N_15 
REMARK    9  A    between atoms: C_17  and  CA_16 
REMARK   10  A    between atoms: CA_16  and  CB_19 
REMARK       I    between atoms: N_23  and  C_17 
REMARK   11  A    between atoms: CB_19  and  CG1_20 
REMARK   12  A    between atoms: CB_19  and  CG2_21 
REMARK   13  A    between atoms: CG1_20  and  CD1_22 
REMARK   14  A    between atoms: CA_24  and  N_23 
REMARK   15  A    between atoms: C_25  and  CA_24 
REMARK   16  A    between atoms: CA_24  and  CB_27 
REMARK       I    between atoms: N_31  and  C_25 
REMARK   17  A    between atoms: CB_27  and  CG1_28 
REMARK   18  A    between atoms: CB_27  and  CG2_29 
REMARK   19  A    between atoms: CG1_28  and  CD1_30 
REMARK   20  A    between atoms: CA_32  and  N_31 
REMARK   21  A    between atoms: C_33  and  CA_32 
REMARK   22  A    between atoms: CA_32  and  CB_35 
REMARK       I    between atoms: N_43  and  C_33 
REMARK   23  A    between atoms: CB_35  and  CG_36 
REMARK   24  A    between atoms: CZ_41  and  OH_42 
REMARK   25  A    between atoms: CA_44  and  N_43 
REMARK   26  A    between atoms: C_45  and  CA_44 
REMARK   27  A    between atoms: CA_44  and  CB_47 
REMARK       I    between atoms: N_49  and  C_45 
REMARK   28  A    between atoms: CB_47  and  OG_48 
REMARK   29  A    between atoms: CA_50  and  N_49 
REMARK   30  A    between atoms: C_51  and  CA_50 
REMARK   31  A    between atoms: CA_50  and  CB_53 
REMARK       I    between atoms: N_61  and  C_51 
REMARK   32  A    between atoms: CB_53  and  CG_54 
REMARK   33  A    between atoms: CG_54  and  CD_55 
REMARK   34  A    between atoms: CD_55  and  NE_56 
REMARK       I    between atoms: NE_56  and  CZ_57 
REMARK       I    between atoms: CZ_57  and  NH1_58 
REMARK       I    between atoms: CZ_57  and  NH2_59 
REMARK   35  A    between atoms: CA_63  and  N_61 
REMARK   36  A    between atoms: CA_63  and  CB1_68 
REMARK   37  A    between atoms: CA_70  and  CB_73 
REMARK   38  A    between atoms: CB_73  and  CG_74 
REMARK   39  A    between atoms: CG_74  and  CD_75 
REMARK       I    between atoms: CD_75  and  NE2_77 
REMARK   40  A    between atoms: CA_79  and  CB_82 
REMARK   41  A    between atoms: CB_82  and  CG_83 
REMARK   42  A    between atoms: CG_83  and  CD1_84 
REMARK   43  A    between atoms: CG_83  and  CD2_85 
REMARK   44  A    between atoms: CA_87  and  CB_90 
REMARK   45  A    between atoms: CB_90  and  CG_91 
REMARK   46  A    between atoms: CG_91  and  CD1_92 
REMARK   47  A    between atoms: CG_91  and  CD2_93 
REMARK   48  A    between atoms: CA_97  and  C_94 
REMARK       I    between atoms: C_94  and  N_103 
REMARK   49  A    between atoms: CA_97  and  CB1_102 
REMARK   50  A    between atoms: N_103  and  CA_104 
REMARK   51  A    between atoms: CA_104  and  C_105 
REMARK   52  A    between atoms: CA_104  and  CB_107 
REMARK       I    between atoms: C_105  and  N_111 
REMARK   53  A    between atoms: CB_107  and  CG_108 
REMARK   54  A    between atoms: CG_108  and  CD1_109 
REMARK   55  A    between atoms: CG_108  and  CD2_110 
REMARK   56  A    between atoms: N_111  and  CA_112 
REMARK   57  A    between atoms: CA_112  and  C_113 
REMARK   58  A    between atoms: CA_112  and  CB_115 
REMARK       I    between atoms: C_113  and  N_120 
REMARK   59  A    between atoms: CB_115  and  CG_116 
REMARK   60  A    between atoms: CG_116  and  CD_117 
REMARK   61  A    between atoms: CD_117  and  CE_118 
REMARK   62  A    between atoms: CE_118  and  NZ_119 
ROOT
ATOM      1  C   ACE d   1     -56.544 -40.667 104.144  0.00  0.00     0.246 C 
ATOM      2  O   ACE d   1     -55.461 -40.372 104.682  0.00  0.00    -0.271 OA
ATOM      3  CA  ACE d   1     -57.554 -39.571 103.832  0.00  0.00     0.110 C 
ATOM      4  CB  ACE d   1     -58.799 -39.748 104.706  0.00  0.00    -0.033 C 
ATOM      5  CD  ACE d   1     -58.263 -41.081 106.843  0.00  0.00    -0.050 C 
ATOM      6  CE  ACE d   1     -57.717 -40.962 108.249  0.00  0.00    -0.107 C 
ATOM      7  CG  ACE d   1     -58.523 -39.714 106.218  0.00  0.00    -0.059 C 
ATOM      8  N   ACE d   1     -56.862 -41.865 103.839  0.00  0.00    -0.346 N 
ATOM      9  CA  ACE d   1     -55.980 -43.015 104.105  0.00  0.00     0.090 C 
ATOM     10  C   ACE d   1     -54.611 -42.852 103.458  0.00  0.00     0.241 C 
ATOM     11  O   ACE d   1     -53.581 -43.118 104.099  0.00  0.00    -0.271 OA
ATOM     12  N   ACE d   1     -54.611 -42.431 102.192  0.00  0.00    -0.346 N 
ATOM     13  CA  ACE d   1     -53.356 -42.223 101.469  0.00  0.00     0.089 C 
ATOM     14  C   ACE d   1     -52.527 -41.119 102.067  0.00  0.00     0.241 C 
ATOM     15  O   ACE d   1     -51.334 -41.302 102.287  0.00  0.00    -0.271 OA
ATOM     16  N   ACE d   1     -53.154 -39.994 102.422  0.00  0.00    -0.346 N 
ATOM     17  CA  ACE d   1     -52.394 -38.897 103.026  0.00  0.00     0.089 C 
ATOM     18  C   ACE d   1     -51.839 -39.218 104.422  0.00  0.00     0.241 C 
ATOM     19  O   ACE d   1     -50.703 -38.816 104.687  0.00  0.00    -0.271 OA
ATOM     20  N   ACE d   1     -52.593 -39.927 105.311  0.00  0.00    -0.342 N 
ATOM     21  CA  ACE d   1     -52.148 -40.348 106.641  0.00  0.00     0.110 C 
ATOM     22  CB  ACE d   1     -53.181 -41.303 107.235  0.00  0.00    -0.033 C 
ATOM     23  CD  ACE d   1     -55.365 -41.751 108.389  0.00  0.00    -0.050 C 
ATOM     24  CE  ACE d   1     -56.627 -41.134 109.022  0.00  0.00    -0.107 C 
ATOM     25  CG  ACE d   1     -54.423 -40.664 107.869  0.00  0.00    -0.059 C 
ATOM     26  H67 ACE d   1     -59.256 -40.718 104.461  0.00  0.00     0.037 H 
ATOM     27  H68 ACE d   1     -59.505 -38.939 104.467  0.00  0.00     0.037 H 
ATOM     28  H69 ACE d   1     -59.208 -41.643 106.874  0.00  0.00     0.038 H 
ATOM     29  H70 ACE d   1     -57.534 -41.623 106.223  0.00  0.00     0.038 H 
ATOM     30  H71 ACE d   1     -58.520 -40.593 108.886  0.00  0.00     0.076 H 
ATOM     31  H72 ACE d   1     -59.396 -39.268 106.717  0.00  0.00     0.033 H 
ATOM     32  H73 ACE d   1     -57.639 -39.083 106.392  0.00  0.00     0.033 H 
ATOM     33  H77 ACE d   1     -57.746 -42.030 103.402  0.00  0.00     0.163 HD
ATOM     34  H78 ACE d   1     -55.849 -43.117 105.192  0.00  0.00     0.087 H 
ATOM     35  H85 ACE d   1     -55.481 -42.255 101.731  0.00  0.00     0.163 HD
ATOM     36  H86 ACE d   1     -52.774 -43.153 101.555  0.00  0.00     0.087 H 
ATOM     37  H96 ACE d   1     -54.139 -39.901 102.276  0.00  0.00     0.163 HD
ATOM     38  H97 ACE d   1     -51.529 -38.707 102.373  0.00  0.00     0.087 H 
ATOM     39 7H10 ACE d   1     -53.520 -40.178 105.033  0.00  0.00     0.163 HD
ATOM     40 8H10 ACE d   1     -52.678 -41.897 108.012  0.00  0.00     0.037 H 
ATOM     41 9H10 ACE d   1     -53.523 -41.968 106.428  0.00  0.00     0.037 H 
ATOM     42 0H11 ACE d   1     -55.663 -42.399 107.552  0.00  0.00     0.038 H 
ATOM     43 1H11 ACE d   1     -54.839 -42.350 109.147  0.00  0.00     0.038 H 
ATOM     44 2H11 ACE d   1     -56.638 -40.843 110.071  0.00  0.00     0.076 H 
ATOM     45 3H11 ACE d   1     -54.947 -40.059 107.114  0.00  0.00     0.033 H 
ATOM     46 4H11 ACE d   1     -54.114 -40.020 108.705  0.00  0.00     0.033 H 
ENDROOT
BRANCH   3  47
ATOM     47  N   ACE d   1     -58.010 -39.710 102.453  0.00  0.00    -0.342 N 
ATOM     48  C   ACE d   1     -57.216 -39.727 101.352  0.00  0.00     0.241 C 
ATOM     49  O   ACE d   1     -55.990 -39.616 101.438  0.00  0.00    -0.271 OA
ATOM     50  H66 ACE d   1     -58.995 -39.801 102.306  0.00  0.00     0.163 HD
BRANCH  48  51
ATOM     51  CA  ACE d   1     -57.870 -39.889  99.944  0.00  0.00     0.089 C 
ATOM     52  H54 ACE d   1     -57.058 -40.084  99.228  0.00  0.00     0.087 H 
BRANCH  51  53
ATOM     53  N   ACE d   1     -58.800 -40.986  99.867  0.00  0.00    -0.346 N 
ATOM     54  C   ACE d   1     -58.501 -42.210 100.294  0.00  0.00     0.243 C 
ATOM     55  O   ACE d   1     -57.368 -42.547 100.657  0.00  0.00    -0.271 OA
ATOM     56  H53 ACE d   1     -59.706 -40.821  99.477  0.00  0.00     0.163 HD
BRANCH  54  57
ATOM     57  CA  ACE d   1     -59.661 -43.184 100.354  0.00  0.00     0.109 C 
ATOM     58  H49 ACE d   1     -60.282 -43.072  99.453  0.00  0.00     0.090 H 
BRANCH  57  59
ATOM     59  N   ACE d   1     -59.144 -44.540 100.417  0.00  0.00    -0.344 N 
ATOM     60  C   ACE d   1     -58.522 -45.088  99.380  0.00  0.00     0.241 C 
ATOM     61  O   ACE d   1     -58.460 -44.573  98.251  0.00  0.00    -0.271 OA
ATOM     62  H48 ACE d   1     -59.259 -45.071 101.257  0.00  0.00     0.163 HD
BRANCH  60  63
ATOM     63  CA  ACE d   1     -57.813 -46.397  99.658  0.00  0.00     0.093 C 
ATOM     64  H40 ACE d   1     -58.136 -46.790 100.633  0.00  0.00     0.088 H 
BRANCH  63  65
ATOM     65  N   ACE d   1     -58.169 -47.362  98.624  0.00  0.00    -0.346 N 
ATOM     66  C   ACE d   1     -58.661 -48.571  98.903  0.00  0.00     0.241 C 
ATOM     67  O   ACE d   1     -58.682 -49.050 100.038  0.00  0.00    -0.271 OA
ATOM     68  H39 ACE d   1     -58.039 -47.107  97.666  0.00  0.00     0.163 HD
BRANCH  66  69
ATOM     69  CA  ACE d   1     -59.196 -49.377  97.728  0.00  0.00     0.092 C 
ATOM     70  H29 ACE d   1     -58.734 -49.017  96.797  0.00  0.00     0.088 H 
BRANCH  69  71
ATOM     71  N   ACE d   1     -58.819 -50.764  97.952  0.00  0.00    -0.346 N 
ATOM     72  C   ACE d   1     -58.043 -51.449  97.118  0.00  0.00     0.241 C 
ATOM     73  O   ACE d   1     -57.560 -50.975  96.088  0.00  0.00    -0.271 OA
ATOM     74  H28 ACE d   1     -59.160 -51.224  98.772  0.00  0.00     0.163 HD
BRANCH  72  75
ATOM     75  CA  ACE d   1     -57.808 -52.914  97.473  0.00  0.00     0.092 C 
ATOM     76  H18 ACE d   1     -58.280 -53.135  98.442  0.00  0.00     0.088 H 
BRANCH  75  77
ATOM     77  N   ACE d   1     -58.445 -53.722  96.442  0.00  0.00    -0.346 N 
ATOM     78  C   ACE d   1     -59.687 -54.180  96.571  0.00  0.00     0.241 C 
ATOM     79  O   ACE d   1     -60.377 -53.982  97.558  0.00  0.00    -0.271 OA
ATOM     80  H17 ACE d   1     -57.932 -53.939  95.611  0.00  0.00     0.163 HD
BRANCH  78  81
ATOM     81  CA  ACE d   1     -60.216 -55.001  95.411  0.00  0.00     0.089 C 
ATOM     82  H5  ACE d   1     -59.370 -55.550  94.972  0.00  0.00     0.087 H 
BRANCH  81  83
ATOM     83  N   ACE d   1     -61.191 -55.967  95.861  0.00  0.00    -0.348 N 
ATOM     84  C   ACE d   1     -60.900 -57.096  96.525  0.00  0.00     0.214 C 
ATOM     85  O   ACE d   1     -61.820 -57.847  96.816  0.00  0.00    -0.274 OA
ATOM     86  H4  ACE d   1     -62.153 -55.781  95.663  0.00  0.00     0.163 HD
BRANCH  84  87
ATOM     87  CH3 ACE d   1     -59.484 -57.487  96.933  0.00  0.00    -0.003 C 
ATOM     88  H1  ACE d   1     -58.779 -56.711  96.599  0.00  0.00     0.040 H 
ATOM     89  H2  ACE d   1     -59.220 -58.448  96.467  0.00  0.00     0.040 H 
ATOM     90  H3  ACE d   1     -59.431 -57.584  98.027  0.00  0.00     0.040 H 
ENDBRANCH  84  87
ENDBRANCH  81  83
BRANCH  81  91
ATOM     91  CB  ACE d   1     -60.816 -54.099  94.319  0.00  0.00    -0.036 C 
ATOM     92  H6  ACE d   1     -60.067 -53.342  94.042  0.00  0.00     0.036 H 
ATOM     93  H7  ACE d   1     -61.706 -53.601  94.730  0.00  0.00     0.036 H 
BRANCH  91  94
ATOM     94  CG  ACE d   1     -61.226 -54.858  93.056  0.00  0.00    -0.048 C 
ATOM     95  H8  ACE d   1     -61.545 -54.133  92.292  0.00  0.00     0.035 H 
ATOM     96  H9  ACE d   1     -62.064 -55.528  93.299  0.00  0.00     0.035 H 
BRANCH  94  97
ATOM     97  CD  ACE d   1     -60.077 -55.688  92.499  0.00  0.00     0.009 C 
ATOM     98  H10 ACE d   1     -59.830 -56.465  93.237  0.00  0.00     0.064 H 
ATOM     99  H11 ACE d   1     -59.212 -55.023  92.363  0.00  0.00     0.064 H 
BRANCH  97 100
ATOM    100  NE  ACE d   1     -60.346 -56.348  91.220  0.00  0.00    -0.227 N 
ATOM    101  CZ  ACE d   1     -60.285 -55.769  90.021  0.00  0.00     0.665 C 
ATOM    102  NH1 ACE d   1     -60.532 -56.501  88.931  0.00  0.00    -0.235 N 
ATOM    103  NH2 ACE d   1     -59.992 -54.470  89.896  0.00  0.00    -0.235 N 
ATOM    104  H13 ACE d   1     -60.488 -56.067  87.998  0.00  0.00     0.174 HD
ATOM    105  H14 ACE d   1     -60.766 -57.500  89.023  0.00  0.00     0.174 HD
ATOM    106  H15 ACE d   1     -59.801 -53.902  90.734  0.00  0.00     0.174 HD
ATOM    107  H16 ACE d   1     -59.957 -54.037  88.962  0.00  0.00     0.174 HD
ATOM    108  H12 ACE d   1     -60.604 -57.345  91.249  0.00  0.00     0.177 HD
ENDBRANCH  97 100
ENDBRANCH  94  97
ENDBRANCH  91  94
ENDBRANCH  81  91
ENDBRANCH  78  81
ENDBRANCH  75  77
BRANCH  75 109
ATOM    109  CB  ACE d   1     -56.299 -53.194  97.592  0.00  0.00    -0.030 C 
ATOM    110  H19 ACE d   1     -55.809 -52.881  96.659  0.00  0.00     0.043 H 
BRANCH 109 111
ATOM    111  CG1 ACE d   1     -56.042 -54.695  97.797  0.00  0.00    -0.063 C 
ATOM    112  H20 ACE d   1     -56.627 -55.252  97.051  0.00  0.00     0.033 H 
ATOM    113  H21 ACE d   1     -56.380 -54.970  98.807  0.00  0.00     0.033 H 
BRANCH 111 114
ATOM    114  CD1 ACE d   1     -54.591 -55.090  97.656  0.00  0.00    -0.076 C 
ATOM    115  H25 ACE d   1     -54.489 -56.173  97.816  0.00  0.00     0.027 H 
ATOM    116  H26 ACE d   1     -53.990 -54.551  98.403  0.00  0.00     0.027 H 
ATOM    117  H27 ACE d   1     -54.237 -54.833  96.647  0.00  0.00     0.027 H 
ENDBRANCH 111 114
ENDBRANCH 109 111
BRANCH 109 118
ATOM    118  CG2 ACE d   1     -55.709 -52.383  98.751  0.00  0.00    -0.071 C 
ATOM    119  H22 ACE d   1     -55.903 -51.313  98.586  0.00  0.00     0.028 H 
ATOM    120  H23 ACE d   1     -54.624 -52.555  98.804  0.00  0.00     0.028 H 
ATOM    121  H24 ACE d   1     -56.177 -52.699  99.695  0.00  0.00     0.028 H 
ENDBRANCH 109 118
ENDBRANCH  75 109
ENDBRANCH  72  75
ENDBRANCH  69  71
BRANCH  69 122
ATOM    122  CB  ACE d   1     -60.741 -49.234  97.606  0.00  0.00    -0.030 C 
ATOM    123  H30 ACE d   1     -61.212 -49.885  98.358  0.00  0.00     0.043 H 
BRANCH 122 124
ATOM    124  CG1 ACE d   1     -61.234 -49.619  96.208  0.00  0.00    -0.063 C 
ATOM    125  H31 ACE d   1     -60.797 -48.907  95.492  0.00  0.00     0.033 H 
ATOM    126  H32 ACE d   1     -62.329 -49.519  96.201  0.00  0.00     0.033 H 
BRANCH 124 127
ATOM    127  CD1 ACE d   1     -60.902 -50.997  95.736  0.00  0.00    -0.076 C 
ATOM    128  H36 ACE d   1     -61.310 -51.147  94.725  0.00  0.00     0.027 H 
ATOM    129  H37 ACE d   1     -61.342 -51.736  96.422  0.00  0.00     0.027 H 
ATOM    130  H38 ACE d   1     -59.809 -51.123  95.713  0.00  0.00     0.027 H 
ENDBRANCH 124 127
ENDBRANCH 122 124
BRANCH 122 131
ATOM    131  CG2 ACE d   1     -61.195 -47.794  97.817  0.00  0.00    -0.071 C 
ATOM    132  H33 ACE d   1     -60.872 -47.450  98.810  0.00  0.00     0.028 H 
ATOM    133  H34 ACE d   1     -62.292 -47.742  97.750  0.00  0.00     0.028 H 
ATOM    134  H35 ACE d   1     -60.749 -47.152  97.043  0.00  0.00     0.028 H 
ENDBRANCH 122 131
ENDBRANCH  69 122
ENDBRANCH  66  69
ENDBRANCH  63  65
BRANCH  63 135
ATOM    135  CB  ACE d   1     -56.313 -46.124  99.708  0.00  0.00    -0.014 C 
ATOM    136  H41 ACE d   1     -56.123 -45.353 100.469  0.00  0.00     0.043 H 
ATOM    137  H42 ACE d   1     -55.992 -45.754  98.723  0.00  0.00     0.043 H 
BRANCH 135 138
ATOM    138  CG  ACE d   1     -55.503 -47.340 100.048  0.00  0.00    -0.056 A 
ATOM    139  CD1 ACE d   1     -55.360 -47.760 101.370  0.00  0.00    -0.074 A 
ATOM    140  CE1 ACE d   1     -54.630 -48.905 101.685  0.00  0.00    -0.051 A 
ATOM    141  H43 ACE d   1     -55.824 -47.187 102.165  0.00  0.00     0.084 H 
ATOM    142  CZ  ACE d   1     -54.046 -49.650 100.680  0.00  0.00     0.065 A 
ATOM    143  H45 ACE d   1     -54.521 -49.211 102.719  0.00  0.00     0.087 H 
ATOM    144  CE2 ACE d   1     -54.183 -49.251  99.356  0.00  0.00    -0.051 A 
ATOM    145  CD2 ACE d   1     -54.918 -48.107  99.048  0.00  0.00    -0.074 A 
ATOM    146  H46 ACE d   1     -53.719 -49.828  98.564  0.00  0.00     0.087 H 
ATOM    147  H44 ACE d   1     -55.035 -47.811  98.012  0.00  0.00     0.084 H 
BRANCH 142 148
ATOM    148  OH  ACE d   1     -53.315 -50.791 101.004  0.00  0.00    -0.361 OA
ATOM    149  H47 ACE d   1     -53.705 -51.547 100.580  0.00  0.00     0.217 HD
ENDBRANCH 142 148
ENDBRANCH 135 138
ENDBRANCH  63 135
ENDBRANCH  60  63
ENDBRANCH  57  59
BRANCH  57 150
ATOM    150  CB  ACE d   1     -60.507 -42.882 101.595  0.00  0.00     0.044 C 
ATOM    151  H50 ACE d   1     -61.288 -43.650 101.697  0.00  0.00     0.077 H 
ATOM    152  H51 ACE d   1     -60.977 -41.894 101.482  0.00  0.00     0.077 H 
BRANCH 150 153
ATOM    153  OG  ACE d   1     -59.693 -42.883 102.763  0.00  0.00    -0.398 OA
ATOM    154  H52 ACE d   1     -59.288 -43.736 102.864  0.00  0.00     0.209 HD
ENDBRANCH 150 153
ENDBRANCH  57 150
ENDBRANCH  54  57
ENDBRANCH  51  53
BRANCH  51 155
ATOM    155  CB  ACE d   1     -58.596 -38.609  99.509  0.00  0.00    -0.036 C 
ATOM    156  H55 ACE d   1     -59.451 -38.449 100.183  0.00  0.00     0.036 H 
ATOM    157  H56 ACE d   1     -58.961 -38.749  98.481  0.00  0.00     0.036 H 
BRANCH 155 158
ATOM    158  CG  ACE d   1     -57.729 -37.382  99.542  0.00  0.00    -0.048 C 
ATOM    159  H57 ACE d   1     -56.816 -37.570  98.957  0.00  0.00     0.035 H 
ATOM    160  H58 ACE d   1     -57.457 -37.161 100.585  0.00  0.00     0.035 H 
BRANCH 158 161
ATOM    161  CD  ACE d   1     -58.456 -36.190  98.956  0.00  0.00     0.009 C 
ATOM    162  H59 ACE d   1     -59.310 -35.922  99.595  0.00  0.00     0.064 H 
ATOM    163  H60 ACE d   1     -58.816 -36.431  97.945  0.00  0.00     0.064 H 
BRANCH 161 164
ATOM    164  NE  ACE d   1     -57.525 -35.091  98.895  0.00  0.00    -0.227 N 
ATOM    165  CZ  ACE d   1     -57.214 -34.279  99.903  0.00  0.00     0.665 C 
ATOM    166  NH1 ACE d   1     -56.308 -33.319  99.698  0.00  0.00    -0.235 N 
ATOM    167  NH2 ACE d   1     -57.786 -34.401 101.108  0.00  0.00    -0.235 N 
ATOM    168  H62 ACE d   1     -56.053 -32.680 100.464  0.00  0.00     0.174 HD
ATOM    169  H63 ACE d   1     -55.865 -33.218  98.774  0.00  0.00     0.174 HD
ATOM    170  H64 ACE d   1     -58.485 -35.139 101.274  0.00  0.00     0.174 HD
ATOM    171  H65 ACE d   1     -57.526 -33.757 101.869  0.00  0.00     0.174 HD
ATOM    172  H61 ACE d   1     -57.060 -34.919  97.992  0.00  0.00     0.177 HD
ENDBRANCH 161 164
ENDBRANCH 158 161
ENDBRANCH 155 158
ENDBRANCH  51 155
ENDBRANCH  48  51
ENDBRANCH   3  47
BRANCH   3 173
ATOM    173  CB1 ACE d   1     -57.004 -38.146 103.995  0.00  0.00    -0.044 C 
ATOM    174  H74 ACE d   1     -56.650 -38.005 105.027  0.00  0.00     0.031 H 
ATOM    175  H75 ACE d   1     -57.800 -37.419 103.778  0.00  0.00     0.031 H 
ATOM    176  H76 ACE d   1     -56.168 -37.993 103.297  0.00  0.00     0.031 H 
ENDBRANCH   3 173
BRANCH   9 177
ATOM    177  CB  ACE d   1     -56.633 -44.276 103.550  0.00  0.00    -0.030 C 
ATOM    178  H79 ACE d   1     -55.838 -45.008 103.346  0.00  0.00     0.037 H 
ATOM    179  H80 ACE d   1     -57.138 -44.011 102.609  0.00  0.00     0.037 H 
BRANCH 177 180
ATOM    180  CG  ACE d   1     -57.652 -44.934 104.458  0.00  0.00     0.011 C 
ATOM    181  H81 ACE d   1     -58.471 -44.226 104.652  0.00  0.00     0.047 H 
ATOM    182  H82 ACE d   1     -57.167 -45.202 105.408  0.00  0.00     0.047 H 
BRANCH 180 183
ATOM    183  CD  ACE d   1     -58.223 -46.193 103.818  0.00  0.00     0.215 C 
ATOM    184  OE1 ACE d   1     -58.980 -46.124 102.834  0.00  0.00    -0.274 OA
ATOM    185  NE2 ACE d   1     -57.841 -47.346 104.349  0.00  0.00    -0.370 N 
ATOM    186  H83 ACE d   1     -58.182 -48.207 103.972  0.00  0.00     0.159 HD
ATOM    187  H84 ACE d   1     -57.212 -47.355 105.126  0.00  0.00     0.159 HD
ENDBRANCH 180 183
ENDBRANCH 177 180
ENDBRANCH   9 177
BRANCH  13 188
ATOM    188  CB  ACE d   1     -53.600 -41.972  99.984  0.00  0.00    -0.035 C 
ATOM    189  H87 ACE d   1     -52.638 -41.736  99.505  0.00  0.00     0.037 H 
ATOM    190  H88 ACE d   1     -54.281 -41.115  99.880  0.00  0.00     0.037 H 
BRANCH 188 191
ATOM    191  CG  ACE d   1     -54.218 -43.176  99.273  0.00  0.00    -0.059 C 
ATOM    192  H89 ACE d   1     -55.097 -43.498  99.851  0.00  0.00     0.038 H 
BRANCH 191 193
ATOM    193  CD1 ACE d   1     -54.689 -42.787  97.876  0.00  0.00    -0.073 C 
ATOM    194  H90 ACE d   1     -55.130 -43.664  97.380  0.00  0.00     0.028 H 
ATOM    195  H91 ACE d   1     -53.833 -42.425  97.288  0.00  0.00     0.028 H 
ATOM    196  H92 ACE d   1     -55.444 -41.991  97.952  0.00  0.00     0.028 H 
ENDBRANCH 191 193
BRANCH 191 197
ATOM    197  CD2 ACE d   1     -53.235 -44.352  99.217  0.00  0.00    -0.073 C 
ATOM    198  H93 ACE d   1     -52.913 -44.610 100.237  0.00  0.00     0.028 H 
ATOM    199  H94 ACE d   1     -52.358 -44.069  98.617  0.00  0.00     0.028 H 
ATOM    200  H95 ACE d   1     -53.729 -45.221  98.758  0.00  0.00     0.028 H 
ENDBRANCH 191 197
ENDBRANCH 188 191
ENDBRANCH  13 188
BRANCH  17 201
ATOM    201  CB  ACE d   1     -53.237 -37.619 103.063  0.00  0.00    -0.035 C 
ATOM    202  H98 ACE d   1     -52.664 -36.852 103.604  0.00  0.00     0.037 H 
ATOM    203  H99 ACE d   1     -54.163 -37.841 103.613  0.00  0.00     0.037 H 
BRANCH 201 204
ATOM    204  CG  ACE d   1     -53.625 -37.043 101.701  0.00  0.00    -0.059 C 
ATOM    205 0H10 ACE d   1     -54.201 -37.810 101.163  0.00  0.00     0.038 H 
BRANCH 204 206
ATOM    206  CD1 ACE d   1     -54.509 -35.823 101.870  0.00  0.00    -0.073 C 
ATOM    207 1H10 ACE d   1     -54.777 -35.424 100.880  0.00  0.00     0.028 H 
ATOM    208 2H10 ACE d   1     -53.968 -35.054 102.441  0.00  0.00     0.028 H 
ATOM    209 3H10 ACE d   1     -55.424 -36.105 102.411  0.00  0.00     0.028 H 
ENDBRANCH 204 206
BRANCH 204 210
ATOM    210  CD2 ACE d   1     -52.408 -36.707 100.867  0.00  0.00    -0.073 C 
ATOM    211 4H10 ACE d   1     -51.781 -37.604 100.756  0.00  0.00     0.028 H 
ATOM    212 5H10 ACE d   1     -51.830 -35.914 101.365  0.00  0.00     0.028 H 
ATOM    213 6H10 ACE d   1     -52.729 -36.359  99.874  0.00  0.00     0.028 H 
ENDBRANCH 204 210
ENDBRANCH 201 204
ENDBRANCH  17 201
BRANCH  21 214
ATOM    214  C   ACE d   1     -50.886 -41.179 106.480  0.00  0.00     0.246 C 
ATOM    215  O   ACE d   1     -49.985 -41.068 107.341  0.00  0.00    -0.271 OA
ATOM    216  N   ACE d   1     -50.792 -41.966 105.482  0.00  0.00    -0.346 N 
ATOM    217 8H11 ACE d   1     -51.534 -41.998 104.812  0.00  0.00     0.163 HD
BRANCH 216 218
ATOM    218  CA  ACE d   1     -49.615 -42.828 105.295  0.00  0.00     0.089 C 
ATOM    219 9H11 ACE d   1     -49.325 -43.203 106.288  0.00  0.00     0.087 H 
BRANCH 218 220
ATOM    220  C   ACE d   1     -48.383 -42.170 104.704  0.00  0.00     0.241 C 
ATOM    221  O   ACE d   1     -47.358 -42.819 104.586  0.00  0.00    -0.271 OA
ATOM    222  N   ACE d   1     -48.463 -40.893 104.347  0.00  0.00    -0.346 N 
ATOM    223 9H12 ACE d   1     -49.359 -40.450 104.308  0.00  0.00     0.163 HD
BRANCH 222 224
ATOM    224  CA  ACE d   1     -47.285 -40.134 104.015  0.00  0.00     0.089 C 
ATOM    225 0H13 ACE d   1     -46.701 -40.685 103.263  0.00  0.00     0.087 H 
BRANCH 224 226
ATOM    226  C   ACE d   1     -46.426 -39.973 105.295  0.00  0.00     0.238 C 
ATOM    227  O   ACE d   1     -45.237 -39.829 105.220  0.00  0.00    -0.271 OA
ATOM    228  N   ACE d   1     -47.031 -40.053 106.580  0.00  0.00    -0.368 N 
ATOM    229 2H14 ACE d   1     -46.473 -39.949 107.403  0.00  0.00     0.159 HD
ATOM    230 3H14 ACE d   1     -48.015 -40.214 106.660  0.00  0.00     0.159 HD
ENDBRANCH 224 226
BRANCH 224 231
ATOM    231  CB  ACE d   1     -47.683 -38.783 103.424  0.00  0.00    -0.038 C 
ATOM    232 1H13 ACE d   1     -48.190 -38.198 104.206  0.00  0.00     0.036 H 
ATOM    233 2H13 ACE d   1     -48.378 -38.960 102.590  0.00  0.00     0.036 H 
BRANCH 231 234
ATOM    234  CG  ACE d   1     -46.506 -37.971 102.904  0.00  0.00    -0.061 C 
ATOM    235 3H13 ACE d   1     -45.939 -38.586 102.190  0.00  0.00     0.033 H 
ATOM    236 4H13 ACE d   1     -45.858 -37.702 103.752  0.00  0.00     0.033 H 
BRANCH 234 237
ATOM    237  CD  ACE d   1     -46.955 -36.693 102.204  0.00  0.00    -0.043 C 
ATOM    238 5H13 ACE d   1     -47.505 -36.066 102.921  0.00  0.00     0.035 H 
ATOM    239 6H13 ACE d   1     -47.616 -36.957 101.366  0.00  0.00     0.035 H 
BRANCH 237 240
ATOM    240  CE  ACE d   1     -45.764 -35.906 101.668  0.00  0.00     0.080 C 
ATOM    241 7H13 ACE d   1     -46.129 -35.164 100.943  0.00  0.00     0.075 H 
ATOM    242 8H13 ACE d   1     -45.078 -36.603 101.165  0.00  0.00     0.075 H 
BRANCH 240 243
ATOM    243  NZ  ACE d   1     -45.016 -35.193 102.748  0.00  0.00    -0.079 N 
ATOM    244 9H13 ACE d   1     -44.242 -34.690 102.344  0.00  0.00     0.274 HD
ATOM    245 0H14 ACE d   1     -44.669 -35.864 103.416  0.00  0.00     0.274 HD
ATOM    246 1H14 ACE d   1     -45.633 -34.545 103.212  0.00  0.00     0.274 HD
ENDBRANCH 240 243
ENDBRANCH 237 240
ENDBRANCH 234 237
ENDBRANCH 231 234
ENDBRANCH 224 231
ENDBRANCH 222 224
ENDBRANCH 218 220
BRANCH 218 247
ATOM    247  CB  ACE d   1     -50.054 -44.022 104.434  0.00  0.00    -0.035 C 
ATOM    248 0H12 ACE d   1     -49.150 -44.565 104.121  0.00  0.00     0.037 H 
ATOM    249 1H12 ACE d   1     -50.571 -43.629 103.546  0.00  0.00     0.037 H 
BRANCH 247 250
ATOM    250  CG  ACE d   1     -50.992 -45.022 105.124  0.00  0.00    -0.059 C 
ATOM    251 2H12 ACE d   1     -51.801 -44.447 105.598  0.00  0.00     0.038 H 
BRANCH 250 252
ATOM    252  CD1 ACE d   1     -51.617 -45.964 104.111  0.00  0.00    -0.073 C 
ATOM    253 3H12 ACE d   1     -52.283 -46.669 104.629  0.00  0.00     0.028 H 
ATOM    254 4H12 ACE d   1     -50.824 -46.523 103.592  0.00  0.00     0.028 H 
ATOM    255 5H12 ACE d   1     -52.196 -45.383 103.378  0.00  0.00     0.028 H 
ENDBRANCH 250 252
BRANCH 250 256
ATOM    256  CD2 ACE d   1     -50.285 -45.817 106.217  0.00  0.00    -0.073 C 
ATOM    257 6H12 ACE d   1     -49.837 -45.123 106.944  0.00  0.00     0.028 H 
ATOM    258 7H12 ACE d   1     -49.495 -46.437 105.767  0.00  0.00     0.028 H 
ATOM    259 8H12 ACE d   1     -51.013 -46.464 106.729  0.00  0.00     0.028 H 
ENDBRANCH 250 256
ENDBRANCH 247 250
ENDBRANCH 218 247
ENDBRANCH 216 218
ENDBRANCH  21 214
BRANCH  21 260
ATOM    260  CB1 ACE d   1     -51.885 -39.136 107.561  0.00  0.00    -0.044 C 
ATOM    261 5H11 ACE d   1     -51.553 -39.490 108.548  0.00  0.00     0.031 H 
ATOM    262 6H11 ACE d   1     -52.811 -38.553 107.673  0.00  0.00     0.031 H 
ATOM    263 7H11 ACE d   1     -51.103 -38.502 107.118  0.00  0.00     0.031 H 
ENDBRANCH  21 260
TORSDOF 62
