REMARK  11 active torsions:
REMARK  status: ('A' for Active; 'I' for Inactive)
REMARK       I    between atoms: C12_11  and  N2_7 
REMARK       I    between atoms: N3_12  and  C12_11 
REMARK    1  A    between atoms: C13_13  and  N3_12 
REMARK    2  A    between atoms: C14_14  and  C13_13 
REMARK    3  A    between atoms: N4_16  and  C14_14 
REMARK    4  A    between atoms: C20_26  and  C19_24 
REMARK    5  A    between atoms: N5_34  and  C20_26 
REMARK    6  A    between atoms: C21_27  and  C22_28 
REMARK    7  A    between atoms: N5_34  and  C21_27 
REMARK    8  A    between atoms: C22_28  and  C23_29 
REMARK    9  A    between atoms: C24_30  and  C25_31 
REMARK   10  A    between atoms: C24_30  and  N5_34 
REMARK   11  A    between atoms: C25_31  and  C26_32 
ROOT
ATOM      1  C15 82F d   1     -56.380 -18.752   6.171  0.00  0.00     0.084 C 
ATOM      2  N4  82F d   1     -57.626 -18.352   6.839  0.00  0.00    -0.064 N 
ATOM      3  C16 82F d   1     -55.764 -17.606   5.405  0.00  0.00    -0.042 C 
ATOM      4  C17 82F d   1     -56.739 -17.052   4.392  0.00  0.00    -0.062 C 
ATOM      5  C18 82F d   1     -58.050 -16.657   5.059  0.00  0.00    -0.036 C 
ATOM      6  C19 82F d   1     -58.610 -17.812   5.877  0.00  0.00     0.127 C 
ATOM      7  H11 82F d   1     -56.598 -19.572   5.471  0.00  0.00     0.076 H 
ATOM      8  H12 82F d   1     -55.664 -19.099   6.931  0.00  0.00     0.076 H 
ATOM      9  H13 82F d   1     -58.035 -19.192   7.217  0.00  0.00     0.280 HD
ATOM     10  H15 82F d   1     -54.865 -17.964   4.882  0.00  0.00     0.035 H 
ATOM     11  H16 82F d   1     -55.485 -16.809   6.110  0.00  0.00     0.035 H 
ATOM     12  H17 82F d   1     -56.940 -17.818   3.629  0.00  0.00     0.033 H 
ATOM     13  H18 82F d   1     -56.297 -16.166   3.914  0.00  0.00     0.033 H 
ATOM     14  H19 82F d   1     -58.779 -16.377   4.284  0.00  0.00     0.036 H 
ATOM     15  H20 82F d   1     -57.872 -15.798   5.723  0.00  0.00     0.036 H 
ATOM     16  H21 82F d   1     -59.424 -17.381   6.478  0.00  0.00     0.087 H 
ENDROOT
BRANCH   2  17
ATOM     17  C14 82F d   1     -57.364 -17.472   7.984  0.00  0.00     0.098 C 
ATOM     18  H9  82F d   1     -56.273 -17.335   8.012  0.00  0.00     0.078 H 
ATOM     19  H10 82F d   1     -57.848 -16.514   7.742  0.00  0.00     0.078 H 
BRANCH  17  20
ATOM     20  C13 82F d   1     -57.775 -17.792   9.406  0.00  0.00     0.019 C 
ATOM     21  H7  82F d   1     -58.860 -17.974   9.432  0.00  0.00     0.066 H 
ATOM     22  H8  82F d   1     -57.244 -18.697   9.736  0.00  0.00     0.066 H 
BRANCH  20  23
ATOM     23  N3  82F d   1     -57.457 -16.700  10.313  0.00  0.00    -0.341 N 
ATOM     24  C12 82F d   1     -58.398 -15.793  10.590  0.00  0.00     0.329 C 
ATOM     25  N2  82F d   1     -57.994 -14.776  11.503  0.00  0.00    -0.245 N 
ATOM     26  O1  82F d   1     -59.526 -15.785  10.119  0.00  0.00    -0.246 OA
ATOM     27  C5  82F d   1     -58.813 -13.642  11.741  0.00  0.00     0.165 A 
ATOM     28  C6  82F d   1     -56.729 -14.838  12.173  0.00  0.00     0.061 A 
ATOM     29  N1  82F d   1     -59.997 -13.870  12.321  0.00  0.00    -0.240 NA
ATOM     30  C1  82F d   1     -58.352 -12.363  11.404  0.00  0.00     0.082 A 
ATOM     31  C4  82F d   1     -60.758 -12.798  12.588  0.00  0.00     0.005 A 
ATOM     32  C3  82F d   1     -60.389 -11.502  12.299  0.00  0.00    -0.064 A 
ATOM     33  H1  82F d   1     -61.721 -12.961  13.059  0.00  0.00     0.114 H 
ATOM     34  C2  82F d   1     -59.165 -11.273  11.695  0.00  0.00    -0.052 A 
ATOM     35  H39 82F d   1     -61.047 -10.675  12.541  0.00  0.00     0.085 H 
ATOM     36  H22 82F d   1     -58.847 -10.265  11.454  0.00  0.00     0.087 H 
ATOM     37  N   82F d   1     -57.100 -12.154  10.777  0.00  0.00    -0.320 N 
ATOM     38  C   82F d   1     -55.909 -12.768  10.907  0.00  0.00     0.258 C 
ATOM     39  H14 82F d   1     -57.100 -11.408  10.111  0.00  0.00     0.169 HD
ATOM     40  C11 82F d   1     -55.742 -13.882  11.885  0.00  0.00     0.059 A 
ATOM     41  O   82F d   1     -54.957 -12.431  10.208  0.00  0.00    -0.267 OA
ATOM     42  C10 82F d   1     -54.520 -13.951  12.552  0.00  0.00    -0.065 A 
ATOM     43  C9  82F d   1     -54.292 -14.948  13.485  0.00  0.00    -0.082 A 
ATOM     44  H5  82F d   1     -53.746 -13.222  12.340  0.00  0.00     0.085 H 
ATOM     45  C8  82F d   1     -55.269 -15.881  13.765  0.00  0.00    -0.081 A 
ATOM     46  H4  82F d   1     -53.339 -14.996  13.999  0.00  0.00     0.083 H 
ATOM     47  C7  82F d   1     -56.490 -15.835  13.115  0.00  0.00    -0.056 A 
ATOM     48  H3  82F d   1     -55.079 -16.655  14.499  0.00  0.00     0.083 H 
ATOM     49  H2  82F d   1     -57.255 -16.570  13.338  0.00  0.00     0.087 H 
ATOM     50  H6  82F d   1     -56.548 -16.629  10.723  0.00  0.00     0.164 HD
ENDBRANCH  20  23
ENDBRANCH  17  20
ENDBRANCH   2  17
BRANCH   6  51
ATOM     51  C20 82F d   1     -59.248 -18.934   5.053  0.00  0.00     0.110 C 
ATOM     52  H23 82F d   1     -58.495 -19.670   4.735  0.00  0.00     0.079 H 
ATOM     53  H24 82F d   1     -59.765 -18.533   4.169  0.00  0.00     0.079 H 
BRANCH  51  54
ATOM     54  N5  82F d   1     -60.200 -19.526   6.000  0.00  0.00    -0.069 N 
ATOM     55  H40 82F d   1     -59.702 -19.635   6.870  0.00  0.00     0.280 HD
BRANCH  54  56
ATOM     56  C21 82F d   1     -61.341 -18.646   6.284  0.00  0.00     0.083 C 
ATOM     57  H25 82F d   1     -61.087 -17.630   5.947  0.00  0.00     0.075 H 
ATOM     58  H26 82F d   1     -62.210 -19.013   5.718  0.00  0.00     0.075 H 
BRANCH  56  59
ATOM     59  C22 82F d   1     -61.719 -18.581   7.749  0.00  0.00    -0.046 C 
ATOM     60  H27 82F d   1     -60.863 -18.193   8.321  0.00  0.00     0.034 H 
ATOM     61  H28 82F d   1     -61.965 -19.595   8.099  0.00  0.00     0.034 H 
BRANCH  59  62
ATOM     62  C23 82F d   1     -62.906 -17.684   7.980  0.00  0.00    -0.075 C 
ATOM     63  H29 82F d   1     -63.147 -17.664   9.053  0.00  0.00     0.027 H 
ATOM     64  H30 82F d   1     -63.770 -18.067   7.417  0.00  0.00     0.027 H 
ATOM     65  H31 82F d   1     -62.668 -16.666   7.639  0.00  0.00     0.027 H 
ENDBRANCH  59  62
ENDBRANCH  56  59
ENDBRANCH  54  56
BRANCH  54  66
ATOM     66  C24 82F d   1     -60.632 -20.869   5.598  0.00  0.00     0.083 C 
ATOM     67  H32 82F d   1     -61.645 -20.796   5.176  0.00  0.00     0.075 H 
ATOM     68  H33 82F d   1     -59.940 -21.240   4.827  0.00  0.00     0.075 H 
BRANCH  66  69
ATOM     69  C25 82F d   1     -60.659 -21.864   6.733  0.00  0.00    -0.046 C 
ATOM     70  H34 82F d   1     -61.349 -21.501   7.509  0.00  0.00     0.034 H 
ATOM     71  H35 82F d   1     -59.647 -21.952   7.155  0.00  0.00     0.034 H 
BRANCH  69  72
ATOM     72  C26 82F d   1     -61.109 -23.205   6.276  0.00  0.00    -0.075 C 
ATOM     73  H36 82F d   1     -61.115 -23.900   7.129  0.00  0.00     0.027 H 
ATOM     74  H37 82F d   1     -60.421 -23.579   5.503  0.00  0.00     0.027 H 
ATOM     75  H38 82F d   1     -62.123 -23.128   5.858  0.00  0.00     0.027 H 
ENDBRANCH  69  72
ENDBRANCH  66  69
ENDBRANCH  54  66
ENDBRANCH  51  54
ENDBRANCH   6  51
TORSDOF 11
