REMARK  9 active torsions:
REMARK  status: ('A' for Active; 'I' for Inactive)
REMARK    1  A    between atoms: C2_2  and  C9_8 
REMARK    2  A    between atoms: C3_3  and  O4_13 
REMARK    3  A    between atoms: C4_4  and  O5_22 
REMARK    4  A    between atoms: C6_6  and  C10_11 
REMARK    5  A    between atoms: C9_8  and  O7_9 
REMARK    6  A    between atoms: C10_11  and  O8_12 
REMARK    7  A    between atoms: C8_17  and  C11_18 
REMARK    8  A    between atoms: C11_18  and  O9_19 
REMARK    9  A    between atoms: C7_20  and  O6_21 
ROOT
ATOM      1  C1  9F3 d   1      -4.932  19.558  39.845  0.00  0.00     0.125 C 
ATOM      2  C2  9F3 d   1      -6.330  20.212  39.678  0.00  0.00     0.215 C 
ATOM      3  C3  9F3 d   1      -4.484  19.226  38.400  0.00  0.00     0.093 C 
ATOM      4  C4  9F3 d   1      -5.893  16.313  41.668  0.00  0.00     0.118 C 
ATOM      5  C5  9F3 d   1      -7.374  17.968  40.336  0.00  0.00     0.078 C 
ATOM      6  C6  9F3 d   1      -5.451  19.990  37.492  0.00  0.00     0.089 C 
ATOM      7  O1  9F3 d   1      -7.433  19.387  40.093  0.00  0.00    -0.345 OA
ATOM      8  O2  9F3 d   1      -6.387  20.728  38.345  0.00  0.00    -0.341 OA
ATOM      9  O   9F3 d   1      -4.942  18.407  40.770  0.00  0.00    -0.337 OA
ATOM     10  C   9F3 d   1      -5.965  17.382  40.569  0.00  0.00     0.216 C 
ATOM     11  O3  9F3 d   1      -5.553  16.623  39.429  0.00  0.00    -0.341 OA
ATOM     12  C8  9F3 d   1      -6.026  15.278  39.517  0.00  0.00     0.089 C 
ATOM     13  C7  9F3 d   1      -6.427  15.087  40.977  0.00  0.00     0.092 C 
ATOM     14  H1  9F3 d   1      -4.238  20.301  40.265  0.00  0.00     0.096 H 
ATOM     15  H2  9F3 d   1      -4.560  18.143  38.220  0.00  0.00     0.091 H 
ATOM     16  H3  9F3 d   1      -4.849  16.171  41.985  0.00  0.00     0.095 H 
ATOM     17  H4  9F3 d   1      -7.811  17.458  39.465  0.00  0.00     0.083 H 
ATOM     18  H5  9F3 d   1      -7.980  17.753  41.228  0.00  0.00     0.083 H 
ATOM     19  H6  9F3 d   1      -4.892  20.693  36.857  0.00  0.00     0.090 H 
ATOM     20  H14 9F3 d   1      -5.252  14.548  39.239  0.00  0.00     0.090 H 
ATOM     21  H18 9F3 d   1      -7.515  14.981  41.095  0.00  0.00     0.091 H 
ENDROOT
BRANCH   4  22
ATOM     22  O5  9F3 d   1      -6.703  16.575  42.837  0.00  0.00    -0.387 OA
ATOM     23  H20 9F3 d   1      -6.661  15.829  43.424  0.00  0.00     0.210 HD
ENDBRANCH   4  22
BRANCH  13  24
ATOM     24  O6  9F3 d   1      -5.743  13.973  41.502  0.00  0.00    -0.390 OA
ATOM     25  H19 9F3 d   1      -5.990  13.851  42.411  0.00  0.00     0.210 HD
ENDBRANCH  13  24
BRANCH  12  26
ATOM     26  C11 9F3 d   1      -7.189  15.214  38.535  0.00  0.00     0.043 C 
ATOM     27  H15 9F3 d   1      -7.315  16.170  38.005  0.00  0.00     0.078 H 
ATOM     28  H16 9F3 d   1      -8.127  14.952  39.046  0.00  0.00     0.078 H 
BRANCH  26  29
ATOM     29  O9  9F3 d   1      -6.792  14.202  37.662  0.00  0.00    -0.398 OA
ATOM     30  H17 9F3 d   1      -6.675  13.394  38.148  0.00  0.00     0.209 HD
ENDBRANCH  26  29
ENDBRANCH  12  26
BRANCH   2  31
ATOM     31  C9  9F3 d   1      -6.551  21.435  40.566  0.00  0.00     0.071 C 
ATOM     32  H7  9F3 d   1      -6.734  21.103  41.599  0.00  0.00     0.082 H 
ATOM     33  H8  9F3 d   1      -7.425  21.993  40.200  0.00  0.00     0.082 H 
BRANCH  31  34
ATOM     34  O7  9F3 d   1      -5.423  22.277  40.544  0.00  0.00    -0.395 OA
ATOM     35  H9  9F3 d   1      -5.580  23.030  41.101  0.00  0.00     0.209 HD
ENDBRANCH  31  34
ENDBRANCH   2  31
BRANCH   3  36
ATOM     36  O4  9F3 d   1      -3.164  19.646  38.150  0.00  0.00    -0.390 OA
ATOM     37  H13 9F3 d   1      -2.945  19.475  37.242  0.00  0.00     0.210 HD
ENDBRANCH   3  36
BRANCH   6  38
ATOM     38  C10 9F3 d   1      -6.216  19.004  36.611  0.00  0.00     0.043 C 
ATOM     39  H10 9F3 d   1      -6.714  18.253  37.242  0.00  0.00     0.078 H 
ATOM     40  H11 9F3 d   1      -5.518  18.502  35.925  0.00  0.00     0.078 H 
BRANCH  38  41
ATOM     41  O8  9F3 d   1      -7.188  19.721  35.864  0.00  0.00    -0.398 OA
ATOM     42  H12 9F3 d   1      -7.787  20.154  36.460  0.00  0.00     0.209 HD
ENDBRANCH  38  41
ENDBRANCH   6  38
TORSDOF 9
