REMARK  9 active torsions:
REMARK  status: ('A' for Active; 'I' for Inactive)
REMARK    1  A    between atoms: C2_2  and  C9_8 
REMARK    2  A    between atoms: C3_3  and  O4_13 
REMARK    3  A    between atoms: C4_4  and  O5_22 
REMARK    4  A    between atoms: C6_6  and  C10_11 
REMARK    5  A    between atoms: C9_8  and  O7_9 
REMARK    6  A    between atoms: C10_11  and  O8_12 
REMARK    7  A    between atoms: C8_17  and  C11_18 
REMARK    8  A    between atoms: C11_18  and  O9_19 
REMARK    9  A    between atoms: C7_20  and  O6_21 
ROOT
ATOM      1  C1  9F3 d   1       5.678   0.130 -40.089  0.00  0.00     0.125 C 
ATOM      2  C2  9F3 d   1       7.097   0.758 -39.931  0.00  0.00     0.215 C 
ATOM      3  C3  9F3 d   1       5.289  -0.268 -38.651  0.00  0.00     0.093 C 
ATOM      4  C4  9F3 d   1       6.611  -3.121 -41.905  0.00  0.00     0.118 C 
ATOM      5  C5  9F3 d   1       8.032  -1.120 -41.131  0.00  0.00     0.078 C 
ATOM      6  C6  9F3 d   1       6.292   0.478 -37.726  0.00  0.00     0.089 C 
ATOM      7  O1  9F3 d   1       8.163  -0.224 -40.039  0.00  0.00    -0.345 OA
ATOM      8  O2  9F3 d   1       7.172   1.248 -38.603  0.00  0.00    -0.341 OA
ATOM      9  O   9F3 d   1       5.618  -1.042 -40.982  0.00  0.00    -0.337 OA
ATOM     10  C   9F3 d   1       6.802  -1.958 -40.901  0.00  0.00     0.216 C 
ATOM     11  O3  9F3 d   1       6.974  -2.616 -39.602  0.00  0.00    -0.341 OA
ATOM     12  C8  9F3 d   1       6.421  -3.958 -39.740  0.00  0.00     0.089 C 
ATOM     13  C7  9F3 d   1       6.992  -4.352 -41.094  0.00  0.00     0.092 C 
ATOM     14  H1  9F3 d   1       4.983   0.890 -40.475  0.00  0.00     0.096 H 
ATOM     15  H2  9F3 d   1       5.406  -1.353 -38.515  0.00  0.00     0.091 H 
ATOM     16  H3  9F3 d   1       5.557  -3.160 -42.217  0.00  0.00     0.095 H 
ATOM     17  H4  9F3 d   1       8.919  -1.768 -41.191  0.00  0.00     0.083 H 
ATOM     18  H5  9F3 d   1       7.928  -0.553 -42.068  0.00  0.00     0.083 H 
ATOM     19  H6  9F3 d   1       5.741   1.162 -37.064  0.00  0.00     0.090 H 
ATOM     20  H14 9F3 d   1       5.322  -3.922 -39.778  0.00  0.00     0.090 H 
ATOM     21  H18 9F3 d   1       8.077  -4.533 -41.063  0.00  0.00     0.091 H 
ENDROOT
BRANCH   4  22
ATOM     22  O5  9F3 d   1       7.436  -3.112 -43.087  0.00  0.00    -0.387 OA
ATOM     23  H20 9F3 d   1       7.278  -3.903 -43.588  0.00  0.00     0.210 HD
ENDBRANCH   4  22
BRANCH  13  24
ATOM     24  O6  9F3 d   1       6.321  -5.446 -41.610  0.00  0.00    -0.390 OA
ATOM     25  H19 9F3 d   1       6.692  -5.675 -42.454  0.00  0.00     0.210 HD
ENDBRANCH  13  24
BRANCH  12  26
ATOM     26  C11 9F3 d   1       6.824  -4.902 -38.615  0.00  0.00     0.043 C 
ATOM     27  H15 9F3 d   1       6.534  -5.933 -38.868  0.00  0.00     0.078 H 
ATOM     28  H16 9F3 d   1       6.331  -4.602 -37.679  0.00  0.00     0.078 H 
BRANCH  26  29
ATOM     29  O9  9F3 d   1       8.241  -4.817 -38.468  0.00  0.00    -0.398 OA
ATOM     30  H17 9F3 d   1       8.659  -5.073 -39.282  0.00  0.00     0.209 HD
ENDBRANCH  26  29
ENDBRANCH  12  26
BRANCH   2  31
ATOM     31  C9  9F3 d   1       7.389   1.832 -40.964  0.00  0.00     0.071 C 
ATOM     32  H7  9F3 d   1       7.331   1.404 -41.976  0.00  0.00     0.082 H 
ATOM     33  H8  9F3 d   1       8.394   2.247 -40.798  0.00  0.00     0.082 H 
BRANCH  31  34
ATOM     34  O7  9F3 d   1       6.404   2.865 -40.814  0.00  0.00    -0.395 OA
ATOM     35  H9  9F3 d   1       6.566   3.550 -41.451  0.00  0.00     0.209 HD
ENDBRANCH  31  34
ENDBRANCH   2  31
BRANCH   3  36
ATOM     36  O4  9F3 d   1       3.895   0.082 -38.398  0.00  0.00    -0.390 OA
ATOM     37  H13 9F3 d   1       3.673  -0.137 -37.501  0.00  0.00     0.210 HD
ENDBRANCH   3  36
BRANCH   6  38
ATOM     38  C10 9F3 d   1       7.091  -0.493 -36.864  0.00  0.00     0.043 C 
ATOM     39  H10 9F3 d   1       7.753  -1.105 -37.494  0.00  0.00     0.078 H 
ATOM     40  H11 9F3 d   1       6.412  -1.149 -36.300  0.00  0.00     0.078 H 
BRANCH  38  41
ATOM     41  O8  9F3 d   1       7.883   0.326 -35.945  0.00  0.00    -0.398 OA
ATOM     42  H12 9F3 d   1       8.401  -0.240 -35.384  0.00  0.00     0.209 HD
ENDBRANCH  38  41
ENDBRANCH   6  38
TORSDOF 9
