REMARK  6 active torsions:
REMARK  status: ('A' for Active; 'I' for Inactive)
REMARK    1  A    between atoms: CAW_13  and  CAV_14 
REMARK    2  A    between atoms: CAU_19  and  CAS_20 
REMARK    3  A    between atoms: CAS_20  and  CBB_21 
REMARK    4  A    between atoms: CBB_21  and  PBC_22 
REMARK    5  A    between atoms: CBB_21  and  PBD_26 
REMARK    6  A    between atoms: CBB_21  and  OAC_30 
ROOT
ATOM      1  CAV B29 d   1      61.171  -2.118  23.114  0.00  0.00    -0.023 A 
ATOM      2  CAR B29 d   1      60.954  -1.043  22.265  0.00  0.00    -0.066 A 
ATOM      3  CAM B29 d   1      60.229  -2.427  24.082  0.00  0.00    -0.072 A 
ATOM      4  CAJ B29 d   1      59.079  -1.656  24.187  0.00  0.00    -0.082 A 
ATOM      5  CAL B29 d   1      58.869  -0.581  23.333  0.00  0.00    -0.077 A 
ATOM      6  CAU B29 d   1      59.807  -0.273  22.358  0.00  0.00    -0.053 A 
ATOM      7  H8  B29 d   1      61.697  -0.801  21.514  0.00  0.00     0.085 H 
ATOM      8  H9  B29 d   1      60.389  -3.264  24.752  0.00  0.00     0.084 H 
ATOM      9  H10 B29 d   1      58.339  -1.895  24.942  0.00  0.00     0.083 H 
ATOM     10  H11 B29 d   1      57.971   0.018  23.428  0.00  0.00     0.084 H 
ENDROOT
BRANCH   1  11
ATOM     11  CAW B29 d   1      62.349  -2.838  22.954  0.00  0.00     0.009 A 
ATOM     12  CBA B29 d   1      63.115  -3.351  24.023  0.00  0.00     0.098 A 
ATOM     13  OAT B29 d   1      62.946  -3.340  25.402  0.00  0.00    -0.308 OA
ATOM     14  CAZ B29 d   1      64.283  -4.028  23.759  0.00  0.00     0.012 A 
ATOM     15  CAX B29 d   1      64.016  -4.012  25.982  0.00  0.00     0.087 A 
ATOM     16  CAY B29 d   1      64.841  -4.439  24.973  0.00  0.00     0.011 A 
ATOM     17  CAO B29 d   1      64.346  -4.294  27.318  0.00  0.00    -0.049 A 
ATOM     18  CAP B29 d   1      66.011  -5.155  25.274  0.00  0.00    -0.069 A 
ATOM     19  CAI B29 d   1      66.338  -5.432  26.593  0.00  0.00    -0.082 A 
ATOM     20  H1  B29 d   1      66.660  -5.492  24.474  0.00  0.00     0.085 H 
ATOM     21  CAH B29 d   1      65.502  -5.002  27.616  0.00  0.00    -0.080 A 
ATOM     22  H2  B29 d   1      67.243  -5.982  26.825  0.00  0.00     0.083 H 
ATOM     23  H3  B29 d   1      65.753  -5.220  28.648  0.00  0.00     0.083 H 
ATOM     24  H4  B29 d   1      63.696  -3.958  28.118  0.00  0.00     0.087 H 
ATOM     25  CAQ B29 d   1      64.714  -4.197  22.437  0.00  0.00    -0.069 A 
ATOM     26  CAK B29 d   1      63.970  -3.689  21.386  0.00  0.00    -0.081 A 
ATOM     27  H5  B29 d   1      65.637  -4.729  22.235  0.00  0.00     0.085 H 
ATOM     28  CAN B29 d   1      62.792  -3.006  21.651  0.00  0.00    -0.069 A 
ATOM     29  H6  B29 d   1      64.305  -3.824  20.364  0.00  0.00     0.083 H 
ATOM     30  H7  B29 d   1      62.212  -2.599  20.831  0.00  0.00     0.085 H 
ENDBRANCH   1  11
BRANCH   6  31
ATOM     31  CAS B29 d   1      59.625   0.908  21.395  0.00  0.00     0.014 C 
ATOM     32  H12 B29 d   1      60.418   0.849  20.635  0.00  0.00     0.046 H 
ATOM     33  H13 B29 d   1      59.740   1.836  21.974  0.00  0.00     0.046 H 
BRANCH  31  34
ATOM     34  CBB B29 d   1      58.277   0.972  20.665  0.00  0.00     0.289 C 
BRANCH  34  35
ATOM     35  PBC B29 d   1      58.351   2.350  19.412  0.00  0.00     0.310 P 
ATOM     36  OAD B29 d   1      59.292   1.968  18.294  0.00  0.00    -0.637 OA
ATOM     37  OAE B29 d   1      58.842   3.619  20.066  0.00  0.00    -0.637 OA
ATOM     38  OAA B29 d   1      56.972   2.583  18.840  0.00  0.00    -0.637 OA
ENDBRANCH  34  35
BRANCH  34  39
ATOM     39  PBD B29 d   1      57.877  -0.599  19.744  0.00  0.00     0.310 P 
ATOM     40  OAF B29 d   1      58.973  -0.899  18.750  0.00  0.00    -0.637 OA
ATOM     41  OAG B29 d   1      57.725  -1.761  20.696  0.00  0.00    -0.637 OA
ATOM     42  OAB B29 d   1      56.576  -0.404  19.000  0.00  0.00    -0.637 OA
ENDBRANCH  34  39
BRANCH  34  43
ATOM     43  OAC B29 d   1      57.255   1.259  21.580  0.00  0.00    -0.365 OA
ATOM     44  H14 B29 d   1      57.205   0.564  22.226  0.00  0.00     0.212 HD
ENDBRANCH  34  43
ENDBRANCH  31  34
ENDBRANCH   6  31
TORSDOF 6
