REMARK  5 active torsions:
REMARK  status: ('A' for Active; 'I' for Inactive)
REMARK    1  A    between atoms: S1_24  and  C4_1 
REMARK    2  A    between atoms: C5_3  and  S1_24 
REMARK    3  A    between atoms: C10_9  and  C11_5 
REMARK    4  A    between atoms: C9_8  and  C8_7 
REMARK       I    between atoms: N4_21  and  C10_9 
REMARK    5  A    between atoms: N3_15  and  N4_21 
ROOT
ATOM      1  C9  MOL d   1       4.078  82.725  56.846  0.00  0.00     0.054 C 
ATOM      2  N3  MOL d   1       2.946  82.274  57.232  0.00  0.00    -0.181 NA
ATOM      3  H4  MOL d   1       4.130  83.708  56.381  0.00  0.00     0.121 H 
ENDROOT
BRANCH   1   4
ATOM      4  C8  MOL d   1       5.290  81.957  57.014  0.00  0.00     0.096 A 
ATOM      5  C7  MOL d   1       6.597  82.234  56.633  0.00  0.00    -0.046 A 
ATOM      6  C6  MOL d   1       7.377  81.156  57.066  0.00  0.00    -0.041 A 
ATOM      7  H3  MOL d   1       6.946  83.118  56.101  0.00  0.00     0.088 H 
ATOM      8  C5  MOL d   1       6.545  80.263  57.700  0.00  0.00     0.120 A 
ATOM      9  H2  MOL d   1       8.451  81.044  56.926  0.00  0.00     0.088 H 
ATOM     10  O1  MOL d   1       5.241  80.724  57.656  0.00  0.00    -0.302 OA
BRANCH   8  11
ATOM     11  S1  MOL d   1       6.917  78.753  58.501  0.00  0.00    -0.025 SA
BRANCH  11  12
ATOM     12  C4  MOL d   1       6.760  77.567  57.201  0.00  0.00     0.194 A 
ATOM     13  N1  MOL d   1       7.379  76.401  57.376  0.00  0.00    -0.235 NA
ATOM     14  C1  MOL d   1       7.250  75.511  56.391  0.00  0.00     0.006 A 
ATOM     15  C2  MOL d   1       6.532  75.762  55.256  0.00  0.00    -0.049 A 
ATOM     16  H7  MOL d   1       7.736  74.547  56.495  0.00  0.00     0.114 H 
ATOM     17  C3  MOL d   1       5.938  76.990  55.173  0.00  0.00     0.006 A 
ATOM     18  H10 MOL d   1       6.439  75.027  54.465  0.00  0.00     0.087 H 
ATOM     19  N2  MOL d   1       6.036  77.907  56.137  0.00  0.00    -0.235 NA
ATOM     20  H6  MOL d   1       5.363  77.229  54.286  0.00  0.00     0.114 H 
ENDBRANCH  11  12
ENDBRANCH   8  11
ENDBRANCH   1   4
BRANCH   2  21
ATOM     21  N4  MOL d   1       1.871  83.118  57.023  0.00  0.00    -0.243 N 
ATOM     22  C10 MOL d   1       0.620  82.683  57.284  0.00  0.00     0.271 C 
ATOM     23  O2  MOL d   1       0.390  81.546  57.686  0.00  0.00    -0.266 OA
ATOM     24  H11 MOL d   1       2.019  84.046  56.680  0.00  0.00     0.192 HD
BRANCH  22  25
ATOM     25  C11 MOL d   1      -0.482  83.664  57.052  0.00  0.00     0.036 A 
ATOM     26  C12 MOL d   1      -1.799  83.286  57.278  0.00  0.00    -0.030 A 
ATOM     27  C13 MOL d   1      -2.786  84.207  57.056  0.00  0.00     0.117 A 
ATOM     28  H5  MOL d   1      -2.039  82.286  57.622  0.00  0.00     0.089 H 
ATOM     29  C14 MOL d   1      -2.539  85.485  56.624  0.00  0.00    -0.046 A 
ATOM     30  F1  MOL d   1      -4.075  83.838  57.277  0.00  0.00    -0.206 F 
ATOM     31  C15 MOL d   1      -1.226  85.852  56.402  0.00  0.00    -0.079 A 
ATOM     32  H1  MOL d   1      -3.350  86.186  56.462  0.00  0.00     0.088 H 
ATOM     33  C16 MOL d   1      -0.201  84.952  56.612  0.00  0.00    -0.068 A 
ATOM     34  H8  MOL d   1      -0.999  86.855  56.060  0.00  0.00     0.083 H 
ATOM     35  H9  MOL d   1       0.826  85.250  56.433  0.00  0.00     0.085 H 
ENDBRANCH  22  25
ENDBRANCH   2  21
TORSDOF 5
