REMARK WARNING: 32 MAX_TORS EXCEEDED!!!
REMARK  64 active torsions:
REMARK  status: ('A' for Active; 'I' for Inactive)
REMARK    1  A    between atoms: C_1  and  CH3_3 
REMARK       I    between atoms: N_4  and  C_1 
REMARK    2  A    between atoms: CA_5  and  N_4 
REMARK    3  A    between atoms: C_6  and  CA_5 
REMARK    4  A    between atoms: CA_5  and  CB_8 
REMARK       I    between atoms: N_13  and  C_6 
REMARK    5  A    between atoms: CB_8  and  CG_9 
REMARK    6  A    between atoms: CG_9  and  CD_10 
REMARK    7  A    between atoms: CD_10  and  CE_11 
REMARK    8  A    between atoms: CE_11  and  NZ_12 
REMARK    9  A    between atoms: CA_14  and  N_13 
REMARK   10  A    between atoms: C_15  and  CA_14 
REMARK   11  A    between atoms: CA_14  and  CB_17 
REMARK       I    between atoms: N_22  and  C_15 
REMARK   12  A    between atoms: CB_17  and  CG_18 
REMARK   13  A    between atoms: CG_18  and  CD_19 
REMARK   14  A    between atoms: CD_19  and  CE_20 
REMARK   15  A    between atoms: CE_20  and  NZ_21 
REMARK   16  A    between atoms: CA_23  and  N_22 
REMARK   17  A    between atoms: C_24  and  CA_23 
REMARK   18  A    between atoms: CA_23  and  CB_26 
REMARK       I    between atoms: N_33  and  C_24 
REMARK   19  A    between atoms: CB_26  and  CG_27 
REMARK   20  A    between atoms: CG_27  and  CD_28 
REMARK   21  A    between atoms: CD_28  and  NE_29 
REMARK       I    between atoms: NE_29  and  CZ_30 
REMARK       I    between atoms: CZ_30  and  NH1_31 
REMARK       I    between atoms: CZ_30  and  NH2_32 
REMARK   22  A    between atoms: CA_34  and  N_33 
REMARK   23  A    between atoms: C_35  and  CA_34 
REMARK   24  A    between atoms: CA_34  and  CB_37 
REMARK       I    between atoms: N_45  and  C_35 
REMARK   25  A    between atoms: CB_37  and  CG_38 
REMARK   26  A    between atoms: CZ_43  and  OH_44 
REMARK   27  A    between atoms: CA_46  and  N_45 
REMARK   28  A    between atoms: C_47  and  CA_46 
REMARK   29  A    between atoms: CA_46  and  CB_49 
REMARK       I    between atoms: N_51  and  C_47 
REMARK   30  A    between atoms: CB_49  and  OG_50 
REMARK   31  A    between atoms: CA_52  and  N_51 
REMARK   32  A    between atoms: C_53  and  CA_52 
REMARK   33  A    between atoms: CA_52  and  CB_55 
REMARK       I    between atoms: N_63  and  C_53 
REMARK   34  A    between atoms: CB_55  and  CG_56 
REMARK   35  A    between atoms: CG_56  and  CD_57 
REMARK   36  A    between atoms: CD_57  and  NE_58 
REMARK       I    between atoms: NE_58  and  CZ_59 
REMARK       I    between atoms: CZ_59  and  NH1_60 
REMARK       I    between atoms: CZ_59  and  NH2_61 
REMARK   37  A    between atoms: CA_65  and  N_63 
REMARK   38  A    between atoms: CA_65  and  CB1_70 
REMARK   39  A    between atoms: CA_72  and  CB_75 
REMARK   40  A    between atoms: CB_75  and  CG_76 
REMARK   41  A    between atoms: CG_76  and  CD_77 
REMARK       I    between atoms: CD_77  and  NE2_79 
REMARK   42  A    between atoms: CA_81  and  CB_84 
REMARK   43  A    between atoms: CB_84  and  CG_85 
REMARK   44  A    between atoms: CG_85  and  CD1_86 
REMARK   45  A    between atoms: CG_85  and  CD2_87 
REMARK   46  A    between atoms: CA_89  and  CB_92 
REMARK   47  A    between atoms: CB_92  and  CG_93 
REMARK   48  A    between atoms: CG_93  and  CD1_94 
REMARK   49  A    between atoms: CG_93  and  CD2_95 
REMARK   50  A    between atoms: CA_99  and  C_96 
REMARK       I    between atoms: C_96  and  N_105 
REMARK   51  A    between atoms: CA_99  and  CB1_104 
REMARK   52  A    between atoms: N_105  and  CA_106 
REMARK   53  A    between atoms: CA_106  and  C_107 
REMARK   54  A    between atoms: CA_106  and  CB_109 
REMARK       I    between atoms: C_107  and  N_116 
REMARK   55  A    between atoms: CB_109  and  CG_110 
REMARK   56  A    between atoms: N_116  and  CA_117 
REMARK   57  A    between atoms: CA_117  and  C_118 
REMARK   58  A    between atoms: CA_117  and  CB_120 
REMARK       I    between atoms: C_118  and  N_127 
REMARK   59  A    between atoms: CB_120  and  CG_121 
REMARK   60  A    between atoms: CG_121  and  CD_122 
REMARK   61  A    between atoms: CD_122  and  NE_123 
REMARK       I    between atoms: NE_123  and  CZ_124 
REMARK       I    between atoms: CZ_124  and  NH1_125 
REMARK       I    between atoms: CZ_124  and  NH2_126 
REMARK   62  A    between atoms: N_127  and  CA_128 
REMARK   63  A    between atoms: CA_128  and  C_129 
REMARK   64  A    between atoms: CA_128  and  CB_131 
ROOT
ATOM      1  C   ACE d   1     -16.685  -7.168   4.863  0.00  0.00     0.246 C 
ATOM      2  O   ACE d   1     -16.299  -8.207   5.420  0.00  0.00    -0.271 OA
ATOM      3  CA  ACE d   1     -15.608  -6.198   4.439  0.00  0.00     0.110 C 
ATOM      4  CB  ACE d   1     -15.686  -4.935   5.320  0.00  0.00    -0.033 C 
ATOM      5  CD  ACE d   1     -16.871  -5.427   7.535  0.00  0.00    -0.050 C 
ATOM      6  CE  ACE d   1     -16.595  -5.758   8.992  0.00  0.00    -0.107 C 
ATOM      7  CG  ACE d   1     -15.547  -5.171   6.835  0.00  0.00    -0.059 C 
ATOM      8  N   ACE d   1     -17.921  -6.861   4.599  0.00  0.00    -0.346 N 
ATOM      9  CA  ACE d   1     -19.073  -7.688   4.962  0.00  0.00     0.090 C 
ATOM     10  C   ACE d   1     -18.970  -9.066   4.332  0.00  0.00     0.241 C 
ATOM     11  O   ACE d   1     -19.292 -10.082   4.972  0.00  0.00    -0.271 OA
ATOM     12  N   ACE d   1     -18.547  -9.103   3.064  0.00  0.00    -0.346 N 
ATOM     13  CA  ACE d   1     -18.430 -10.391   2.378  0.00  0.00     0.089 C 
ATOM     14  C   ACE d   1     -17.383 -11.265   3.031  0.00  0.00     0.241 C 
ATOM     15  O   ACE d   1     -17.623 -12.466   3.227  0.00  0.00    -0.271 OA
ATOM     16  N   ACE d   1     -16.235 -10.692   3.369  0.00  0.00    -0.346 N 
ATOM     17  CA  ACE d   1     -15.195 -11.462   4.025  0.00  0.00     0.089 C 
ATOM     18  C   ACE d   1     -15.669 -11.953   5.402  0.00  0.00     0.241 C 
ATOM     19  O   ACE d   1     -15.529 -13.148   5.693  0.00  0.00    -0.271 OA
ATOM     20  N   ACE d   1     -16.302 -11.080   6.216  0.00  0.00    -0.342 N 
ATOM     21  CA  ACE d   1     -16.841 -11.446   7.524  0.00  0.00     0.110 C 
ATOM     22  CB  ACE d   1     -17.651 -10.320   8.149  0.00  0.00    -0.033 C 
ATOM     23  CD  ACE d   1     -17.779  -8.026   9.070  0.00  0.00    -0.050 C 
ATOM     24  CE  ACE d   1     -16.992  -6.868   9.634  0.00  0.00    -0.107 C 
ATOM     25  CG  ACE d   1     -16.839  -9.152   8.684  0.00  0.00    -0.059 C 
ATOM     26  H71 ACE d   1     -16.660  -4.457   5.140  0.00  0.00     0.037 H 
ATOM     27  H72 ACE d   1     -14.880  -4.255   5.008  0.00  0.00     0.037 H 
ATOM     28  H73 ACE d   1     -17.503  -4.529   7.473  0.00  0.00     0.038 H 
ATOM     29  H74 ACE d   1     -17.387  -6.272   7.055  0.00  0.00     0.038 H 
ATOM     30  H75 ACE d   1     -16.024  -5.030   9.567  0.00  0.00     0.076 H 
ATOM     31  H76 ACE d   1     -15.083  -4.281   7.284  0.00  0.00     0.033 H 
ATOM     32  H77 ACE d   1     -14.896  -6.043   6.993  0.00  0.00     0.033 H 
ATOM     33  H81 ACE d   1     -18.096  -6.003   4.116  0.00  0.00     0.163 HD
ATOM     34  H82 ACE d   1     -19.097  -7.785   6.057  0.00  0.00     0.087 H 
ATOM     35  H89 ACE d   1     -18.312  -8.256   2.587  0.00  0.00     0.163 HD
ATOM     36  H90 ACE d   1     -19.396 -10.905   2.487  0.00  0.00     0.087 H 
ATOM     37 0H10 ACE d   1     -16.086  -9.723   3.170  0.00  0.00     0.163 HD
ATOM     38 1H10 ACE d   1     -15.024 -12.359   3.411  0.00  0.00     0.087 H 
ATOM     39 1H11 ACE d   1     -16.407 -10.135   5.907  0.00  0.00     0.163 HD
ATOM     40 2H11 ACE d   1     -18.230 -10.741   8.984  0.00  0.00     0.037 H 
ATOM     41 3H11 ACE d   1     -18.340  -9.932   7.384  0.00  0.00     0.037 H 
ATOM     42 4H11 ACE d   1     -18.332  -7.692   8.180  0.00  0.00     0.038 H 
ATOM     43 5H11 ACE d   1     -18.489  -8.388   9.828  0.00  0.00     0.038 H 
ATOM     44 6H11 ACE d   1     -16.714  -6.942  10.684  0.00  0.00     0.076 H 
ATOM     45 7H11 ACE d   1     -16.144  -8.801   7.907  0.00  0.00     0.033 H 
ATOM     46 8H11 ACE d   1     -16.269  -9.475   9.568  0.00  0.00     0.033 H 
ENDROOT
BRANCH   3  47
ATOM     47  N   ACE d   1     -15.778  -5.807   3.035  0.00  0.00    -0.342 N 
ATOM     48  C   ACE d   1     -15.871  -6.698   2.029  0.00  0.00     0.241 C 
ATOM     49  O   ACE d   1     -15.837  -7.914   2.191  0.00  0.00    -0.271 OA
ATOM     50  H70 ACE d   1     -15.827  -4.833   2.814  0.00  0.00     0.163 HD
BRANCH  48  51
ATOM     51  CA  ACE d   1     -16.041  -6.098   0.621  0.00  0.00     0.089 C 
ATOM     52  H58 ACE d   1     -16.281  -6.904  -0.088  0.00  0.00     0.087 H 
BRANCH  51  53
ATOM     53  N   ACE d   1     -17.081  -5.127   0.603  0.00  0.00    -0.346 N 
ATOM     54  C   ACE d   1     -18.271  -5.380   1.088  0.00  0.00     0.243 C 
ATOM     55  O   ACE d   1     -18.643  -6.495   1.511  0.00  0.00    -0.271 OA
ATOM     56  H57 ACE d   1     -16.898  -4.226   0.209  0.00  0.00     0.163 HD
BRANCH  54  57
ATOM     57  CA  ACE d   1     -19.163  -4.190   1.146  0.00  0.00     0.109 C 
ATOM     58  H53 ACE d   1     -19.036  -3.584   0.237  0.00  0.00     0.090 H 
BRANCH  57  59
ATOM     59  N   ACE d   1     -20.508  -4.655   1.222  0.00  0.00    -0.344 N 
ATOM     60  C   ACE d   1     -21.102  -5.208   0.176  0.00  0.00     0.241 C 
ATOM     61  O   ACE d   1     -20.608  -5.240  -0.952  0.00  0.00    -0.271 OA
ATOM     62  H52 ACE d   1     -21.012  -4.562   2.081  0.00  0.00     0.163 HD
BRANCH  60  63
ATOM     63  CA  ACE d   1     -22.421  -5.839   0.458  0.00  0.00     0.093 C 
ATOM     64  H44 ACE d   1     -22.797  -5.478   1.427  0.00  0.00     0.088 H 
BRANCH  63  65
ATOM     65  N   ACE d   1     -23.354  -5.471  -0.579  0.00  0.00    -0.346 N 
ATOM     66  C   ACE d   1     -24.478  -4.830  -0.308  0.00  0.00     0.241 C 
ATOM     67  O   ACE d   1     -24.862  -4.604   0.849  0.00  0.00    -0.271 OA
ATOM     68  H43 ACE d   1     -23.145  -5.707  -1.528  0.00  0.00     0.163 HD
BRANCH  66  69
ATOM     69  CA  ACE d   1     -25.291  -4.380  -1.512  0.00  0.00     0.089 C 
ATOM     70  H31 ACE d   1     -24.937  -4.912  -2.407  0.00  0.00     0.087 H 
BRANCH  69  71
ATOM     71  N   ACE d   1     -26.683  -4.725  -1.275  0.00  0.00    -0.346 N 
ATOM     72  C   ACE d   1     -27.363  -5.561  -2.050  0.00  0.00     0.241 C 
ATOM     73  O   ACE d   1     -26.929  -6.015  -3.105  0.00  0.00    -0.271 OA
ATOM     74  H30 ACE d   1     -27.150  -4.314  -0.492  0.00  0.00     0.163 HD
BRANCH  72  75
ATOM     75  CA  ACE d   1     -28.763  -5.923  -1.574  0.00  0.00     0.089 C 
ATOM     76  H18 ACE d   1     -28.915  -5.495  -0.572  0.00  0.00     0.087 H 
BRANCH  75  77
ATOM     77  N   ACE d   1     -29.783  -5.381  -2.468  0.00  0.00    -0.346 N 
ATOM     78  C   ACE d   1     -30.527  -4.315  -2.157  0.00  0.00     0.241 C 
ATOM     79  O   ACE d   1     -30.361  -3.656  -1.135  0.00  0.00    -0.271 OA
ATOM     80  H17 ACE d   1     -29.931  -5.827  -3.351  0.00  0.00     0.163 HD
BRANCH  78  81
ATOM     81  CA  ACE d   1     -31.602  -3.914  -3.180  0.00  0.00     0.089 C 
ATOM     82  H5  ACE d   1     -31.853  -4.822  -3.748  0.00  0.00     0.087 H 
BRANCH  81  83
ATOM     83  N   ACE d   1     -32.863  -3.404  -2.627  0.00  0.00    -0.348 N 
ATOM     84  C   ACE d   1     -33.520  -3.888  -1.564  0.00  0.00     0.214 C 
ATOM     85  O   ACE d   1     -33.111  -4.799  -0.864  0.00  0.00    -0.274 OA
ATOM     86  H4  ACE d   1     -33.272  -2.617  -3.090  0.00  0.00     0.163 HD
BRANCH  84  87
ATOM     87  CH3 ACE d   1     -34.857  -3.230  -1.284  0.00  0.00    -0.003 C 
ATOM     88  H1  ACE d   1     -35.038  -2.437  -2.025  0.00  0.00     0.040 H 
ATOM     89  H2  ACE d   1     -34.846  -2.793  -0.275  0.00  0.00     0.040 H 
ATOM     90  H3  ACE d   1     -35.657  -3.982  -1.349  0.00  0.00     0.040 H 
ENDBRANCH  84  87
ENDBRANCH  81  83
BRANCH  81  91
ATOM     91  CB  ACE d   1     -31.010  -2.892  -4.160  0.00  0.00    -0.038 C 
ATOM     92  H6  ACE d   1     -29.940  -3.113  -4.288  0.00  0.00     0.036 H 
ATOM     93  H7  ACE d   1     -31.128  -1.887  -3.728  0.00  0.00     0.036 H 
BRANCH  91  94
ATOM     94  CG  ACE d   1     -31.670  -2.907  -5.527  0.00  0.00    -0.061 C 
ATOM     95  H8  ACE d   1     -32.761  -2.952  -5.395  0.00  0.00     0.033 H 
ATOM     96  H9  ACE d   1     -31.330  -3.797  -6.077  0.00  0.00     0.033 H 
BRANCH  94  97
ATOM     97  CD  ACE d   1     -31.322  -1.664  -6.336  0.00  0.00    -0.043 C 
ATOM     98  H10 ACE d   1     -30.385  -1.238  -5.948  0.00  0.00     0.035 H 
ATOM     99  H11 ACE d   1     -32.133  -0.929  -6.226  0.00  0.00     0.035 H 
BRANCH  97 100
ATOM    100  CE  ACE d   1     -31.143  -1.982  -7.816  0.00  0.00     0.080 C 
ATOM    101  H12 ACE d   1     -30.259  -2.627  -7.931  0.00  0.00     0.075 H 
ATOM    102  H13 ACE d   1     -30.982  -1.039  -8.359  0.00  0.00     0.075 H 
BRANCH 100 103
ATOM    103  NZ  ACE d   1     -32.315  -2.677  -8.413  0.00  0.00    -0.079 N 
ATOM    104  H14 ACE d   1     -32.137  -2.859  -9.388  0.00  0.00     0.274 HD
ATOM    105  H15 ACE d   1     -33.133  -2.094  -8.324  0.00  0.00     0.274 HD
ATOM    106  H16 ACE d   1     -32.470  -3.549  -7.931  0.00  0.00     0.274 HD
ENDBRANCH 100 103
ENDBRANCH  97 100
ENDBRANCH  94  97
ENDBRANCH  91  94
ENDBRANCH  81  91
ENDBRANCH  78  81
ENDBRANCH  75  77
BRANCH  75 107
ATOM    107  CB  ACE d   1     -28.892  -7.447  -1.485  0.00  0.00    -0.038 C 
ATOM    108  H19 ACE d   1     -28.022  -7.830  -0.931  0.00  0.00     0.036 H 
ATOM    109  H20 ACE d   1     -28.881  -7.849  -2.509  0.00  0.00     0.036 H 
BRANCH 107 110
ATOM    110  CG  ACE d   1     -30.154  -7.955  -0.792  0.00  0.00    -0.061 C 
ATOM    111  H21 ACE d   1     -30.053  -9.041  -0.648  0.00  0.00     0.033 H 
ATOM    112  H22 ACE d   1     -31.012  -7.750  -1.449  0.00  0.00     0.033 H 
BRANCH 110 113
ATOM    113  CD  ACE d   1     -30.435  -7.314   0.577  0.00  0.00    -0.043 C 
ATOM    114  H23 ACE d   1     -31.263  -7.863   1.049  0.00  0.00     0.035 H 
ATOM    115  H24 ACE d   1     -30.735  -6.269   0.410  0.00  0.00     0.035 H 
BRANCH 113 116
ATOM    116  CE  ACE d   1     -29.249  -7.320   1.543  0.00  0.00     0.080 C 
ATOM    117  H25 ACE d   1     -28.369  -6.909   1.026  0.00  0.00     0.075 H 
ATOM    118  H26 ACE d   1     -29.044  -8.357   1.847  0.00  0.00     0.075 H 
BRANCH 116 119
ATOM    119  NZ  ACE d   1     -29.513  -6.505   2.765  0.00  0.00    -0.079 N 
ATOM    120  H27 ACE d   1     -28.708  -6.537   3.371  0.00  0.00     0.274 HD
ATOM    121  H28 ACE d   1     -30.314  -6.877   3.251  0.00  0.00     0.274 HD
ATOM    122  H29 ACE d   1     -29.695  -5.550   2.499  0.00  0.00     0.274 HD
ENDBRANCH 116 119
ENDBRANCH 113 116
ENDBRANCH 110 113
ENDBRANCH 107 110
ENDBRANCH  75 107
ENDBRANCH  72  75
ENDBRANCH  69  71
BRANCH  69 123
ATOM    123  CB  ACE d   1     -25.121  -2.870  -1.741  0.00  0.00    -0.036 C 
ATOM    124  H32 ACE d   1     -24.046  -2.648  -1.809  0.00  0.00     0.036 H 
ATOM    125  H33 ACE d   1     -25.552  -2.338  -0.880  0.00  0.00     0.036 H 
BRANCH 123 126
ATOM    126  CG  ACE d   1     -25.800  -2.360  -3.012  0.00  0.00    -0.048 C 
ATOM    127  H34 ACE d   1     -26.736  -2.920  -3.157  0.00  0.00     0.035 H 
ATOM    128  H35 ACE d   1     -25.128  -2.542  -3.864  0.00  0.00     0.035 H 
BRANCH 126 129
ATOM    129  CD  ACE d   1     -26.130  -0.867  -2.963  0.00  0.00     0.009 C 
ATOM    130  H36 ACE d   1     -26.663  -0.651  -2.025  0.00  0.00     0.064 H 
ATOM    131  H37 ACE d   1     -26.776  -0.618  -3.817  0.00  0.00     0.064 H 
BRANCH 129 132
ATOM    132  NE  ACE d   1     -24.924  -0.037  -3.024  0.00  0.00    -0.227 N 
ATOM    133  CZ  ACE d   1     -24.844   1.258  -2.696  0.00  0.00     0.665 C 
ATOM    134  NH1 ACE d   1     -25.909   1.932  -2.254  0.00  0.00    -0.235 N 
ATOM    135  NH2 ACE d   1     -23.666   1.884  -2.799  0.00  0.00    -0.235 N 
ATOM    136  H39 ACE d   1     -25.822   2.928  -2.008  0.00  0.00     0.174 HD
ATOM    137  H40 ACE d   1     -26.817   1.455  -2.159  0.00  0.00     0.174 HD
ATOM    138  H41 ACE d   1     -22.839   1.373  -3.139  0.00  0.00     0.174 HD
ATOM    139  H42 ACE d   1     -23.586   2.877  -2.538  0.00  0.00     0.174 HD
ATOM    140  H38 ACE d   1     -24.059  -0.492  -3.349  0.00  0.00     0.177 HD
ENDBRANCH 129 132
ENDBRANCH 126 129
ENDBRANCH 123 126
ENDBRANCH  69 123
ENDBRANCH  66  69
ENDBRANCH  63  65
BRANCH  63 141
ATOM    141  CB  ACE d   1     -22.264  -7.353   0.519  0.00  0.00    -0.014 C 
ATOM    142  H45 ACE d   1     -21.497  -7.595   1.270  0.00  0.00     0.043 H 
ATOM    143  H46 ACE d   1     -21.937  -7.711  -0.468  0.00  0.00     0.043 H 
BRANCH 141 144
ATOM    144  CG  ACE d   1     -23.529  -8.061   0.886  0.00  0.00    -0.056 A 
ATOM    145  CD1 ACE d   1     -23.912  -8.205   2.221  0.00  0.00    -0.074 A 
ATOM    146  CE1 ACE d   1     -25.085  -8.845   2.550  0.00  0.00    -0.051 A 
ATOM    147  H47 ACE d   1     -23.279  -7.809   3.006  0.00  0.00     0.084 H 
ATOM    148  CZ  ACE d   1     -25.860  -9.374   1.567  0.00  0.00     0.065 A 
ATOM    149  H49 ACE d   1     -25.389  -8.927   3.587  0.00  0.00     0.087 H 
ATOM    150  CE2 ACE d   1     -25.507  -9.259   0.233  0.00  0.00    -0.051 A 
ATOM    151  CD2 ACE d   1     -24.354  -8.599  -0.092  0.00  0.00    -0.074 A 
ATOM    152  H50 ACE d   1     -26.134  -9.685  -0.541  0.00  0.00     0.087 H 
ATOM    153  H48 ACE d   1     -24.079  -8.494  -1.135  0.00  0.00     0.084 H 
BRANCH 148 154
ATOM    154  OH  ACE d   1     -26.988 -10.030   1.864  0.00  0.00    -0.361 OA
ATOM    155  H51 ACE d   1     -27.111 -10.036   2.806  0.00  0.00     0.217 HD
ENDBRANCH 148 154
ENDBRANCH 141 144
ENDBRANCH  63 141
ENDBRANCH  60  63
ENDBRANCH  57  59
BRANCH  57 156
ATOM    156  CB  ACE d   1     -18.796  -3.337   2.377  0.00  0.00     0.044 C 
ATOM    157  H54 ACE d   1     -19.512  -2.507   2.469  0.00  0.00     0.077 H 
ATOM    158  H55 ACE d   1     -17.781  -2.934   2.248  0.00  0.00     0.077 H 
BRANCH 156 159
ATOM    159  OG  ACE d   1     -18.840  -4.124   3.558  0.00  0.00    -0.398 OA
ATOM    160  H56 ACE d   1     -18.612  -3.584   4.306  0.00  0.00     0.209 HD
ENDBRANCH 156 159
ENDBRANCH  57 156
ENDBRANCH  54  57
ENDBRANCH  51  53
BRANCH  51 161
ATOM    161  CB  ACE d   1     -14.762  -5.421   0.208  0.00  0.00    -0.036 C 
ATOM    162  H59 ACE d   1     -14.558  -4.601   0.912  0.00  0.00     0.036 H 
ATOM    163  H60 ACE d   1     -14.894  -5.012  -0.804  0.00  0.00     0.036 H 
BRANCH 161 164
ATOM    164  CG  ACE d   1     -13.593  -6.336   0.198  0.00  0.00    -0.048 C 
ATOM    165  H61 ACE d   1     -13.756  -7.116  -0.560  0.00  0.00     0.035 H 
ATOM    166  H62 ACE d   1     -13.496  -6.803   1.189  0.00  0.00     0.035 H 
BRANCH 164 167
ATOM    167  CD  ACE d   1     -12.326  -5.606  -0.121  0.00  0.00     0.009 C 
ATOM    168  H63 ACE d   1     -12.130  -4.839   0.643  0.00  0.00     0.064 H 
ATOM    169  H64 ACE d   1     -12.404  -5.128  -1.109  0.00  0.00     0.064 H 
BRANCH 167 170
ATOM    170  NE  ACE d   1     -11.262  -6.583  -0.126  0.00  0.00    -0.227 N 
ATOM    171  CZ  ACE d   1     -10.570  -6.963   0.944  0.00  0.00     0.665 C 
ATOM    172  NH1 ACE d   1     -10.819  -6.451   2.158  0.00  0.00    -0.235 N 
ATOM    173  NH2 ACE d   1      -9.617  -7.882   0.796  0.00  0.00    -0.235 N 
ATOM    174  H66 ACE d   1     -10.268  -6.762   2.971  0.00  0.00     0.174 HD
ATOM    175  H67 ACE d   1     -11.561  -5.746   2.277  0.00  0.00     0.174 HD
ATOM    176  H68 ACE d   1      -9.423  -8.277  -0.135  0.00  0.00     0.174 HD
ATOM    177  H69 ACE d   1      -9.074  -8.197   1.613  0.00  0.00     0.174 HD
ATOM    178  H65 ACE d   1     -11.021  -7.019  -1.028  0.00  0.00     0.177 HD
ENDBRANCH 167 170
ENDBRANCH 164 167
ENDBRANCH 161 164
ENDBRANCH  51 161
ENDBRANCH  48  51
ENDBRANCH   3  47
BRANCH   3 179
ATOM    179  CB1 ACE d   1     -14.208  -6.804   4.550  0.00  0.00    -0.044 C 
ATOM    180  H78 ACE d   1     -14.025  -7.117   5.589  0.00  0.00     0.031 H 
ATOM    181  H79 ACE d   1     -13.459  -6.054   4.256  0.00  0.00     0.031 H 
ATOM    182  H80 ACE d   1     -14.133  -7.677   3.885  0.00  0.00     0.031 H 
ENDBRANCH   3 179
BRANCH   9 183
ATOM    183  CB  ACE d   1     -20.406  -7.089   4.478  0.00  0.00    -0.030 C 
ATOM    184  H83 ACE d   1     -21.199  -7.811   4.723  0.00  0.00     0.037 H 
ATOM    185  H84 ACE d   1     -20.338  -6.976   3.386  0.00  0.00     0.037 H 
BRANCH 183 186
ATOM    186  CG  ACE d   1     -20.822  -5.754   5.044  0.00  0.00     0.011 C 
ATOM    187  H85 ACE d   1     -20.091  -4.992   4.735  0.00  0.00     0.047 H 
ATOM    188  H86 ACE d   1     -20.839  -5.822   6.142  0.00  0.00     0.047 H 
BRANCH 186 189
ATOM    189  CD  ACE d   1     -22.204  -5.339   4.554  0.00  0.00     0.215 C 
ATOM    190  OE1 ACE d   1     -22.345  -4.590   3.560  0.00  0.00    -0.274 OA
ATOM    191  NE2 ACE d   1     -23.234  -5.812   5.246  0.00  0.00    -0.370 N 
ATOM    192  H87 ACE d   1     -24.168  -5.577   4.976  0.00  0.00     0.159 HD
ATOM    193  H88 ACE d   1     -23.076  -6.403   6.037  0.00  0.00     0.159 HD
ENDBRANCH 186 189
ENDBRANCH 183 186
ENDBRANCH   9 183
BRANCH  13 194
ATOM    194  CB  ACE d   1     -18.177 -10.222   0.865  0.00  0.00    -0.035 C 
ATOM    195  H91 ACE d   1     -18.015 -11.216   0.424  0.00  0.00     0.037 H 
ATOM    196  H92 ACE d   1     -17.275  -9.608   0.727  0.00  0.00     0.037 H 
BRANCH 194 197
ATOM    197  CG  ACE d   1     -19.348  -9.545   0.130  0.00  0.00    -0.059 C 
ATOM    198  H93 ACE d   1     -19.583  -8.617   0.673  0.00  0.00     0.038 H 
BRANCH 197 199
ATOM    199  CD1 ACE d   1     -18.955  -9.174  -1.296  0.00  0.00    -0.073 C 
ATOM    200  H94 ACE d   1     -19.808  -8.693  -1.798  0.00  0.00     0.028 H 
ATOM    201  H95 ACE d   1     -18.671 -10.083  -1.846  0.00  0.00     0.028 H 
ATOM    202  H96 ACE d   1     -18.103  -8.478  -1.272  0.00  0.00     0.028 H 
ENDBRANCH 197 199
BRANCH 197 203
ATOM    203  CD2 ACE d   1     -20.620 -10.398   0.097  0.00  0.00    -0.073 C 
ATOM    204  H97 ACE d   1     -20.907 -10.668   1.124  0.00  0.00     0.028 H 
ATOM    205  H98 ACE d   1     -20.433 -11.313  -0.484  0.00  0.00     0.028 H 
ATOM    206  H99 ACE d   1     -21.433  -9.825  -0.373  0.00  0.00     0.028 H 
ENDBRANCH 197 203
ENDBRANCH 194 197
ENDBRANCH  13 194
BRANCH  17 207
ATOM    207  CB  ACE d   1     -13.864 -10.710   4.073  0.00  0.00    -0.035 C 
ATOM    208 2H10 ACE d   1     -13.164 -11.319   4.663  0.00  0.00     0.037 H 
ATOM    209 3H10 ACE d   1     -14.045  -9.756   4.589  0.00  0.00     0.037 H 
BRANCH 207 210
ATOM    210  CG  ACE d   1     -13.175 -10.385   2.737  0.00  0.00    -0.059 C 
ATOM    211 4H10 ACE d   1     -13.826  -9.692   2.183  0.00  0.00     0.038 H 
BRANCH 210 212
ATOM    212  CD1 ACE d   1     -11.840  -9.698   2.994  0.00  0.00    -0.073 C 
ATOM    213 5H10 ACE d   1     -11.354  -9.469   2.034  0.00  0.00     0.028 H 
ATOM    214 6H10 ACE d   1     -11.192 -10.364   3.583  0.00  0.00     0.028 H 
ATOM    215 7H10 ACE d   1     -12.009  -8.764   3.551  0.00  0.00     0.028 H 
ENDBRANCH 210 212
BRANCH 210 216
ATOM    216  CD2 ACE d   1     -12.945 -11.613   1.863  0.00  0.00    -0.073 C 
ATOM    217 8H10 ACE d   1     -13.906 -12.114   1.674  0.00  0.00     0.028 H 
ATOM    218 9H10 ACE d   1     -12.265 -12.307   2.378  0.00  0.00     0.028 H 
ATOM    219 0H11 ACE d   1     -12.498 -11.304   0.907  0.00  0.00     0.028 H 
ENDBRANCH 210 216
ENDBRANCH 207 210
ENDBRANCH  17 207
BRANCH  21 220
ATOM    220  C   ACE d   1     -17.816 -12.629   7.427  0.00  0.00     0.246 C 
ATOM    221  O   ACE d   1     -17.764 -13.498   8.300  0.00  0.00    -0.271 OA
ATOM    222  N   ACE d   1     -18.651 -12.687   6.442  0.00  0.00    -0.345 N 
ATOM    223 2H12 ACE d   1     -18.643 -11.955   5.761  0.00  0.00     0.163 HD
BRANCH 222 224
ATOM    224  CA  ACE d   1     -19.610 -13.787   6.286  0.00  0.00     0.093 C 
ATOM    225 3H12 ACE d   1     -20.072 -13.957   7.270  0.00  0.00     0.088 H 
BRANCH 224 226
ATOM    226  C   ACE d   1     -19.011 -15.118   5.825  0.00  0.00     0.241 C 
ATOM    227  O   ACE d   1     -19.733 -16.120   5.739  0.00  0.00    -0.271 OA
ATOM    228  N   ACE d   1     -17.722 -15.135   5.522  0.00  0.00    -0.346 N 
ATOM    229 1H13 ACE d   1     -17.224 -14.270   5.468  0.00  0.00     0.163 HD
BRANCH 228 230
ATOM    230  CA  ACE d   1     -17.010 -16.379   5.265  0.00  0.00     0.089 C 
ATOM    231 2H13 ACE d   1     -17.597 -16.975   4.551  0.00  0.00     0.087 H 
BRANCH 230 232
ATOM    232  C   ACE d   1     -16.825 -17.212   6.548  0.00  0.00     0.241 C 
ATOM    233  O   ACE d   1     -16.898 -18.435   6.515  0.00  0.00    -0.271 OA
ATOM    234  N   ACE d   1     -16.592 -16.534   7.673  0.00  0.00    -0.345 N 
ATOM    235 4H14 ACE d   1     -16.693 -15.539   7.657  0.00  0.00     0.163 HD
BRANCH 234 236
ATOM    236  CA  ACE d   1     -16.194 -17.176   8.936  0.00  0.00     0.093 C 
ATOM    237 5H14 ACE d   1     -15.226 -17.672   8.773  0.00  0.00     0.089 H 
BRANCH 236 238
ATOM    238  C   ACE d   1     -17.184 -18.233   9.421  0.00  0.00     0.196 C 
ATOM    239  O   ACE d   1     -18.394 -18.013   9.390  0.00  0.00    -0.646 OA
ATOM    240  OXT ACE d   1     -16.781 -19.314   9.847  0.00  0.00    -0.646 OA
ENDBRANCH 236 238
BRANCH 236 241
ATOM    241  CB  ACE d   1     -16.019 -16.101  10.014  0.00  0.00    -0.048 C 
ATOM    242 6H14 ACE d   1     -15.721 -16.576  10.960  0.00  0.00     0.030 H 
ATOM    243 7H14 ACE d   1     -16.969 -15.566  10.155  0.00  0.00     0.030 H 
ATOM    244 8H14 ACE d   1     -15.241 -15.390   9.700  0.00  0.00     0.030 H 
ENDBRANCH 236 241
ENDBRANCH 234 236
ENDBRANCH 230 232
BRANCH 230 245
ATOM    245  CB  ACE d   1     -15.652 -16.054   4.637  0.00  0.00    -0.036 C 
ATOM    246 3H13 ACE d   1     -14.985 -15.690   5.433  0.00  0.00     0.036 H 
ATOM    247 4H13 ACE d   1     -15.801 -15.259   3.892  0.00  0.00     0.036 H 
BRANCH 245 248
ATOM    248  CG  ACE d   1     -14.975 -17.220   3.952  0.00  0.00    -0.048 C 
ATOM    249 5H13 ACE d   1     -15.647 -17.624   3.181  0.00  0.00     0.035 H 
ATOM    250 6H13 ACE d   1     -14.761 -18.000   4.697  0.00  0.00     0.035 H 
BRANCH 248 251
ATOM    251  CD  ACE d   1     -13.673 -16.786   3.299  0.00  0.00     0.009 C 
ATOM    252 7H13 ACE d   1     -12.955 -16.502   4.083  0.00  0.00     0.064 H 
ATOM    253 8H13 ACE d   1     -13.868 -15.920   2.649  0.00  0.00     0.064 H 
BRANCH 251 254
ATOM    254  NE  ACE d   1     -13.103 -17.862   2.500  0.00  0.00    -0.227 N 
ATOM    255  CZ  ACE d   1     -11.960 -17.790   1.822  0.00  0.00     0.665 C 
ATOM    256  NH1 ACE d   1     -11.214 -16.681   1.840  0.00  0.00    -0.235 N 
ATOM    257  NH2 ACE d   1     -11.571 -18.822   1.090  0.00  0.00    -0.235 N 
ATOM    258 0H14 ACE d   1     -10.332 -16.645   1.309  0.00  0.00     0.174 HD
ATOM    259 1H14 ACE d   1     -11.521 -15.863   2.385  0.00  0.00     0.174 HD
ATOM    260 2H14 ACE d   1     -12.138 -19.681   1.069  0.00  0.00     0.174 HD
ATOM    261 3H14 ACE d   1     -10.701 -18.766   0.541  0.00  0.00     0.174 HD
ATOM    262 9H13 ACE d   1     -13.626 -18.748   2.456  0.00  0.00     0.177 HD
ENDBRANCH 251 254
ENDBRANCH 248 251
ENDBRANCH 245 248
ENDBRANCH 230 245
ENDBRANCH 228 230
ENDBRANCH 224 226
BRANCH 224 263
ATOM    263  CB  ACE d   1     -20.710 -13.382   5.294  0.00  0.00    -0.014 C 
ATOM    264 4H12 ACE d   1     -21.222 -14.296   4.957  0.00  0.00     0.043 H 
ATOM    265 5H12 ACE d   1     -20.232 -12.891   4.433  0.00  0.00     0.043 H 
BRANCH 263 266
ATOM    266  CG  ACE d   1     -21.745 -12.444   5.853  0.00  0.00    -0.056 A 
ATOM    267  CD1 ACE d   1     -22.162 -12.509   7.182  0.00  0.00    -0.077 A 
ATOM    268  CE1 ACE d   1     -23.108 -11.639   7.668  0.00  0.00    -0.082 A 
ATOM    269 6H12 ACE d   1     -21.734 -13.256   7.841  0.00  0.00     0.084 H 
ATOM    270  CZ  ACE d   1     -23.690 -10.706   6.825  0.00  0.00    -0.083 A 
ATOM    271 8H12 ACE d   1     -23.399 -11.683   8.711  0.00  0.00     0.083 H 
ATOM    272  CE2 ACE d   1     -23.314 -10.650   5.500  0.00  0.00    -0.082 A 
ATOM    273 0H13 ACE d   1     -24.439 -10.022   7.207  0.00  0.00     0.083 H 
ATOM    274  CD2 ACE d   1     -22.359 -11.523   5.016  0.00  0.00    -0.077 A 
ATOM    275 9H12 ACE d   1     -23.767  -9.921   4.838  0.00  0.00     0.083 H 
ATOM    276 7H12 ACE d   1     -22.085 -11.488   3.968  0.00  0.00     0.084 H 
ENDBRANCH 263 266
ENDBRANCH 224 263
ENDBRANCH 222 224
ENDBRANCH  21 220
BRANCH  21 277
ATOM    277  CB1 ACE d   1     -15.651 -11.796   8.421  0.00  0.00    -0.044 C 
ATOM    278 9H11 ACE d   1     -16.015 -12.079   9.420  0.00  0.00     0.031 H 
ATOM    279 0H12 ACE d   1     -14.987 -10.923   8.506  0.00  0.00     0.031 H 
ATOM    280 1H12 ACE d   1     -15.096 -12.638   7.982  0.00  0.00     0.031 H 
ENDBRANCH  21 277
TORSDOF 64
