REMARK  22 active torsions:
REMARK  status: ('A' for Active; 'I' for Inactive)
REMARK    1  A    between atoms: C1_1  and  C2_2 
REMARK       I    between atoms: C1_1  and  N_10 
REMARK    2  A    between atoms: C2_2  and  C1'_3 
REMARK    3  A    between atoms: N_10  and  CA_11 
REMARK    4  A    between atoms: CA_11  and  C_12 
REMARK    5  A    between atoms: CA_11  and  CB_14 
REMARK       I    between atoms: C_12  and  N_19 
REMARK    6  A    between atoms: CB_14  and  CG_15 
REMARK    7  A    between atoms: CG_15  and  CD_16 
REMARK    8  A    between atoms: CD_16  and  CE_17 
REMARK    9  A    between atoms: CE_17  and  NZ_18 
REMARK   10  A    between atoms: N_19  and  CA_20 
REMARK   11  A    between atoms: CA_20  and  C_21 
REMARK   12  A    between atoms: CA_20  and  CB_23 
REMARK       I    between atoms: C_21  and  N_28 
REMARK   13  A    between atoms: CB_23  and  CG_24 
REMARK   14  A    between atoms: CG_24  and  CD_25 
REMARK   15  A    between atoms: CD_25  and  CE_26 
REMARK   16  A    between atoms: CE_26  and  NZ_27 
REMARK   17  A    between atoms: N_28  and  CA_29 
REMARK   18  A    between atoms: CA_29  and  CB_30 
REMARK   19  A    between atoms: CA_29  and  C_37 
REMARK   20  A    between atoms: CB_30  and  CG_31 
REMARK   21  A    between atoms: CG_31  and  CD_32 
REMARK   22  A    between atoms: CD_32  and  NE_33 
REMARK       I    between atoms: CZ_34  and  NH1_35 
REMARK       I    between atoms: CZ_34  and  NH2_36 
ROOT
ATOM      1  CA  DLY d   1     -17.493  14.233 -39.898  0.00  0.00     0.089 C 
ATOM      2  H22 DLY d   1     -16.450  13.898 -39.795  0.00  0.00     0.087 H 
ENDROOT
BRANCH   1   3
ATOM      3  N   DLY d   1     -18.281  13.209 -40.551  0.00  0.00    -0.346 N 
ATOM      4  C   DLY d   1     -17.859  11.827 -40.733  0.00  0.00     0.241 C 
ATOM      5  O   DLY d   1     -18.605  11.098 -41.289  0.00  0.00    -0.271 OA
ATOM      6  H21 DLY d   1     -19.180  13.470 -40.903  0.00  0.00     0.163 HD
BRANCH   4   7
ATOM      7  CA  DLY d   1     -16.538  11.243 -40.214  0.00  0.00     0.089 C 
ATOM      8  H9  DLY d   1     -16.598  11.194 -39.117  0.00  0.00     0.087 H 
BRANCH   7   9
ATOM      9  N   DLY d   1     -15.351  12.012 -40.560  0.00  0.00    -0.348 N 
ATOM     10  C1  PAC d   1     -14.949  12.329 -41.918  0.00  0.00     0.222 C 
ATOM     11  O1  PAC d   1     -15.594  11.979 -42.847  0.00  0.00    -0.273 OA
ATOM     12  H8  DLY d   1     -14.775  12.344 -39.813  0.00  0.00     0.163 HD
BRANCH  10  13
ATOM     13  C2  PAC d   1     -13.677  13.141 -42.142  0.00  0.00     0.033 C 
ATOM     14  H1  PAC d   1     -13.286  13.480 -41.171  0.00  0.00     0.054 H 
ATOM     15  H2  PAC d   1     -13.909  14.014 -42.769  0.00  0.00     0.054 H 
BRANCH  13  16
ATOM     16  C1' PAC d   1     -12.623  12.284 -42.839  0.00  0.00    -0.050 A 
ATOM     17  C2' PAC d   1     -12.035  11.224 -42.168  0.00  0.00    -0.076 A 
ATOM     18  C3' PAC d   1     -11.078  10.445 -42.800  0.00  0.00    -0.082 A 
ATOM     19  H3  PAC d   1     -12.324  11.003 -41.147  0.00  0.00     0.084 H 
ATOM     20  C4' PAC d   1     -10.706  10.731 -44.103  0.00  0.00    -0.083 A 
ATOM     21  H4  PAC d   1     -10.622   9.614 -42.275  0.00  0.00     0.083 H 
ATOM     22  C5' PAC d   1     -11.290  11.794 -44.774  0.00  0.00    -0.082 A 
ATOM     23  H5  PAC d   1      -9.958  10.123 -44.599  0.00  0.00     0.083 H 
ATOM     24  C6' PAC d   1     -12.248  12.570 -44.142  0.00  0.00    -0.076 A 
ATOM     25  H6  PAC d   1     -10.997  12.018 -45.793  0.00  0.00     0.083 H 
ATOM     26  H7  PAC d   1     -12.704  13.401 -44.667  0.00  0.00     0.084 H 
ENDBRANCH  13  16
ENDBRANCH  10  13
ENDBRANCH   7   9
BRANCH   7  27
ATOM     27  CB  DLY d   1     -16.388   9.827 -40.771  0.00  0.00    -0.038 C 
ATOM     28  H10 DLY d   1     -16.022   9.880 -41.807  0.00  0.00     0.036 H 
ATOM     29  H11 DLY d   1     -17.366   9.323 -40.753  0.00  0.00     0.036 H 
BRANCH  27  30
ATOM     30  CG  DLY d   1     -15.396   9.036 -39.925  0.00  0.00    -0.061 C 
ATOM     31  H12 DLY d   1     -14.988   9.683 -39.134  0.00  0.00     0.033 H 
ATOM     32  H13 DLY d   1     -14.575   8.674 -40.562  0.00  0.00     0.033 H 
BRANCH  30  33
ATOM     33  CD  DLY d   1     -16.115   7.848 -39.293  0.00  0.00    -0.043 C 
ATOM     34  H14 DLY d   1     -15.931   6.945 -39.894  0.00  0.00     0.035 H 
ATOM     35  H15 DLY d   1     -17.196   8.050 -39.255  0.00  0.00     0.035 H 
BRANCH  33  36
ATOM     36  CE  DLY d   1     -15.585   7.636 -37.877  0.00  0.00     0.080 C 
ATOM     37  H16 DLY d   1     -16.196   8.213 -37.167  0.00  0.00     0.075 H 
ATOM     38  H17 DLY d   1     -14.540   7.976 -37.822  0.00  0.00     0.075 H 
BRANCH  36  39
ATOM     39  NZ  DLY d   1     -15.652   6.228 -37.538  0.00  0.00    -0.079 N 
ATOM     40  H18 DLY d   1     -15.302   6.090 -36.603  0.00  0.00     0.274 HD
ATOM     41  H19 DLY d   1     -15.092   5.699 -38.188  0.00  0.00     0.274 HD
ATOM     42  H20 DLY d   1     -16.609   5.916 -37.587  0.00  0.00     0.274 HD
ENDBRANCH  36  39
ENDBRANCH  33  36
ENDBRANCH  30  33
ENDBRANCH  27  30
ENDBRANCH   7  27
ENDBRANCH   4   7
ENDBRANCH   1   3
BRANCH   1  43
ATOM     43  C   DLY d   1     -17.580  15.477 -40.778  0.00  0.00     0.241 C 
ATOM     44  O   DLY d   1     -16.686  16.253 -40.781  0.00  0.00    -0.271 OA
ATOM     45  N   DAR d   1     -18.771  15.664 -41.602  0.00  0.00    -0.345 N 
ATOM     46  H34 DAR d   1     -19.475  14.955 -41.553  0.00  0.00     0.163 HD
BRANCH  45  47
ATOM     47  CA  DAR d   1     -19.027  16.795 -42.493  0.00  0.00     0.096 C 
ATOM     48  H35 DAR d   1     -20.108  16.807 -42.696  0.00  0.00     0.089 H 
BRANCH  47  49
ATOM     49  CB  DAR d   1     -18.308  16.685 -43.840  0.00  0.00    -0.035 C 
ATOM     50  H36 DAR d   1     -17.476  17.404 -43.858  0.00  0.00     0.036 H 
ATOM     51  H37 DAR d   1     -19.020  16.927 -44.643  0.00  0.00     0.036 H 
BRANCH  49  52
ATOM     52  CG  DAR d   1     -17.753  15.286 -44.081  0.00  0.00    -0.047 C 
ATOM     53  H38 DAR d   1     -18.468  14.692 -44.669  0.00  0.00     0.035 H 
ATOM     54  H39 DAR d   1     -17.563  14.784 -43.121  0.00  0.00     0.035 H 
BRANCH  52  55
ATOM     55  CD  DAR d   1     -16.449  15.451 -44.853  0.00  0.00     0.009 C 
ATOM     56  H40 DAR d   1     -15.778  16.119 -44.293  0.00  0.00     0.064 H 
ATOM     57  H41 DAR d   1     -16.664  15.889 -45.839  0.00  0.00     0.064 H 
BRANCH  55  58
ATOM     58  NE  DAR d   1     -15.804  14.167 -45.032  0.00  0.00    -0.227 N 
ATOM     59  CZ  DAR d   1     -15.566  13.754 -46.186  0.00  0.00     0.665 C 
ATOM     60  NH1 DAR d   1     -15.944  14.559 -47.333  0.00  0.00    -0.235 N 
ATOM     61  NH2 DAR d   1     -14.914  12.474 -46.377  0.00  0.00    -0.235 N 
ATOM     62  H43 DAR d   1     -15.749  14.221 -48.286  0.00  0.00     0.174 HD
ATOM     63  H44 DAR d   1     -16.407  15.468 -47.194  0.00  0.00     0.174 HD
ATOM     64  H45 DAR d   1     -14.647  11.905 -45.561  0.00  0.00     0.174 HD
ATOM     65  H46 DAR d   1     -14.717  12.133 -47.329  0.00  0.00     0.174 HD
ATOM     66  H42 DAR d   1     -15.543  13.599 -44.214  0.00  0.00     0.177 HD
ENDBRANCH  55  58
ENDBRANCH  52  55
ENDBRANCH  49  52
ENDBRANCH  47  49
BRANCH  47  67
ATOM     67  C   DAR d   1     -18.658  18.126 -41.833  0.00  0.00     0.196 C 
ATOM     68  O   DAR d   1     -18.624  19.175 -42.528  0.00  0.00    -0.646 OA
ATOM     69  OXT DAR d   1     -18.399  18.178 -40.602  0.00  0.00    -0.646 OA
ENDBRANCH  47  67
ENDBRANCH  45  47
ENDBRANCH   1  43
BRANCH   1  70
ATOM     70  CB  DLY d   1     -18.059  14.595 -38.526  0.00  0.00    -0.038 C 
ATOM     71  H23 DLY d   1     -18.681  15.496 -38.631  0.00  0.00     0.036 H 
ATOM     72  H24 DLY d   1     -17.220  14.806 -37.846  0.00  0.00     0.036 H 
BRANCH  70  73
ATOM     73  CG  DLY d   1     -18.912  13.484 -37.915  0.00  0.00    -0.061 C 
ATOM     74  H25 DLY d   1     -18.348  12.540 -37.908  0.00  0.00     0.033 H 
ATOM     75  H26 DLY d   1     -19.834  13.355 -38.500  0.00  0.00     0.033 H 
BRANCH  73  76
ATOM     76  CD  DLY d   1     -19.257  13.895 -36.484  0.00  0.00    -0.043 C 
ATOM     77  H27 DLY d   1     -19.709  14.898 -36.497  0.00  0.00     0.035 H 
ATOM     78  H28 DLY d   1     -18.335  13.916 -35.884  0.00  0.00     0.035 H 
BRANCH  76  79
ATOM     79  CE  DLY d   1     -20.240  12.913 -35.853  0.00  0.00     0.080 C 
ATOM     80  H29 DLY d   1     -19.883  11.884 -36.010  0.00  0.00     0.075 H 
ATOM     81  H30 DLY d   1     -21.229  13.033 -36.319  0.00  0.00     0.075 H 
BRANCH  79  82
ATOM     82  NZ  DLY d   1     -20.339  13.179 -34.430  0.00  0.00    -0.079 N 
ATOM     83  H31 DLY d   1     -20.988  12.531 -34.011  0.00  0.00     0.274 HD
ATOM     84  H32 DLY d   1     -20.666  14.122 -34.286  0.00  0.00     0.274 HD
ATOM     85  H33 DLY d   1     -19.432  13.069 -34.004  0.00  0.00     0.274 HD
ENDBRANCH  79  82
ENDBRANCH  76  79
ENDBRANCH  73  76
ENDBRANCH  70  73
ENDBRANCH   1  70
TORSDOF 22
