REMARK  24 active torsions:
REMARK  status: ('A' for Active; 'I' for Inactive)
REMARK    1  A    between atoms: C1_1  and  C2_4 
REMARK    2  A    between atoms: C3_6  and  C1_1 
REMARK    3  A    between atoms: C9_13  and  N1_2 
REMARK       I    between atoms: N1_2  and  C10_14 
REMARK       I    between atoms: C2_4  and  N_15 
REMARK       I    between atoms: C10_14  and  N2_5 
REMARK       I    between atoms: C10_14  and  N3_7 
REMARK    4  A    between atoms: C7_11  and  C9_13 
REMARK    5  A    between atoms: N_15  and  CA_16 
REMARK    6  A    between atoms: CA_16  and  C_17 
REMARK    7  A    between atoms: CA_16  and  CB_19 
REMARK       I    between atoms: C_17  and  N_24 
REMARK    8  A    between atoms: CB_19  and  CG_20 
REMARK    9  A    between atoms: CG_20  and  CD_21 
REMARK   10  A    between atoms: CD_21  and  CE_22 
REMARK   11  A    between atoms: CE_22  and  NZ_23 
REMARK   12  A    between atoms: N_24  and  CA_25 
REMARK   13  A    between atoms: CA_25  and  C_26 
REMARK   14  A    between atoms: CA_25  and  CB_28 
REMARK       I    between atoms: C_26  and  N_33 
REMARK   15  A    between atoms: CB_28  and  CG_29 
REMARK   16  A    between atoms: CG_29  and  CD_30 
REMARK   17  A    between atoms: CD_30  and  CE_31 
REMARK   18  A    between atoms: CE_31  and  NZ_32 
REMARK   19  A    between atoms: N_33  and  CA_34 
REMARK   20  A    between atoms: CA_34  and  CB_35 
REMARK   21  A    between atoms: CA_34  and  C_42 
REMARK   22  A    between atoms: CB_35  and  CG_36 
REMARK   23  A    between atoms: CG_36  and  CD_37 
REMARK   24  A    between atoms: CD_37  and  NE_38 
REMARK       I    between atoms: NE_38  and  CZ_39 
REMARK       I    between atoms: CZ_39  and  NH1_40 
ROOT
ATOM      1  C   DLY d   1      -5.843  28.581 -12.177  0.00  0.00     0.241 C 
ATOM      2  O   DLY d   1      -6.092  27.449 -11.767  0.00  0.00    -0.271 OA
ATOM      3  N   LYS d   1      -4.638  29.006 -12.571  0.00  0.00    -0.346 N 
ATOM      4  H27 LYS d   1      -4.573  29.937 -12.930  0.00  0.00     0.163 HD
ENDROOT
BRANCH   1   5
ATOM      5  CA  DLY d   1      -6.927  29.654 -12.292  0.00  0.00     0.089 C 
ATOM      6  H15 DLY d   1      -7.289  29.688 -13.330  0.00  0.00     0.087 H 
BRANCH   5   7
ATOM      7  N   DLY d   1      -6.352  30.969 -11.934  0.00  0.00    -0.348 N 
ATOM      8  C2  2UE d   1      -5.766  31.240 -10.750  0.00  0.00     0.222 C 
ATOM      9  O1  2UE d   1      -5.638  30.430  -9.834  0.00  0.00    -0.273 OA
ATOM     10  H14 DLY d   1      -6.401  31.703 -12.612  0.00  0.00     0.163 HD
BRANCH   8  11
ATOM     11  C1  2UE d   1      -5.236  32.673 -10.600  0.00  0.00     0.033 C 
ATOM     12  H1  2UE d   1      -5.841  33.354 -11.216  0.00  0.00     0.054 H 
ATOM     13  H2  2UE d   1      -4.188  32.713 -10.931  0.00  0.00     0.054 H 
BRANCH  11  14
ATOM     14  C3  2UE d   1      -5.316  33.060  -9.265  0.00  0.00    -0.049 A 
ATOM     15  C4  2UE d   1      -4.214  32.934  -8.423  0.00  0.00    -0.076 A 
ATOM     16  C6  2UE d   1      -4.307  33.318  -7.089  0.00  0.00    -0.075 A 
ATOM     17  H8  2UE d   1      -3.282  32.536  -8.808  0.00  0.00     0.084 H 
ATOM     18  C7  2UE d   1      -5.501  33.835  -6.597  0.00  0.00    -0.040 A 
ATOM     19  H10 2UE d   1      -3.450  33.214  -6.434  0.00  0.00     0.084 H 
ATOM     20  C8  2UE d   1      -6.600  33.960  -7.440  0.00  0.00    -0.075 A 
ATOM     21  C5  2UE d   1      -6.509  33.575  -8.772  0.00  0.00    -0.076 A 
ATOM     22  H11 2UE d   1      -7.532  34.360  -7.056  0.00  0.00     0.084 H 
ATOM     23  H9  2UE d   1      -7.368  33.676  -9.426  0.00  0.00     0.084 H 
BRANCH  18  24
ATOM     24  C9  2UE d   1      -5.618  34.223  -5.266  0.00  0.00     0.033 C 
ATOM     25  H12 2UE d   1      -6.398  34.994  -5.185  0.00  0.00     0.072 H 
ATOM     26  H13 2UE d   1      -5.902  33.349  -4.662  0.00  0.00     0.072 H 
BRANCH  24  27
ATOM     27  N1  2UE d   1      -4.352  34.768  -4.752  0.00  0.00    -0.223 N 
ATOM     28  C10 2UE d   1      -3.850  35.964  -5.096  0.00  0.00     0.665 C 
ATOM     29  N2  2UE d   1      -2.690  36.381  -4.563  0.00  0.00    -0.235 N 
ATOM     30  N3  2UE d   1      -4.502  36.742  -5.974  0.00  0.00    -0.235 N 
ATOM     31  H4  2UE d   1      -2.303  37.299  -4.826  0.00  0.00     0.174 HD
ATOM     32  H5  2UE d   1      -2.187  35.783  -3.892  0.00  0.00     0.174 HD
ATOM     33  H6  2UE d   1      -5.392  36.423  -6.383  0.00  0.00     0.174 HD
ATOM     34  H7  2UE d   1      -4.113  37.658  -6.239  0.00  0.00     0.174 HD
ATOM     35  H3  2UE d   1      -3.816  34.194  -4.085  0.00  0.00     0.178 HD
ENDBRANCH  24  27
ENDBRANCH  18  24
ENDBRANCH  11  14
ENDBRANCH   8  11
ENDBRANCH   5   7
BRANCH   5  36
ATOM     36  CB  DLY d   1      -8.102  29.334 -11.367  0.00  0.00    -0.038 C 
ATOM     37  H16 DLY d   1      -7.729  29.157 -10.348  0.00  0.00     0.036 H 
ATOM     38  H17 DLY d   1      -8.621  28.434 -11.730  0.00  0.00     0.036 H 
BRANCH  36  39
ATOM     39  CG  DLY d   1      -9.075  30.516 -11.357  0.00  0.00    -0.061 C 
ATOM     40  H18 DLY d   1      -8.579  31.394 -10.918  0.00  0.00     0.033 H 
ATOM     41  H19 DLY d   1      -9.960  30.256 -10.757  0.00  0.00     0.033 H 
BRANCH  39  42
ATOM     42  CD  DLY d   1      -9.509  30.840 -12.788  0.00  0.00    -0.043 C 
ATOM     43  H20 DLY d   1      -8.632  30.816 -13.451  0.00  0.00     0.035 H 
ATOM     44  H21 DLY d   1      -9.961  31.842 -12.815  0.00  0.00     0.035 H 
BRANCH  42  45
ATOM     45  CE  DLY d   1     -10.531  29.808 -13.259  0.00  0.00     0.080 C 
ATOM     46  H22 DLY d   1     -11.469  29.949 -12.701  0.00  0.00     0.075 H 
ATOM     47  H23 DLY d   1     -10.138  28.799 -13.067  0.00  0.00     0.075 H 
BRANCH  45  48
ATOM     48  NZ  DLY d   1     -10.799  29.955 -14.696  0.00  0.00    -0.079 N 
ATOM     49  H24 DLY d   1     -11.475  29.265 -14.984  0.00  0.00     0.274 HD
ATOM     50  H25 DLY d   1      -9.944  29.823 -15.213  0.00  0.00     0.274 HD
ATOM     51  H26 DLY d   1     -11.162  30.878 -14.877  0.00  0.00     0.274 HD
ENDBRANCH  45  48
ENDBRANCH  42  45
ENDBRANCH  39  42
ENDBRANCH  36  39
ENDBRANCH   5  36
ENDBRANCH   1   5
BRANCH   3  52
ATOM     52  CA  LYS d   1      -3.404  28.214 -12.518  0.00  0.00     0.089 C 
ATOM     53  H28 LYS d   1      -3.533  27.308 -11.907  0.00  0.00     0.087 H 
BRANCH  52  54
ATOM     54  C   LYS d   1      -2.376  29.169 -11.905  0.00  0.00     0.241 C 
ATOM     55  O   LYS d   1      -2.359  30.342 -12.273  0.00  0.00    -0.271 OA
ATOM     56  N   DAR d   1      -1.548  28.710 -10.949  0.00  0.00    -0.345 N 
ATOM     57  H40 DAR d   1      -0.916  29.373 -10.547  0.00  0.00     0.163 HD
BRANCH  56  58
ATOM     58  CA  DAR d   1      -1.475  27.337 -10.434  0.00  0.00     0.096 C 
ATOM     59  H41 DAR d   1      -1.723  26.630 -11.239  0.00  0.00     0.089 H 
BRANCH  58  60
ATOM     60  CB  DAR d   1      -2.466  27.122  -9.272  0.00  0.00    -0.035 C 
ATOM     61  H42 DAR d   1      -2.485  26.053  -9.014  0.00  0.00     0.036 H 
ATOM     62  H43 DAR d   1      -3.468  27.439  -9.596  0.00  0.00     0.036 H 
BRANCH  60  63
ATOM     63  CG  DAR d   1      -2.072  27.924  -8.029  0.00  0.00    -0.047 C 
ATOM     64  H44 DAR d   1      -0.983  28.076  -8.029  0.00  0.00     0.035 H 
ATOM     65  H45 DAR d   1      -2.364  27.361  -7.130  0.00  0.00     0.035 H 
BRANCH  63  66
ATOM     66  CD  DAR d   1      -2.766  29.281  -8.016  0.00  0.00     0.009 C 
ATOM     67  H46 DAR d   1      -3.561  29.300  -8.777  0.00  0.00     0.064 H 
ATOM     68  H47 DAR d   1      -2.035  30.075  -8.229  0.00  0.00     0.064 H 
BRANCH  66  69
ATOM     69  NE  DAR d   1      -3.348  29.487  -6.685  0.00  0.00    -0.227 N 
ATOM     70  CZ  DAR d   1      -4.597  29.912  -6.490  0.00  0.00     0.665 C 
ATOM     71  NH1 DAR d   1      -5.070  30.074  -5.250  0.00  0.00    -0.235 N 
ATOM     72  NH2 DAR d   1      -5.370  30.181  -7.546  0.00  0.00    -0.235 N 
ATOM     73  H49 DAR d   1      -6.035  30.402  -5.106  0.00  0.00     0.174 HD
ATOM     74  H50 DAR d   1      -4.469  29.870  -4.439  0.00  0.00     0.174 HD
ATOM     75  H51 DAR d   1      -5.002  30.055  -8.499  0.00  0.00     0.174 HD
ATOM     76  H52 DAR d   1      -6.335  30.515  -7.407  0.00  0.00     0.174 HD
ATOM     77  H48 DAR d   1      -2.763  29.294  -5.860  0.00  0.00     0.177 HD
ENDBRANCH  66  69
ENDBRANCH  63  66
ENDBRANCH  60  63
ENDBRANCH  58  60
BRANCH  58  78
ATOM     78  C   DAR d   1      -0.020  27.113  -9.988  0.00  0.00     0.196 C 
ATOM     79  O   DAR d   1       0.856  27.738 -10.621  0.00  0.00    -0.646 OA
ATOM     80  OXT DAR d   1       0.199  26.313  -9.053  0.00  0.00    -0.646 OA
ENDBRANCH  58  78
ENDBRANCH  56  58
ENDBRANCH  52  54
BRANCH  52  81
ATOM     81  CB  LYS d   1      -2.954  27.846 -13.934  0.00  0.00    -0.038 C 
ATOM     82  H29 LYS d   1      -2.097  27.160 -13.869  0.00  0.00     0.036 H 
ATOM     83  H30 LYS d   1      -2.651  28.762 -14.462  0.00  0.00     0.036 H 
BRANCH  81  84
ATOM     84  CG  LYS d   1      -4.077  27.165 -14.724  0.00  0.00    -0.061 C 
ATOM     85  H31 LYS d   1      -5.028  27.685 -14.536  0.00  0.00     0.033 H 
ATOM     86  H32 LYS d   1      -4.165  26.115 -14.409  0.00  0.00     0.033 H 
BRANCH  84  87
ATOM     87  CD  LYS d   1      -3.743  27.228 -16.218  0.00  0.00    -0.043 C 
ATOM     88  H33 LYS d   1      -2.713  26.876 -16.376  0.00  0.00     0.035 H 
ATOM     89  H34 LYS d   1      -3.834  28.267 -16.568  0.00  0.00     0.035 H 
BRANCH  87  90
ATOM     90  CE  LYS d   1      -4.708  26.341 -17.007  0.00  0.00     0.080 C 
ATOM     91  H35 LYS d   1      -5.738  26.559 -16.689  0.00  0.00     0.075 H 
ATOM     92  H36 LYS d   1      -4.476  25.285 -16.801  0.00  0.00     0.075 H 
BRANCH  90  93
ATOM     93  NZ  LYS d   1      -4.588  26.587 -18.452  0.00  0.00    -0.079 N 
ATOM     94  H37 LYS d   1      -5.232  25.992 -18.949  0.00  0.00     0.274 HD
ATOM     95  H38 LYS d   1      -3.647  26.385 -18.750  0.00  0.00     0.274 HD
ATOM     96  H39 LYS d   1      -4.803  27.552 -18.648  0.00  0.00     0.274 HD
ENDBRANCH  90  93
ENDBRANCH  87  90
ENDBRANCH  84  87
ENDBRANCH  81  84
ENDBRANCH  52  81
ENDBRANCH   3  52
TORSDOF 24
