REMARK  8 active torsions:
REMARK  status: ('A' for Active; 'I' for Inactive)
REMARK    1  A    between atoms: C19_4  and  C18_25 
REMARK    2  A    between atoms: N20_26  and  C19_4 
REMARK    3  A    between atoms: O30_31  and  C31_10 
REMARK    4  A    between atoms: C1_11  and  O30_31 
REMARK    5  A    between atoms: O17_24  and  C2_12 
REMARK    6  A    between atoms: C7_17  and  N11_21 
REMARK    7  A    between atoms: C18_25  and  O17_24 
REMARK    8  A    between atoms: N20_26  and  C21_27 
ROOT
ATOM      1  C1  MOL d   1     -20.492 -14.240  34.426  0.00  0.00     0.103 A 
ATOM      2  C2  MOL d   1     -20.189 -14.057  35.805  0.00  0.00     0.103 A 
ATOM      3  C3  MOL d   1     -19.571 -12.913  36.224  0.00  0.00    -0.032 A 
ATOM      4  C4  MOL d   1     -19.183 -11.915  35.292  0.00  0.00     0.041 A 
ATOM      5  C5  MOL d   1     -19.457 -12.119  33.915  0.00  0.00     0.075 A 
ATOM      6  C6  MOL d   1     -20.116 -13.300  33.507  0.00  0.00    -0.019 A 
ATOM      7  C7  MOL d   1     -18.486 -10.682  35.606  0.00  0.00     0.140 A 
ATOM      8  N8  MOL d   1     -18.170  -9.755  34.619  0.00  0.00    -0.224 NA
ATOM      9  C9  MOL d   1     -18.523 -10.102  33.376  0.00  0.00     0.089 A 
ATOM     10  N10 MOL d   1     -19.124 -11.207  32.944  0.00  0.00    -0.241 NA
ATOM     11  H14 MOL d   1     -19.375 -12.766  37.280  0.00  0.00     0.089 H 
ATOM     12  H15 MOL d   1     -20.326 -13.463  32.456  0.00  0.00     0.091 H 
ATOM     13  H16 MOL d   1     -18.284  -9.376  32.608  0.00  0.00     0.146 H 
ENDROOT
BRANCH   2  14
ATOM     14  O17 MOL d   1     -20.469 -15.140  36.604  0.00  0.00    -0.347 OA
BRANCH  14  15
ATOM     15  C18 MOL d   1     -21.739 -15.189  37.267  0.00  0.00     0.041 C 
ATOM     16  H19 MOL d   1     -22.279 -14.246  37.096  0.00  0.00     0.077 H 
ATOM     17  H20 MOL d   1     -22.329 -16.027  36.868  0.00  0.00     0.077 H 
BRANCH  15  18
ATOM     18  C19 MOL d   1     -21.524 -15.384  38.747  0.00  0.00     0.015 C 
ATOM     19  H7  MOL d   1     -22.466 -15.165  39.271  0.00  0.00     0.067 H 
ATOM     20  H8  MOL d   1     -20.745 -14.684  39.085  0.00  0.00     0.067 H 
BRANCH  18  21
ATOM     21  N20 MOL d   1     -21.108 -16.742  39.081  0.00  0.00    -0.367 N 
ATOM     22  H21 MOL d   1     -20.761 -17.313  38.297  0.00  0.00     0.161 HD
BRANCH  21  23
ATOM     23  C21 MOL d   1     -21.121 -17.343  40.288  0.00  0.00     0.167 A 
ATOM     24  N22 MOL d   1     -20.613 -18.522  40.506  0.00  0.00    -0.224 NA
ATOM     25  C23 MOL d   1     -20.696 -18.834  41.859  0.00  0.00     0.076 A 
ATOM     26  C24 MOL d   1     -21.299 -17.856  42.660  0.00  0.00     0.037 A 
ATOM     27  C26 MOL d   1     -20.220 -20.004  42.453  0.00  0.00    -0.054 A 
ATOM     28  C29 MOL d   1     -21.447 -18.040  44.031  0.00  0.00    -0.064 A 
ATOM     29  S25 MOL d   1     -21.765 -16.497  41.683  0.00  0.00    -0.050 SA
ATOM     30  C28 MOL d   1     -20.979 -19.214  44.603  0.00  0.00    -0.082 A 
ATOM     31  H10 MOL d   1     -21.920 -17.279  44.642  0.00  0.00     0.085 H 
ATOM     32  C27 MOL d   1     -20.357 -20.180  43.824  0.00  0.00    -0.081 A 
ATOM     33  H23 MOL d   1     -21.100 -19.378  45.668  0.00  0.00     0.083 H 
ATOM     34  H9  MOL d   1     -19.974 -21.081  44.290  0.00  0.00     0.083 H 
ATOM     35  H22 MOL d   1     -19.747 -20.770  41.849  0.00  0.00     0.087 H 
ENDBRANCH  21  23
ENDBRANCH  18  21
ENDBRANCH  15  18
ENDBRANCH  14  15
ENDBRANCH   2  14
BRANCH   1  36
ATOM     36  O30 MOL d   1     -21.193 -15.379  34.135  0.00  0.00    -0.353 OA
BRANCH  36  37
ATOM     37  C31 MOL d   1     -21.924 -15.420  32.905  0.00  0.00     0.010 C 
ATOM     38  H11 MOL d   1     -22.432 -16.391  32.812  0.00  0.00     0.066 H 
ATOM     39  H12 MOL d   1     -21.230 -15.287  32.062  0.00  0.00     0.066 H 
ATOM     40  H13 MOL d   1     -22.672 -14.613  32.896  0.00  0.00     0.066 H 
ENDBRANCH  36  37
ENDBRANCH   1  36
BRANCH   7  41
ATOM     41  N11 MOL d   1     -18.051 -10.395  36.899  0.00  0.00    -0.361 N 
ATOM     42  C12 MOL d   1     -19.014 -10.053  37.946  0.00  0.00     0.016 C 
ATOM     43  C13 MOL d   1     -18.392 -10.327  39.288  0.00  0.00     0.034 C 
ATOM     44  H1  MOL d   1     -19.277  -8.988  37.872  0.00  0.00     0.067 H 
ATOM     45  H2  MOL d   1     -19.921 -10.664  37.828  0.00  0.00     0.067 H 
ATOM     46  O14 MOL d   1     -17.197  -9.568  39.476  0.00  0.00    -0.388 OA
ATOM     47  H3  MOL d   1     -18.150 -11.398  39.358  0.00  0.00     0.076 H 
ATOM     48  H4  MOL d   1     -19.112 -10.062  40.076  0.00  0.00     0.076 H 
ATOM     49  C15 MOL d   1     -16.247  -9.850  38.445  0.00  0.00     0.034 C 
ATOM     50  C16 MOL d   1     -16.819  -9.618  37.066  0.00  0.00     0.016 C 
ATOM     51  H5  MOL d   1     -15.936 -10.902  38.528  0.00  0.00     0.076 H 
ATOM     52  H6  MOL d   1     -15.372  -9.197  38.581  0.00  0.00     0.076 H 
ATOM     53  H17 MOL d   1     -16.085  -9.931  36.309  0.00  0.00     0.067 H 
ATOM     54  H18 MOL d   1     -17.043  -8.549  36.939  0.00  0.00     0.067 H 
ENDBRANCH   7  41
TORSDOF 8
