REMARK WARNING: 32 MAX_TORS EXCEEDED!!!
REMARK  45 active torsions:
REMARK  status: ('A' for Active; 'I' for Inactive)
REMARK    1  A    between atoms: N_1  and  CA_2 
REMARK    2  A    between atoms: CA_2  and  C_3 
REMARK    3  A    between atoms: CA_2  and  CB_5 
REMARK       I    between atoms: C_3  and  N_8 
REMARK    4  A    between atoms: CB_5  and  OG1_6 
REMARK    5  A    between atoms: CB_5  and  CG2_7 
REMARK    6  A    between atoms: N_8  and  CA_9 
REMARK    7  A    between atoms: CA_9  and  CB_10 
REMARK    8  A    between atoms: CA_9  and  C_15 
REMARK    9  A    between atoms: CB_10  and  CG_11 
REMARK   10  A    between atoms: CG_11  and  CD_12 
REMARK   11  A    between atoms: CD_12  and  CE_13 
REMARK   12  A    between atoms: CE_13  and  NZ_14 
REMARK   13  A    between atoms: NZ_14  and  CM1_17 
REMARK   14  A    between atoms: NZ_14  and  CM2_18 
REMARK   15  A    between atoms: NZ_14  and  CM3_19 
REMARK       I    between atoms: C_15  and  N_20 
REMARK   16  A    between atoms: N_20  and  CA_21 
REMARK   17  A    between atoms: CA_21  and  C_22 
REMARK   18  A    between atoms: CA_21  and  CB_24 
REMARK       I    between atoms: C_22  and  N_29 
REMARK   19  A    between atoms: CB_24  and  CG_25 
REMARK   20  A    between atoms: CG_25  and  CD_26 
REMARK       I    between atoms: CD_26  and  NE2_28 
REMARK   21  A    between atoms: N_29  and  CA_30 
REMARK   22  A    between atoms: CA_30  and  C_31 
REMARK   23  A    between atoms: CA_30  and  CB_33 
REMARK       I    between atoms: C_31  and  N_36 
REMARK   24  A    between atoms: CB_33  and  OG1_34 
REMARK   25  A    between atoms: CB_33  and  CG2_35 
REMARK   26  A    between atoms: N_36  and  CA_37 
REMARK   27  A    between atoms: CA_37  and  C_38 
REMARK   28  A    between atoms: CA_37  and  CB_40 
REMARK       I    between atoms: C_38  and  N_41 
REMARK   29  A    between atoms: N_41  and  CA_42 
REMARK   30  A    between atoms: CA_42  and  C_43 
REMARK   31  A    between atoms: CA_42  and  CB_45 
REMARK       I    between atoms: C_43  and  N_52 
REMARK   32  A    between atoms: CB_45  and  CG_46 
REMARK   33  A    between atoms: CG_46  and  CD_47 
REMARK   34  A    between atoms: CD_47  and  NE_48 
REMARK       I    between atoms: NE_48  and  CZ_49 
REMARK       I    between atoms: CZ_49  and  NH1_50 
REMARK   35  A    between atoms: N_52  and  CA_53 
REMARK   36  A    between atoms: CA_53  and  C_54 
REMARK   37  A    between atoms: CA_53  and  CB_56 
REMARK       I    between atoms: C_54  and  N_61 
REMARK   38  A    between atoms: CB_56  and  CG_57 
REMARK   39  A    between atoms: CG_57  and  CD_58 
REMARK   40  A    between atoms: CD_58  and  CE_59 
REMARK   41  A    between atoms: CE_59  and  NZ_60 
REMARK   42  A    between atoms: N_61  and  CA_62 
REMARK   43  A    between atoms: CA_62  and  C_63 
REMARK   44  A    between atoms: CA_62  and  CB_65 
REMARK   45  A    between atoms: CB_65  and  OG_66 
ROOT
ATOM      1  CA  THR d   1     -15.211   3.847  12.143  0.00  0.00     0.113 C 
ATOM      2  H38 THR d   1     -14.698   4.788  12.390  0.00  0.00     0.091 H 
ENDROOT
BRANCH   1   3
ATOM      3  N   THR d   1     -16.628   3.995  12.436  0.00  0.00    -0.344 N 
ATOM      4  C   GLN d   1     -17.149   5.131  12.886  0.00  0.00     0.241 C 
ATOM      5  O   GLN d   1     -16.469   6.083  13.269  0.00  0.00    -0.271 OA
ATOM      6  H37 THR d   1     -17.233   3.212  12.293  0.00  0.00     0.163 HD
BRANCH   4   7
ATOM      7  CA  GLN d   1     -18.672   5.188  12.903  0.00  0.00     0.090 C 
ATOM      8  H30 GLN d   1     -19.047   4.160  13.017  0.00  0.00     0.087 H 
BRANCH   7   9
ATOM      9  N   GLN d   1     -19.206   5.976  14.012  0.00  0.00    -0.346 N 
ATOM     10  C   M3L d   1     -20.500   5.939  14.326  0.00  0.00     0.241 C 
ATOM     11  O   M3L d   1     -21.322   5.325  13.644  0.00  0.00    -0.271 OA
ATOM     12  H29 GLN d   1     -18.588   6.554  14.545  0.00  0.00     0.163 HD
BRANCH  10  13
ATOM     13  CA  M3L d   1     -20.884   6.697  15.590  0.00  0.00     0.089 C 
ATOM     14  H11 M3L d   1     -19.998   7.215  15.986  0.00  0.00     0.087 H 
BRANCH  13  15
ATOM     15  N   M3L d   1     -21.912   7.689  15.382  0.00  0.00    -0.346 N 
ATOM     16  C   THR d   1     -21.750   8.965  15.720  0.00  0.00     0.251 C 
ATOM     17  O   THR d   1     -20.719   9.398  16.236  0.00  0.00    -0.271 OA
ATOM     18  H10 M3L d   1     -22.778   7.406  14.969  0.00  0.00     0.163 HD
BRANCH  16  19
ATOM     19  CA  THR d   1     -22.930   9.890  15.432  0.00  0.00     0.199 C 
ATOM     20  H4  THR d   1     -23.854   9.296  15.487  0.00  0.00     0.103 H 
BRANCH  19  21
ATOM     21  N   THR d   1     -23.035  10.966  16.411  0.00  0.00    -0.064 N 
ATOM     22  H1  THR d   1     -23.122  10.572  17.335  0.00  0.00     0.275 HD
ATOM     23  H2  THR d   1     -23.847  11.527  16.207  0.00  0.00     0.275 HD
ATOM     24  H3  THR d   1     -22.209  11.542  16.367  0.00  0.00     0.275 HD
ENDBRANCH  19  21
BRANCH  19  25
ATOM     25  CB  THR d   1     -22.795  10.444  14.000  0.00  0.00     0.068 C 
ATOM     26  H5  THR d   1     -22.487   9.630  13.327  0.00  0.00     0.086 H 
BRANCH  25  27
ATOM     27  OG1 THR d   1     -21.804  11.479  13.979  0.00  0.00    -0.393 OA
ATOM     28  H6  THR d   1     -21.722  11.819  13.096  0.00  0.00     0.210 HD
ENDBRANCH  25  27
BRANCH  25  29
ATOM     29  CG2 THR d   1     -24.121  11.013  13.521  0.00  0.00    -0.050 C 
ATOM     30  H7  THR d   1     -24.005  11.403  12.499  0.00  0.00     0.031 H 
ATOM     31  H8  THR d   1     -24.434  11.828  14.191  0.00  0.00     0.031 H 
ATOM     32  H9  THR d   1     -24.884  10.220  13.527  0.00  0.00     0.031 H 
ENDBRANCH  25  29
ENDBRANCH  19  25
ENDBRANCH  16  19
ENDBRANCH  13  15
BRANCH  13  33
ATOM     33  CB  M3L d   1     -21.310   5.591  16.569  0.00  0.00    -0.038 C 
ATOM     34  H12 M3L d   1     -20.654   4.720  16.426  0.00  0.00     0.036 H 
ATOM     35  H13 M3L d   1     -22.350   5.306  16.351  0.00  0.00     0.036 H 
BRANCH  33  36
ATOM     36  CG  M3L d   1     -21.220   6.036  18.010  0.00  0.00    -0.061 C 
ATOM     37  H14 M3L d   1     -22.219   6.336  18.359  0.00  0.00     0.033 H 
ATOM     38  H15 M3L d   1     -20.534   6.893  18.082  0.00  0.00     0.033 H 
BRANCH  36  39
ATOM     39  CD  M3L d   1     -20.703   4.907  18.884  0.00  0.00    -0.042 C 
ATOM     40  H16 M3L d   1     -20.329   5.319  19.833  0.00  0.00     0.035 H 
ATOM     41  H17 M3L d   1     -19.886   4.385  18.364  0.00  0.00     0.035 H 
BRANCH  39  42
ATOM     42  CE  M3L d   1     -21.834   3.926  19.167  0.00  0.00     0.084 C 
ATOM     43  H18 M3L d   1     -21.793   3.140  18.399  0.00  0.00     0.076 H 
ATOM     44  H19 M3L d   1     -22.782   4.476  19.078  0.00  0.00     0.076 H 
BRANCH  42  45
ATOM     45  NZ  M3L d   1     -21.822   3.247  20.520  0.00  0.00    -0.079 N 
BRANCH  45  46
ATOM     46  CM1 M3L d   1     -22.984   2.326  20.678  0.00  0.00     0.067 C 
ATOM     47  H20 M3L d   1     -22.944   1.851  21.669  0.00  0.00     0.068 H 
ATOM     48  H21 M3L d   1     -22.946   1.551  19.899  0.00  0.00     0.068 H 
ATOM     49  H22 M3L d   1     -23.920   2.896  20.583  0.00  0.00     0.068 H 
ENDBRANCH  45  46
BRANCH  45  50
ATOM     50  CM2 M3L d   1     -21.821   4.250  21.625  0.00  0.00     0.067 C 
ATOM     51  H23 M3L d   1     -20.962   4.927  21.505  0.00  0.00     0.068 H 
ATOM     52  H24 M3L d   1     -21.746   3.731  22.592  0.00  0.00     0.068 H 
ATOM     53  H25 M3L d   1     -22.754   4.832  21.593  0.00  0.00     0.068 H 
ENDBRANCH  45  50
BRANCH  45  54
ATOM     54  CM3 M3L d   1     -20.562   2.447  20.621  0.00  0.00     0.067 C 
ATOM     55  H26 M3L d   1     -20.538   1.698  19.816  0.00  0.00     0.068 H 
ATOM     56  H27 M3L d   1     -20.528   1.938  21.596  0.00  0.00     0.068 H 
ATOM     57  H28 M3L d   1     -19.694   3.116  20.526  0.00  0.00     0.068 H 
ENDBRANCH  45  54
ENDBRANCH  42  45
ENDBRANCH  39  42
ENDBRANCH  36  39
ENDBRANCH  33  36
ENDBRANCH  13  33
ENDBRANCH  10  13
ENDBRANCH   7   9
BRANCH   7  58
ATOM     58  CB  GLN d   1     -19.161   5.734  11.559  0.00  0.00    -0.030 C 
ATOM     59  H31 GLN d   1     -18.438   6.482  11.201  0.00  0.00     0.037 H 
ATOM     60  H32 GLN d   1     -20.139   6.214  11.712  0.00  0.00     0.037 H 
BRANCH  58  61
ATOM     61  CG  GLN d   1     -19.311   4.659  10.494  0.00  0.00     0.011 C 
ATOM     62  H33 GLN d   1     -20.033   3.910  10.851  0.00  0.00     0.047 H 
ATOM     63  H34 GLN d   1     -18.333   4.181  10.338  0.00  0.00     0.047 H 
BRANCH  61  64
ATOM     64  CD  GLN d   1     -19.798   5.205   9.168  0.00  0.00     0.215 C 
ATOM     65  OE1 GLN d   1     -19.581   6.373   8.846  0.00  0.00    -0.274 OA
ATOM     66  NE2 GLN d   1     -20.469   4.361   8.393  0.00  0.00    -0.370 N 
ATOM     67  H35 GLN d   1     -20.816   4.665   7.505  0.00  0.00     0.159 HD
ATOM     68  H36 GLN d   1     -20.628   3.422   8.697  0.00  0.00     0.159 HD
ENDBRANCH  61  64
ENDBRANCH  58  61
ENDBRANCH   7  58
ENDBRANCH   4   7
ENDBRANCH   1   3
BRANCH   1  69
ATOM     69  C   THR d   1     -15.059   3.570  10.651  0.00  0.00     0.243 C 
ATOM     70  O   THR d   1     -15.463   2.513  10.165  0.00  0.00    -0.271 OA
ATOM     71  N   ALA d   1     -14.491   4.528   9.925  0.00  0.00    -0.346 N 
ATOM     72  H44 ALA d   1     -14.122   5.336  10.385  0.00  0.00     0.163 HD
BRANCH  71  73
ATOM     73  CA  ALA d   1     -14.394   4.428   8.473  0.00  0.00     0.086 C 
ATOM     74  H45 ALA d   1     -15.242   3.825   8.117  0.00  0.00     0.086 H 
BRANCH  73  75
ATOM     75  C   ALA d   1     -13.108   3.735   8.033  0.00  0.00     0.240 C 
ATOM     76  O   ALA d   1     -12.028   4.010   8.555  0.00  0.00    -0.271 OA
ATOM     77  N   ARG d   1     -13.240   2.844   7.056  0.00  0.00    -0.346 N 
ATOM     78  H49 ARG d   1     -14.132   2.742   6.615  0.00  0.00     0.163 HD
BRANCH  77  79
ATOM     79  CA  ARG d   1     -12.134   2.009   6.602  0.00  0.00     0.089 C 
ATOM     80  H50 ARG d   1     -11.311   2.104   7.326  0.00  0.00     0.087 H 
BRANCH  79  81
ATOM     81  C   ARG d   1     -11.613   2.440   5.231  0.00  0.00     0.241 C 
ATOM     82  O   ARG d   1     -12.306   2.303   4.223  0.00  0.00    -0.271 OA
ATOM     83  N   LYS d   1     -10.387   2.954   5.198  0.00  0.00    -0.346 N 
ATOM     84  H62 LYS d   1      -9.855   3.009   6.043  0.00  0.00     0.163 HD
BRANCH  83  85
ATOM     85  CA  LYS d   1      -9.803   3.439   3.951  0.00  0.00     0.089 C 
ATOM     86  H63 LYS d   1     -10.341   2.961   3.119  0.00  0.00     0.087 H 
BRANCH  85  87
ATOM     87  C   LYS d   1      -8.324   3.088   3.817  0.00  0.00     0.241 C 
ATOM     88  O   LYS d   1      -7.511   3.442   4.672  0.00  0.00    -0.271 OA
ATOM     89  N   SER d   1      -7.992   2.391   2.732  0.00  0.00    -0.343 N 
ATOM     90  H75 SER d   1      -8.723   2.060   2.135  0.00  0.00     0.163 HD
BRANCH  89  91
ATOM     91  CA  SER d   1      -6.608   2.088   2.374  0.00  0.00     0.116 C 
ATOM     92  H76 SER d   1      -6.036   3.028   2.375  0.00  0.00     0.093 H 
BRANCH  91  93
ATOM     93  C   SER d   1      -6.548   1.484   0.975  0.00  0.00     0.198 C 
ATOM     94  O   SER d   1      -7.417   0.700   0.590  0.00  0.00    -0.646 OA
ATOM     95  OXT SER d   1      -5.629   1.769   0.205  0.00  0.00    -0.646 OA
ENDBRANCH  91  93
BRANCH  91  96
ATOM     96  CB  SER d   1      -5.968   1.133   3.384  0.00  0.00     0.045 C 
ATOM     97  H77 SER d   1      -6.547   0.198   3.413  0.00  0.00     0.077 H 
ATOM     98  H78 SER d   1      -5.978   1.602   4.379  0.00  0.00     0.077 H 
BRANCH  96  99
ATOM     99  OG  SER d   1      -4.629   0.838   3.024  0.00  0.00    -0.398 OA
ATOM    100  H79 SER d   1      -4.615   0.430   2.166  0.00  0.00     0.209 HD
ENDBRANCH  96  99
ENDBRANCH  91  96
ENDBRANCH  89  91
ENDBRANCH  85  87
BRANCH  85 101
ATOM    101  CB  LYS d   1      -9.985   4.955   3.838  0.00  0.00    -0.038 C 
ATOM    102  H64 LYS d   1      -9.512   5.425   4.713  0.00  0.00     0.036 H 
ATOM    103  H65 LYS d   1     -11.063   5.174   3.842  0.00  0.00     0.036 H 
BRANCH 101 104
ATOM    104  CG  LYS d   1      -9.379   5.567   2.582  0.00  0.00    -0.061 C 
ATOM    105  H66 LYS d   1      -8.294   5.385   2.584  0.00  0.00     0.033 H 
ATOM    106  H67 LYS d   1      -9.569   6.650   2.585  0.00  0.00     0.033 H 
BRANCH 104 107
ATOM    107  CD  LYS d   1      -9.979   4.963   1.321  0.00  0.00    -0.043 C 
ATOM    108  H68 LYS d   1     -11.070   4.896   1.440  0.00  0.00     0.035 H 
ATOM    109  H69 LYS d   1      -9.563   3.955   1.174  0.00  0.00     0.035 H 
BRANCH 107 110
ATOM    110  CE  LYS d   1      -9.666   5.811   0.097  0.00  0.00     0.080 C 
ATOM    111  H70 LYS d   1     -10.093   6.814   0.242  0.00  0.00     0.075 H 
ATOM    112  H71 LYS d   1     -10.124   5.341  -0.786  0.00  0.00     0.075 H 
BRANCH 110 113
ATOM    113  NZ  LYS d   1      -8.201   5.943  -0.136  0.00  0.00    -0.079 N 
ATOM    114  H72 LYS d   1      -8.041   6.510  -0.954  0.00  0.00     0.274 HD
ATOM    115  H73 LYS d   1      -7.800   5.029  -0.277  0.00  0.00     0.274 HD
ATOM    116  H74 LYS d   1      -7.771   6.379   0.665  0.00  0.00     0.274 HD
ENDBRANCH 110 113
ENDBRANCH 107 110
ENDBRANCH 104 107
ENDBRANCH 101 104
ENDBRANCH  85 101
ENDBRANCH  83  85
ENDBRANCH  79  81
BRANCH  79 117
ATOM    117  CB  ARG d   1     -12.582   0.548   6.561  0.00  0.00    -0.036 C 
ATOM    118  H51 ARG d   1     -12.471   0.118   7.567  0.00  0.00     0.036 H 
ATOM    119  H52 ARG d   1     -11.937   0.003   5.856  0.00  0.00     0.036 H 
BRANCH 117 120
ATOM    120  CG  ARG d   1     -14.029   0.386   6.120  0.00  0.00    -0.048 C 
ATOM    121  H53 ARG d   1     -14.112   0.684   5.064  0.00  0.00     0.035 H 
ATOM    122  H54 ARG d   1     -14.662   1.041   6.737  0.00  0.00     0.035 H 
BRANCH 120 123
ATOM    123  CD  ARG d   1     -14.519  -1.040   6.263  0.00  0.00     0.009 C 
ATOM    124  H55 ARG d   1     -15.496  -1.131   5.765  0.00  0.00     0.064 H 
ATOM    125  H56 ARG d   1     -14.630  -1.272   7.333  0.00  0.00     0.064 H 
BRANCH 123 126
ATOM    126  NE  ARG d   1     -13.596  -2.000   5.667  0.00  0.00    -0.227 N 
ATOM    127  CZ  ARG d   1     -13.951  -3.212   5.258  0.00  0.00     0.665 C 
ATOM    128  NH1 ARG d   1     -13.050  -4.029   4.729  0.00  0.00    -0.235 N 
ATOM    129  NH2 ARG d   1     -15.213  -3.600   5.361  0.00  0.00    -0.235 N 
ATOM    130  H58 ARG d   1     -13.329  -4.969   4.413  0.00  0.00     0.174 HD
ATOM    131  H59 ARG d   1     -12.071  -3.724   4.634  0.00  0.00     0.174 HD
ATOM    132  H60 ARG d   1     -15.915  -2.967   5.771  0.00  0.00     0.174 HD
ATOM    133  H61 ARG d   1     -15.493  -4.535   5.031  0.00  0.00     0.174 HD
ATOM    134  H57 ARG d   1     -12.611  -1.721   5.557  0.00  0.00     0.177 HD
ENDBRANCH 123 126
ENDBRANCH 120 123
ENDBRANCH 117 120
ENDBRANCH  79 117
ENDBRANCH  77  79
ENDBRANCH  73  75
BRANCH  73 135
ATOM    135  CB  ALA d   1     -14.494   5.808   7.843  0.00  0.00    -0.049 C 
ATOM    136  H46 ALA d   1     -14.419   5.718   6.749  0.00  0.00     0.030 H 
ATOM    137  H47 ALA d   1     -13.675   6.441   8.215  0.00  0.00     0.030 H 
ATOM    138  H48 ALA d   1     -15.460   6.263   8.108  0.00  0.00     0.030 H 
ENDBRANCH  73 135
ENDBRANCH  71  73
ENDBRANCH   1  69
BRANCH   1 139
ATOM    139  CB  THR d   1     -14.566   2.712  12.961  0.00  0.00     0.060 C 
ATOM    140  H39 THR d   1     -13.472   2.816  12.913  0.00  0.00     0.086 H 
BRANCH 139 141
ATOM    141  OG1 THR d   1     -14.941   1.444  12.408  0.00  0.00    -0.393 OA
ATOM    142  H40 THR d   1     -14.643   1.392  11.507  0.00  0.00     0.210 HD
ENDBRANCH 139 141
BRANCH 139 143
ATOM    143  CG2 THR d   1     -15.005   2.784  14.416  0.00  0.00    -0.050 C 
ATOM    144  H41 THR d   1     -14.534   1.966  14.982  0.00  0.00     0.031 H 
ATOM    145  H42 THR d   1     -16.099   2.688  14.474  0.00  0.00     0.031 H 
ATOM    146  H43 THR d   1     -14.699   3.750  14.844  0.00  0.00     0.031 H 
ENDBRANCH 139 143
ENDBRANCH   1 139
TORSDOF 45
