REMARK WARNING: 32 MAX_TORS EXCEEDED!!!
REMARK  69 active torsions:
REMARK  status: ('A' for Active; 'I' for Inactive)
REMARK    1  A    between atoms: N_1  and  CA_2 
REMARK    2  A    between atoms: CA_2  and  C_3 
REMARK    3  A    between atoms: CA_2  and  CB_5 
REMARK       I    between atoms: C_3  and  N_6 
REMARK    4  A    between atoms: N_6  and  CA_7 
REMARK    5  A    between atoms: CA_7  and  C_8 
REMARK    6  A    between atoms: CA_7  and  CB_10 
REMARK       I    between atoms: C_8  and  N_13 
REMARK    7  A    between atoms: CB_10  and  OG1_11 
REMARK    8  A    between atoms: CB_10  and  CG2_12 
REMARK    9  A    between atoms: N_13  and  CA_14 
REMARK   10  A    between atoms: CA_14  and  C_15 
REMARK   11  A    between atoms: CA_14  and  CB_17 
REMARK       I    between atoms: C_15  and  N_22 
REMARK   12  A    between atoms: CB_17  and  CG_18 
REMARK   13  A    between atoms: CG_18  and  CD_19 
REMARK   14  A    between atoms: CD_19  and  CE_20 
REMARK   15  A    between atoms: CE_20  and  NZ_21 
REMARK   16  A    between atoms: N_22  and  CA_23 
REMARK   17  A    between atoms: CA_23  and  C_24 
REMARK   18  A    between atoms: CA_23  and  CB_26 
REMARK       I    between atoms: C_24  and  N_27 
REMARK   19  A    between atoms: N_27  and  CA_28 
REMARK   20  A    between atoms: CA_28  and  C_29 
REMARK   21  A    between atoms: CA_28  and  CB_31 
REMARK       I    between atoms: C_29  and  N_32 
REMARK   22  A    between atoms: N_32  and  CA_33 
REMARK   23  A    between atoms: CA_33  and  C_34 
REMARK   24  A    between atoms: CA_33  and  CB_36 
REMARK       I    between atoms: C_34  and  N_43 
REMARK   25  A    between atoms: CB_36  and  CG_37 
REMARK   26  A    between atoms: CG_37  and  CD_38 
REMARK   27  A    between atoms: CD_38  and  NE_39 
REMARK       I    between atoms: NE_39  and  CZ_40 
REMARK       I    between atoms: CZ_40  and  NH1_41 
REMARK   28  A    between atoms: N_43  and  CA_44 
REMARK   29  A    between atoms: CA_44  and  CB_45 
REMARK   30  A    between atoms: CA_44  and  C_50 
REMARK   31  A    between atoms: CB_45  and  CG_46 
REMARK   32  A    between atoms: CG_46  and  CD_47 
REMARK   33  A    between atoms: CD_47  and  CE_48 
REMARK   34  A    between atoms: CE_48  and  NZ_49 
REMARK   35  A    between atoms: NZ_49  and  CM1_52 
REMARK   36  A    between atoms: NZ_49  and  CM2_53 
REMARK   37  A    between atoms: NZ_49  and  CM3_54 
REMARK       I    between atoms: C_50  and  N_55 
REMARK   38  A    between atoms: N_55  and  CA_56 
REMARK   39  A    between atoms: CA_56  and  C_57 
REMARK   40  A    between atoms: CA_56  and  CB_59 
REMARK       I    between atoms: C_57  and  N_61 
REMARK   41  A    between atoms: CB_59  and  OG_60 
REMARK   42  A    between atoms: N_61  and  CA_62 
REMARK   43  A    between atoms: CA_62  and  C_63 
REMARK   44  A    between atoms: CA_62  and  CB_65 
REMARK       I    between atoms: C_63  and  N_66 
REMARK   45  A    between atoms: CA_67  and  C_68 
REMARK       I    between atoms: C_68  and  N_73 
REMARK   46  A    between atoms: N_73  and  CA_74 
REMARK   47  A    between atoms: CA_74  and  C_75 
REMARK   48  A    between atoms: CA_74  and  CB_77 
REMARK       I    between atoms: C_75  and  N_78 
REMARK   49  A    between atoms: N_78  and  CA_79 
REMARK   50  A    between atoms: CA_79  and  C_80 
REMARK   51  A    between atoms: CA_79  and  CB_82 
REMARK       I    between atoms: C_80  and  N_85 
REMARK   52  A    between atoms: CB_82  and  OG1_83 
REMARK   53  A    between atoms: CB_82  and  CG2_84 
REMARK   54  A    between atoms: N_85  and  CA_86 
REMARK   55  A    between atoms: CA_86  and  C_87 
REMARK       I    between atoms: C_87  and  N_89 
REMARK   56  A    between atoms: N_89  and  CA_90 
REMARK   57  A    between atoms: CA_90  and  C_91 
REMARK       I    between atoms: C_91  and  N_93 
REMARK   58  A    between atoms: N_93  and  CA_94 
REMARK   59  A    between atoms: CA_94  and  C_95 
REMARK   60  A    between atoms: CA_94  and  CB_97 
REMARK       I    between atoms: C_95  and  N_100 
REMARK   61  A    between atoms: CB_97  and  CG1_98 
REMARK   62  A    between atoms: CB_97  and  CG2_99 
REMARK   63  A    between atoms: N_100  and  CA_101 
REMARK   64  A    between atoms: CA_101  and  C_102 
REMARK   65  A    between atoms: CA_101  and  CB_104 
REMARK   66  A    between atoms: CB_104  and  CG_105 
REMARK   67  A    between atoms: CG_105  and  CD_106 
REMARK   68  A    between atoms: CD_106  and  CE_107 
REMARK   69  A    between atoms: CE_107  and  NZ_108 
ROOT
ATOM      1  CA  M3L d   1      -2.510  18.017 -33.590  0.00  0.00     0.089 C 
ATOM      2  H52 M3L d   1      -3.382  18.239 -32.958  0.00  0.00     0.087 H 
ENDROOT
BRANCH   1   3
ATOM      3  N   M3L d   1      -2.668  16.906 -34.433  0.00  0.00    -0.346 N 
ATOM      4  C   ARG d   1      -3.861  16.424 -34.695  0.00  0.00     0.241 C 
ATOM      5  O   ARG d   1      -4.890  16.938 -34.299  0.00  0.00    -0.271 OA
ATOM      6  H51 M3L d   1      -1.862  16.476 -34.839  0.00  0.00     0.163 HD
BRANCH   4   7
ATOM      7  CA  ARG d   1      -3.885  15.160 -35.480  0.00  0.00     0.089 C 
ATOM      8  H39 ARG d   1      -2.879  14.721 -35.547  0.00  0.00     0.087 H 
BRANCH   7   9
ATOM      9  N   ARG d   1      -4.759  14.321 -34.715  0.00  0.00    -0.346 N 
ATOM     10  C   ALA d   1      -4.316  13.220 -34.154  0.00  0.00     0.240 C 
ATOM     11  O   ALA d   1      -3.183  12.829 -34.315  0.00  0.00    -0.271 OA
ATOM     12  H38 ARG d   1      -5.720  14.578 -34.607  0.00  0.00     0.163 HD
BRANCH  10  13
ATOM     13  CA  ALA d   1      -5.291  12.465 -33.274  0.00  0.00     0.086 C 
ATOM     14  H34 ALA d   1      -6.304  12.842 -33.477  0.00  0.00     0.086 H 
BRANCH  13  15
ATOM     15  N   ALA d   1      -5.270  11.052 -33.538  0.00  0.00    -0.346 N 
ATOM     16  C   ALA d   1      -5.957  10.549 -34.532  0.00  0.00     0.240 C 
ATOM     17  O   ALA d   1      -6.601  11.228 -35.283  0.00  0.00    -0.271 OA
ATOM     18  H33 ALA d   1      -4.725  10.448 -32.957  0.00  0.00     0.163 HD
BRANCH  16  19
ATOM     19  CA  ALA d   1      -5.886   9.074 -34.706  0.00  0.00     0.086 C 
ATOM     20  H29 ALA d   1      -5.633   8.593 -33.749  0.00  0.00     0.086 H 
BRANCH  19  21
ATOM     21  N   ALA d   1      -7.168   8.632 -35.156  0.00  0.00    -0.346 N 
ATOM     22  C   LYS d   1      -8.015   8.079 -34.319  0.00  0.00     0.241 C 
ATOM     23  O   LYS d   1      -7.728   7.802 -33.189  0.00  0.00    -0.271 OA
ATOM     24  H28 ALA d   1      -7.422   8.745 -36.117  0.00  0.00     0.163 HD
BRANCH  22  25
ATOM     25  CA  LYS d   1      -9.356   7.724 -34.817  0.00  0.00     0.089 C 
ATOM     26  H16 LYS d   1      -9.316   7.171 -35.767  0.00  0.00     0.087 H 
BRANCH  25  27
ATOM     27  N   LYS d   1      -9.794   6.912 -33.728  0.00  0.00    -0.346 N 
ATOM     28  C   THR d   1      -9.455   5.643 -33.637  0.00  0.00     0.243 C 
ATOM     29  O   THR d   1      -8.746   5.078 -34.443  0.00  0.00    -0.271 OA
ATOM     30  H15 LYS d   1     -10.371   7.316 -33.018  0.00  0.00     0.163 HD
BRANCH  28  31
ATOM     31  CA  THR d   1     -10.022   4.917 -32.454  0.00  0.00     0.113 C 
ATOM     32  H9  THR d   1     -10.696   5.577 -31.889  0.00  0.00     0.091 H 
BRANCH  31  33
ATOM     33  N   THR d   1     -10.765   3.797 -32.985  0.00  0.00    -0.344 N 
ATOM     34  C   ALA d   1     -11.804   4.032 -33.776  0.00  0.00     0.248 C 
ATOM     35  O   ALA d   1     -12.036   5.127 -34.246  0.00  0.00    -0.271 OA
ATOM     36  H8  THR d   1     -10.500   2.859 -32.760  0.00  0.00     0.163 HD
BRANCH  34  37
ATOM     37  CA  ALA d   1     -12.712   2.889 -34.105  0.00  0.00     0.172 C 
ATOM     38  H4  ALA d   1     -12.616   2.100 -33.344  0.00  0.00     0.098 H 
BRANCH  37  39
ATOM     39  N   ALA d   1     -14.066   3.425 -34.101  0.00  0.00    -0.067 N 
ATOM     40  H1  ALA d   1     -14.719   2.689 -34.319  0.00  0.00     0.275 HD
ATOM     41  H2  ALA d   1     -14.140   4.155 -34.792  0.00  0.00     0.275 HD
ATOM     42  H3  ALA d   1     -14.276   3.802 -33.190  0.00  0.00     0.275 HD
ENDBRANCH  37  39
BRANCH  37  43
ATOM     43  CB  ALA d   1     -12.375   2.312 -35.470  0.00  0.00    -0.042 C 
ATOM     44  H5  ALA d   1     -11.350   1.912 -35.456  0.00  0.00     0.030 H 
ATOM     45  H6  ALA d   1     -12.450   3.103 -36.231  0.00  0.00     0.030 H 
ATOM     46  H7  ALA d   1     -13.081   1.504 -35.711  0.00  0.00     0.030 H 
ENDBRANCH  37  43
ENDBRANCH  34  37
ENDBRANCH  31  33
BRANCH  31  47
ATOM     47  CB  THR d   1      -8.880   4.459 -31.537  0.00  0.00     0.060 C 
ATOM     48  H10 THR d   1      -7.913   4.702 -32.002  0.00  0.00     0.086 H 
BRANCH  47  49
ATOM     49  OG1 THR d   1      -8.980   3.055 -31.318  0.00  0.00    -0.393 OA
ATOM     50  H11 THR d   1      -8.272   2.773 -30.750  0.00  0.00     0.210 HD
ENDBRANCH  47  49
BRANCH  47  51
ATOM     51  CG2 THR d   1      -8.987   5.117 -30.228  0.00  0.00    -0.050 C 
ATOM     52  H12 THR d   1      -8.164   4.781 -29.580  0.00  0.00     0.031 H 
ATOM     53  H13 THR d   1      -9.949   4.855 -29.764  0.00  0.00     0.031 H 
ATOM     54  H14 THR d   1      -8.928   6.207 -30.360  0.00  0.00     0.031 H 
ENDBRANCH  47  51
ENDBRANCH  31  47
ENDBRANCH  28  31
ENDBRANCH  25  27
BRANCH  25  55
ATOM     55  CB  LYS d   1     -10.241   8.945 -34.963  0.00  0.00    -0.038 C 
ATOM     56  H17 LYS d   1      -9.685   9.823 -34.602  0.00  0.00     0.036 H 
ATOM     57  H18 LYS d   1     -11.139   8.800 -34.345  0.00  0.00     0.036 H 
BRANCH  55  58
ATOM     58  CG  LYS d   1     -10.679   9.209 -36.391  0.00  0.00    -0.061 C 
ATOM     59  H19 LYS d   1     -11.505   8.528 -36.643  0.00  0.00     0.033 H 
ATOM     60  H20 LYS d   1      -9.831   9.022 -37.066  0.00  0.00     0.033 H 
BRANCH  58  61
ATOM     61  CD  LYS d   1     -11.148  10.643 -36.573  0.00  0.00    -0.043 C 
ATOM     62  H21 LYS d   1     -10.431  11.316 -36.080  0.00  0.00     0.035 H 
ATOM     63  H22 LYS d   1     -12.137  10.755 -36.105  0.00  0.00     0.035 H 
BRANCH  61  64
ATOM     64  CE  LYS d   1     -11.253  11.030 -38.042  0.00  0.00     0.080 C 
ATOM     65  H23 LYS d   1     -12.314  11.187 -38.284  0.00  0.00     0.075 H 
ATOM     66  H24 LYS d   1     -10.857  10.202 -38.648  0.00  0.00     0.075 H 
BRANCH  64  67
ATOM     67  NZ  LYS d   1     -10.501  12.272 -38.393  0.00  0.00    -0.079 N 
ATOM     68  H25 LYS d   1     -10.614  12.467 -39.375  0.00  0.00     0.274 HD
ATOM     69  H26 LYS d   1      -9.523  12.142 -38.187  0.00  0.00     0.274 HD
ATOM     70  H27 LYS d   1     -10.858  13.045 -37.854  0.00  0.00     0.274 HD
ENDBRANCH  64  67
ENDBRANCH  61  64
ENDBRANCH  58  61
ENDBRANCH  55  58
ENDBRANCH  25  55
ENDBRANCH  22  25
ENDBRANCH  19  21
BRANCH  19  71
ATOM     71  CB  ALA d   1      -4.852   8.730 -35.731  0.00  0.00    -0.049 C 
ATOM     72  H30 ALA d   1      -3.865   9.070 -35.385  0.00  0.00     0.030 H 
ATOM     73  H31 ALA d   1      -5.098   9.226 -36.681  0.00  0.00     0.030 H 
ATOM     74  H32 ALA d   1      -4.832   7.640 -35.881  0.00  0.00     0.030 H 
ENDBRANCH  19  71
ENDBRANCH  16  19
ENDBRANCH  13  15
BRANCH  13  75
ATOM     75  CB  ALA d   1      -4.963  12.707 -31.829  0.00  0.00    -0.049 C 
ATOM     76  H35 ALA d   1      -4.979  13.788 -31.625  0.00  0.00     0.030 H 
ATOM     77  H36 ALA d   1      -3.962  12.307 -31.608  0.00  0.00     0.030 H 
ATOM     78  H37 ALA d   1      -5.707  12.204 -31.195  0.00  0.00     0.030 H 
ENDBRANCH  13  75
ENDBRANCH  10  13
ENDBRANCH   7   9
BRANCH   7  79
ATOM     79  CB  ARG d   1      -4.426  15.388 -36.881  0.00  0.00    -0.036 C 
ATOM     80  H40 ARG d   1      -4.812  16.417 -36.935  0.00  0.00     0.036 H 
ATOM     81  H41 ARG d   1      -5.250  14.678 -37.049  0.00  0.00     0.036 H 
BRANCH  79  82
ATOM     82  CG  ARG d   1      -3.410  15.205 -37.995  0.00  0.00    -0.048 C 
ATOM     83  H42 ARG d   1      -3.809  14.489 -38.729  0.00  0.00     0.035 H 
ATOM     84  H43 ARG d   1      -2.478  14.809 -37.566  0.00  0.00     0.035 H 
BRANCH  82  85
ATOM     85  CD  ARG d   1      -3.111  16.516 -38.698  0.00  0.00     0.009 C 
ATOM     86  H44 ARG d   1      -2.855  17.273 -37.942  0.00  0.00     0.064 H 
ATOM     87  H45 ARG d   1      -4.009  16.836 -39.248  0.00  0.00     0.064 H 
BRANCH  85  88
ATOM     88  NE  ARG d   1      -2.001  16.398 -39.639  0.00  0.00    -0.227 N 
ATOM     89  CZ  ARG d   1      -2.081  16.673 -40.936  0.00  0.00     0.665 C 
ATOM     90  NH1 ARG d   1      -1.017  16.541 -41.704  0.00  0.00    -0.235 N 
ATOM     91  NH2 ARG d   1      -3.223  17.085 -41.466  0.00  0.00    -0.235 N 
ATOM     92  H47 ARG d   1      -1.078  16.754 -42.710  0.00  0.00     0.174 HD
ATOM     93  H48 ARG d   1      -0.125  16.225 -41.298  0.00  0.00     0.174 HD
ATOM     94  H49 ARG d   1      -4.058  17.190 -40.872  0.00  0.00     0.174 HD
ATOM     95  H50 ARG d   1      -3.276  17.300 -42.472  0.00  0.00     0.174 HD
ATOM     96  H46 ARG d   1      -1.093  16.079 -39.272  0.00  0.00     0.177 HD
ENDBRANCH  85  88
ENDBRANCH  82  85
ENDBRANCH  79  82
ENDBRANCH   7  79
ENDBRANCH   4   7
ENDBRANCH   1   3
BRANCH   1  97
ATOM     97  CB  M3L d   1      -1.288  17.675 -32.789  0.00  0.00    -0.038 C 
ATOM     98  H53 M3L d   1      -0.605  18.537 -32.795  0.00  0.00     0.036 H 
ATOM     99  H54 M3L d   1      -0.790  16.809 -33.250  0.00  0.00     0.036 H 
BRANCH  97 100
ATOM    100  CG  M3L d   1      -1.634  17.338 -31.368  0.00  0.00    -0.061 C 
ATOM    101  H55 M3L d   1      -1.704  16.247 -31.247  0.00  0.00     0.033 H 
ATOM    102  H56 M3L d   1      -2.594  17.800 -31.096  0.00  0.00     0.033 H 
BRANCH 100 103
ATOM    103  CD  M3L d   1      -0.542  17.879 -30.499  0.00  0.00    -0.042 C 
ATOM    104  H57 M3L d   1      -0.851  18.845 -30.073  0.00  0.00     0.035 H 
ATOM    105  H58 M3L d   1       0.372  18.017 -31.095  0.00  0.00     0.035 H 
BRANCH 103 106
ATOM    106  CE  M3L d   1      -0.282  16.901 -29.395  0.00  0.00     0.084 C 
ATOM    107  H59 M3L d   1       0.040  15.949 -29.842  0.00  0.00     0.076 H 
ATOM    108  H60 M3L d   1      -1.218  16.747 -28.838  0.00  0.00     0.076 H 
BRANCH 106 109
ATOM    109  NZ  M3L d   1       0.722  17.332 -28.480  0.00  0.00    -0.079 N 
BRANCH 109 110
ATOM    110  CM1 M3L d   1       0.336  18.573 -27.877  0.00  0.00     0.067 C 
ATOM    111  H61 M3L d   1       1.117  18.897 -27.173  0.00  0.00     0.068 H 
ATOM    112  H62 M3L d   1      -0.612  18.439 -27.336  0.00  0.00     0.068 H 
ATOM    113  H63 M3L d   1       0.207  19.336 -28.659  0.00  0.00     0.068 H 
ENDBRANCH 109 110
BRANCH 109 114
ATOM    114  CM2 M3L d   1       1.961  17.493 -29.186  0.00  0.00     0.067 C 
ATOM    115  H64 M3L d   1       2.248  16.536 -29.645  0.00  0.00     0.068 H 
ATOM    116  H65 M3L d   1       2.745  17.813 -28.483  0.00  0.00     0.068 H 
ATOM    117  H66 M3L d   1       1.840  18.254 -29.971  0.00  0.00     0.068 H 
ENDBRANCH 109 114
BRANCH 109 118
ATOM    118  CM3 M3L d   1       0.864  16.325 -27.471  0.00  0.00     0.067 C 
ATOM    119  H67 M3L d   1      -0.089  16.207 -26.934  0.00  0.00     0.068 H 
ATOM    120  H68 M3L d   1       1.650  16.625 -26.762  0.00  0.00     0.068 H 
ATOM    121  H69 M3L d   1       1.140  15.370 -27.942  0.00  0.00     0.068 H 
ENDBRANCH 109 118
ENDBRANCH 106 109
ENDBRANCH 103 106
ENDBRANCH 100 103
ENDBRANCH  97 100
ENDBRANCH   1  97
BRANCH   1 122
ATOM    122  C   M3L d   1      -2.220  19.072 -34.547  0.00  0.00     0.241 C 
ATOM    123  O   M3L d   1      -1.940  18.757 -35.673  0.00  0.00    -0.271 OA
ATOM    124  N   SER d   1      -2.313  20.309 -34.138  0.00  0.00    -0.344 N 
ATOM    125  H70 SER d   1      -2.663  20.466 -33.215  0.00  0.00     0.163 HD
BRANCH 124 126
ATOM    126  CA  SER d   1      -1.944  21.477 -34.927  0.00  0.00     0.109 C 
ATOM    127  H71 SER d   1      -2.015  21.210 -35.992  0.00  0.00     0.090 H 
BRANCH 126 128
ATOM    128  C   SER d   1      -0.523  21.893 -34.622  0.00  0.00     0.243 C 
ATOM    129  O   SER d   1       0.232  21.165 -33.977  0.00  0.00    -0.271 OA
ATOM    130  N   ALA d   1      -0.171  23.080 -35.093  0.00  0.00    -0.346 N 
ATOM    131  H75 ALA d   1      -0.810  23.579 -35.678  0.00  0.00     0.163 HD
BRANCH 130 132
ATOM    132  CA  ALA d   1       1.113  23.677 -34.785  0.00  0.00     0.086 C 
ATOM    133  H76 ALA d   1       1.770  22.907 -34.356  0.00  0.00     0.086 H 
BRANCH 132 134
ATOM    134  C   ALA d   1       0.911  24.779 -33.757  0.00  0.00     0.243 C 
ATOM    135  O   ALA d   1      -0.088  25.497 -33.805  0.00  0.00    -0.271 OA
ATOM    136  N   PRO d   1       1.852  24.901 -32.812  0.00  0.00    -0.337 N 
ATOM    137  CA  PRO d   1       1.801  25.933 -31.773  0.00  0.00     0.091 C 
ATOM    138  CD  PRO d   1       3.021  24.019 -32.657  0.00  0.00    -0.001 C 
ATOM    139  CB  PRO d   1       3.145  25.775 -31.058  0.00  0.00    -0.036 C 
ATOM    140  H80 PRO d   1       0.966  25.746 -31.082  0.00  0.00     0.087 H 
ATOM    141  CG  PRO d   1       3.522  24.355 -31.285  0.00  0.00    -0.048 C 
ATOM    142  H81 PRO d   1       3.040  25.982 -29.983  0.00  0.00     0.036 H 
ATOM    143  H82 PRO d   1       3.897  26.451 -31.490  0.00  0.00     0.036 H 
ATOM    144  H83 PRO d   1       3.047  23.707 -30.534  0.00  0.00     0.035 H 
ATOM    145  H84 PRO d   1       4.614  24.235 -31.235  0.00  0.00     0.035 H 
ATOM    146  H85 PRO d   1       3.783  24.236 -33.420  0.00  0.00     0.064 H 
ATOM    147  H86 PRO d   1       2.728  22.961 -32.722  0.00  0.00     0.064 H 
BRANCH 137 148
ATOM    148  C   PRO d   1       1.657  27.332 -32.363  0.00  0.00     0.241 C 
ATOM    149  O   PRO d   1       2.356  27.667 -33.320  0.00  0.00    -0.271 OA
ATOM    150  N   ALA d   1       0.746  28.120 -31.797  0.00  0.00    -0.346 N 
ATOM    151  H87 ALA d   1       0.200  27.754 -31.043  0.00  0.00     0.163 HD
BRANCH 150 152
ATOM    152  CA  ALA d   1       0.508  29.495 -32.227  0.00  0.00     0.086 C 
ATOM    153  H88 ALA d   1      -0.329  29.892 -31.634  0.00  0.00     0.086 H 
BRANCH 152 154
ATOM    154  C   ALA d   1       0.118  29.578 -33.699  0.00  0.00     0.240 C 
ATOM    155  O   ALA d   1       0.789  30.236 -34.494  0.00  0.00    -0.271 OA
ATOM    156  N   THR d   1      -0.965  28.897 -34.054  0.00  0.00    -0.344 N 
ATOM    157  H92 THR d   1      -1.397  28.291 -33.386  0.00  0.00     0.163 HD
BRANCH 156 158
ATOM    158  CA  THR d   1      -1.544  29.006 -35.387  0.00  0.00     0.113 C 
ATOM    159  H93 THR d   1      -1.132  29.901 -35.875  0.00  0.00     0.091 H 
BRANCH 158 160
ATOM    160  C   THR d   1      -3.054  29.161 -35.257  0.00  0.00     0.243 C 
ATOM    161  O   THR d   1      -3.622  28.848 -34.211  0.00  0.00    -0.271 OA
ATOM    162  N   GLY d   1      -3.706  29.629 -36.317  0.00  0.00    -0.350 N 
ATOM    163  H99 GLY d   1      -3.204  29.812 -37.163  0.00  0.00     0.163 HD
BRANCH 162 164
ATOM    164  CA  GLY d   1      -5.136  29.879 -36.265  0.00  0.00     0.069 C 
ATOM    165 0H10 GLY d   1      -5.290  30.967 -36.222  0.00  0.00     0.078 H 
ATOM    166 1H10 GLY d   1      -5.529  29.416 -35.347  0.00  0.00     0.078 H 
BRANCH 164 167
ATOM    167  C   GLY d   1      -5.931  29.340 -37.439  0.00  0.00     0.235 C 
ATOM    168  O   GLY d   1      -5.376  29.025 -38.493  0.00  0.00    -0.272 OA
ATOM    169  N   GLY d   1      -7.242  29.231 -37.246  0.00  0.00    -0.351 N 
ATOM    170 2H10 GLY d   1      -7.616  29.442 -36.343  0.00  0.00     0.163 HD
BRANCH 169 171
ATOM    171  CA  GLY d   1      -8.148  28.817 -38.300  0.00  0.00     0.069 C 
ATOM    172 3H10 GLY d   1      -8.959  28.216 -37.863  0.00  0.00     0.078 H 
ATOM    173 4H10 GLY d   1      -7.596  28.210 -39.032  0.00  0.00     0.078 H 
BRANCH 171 174
ATOM    174  C   GLY d   1      -8.744  30.022 -39.002  0.00  0.00     0.236 C 
ATOM    175  O   GLY d   1      -9.424  30.840 -38.382  0.00  0.00    -0.272 OA
ATOM    176  N   VAL d   1      -8.486  30.126 -40.301  0.00  0.00    -0.346 N 
ATOM    177 5H10 VAL d   1      -7.998  29.381 -40.755  0.00  0.00     0.163 HD
BRANCH 176 178
ATOM    178  CA  VAL d   1      -8.888  31.287 -41.091  0.00  0.00     0.092 C 
ATOM    179 6H10 VAL d   1      -8.487  32.185 -40.597  0.00  0.00     0.088 H 
BRANCH 178 180
ATOM    180  C   VAL d   1     -10.410  31.437 -41.178  0.00  0.00     0.241 C 
ATOM    181  O   VAL d   1     -10.931  32.555 -41.197  0.00  0.00    -0.271 OA
ATOM    182  N   LYS d   1     -11.118  30.310 -41.200  0.00  0.00    -0.345 N 
ATOM    183 4H11 LYS d   1     -10.639  29.438 -41.102  0.00  0.00     0.163 HD
BRANCH 182 184
ATOM    184  CA  LYS d   1     -12.573  30.302 -41.363  0.00  0.00     0.096 C 
ATOM    185 5H11 LYS d   1     -12.800  30.728 -42.352  0.00  0.00     0.089 H 
BRANCH 184 186
ATOM    186  C   LYS d   1     -13.307  31.140 -40.313  0.00  0.00     0.196 C 
ATOM    187  O   LYS d   1     -12.735  31.531 -39.295  0.00  0.00    -0.646 OA
ATOM    188  OXT LYS d   1     -14.491  31.448 -40.456  0.00  0.00    -0.646 OA
ENDBRANCH 184 186
BRANCH 184 189
ATOM    189  CB  LYS d   1     -13.100  28.864 -41.322  0.00  0.00    -0.037 C 
ATOM    190 6H11 LYS d   1     -14.174  28.884 -41.558  0.00  0.00     0.036 H 
ATOM    191 7H11 LYS d   1     -12.956  28.474 -40.304  0.00  0.00     0.036 H 
BRANCH 189 192
ATOM    192  CG  LYS d   1     -12.417  27.916 -42.296  0.00  0.00    -0.061 C 
ATOM    193 8H11 LYS d   1     -12.886  26.924 -42.217  0.00  0.00     0.033 H 
ATOM    194 9H11 LYS d   1     -11.352  27.840 -42.033  0.00  0.00     0.033 H 
BRANCH 192 195
ATOM    195  CD  LYS d   1     -12.537  28.406 -43.730  0.00  0.00    -0.043 C 
ATOM    196 0H12 LYS d   1     -11.728  29.123 -43.932  0.00  0.00     0.035 H 
ATOM    197 1H12 LYS d   1     -13.509  28.904 -43.858  0.00  0.00     0.035 H 
BRANCH 195 198
ATOM    198  CE  LYS d   1     -12.436  27.253 -44.718  0.00  0.00     0.080 C 
ATOM    199 2H12 LYS d   1     -12.648  27.633 -45.728  0.00  0.00     0.075 H 
ATOM    200 3H12 LYS d   1     -13.181  26.490 -44.449  0.00  0.00     0.075 H 
BRANCH 198 201
ATOM    201  NZ  LYS d   1     -11.086  26.626 -44.716  0.00  0.00    -0.079 N 
ATOM    202 4H12 LYS d   1     -11.066  25.870 -45.383  0.00  0.00     0.274 HD
ATOM    203 5H12 LYS d   1     -10.883  26.268 -43.796  0.00  0.00     0.274 HD
ATOM    204 6H12 LYS d   1     -10.395  27.315 -44.968  0.00  0.00     0.274 HD
ENDBRANCH 198 201
ENDBRANCH 195 198
ENDBRANCH 192 195
ENDBRANCH 189 192
ENDBRANCH 184 189
ENDBRANCH 182 184
ENDBRANCH 178 180
BRANCH 178 205
ATOM    205  CB  VAL d   1      -8.286  31.205 -42.516  0.00  0.00    -0.033 C 
ATOM    206 7H10 VAL d   1      -8.475  30.195 -42.907  0.00  0.00     0.042 H 
BRANCH 205 207
ATOM    207  CG1 VAL d   1      -8.945  32.202 -43.460  0.00  0.00    -0.071 C 
ATOM    208 8H10 VAL d   1      -8.493  32.115 -44.459  0.00  0.00     0.028 H 
ATOM    209 9H10 VAL d   1      -8.796  33.223 -43.078  0.00  0.00     0.028 H 
ATOM    210 0H11 VAL d   1     -10.022  31.989 -43.525  0.00  0.00     0.028 H 
ENDBRANCH 205 207
BRANCH 205 211
ATOM    211  CG2 VAL d   1      -6.780  31.418 -42.465  0.00  0.00    -0.071 C 
ATOM    212 1H11 VAL d   1      -6.329  30.687 -41.778  0.00  0.00     0.028 H 
ATOM    213 2H11 VAL d   1      -6.566  32.436 -42.109  0.00  0.00     0.028 H 
ATOM    214 3H11 VAL d   1      -6.356  31.285 -43.471  0.00  0.00     0.028 H 
ENDBRANCH 205 211
ENDBRANCH 178 205
ENDBRANCH 176 178
ENDBRANCH 171 174
ENDBRANCH 169 171
ENDBRANCH 164 167
ENDBRANCH 162 164
ENDBRANCH 158 160
BRANCH 158 215
ATOM    215  CB  THR d   1      -1.220  27.782 -36.265  0.00  0.00     0.060 C 
ATOM    216  H94 THR d   1      -1.728  27.894 -37.234  0.00  0.00     0.086 H 
BRANCH 215 217
ATOM    217  OG1 THR d   1      -1.689  26.591 -35.622  0.00  0.00    -0.393 OA
ATOM    218  H95 THR d   1      -1.260  26.498 -34.779  0.00  0.00     0.210 HD
ENDBRANCH 215 217
BRANCH 215 219
ATOM    219  CG2 THR d   1       0.280  27.671 -36.502  0.00  0.00    -0.050 C 
ATOM    220  H96 THR d   1       0.488  26.792 -37.130  0.00  0.00     0.031 H 
ATOM    221  H97 THR d   1       0.797  27.563 -35.537  0.00  0.00     0.031 H 
ATOM    222  H98 THR d   1       0.639  28.578 -37.011  0.00  0.00     0.031 H 
ENDBRANCH 215 219
ENDBRANCH 158 215
ENDBRANCH 156 158
ENDBRANCH 152 154
BRANCH 152 223
ATOM    223  CB  ALA d   1       1.735  30.358 -31.955  0.00  0.00    -0.049 C 
ATOM    224  H89 ALA d   1       1.538  31.389 -32.285  0.00  0.00     0.030 H 
ATOM    225  H90 ALA d   1       2.597  29.955 -32.507  0.00  0.00     0.030 H 
ATOM    226  H91 ALA d   1       1.955  30.353 -30.877  0.00  0.00     0.030 H 
ENDBRANCH 152 223
ENDBRANCH 150 152
ENDBRANCH 137 148
ENDBRANCH 132 134
BRANCH 132 227
ATOM    227  CB  ALA d   1       1.767  24.223 -36.042  0.00  0.00    -0.049 C 
ATOM    228  H77 ALA d   1       2.738  24.671 -35.785  0.00  0.00     0.030 H 
ATOM    229  H78 ALA d   1       1.117  24.989 -36.490  0.00  0.00     0.030 H 
ATOM    230  H79 ALA d   1       1.919  23.405 -36.761  0.00  0.00     0.030 H 
ENDBRANCH 132 227
ENDBRANCH 130 132
ENDBRANCH 126 128
BRANCH 126 231
ATOM    231  CB  SER d   1      -2.873  22.654 -34.660  0.00  0.00     0.044 C 
ATOM    232  H72 SER d   1      -3.893  22.386 -34.972  0.00  0.00     0.077 H 
ATOM    233  H73 SER d   1      -2.529  23.523 -35.239  0.00  0.00     0.077 H 
BRANCH 231 234
ATOM    234  OG  SER d   1      -2.881  22.988 -33.281  0.00  0.00    -0.398 OA
ATOM    235  H74 SER d   1      -3.181  22.241 -32.777  0.00  0.00     0.209 HD
ENDBRANCH 231 234
ENDBRANCH 126 231
ENDBRANCH 124 126
ENDBRANCH   1 122
TORSDOF 69
