REMARK  8 active torsions:
REMARK  status: ('A' for Active; 'I' for Inactive)
REMARK    1  A    between atoms: C_2  and  C1_4 
REMARK    2  A    between atoms: C1_4  and  N_5 
REMARK    3  A    between atoms: C1_4  and  C2_6 
REMARK    4  A    between atoms: C2_6  and  S_7 
REMARK    5  A    between atoms: S_7  and  C3_8 
REMARK    6  A    between atoms: C3_8  and  C18_9 
REMARK    7  A    between atoms: C21_12  and  O1_13 
REMARK    8  A    between atoms: O1_13  and  C22_14 
ROOT
ATOM      1  C3  5C5 d   1      22.900  -5.702 -12.223  0.00  0.00     0.090 C 
ATOM      2  C17 5C5 d   1      23.478  -5.808 -13.601  0.00  0.00    -0.024 A 
ATOM      3  C16 5C5 d   1      24.544  -6.690 -13.819  0.00  0.00    -0.074 A 
ATOM      4  C15 5C5 d   1      25.082  -6.870 -15.080  0.00  0.00    -0.082 A 
ATOM      5  C14 5C5 d   1      24.571  -6.181 -16.171  0.00  0.00    -0.082 A 
ATOM      6  C13 5C5 d   1      23.498  -5.302 -16.021  0.00  0.00    -0.076 A 
ATOM      7  C12 5C5 d   1      22.911  -5.094 -14.783  0.00  0.00    -0.049 A 
ATOM      8  C11 5C5 d   1      21.799  -4.081 -14.752  0.00  0.00    -0.037 C 
ATOM      9  C10 5C5 d   1      20.579  -4.348 -13.883  0.00  0.00    -0.037 C 
ATOM     10  C9  5C5 d   1      20.470  -5.706 -13.258  0.00  0.00    -0.049 A 
ATOM     11  C4  5C5 d   1      21.552  -6.340 -12.431  0.00  0.00    -0.024 A 
ATOM     12  C8  5C5 d   1      19.256  -6.349 -13.439  0.00  0.00    -0.076 A 
ATOM     13  C7  5C5 d   1      19.045  -7.587 -12.875  0.00  0.00    -0.082 A 
ATOM     14  C6  5C5 d   1      20.039  -8.204 -12.124  0.00  0.00    -0.082 A 
ATOM     15  C5  5C5 d   1      21.283  -7.605 -11.908  0.00  0.00    -0.074 A 
ATOM     16  H14 5C5 d   1      24.956  -7.243 -12.982  0.00  0.00     0.084 H 
ATOM     17  H15 5C5 d   1      25.910  -7.556 -15.218  0.00  0.00     0.083 H 
ATOM     18  H16 5C5 d   1      25.011  -6.327 -17.151  0.00  0.00     0.083 H 
ATOM     19  H17 5C5 d   1      23.117  -4.773 -16.887  0.00  0.00     0.084 H 
ATOM     20  H18 5C5 d   1      21.439  -3.966 -15.785  0.00  0.00     0.040 H 
ATOM     21  H19 5C5 d   1      22.237  -3.132 -14.409  0.00  0.00     0.040 H 
ATOM     22  H20 5C5 d   1      19.687  -4.199 -14.509  0.00  0.00     0.040 H 
ATOM     23  H21 5C5 d   1      20.584  -3.608 -13.069  0.00  0.00     0.040 H 
ATOM     24  H22 5C5 d   1      18.474  -5.878 -14.024  0.00  0.00     0.084 H 
ATOM     25  H23 5C5 d   1      18.093  -8.086 -13.018  0.00  0.00     0.083 H 
ATOM     26  H24 5C5 d   1      19.843  -9.179 -11.693  0.00  0.00     0.083 H 
ATOM     27  H25 5C5 d   1      22.041  -8.125 -11.333  0.00  0.00     0.084 H 
ENDROOT
BRANCH   1  28
ATOM     28  S   5C5 d   1      23.981  -6.584 -11.054  0.00  0.00    -0.141 SA
BRANCH  28  29
ATOM     29  C2  5C5 d   1      25.359  -5.611 -10.589  0.00  0.00     0.014 C 
ATOM     30  H5  5C5 d   1      25.882  -5.261 -11.491  0.00  0.00     0.052 H 
ATOM     31  H6  5C5 d   1      25.016  -4.745 -10.004  0.00  0.00     0.052 H 
BRANCH  29  32
ATOM     32  C1  5C5 d   1      26.296  -6.441  -9.755  0.00  0.00     0.190 C 
ATOM     33  H1  5C5 d   1      26.323  -7.476 -10.127  0.00  0.00     0.102 H 
BRANCH  32  34
ATOM     34  C   5C5 d   1      27.646  -5.815  -9.886  0.00  0.00     0.205 C 
ATOM     35  O2  5C5 d   1      28.224  -5.798 -10.973  0.00  0.00    -0.646 OA
ATOM     36  O   5C5 d   1      28.229  -5.269  -8.830  0.00  0.00    -0.646 OA
ENDBRANCH  32  34
BRANCH  32  37
ATOM     37  N   5C5 d   1      25.851  -6.438  -8.362  0.00  0.00    -0.065 N 
ATOM     38  H2  5C5 d   1      24.940  -6.864  -8.300  0.00  0.00     0.275 HD
ATOM     39  H3  5C5 d   1      25.801  -5.489  -8.027  0.00  0.00     0.275 HD
ATOM     40  H4  5C5 d   1      26.505  -6.959  -7.799  0.00  0.00     0.275 HD
ENDBRANCH  32  37
ENDBRANCH  29  32
ENDBRANCH  28  29
ENDBRANCH   1  28
BRANCH   1  41
ATOM     41  C18 5C5 d   1      22.824  -4.350 -11.577  0.00  0.00    -0.030 A 
ATOM     42  C24 5C5 d   1      23.679  -3.322 -11.940  0.00  0.00    -0.072 A 
ATOM     43  C23 5C5 d   1      23.630  -2.119 -11.261  0.00  0.00    -0.050 A 
ATOM     44  H7  5C5 d   1      24.383  -3.460 -12.753  0.00  0.00     0.084 H 
ATOM     45  C21 5C5 d   1      22.769  -1.933 -10.187  0.00  0.00     0.068 A 
ATOM     46  H8  5C5 d   1      24.275  -1.306 -11.572  0.00  0.00     0.087 H 
ATOM     47  C20 5C5 d   1      21.921  -2.954  -9.795  0.00  0.00    -0.050 A 
ATOM     48  C19 5C5 d   1      21.955  -4.169 -10.484  0.00  0.00    -0.072 A 
ATOM     49  H12 5C5 d   1      21.239  -2.813  -8.964  0.00  0.00     0.087 H 
ATOM     50  H13 5C5 d   1      21.306  -4.980 -10.174  0.00  0.00     0.084 H 
BRANCH  45  51
ATOM     51  O1  5C5 d   1      22.707  -0.754  -9.518  0.00  0.00    -0.356 OA
BRANCH  51  52
ATOM     52  C22 5C5 d   1      23.828   0.105  -9.360  0.00  0.00     0.010 C 
ATOM     53  H9  5C5 d   1      23.530   0.994  -8.785  0.00  0.00     0.066 H 
ATOM     54  H10 5C5 d   1      24.195   0.415 -10.350  0.00  0.00     0.066 H 
ATOM     55  H11 5C5 d   1      24.626  -0.429  -8.823  0.00  0.00     0.066 H 
ENDBRANCH  51  52
ENDBRANCH  45  51
ENDBRANCH   1  41
TORSDOF 8
