REMARK  10 active torsions:
REMARK  status: ('A' for Active; 'I' for Inactive)
REMARK    1  A    between atoms: C1_2  and  C2_4 
REMARK    2  A    between atoms: C2_4  and  N_5 
REMARK    3  A    between atoms: C2_4  and  C3_6 
REMARK    4  A    between atoms: C3_6  and  S_7 
REMARK    5  A    between atoms: S_7  and  C4_8 
REMARK    6  A    between atoms: C4_8  and  C12_9 
REMARK    7  A    between atoms: C4_8  and  C18_15 
REMARK    8  A    between atoms: C4_8  and  C5_21 
REMARK    9  A    between atoms: C8_24  and  O3_25 
REMARK   10  A    between atoms: O3_25  and  C9_26 
ROOT
ATOM      1  C4  4C5 d   1      21.999  -6.020 -12.181  0.00  0.00     0.089 C 
ENDROOT
BRANCH   1   2
ATOM      2  S   4C5 d   1      22.940  -6.937 -10.921  0.00  0.00    -0.141 SA
BRANCH   2   3
ATOM      3  C3  4C5 d   1      24.633  -6.320 -10.832  0.00  0.00     0.014 C 
ATOM      4  H5  4C5 d   1      25.141  -6.590 -11.770  0.00  0.00     0.052 H 
ATOM      5  H6  4C5 d   1      24.589  -5.225 -10.741  0.00  0.00     0.052 H 
BRANCH   3   6
ATOM      6  C2  4C5 d   1      25.468  -6.852  -9.679  0.00  0.00     0.190 C 
ATOM      7  H1  4C5 d   1      25.559  -7.947  -9.741  0.00  0.00     0.102 H 
BRANCH   6   8
ATOM      8  C1  4C5 d   1      26.847  -6.228  -9.654  0.00  0.00     0.205 C 
ATOM      9  O1  4C5 d   1      27.222  -5.438  -8.789  0.00  0.00    -0.646 OA
ATOM     10  O2  4C5 d   1      27.714  -6.514 -10.618  0.00  0.00    -0.646 OA
ENDBRANCH   6   8
BRANCH   6  11
ATOM     11  N   4C5 d   1      24.751  -6.462  -8.507  0.00  0.00    -0.065 N 
ATOM     12  H2  4C5 d   1      23.832  -6.877  -8.522  0.00  0.00     0.275 HD
ATOM     13  H3  4C5 d   1      24.666  -5.458  -8.484  0.00  0.00     0.275 HD
ATOM     14  H4  4C5 d   1      25.248  -6.776  -7.689  0.00  0.00     0.275 HD
ENDBRANCH   6  11
ENDBRANCH   3   6
ENDBRANCH   2   3
ENDBRANCH   1   2
BRANCH   1  15
ATOM     15  C12 4C5 d   1      20.598  -6.568 -12.398  0.00  0.00    -0.030 A 
ATOM     16  C17 4C5 d   1      19.540  -5.717 -12.823  0.00  0.00    -0.075 A 
ATOM     17  C16 4C5 d   1      18.255  -6.242 -13.008  0.00  0.00    -0.082 A 
ATOM     18  H7  4C5 d   1      19.728  -4.665 -13.003  0.00  0.00     0.084 H 
ATOM     19  C15 4C5 d   1      18.006  -7.609 -12.780  0.00  0.00    -0.083 A 
ATOM     20  H8  4C5 d   1      17.448  -5.593 -13.328  0.00  0.00     0.083 H 
ATOM     21  C14 4C5 d   1      19.036  -8.455 -12.362  0.00  0.00    -0.082 A 
ATOM     22  H9  4C5 d   1      17.009  -8.007 -12.930  0.00  0.00     0.083 H 
ATOM     23  C13 4C5 d   1      20.321  -7.937 -12.175  0.00  0.00    -0.075 A 
ATOM     24  H10 4C5 d   1      18.840  -9.506 -12.184  0.00  0.00     0.083 H 
ATOM     25  H11 4C5 d   1      21.119  -8.596 -11.853  0.00  0.00     0.084 H 
ENDBRANCH   1  15
BRANCH   1  26
ATOM     26  C18 4C5 d   1      22.645  -6.091 -13.577  0.00  0.00    -0.030 A 
ATOM     27  C23 4C5 d   1      23.653  -7.027 -13.917  0.00  0.00    -0.075 A 
ATOM     28  C22 4C5 d   1      24.241  -7.081 -15.182  0.00  0.00    -0.082 A 
ATOM     29  H12 4C5 d   1      23.982  -7.732 -13.162  0.00  0.00     0.084 H 
ATOM     30  C21 4C5 d   1      23.818  -6.223 -16.179  0.00  0.00    -0.083 A 
ATOM     31  H13 4C5 d   1      25.030  -7.797 -15.382  0.00  0.00     0.083 H 
ATOM     32  C20 4C5 d   1      22.815  -5.305 -15.874  0.00  0.00    -0.082 A 
ATOM     33  H14 4C5 d   1      24.254  -6.263 -17.171  0.00  0.00     0.083 H 
ATOM     34  C19 4C5 d   1      22.231  -5.244 -14.600  0.00  0.00    -0.075 A 
ATOM     35  H15 4C5 d   1      22.477  -4.619 -16.642  0.00  0.00     0.083 H 
ATOM     36  H16 4C5 d   1      21.443  -4.524 -14.409  0.00  0.00     0.084 H 
ENDBRANCH   1  26
BRANCH   1  37
ATOM     37  C5  4C5 d   1      21.988  -4.655 -11.513  0.00  0.00    -0.030 A 
ATOM     38  C11 4C5 d   1      22.883  -3.627 -11.857  0.00  0.00    -0.072 A 
ATOM     39  C10 4C5 d   1      22.841  -2.407 -11.158  0.00  0.00    -0.050 A 
ATOM     40  H17 4C5 d   1      23.601  -3.773 -12.656  0.00  0.00     0.084 H 
ATOM     41  C8  4C5 d   1      21.934  -2.181 -10.091  0.00  0.00     0.068 A 
ATOM     42  H18 4C5 d   1      23.523  -1.615 -11.444  0.00  0.00     0.087 H 
ATOM     43  C7  4C5 d   1      21.041  -3.195  -9.758  0.00  0.00    -0.050 A 
ATOM     44  C6  4C5 d   1      21.082  -4.413 -10.442  0.00  0.00    -0.072 A 
ATOM     45  H22 4C5 d   1      20.314  -3.040  -8.969  0.00  0.00     0.087 H 
ATOM     46  H23 4C5 d   1      20.399  -5.202 -10.146  0.00  0.00     0.084 H 
BRANCH  41  47
ATOM     47  O3  4C5 d   1      21.867  -1.006  -9.371  0.00  0.00    -0.356 OA
BRANCH  47  48
ATOM     48  C9  4C5 d   1      22.888  -0.015  -9.498  0.00  0.00     0.010 C 
ATOM     49  H19 4C5 d   1      22.652   0.840  -8.847  0.00  0.00     0.066 H 
ATOM     50  H20 4C5 d   1      22.942   0.324 -10.543  0.00  0.00     0.066 H 
ATOM     51  H21 4C5 d   1      23.856  -0.446  -9.202  0.00  0.00     0.066 H 
ENDBRANCH  47  48
ENDBRANCH  41  47
ENDBRANCH   1  37
TORSDOF 10
