REMARK  27 active torsions:
REMARK  status: ('A' for Active; 'I' for Inactive)
REMARK    1  A    between atoms: C1_1  and  C2_4 
REMARK    2  A    between atoms: C3_6  and  C1_1 
REMARK    3  A    between atoms: C9_13  and  N1_2 
REMARK       I    between atoms: N1_2  and  C10_14 
REMARK       I    between atoms: C2_4  and  N_15 
REMARK       I    between atoms: C10_14  and  N2_5 
REMARK       I    between atoms: C10_14  and  N3_7 
REMARK    4  A    between atoms: C7_11  and  C9_13 
REMARK    5  A    between atoms: N_15  and  CA_16 
REMARK    6  A    between atoms: CA_16  and  C_17 
REMARK    7  A    between atoms: CA_16  and  CB_19 
REMARK       I    between atoms: C_17  and  N_26 
REMARK    8  A    between atoms: CB_19  and  CG_20 
REMARK    9  A    between atoms: CG_20  and  CD_21 
REMARK   10  A    between atoms: CD_21  and  NE_22 
REMARK       I    between atoms: NE_22  and  CZ_23 
REMARK       I    between atoms: CZ_23  and  NH1_24 
REMARK       I    between atoms: CZ_23  and  NH2_25 
REMARK   11  A    between atoms: N_26  and  CA_27 
REMARK   12  A    between atoms: CA_27  and  C_28 
REMARK   13  A    between atoms: CA_27  and  CB_30 
REMARK       I    between atoms: C_28  and  N_37 
REMARK   14  A    between atoms: CB_30  and  CG_31 
REMARK   15  A    between atoms: CG_31  and  CD_32 
REMARK   16  A    between atoms: CD_32  and  NE_33 
REMARK       I    between atoms: NE_33  and  CZ_34 
REMARK       I    between atoms: CZ_34  and  NH1_35 
REMARK       I    between atoms: CZ_34  and  NH2_36 
REMARK   17  A    between atoms: N_37  and  CA_38 
REMARK   18  A    between atoms: CA_38  and  C_39 
REMARK   19  A    between atoms: CA_38  and  CB_41 
REMARK       I    between atoms: C_39  and  N23_48 
REMARK   20  A    between atoms: CB_41  and  CG_42 
REMARK   21  A    between atoms: CG_42  and  CD_43 
REMARK   22  A    between atoms: CD_43  and  NE_44 
REMARK       I    between atoms: NE_44  and  CZ_45 
REMARK       I    between atoms: CZ_45  and  NH1_46 
REMARK       I    between atoms: CZ_45  and  NH2_47 
REMARK   23  A    between atoms: N23_48  and  C16_49 
REMARK   24  A    between atoms: C16_49  and  C17_50 
REMARK   25  A    between atoms: C24_53  and  C27_54 
REMARK   26  A    between atoms: C27_54  and  N35_55 
REMARK   27  A    between atoms: C27_54  and  N34_56 
ROOT
ATOM      1  CA  ARG d   1      12.507  21.134  40.373  0.00  0.00     0.089 C 
ATOM      2  H28 ARG d   1      11.460  21.377  40.604  0.00  0.00     0.087 H 
ENDROOT
BRANCH   1   3
ATOM      3  N   ARG d   1      13.320  22.356  40.470  0.00  0.00    -0.346 N 
ATOM      4  C   ARG d   1      12.775  23.569  40.649  0.00  0.00     0.241 C 
ATOM      5  O   ARG d   1      11.565  23.777  40.735  0.00  0.00    -0.271 OA
ATOM      6  H27 ARG d   1      14.315  22.280  40.400  0.00  0.00     0.163 HD
BRANCH   4   7
ATOM      7  CA  ARG d   1      13.784  24.713  40.756  0.00  0.00     0.089 C 
ATOM      8  H15 ARG d   1      13.581  25.295  41.667  0.00  0.00     0.087 H 
BRANCH   7   9
ATOM      9  N   ARG d   1      15.139  24.145  40.827  0.00  0.00    -0.348 N 
ATOM     10  C2  2UE d   1      15.755  23.905  41.994  0.00  0.00     0.222 C 
ATOM     11  O1  2UE d   1      15.261  24.138  43.096  0.00  0.00    -0.273 OA
ATOM     12  H14 ARG d   1      15.617  23.930  39.976  0.00  0.00     0.163 HD
BRANCH  10  13
ATOM     13  C1  2UE d   1      17.159  23.306  41.866  0.00  0.00     0.033 C 
ATOM     14  H1  2UE d   1      17.842  24.066  41.459  0.00  0.00     0.054 H 
ATOM     15  H2  2UE d   1      17.124  22.442  41.186  0.00  0.00     0.054 H 
BRANCH  13  16
ATOM     16  C3  2UE d   1      17.623  22.892  43.112  0.00  0.00    -0.049 A 
ATOM     17  C4  2UE d   1      18.381  23.760  43.889  0.00  0.00    -0.076 A 
ATOM     18  C6  2UE d   1      18.850  23.352  45.131  0.00  0.00    -0.075 A 
ATOM     19  H8  2UE d   1      18.606  24.756  43.525  0.00  0.00     0.084 H 
ATOM     20  C7  2UE d   1      18.562  22.076  45.601  0.00  0.00    -0.040 A 
ATOM     21  H10 2UE d   1      19.442  24.030  45.735  0.00  0.00     0.084 H 
ATOM     22  C8  2UE d   1      17.805  21.205  44.823  0.00  0.00    -0.075 A 
ATOM     23  C5  2UE d   1      17.337  21.613  43.578  0.00  0.00    -0.076 A 
ATOM     24  H11 2UE d   1      17.580  20.209  45.187  0.00  0.00     0.084 H 
ATOM     25  H9  2UE d   1      16.749  20.934  42.971  0.00  0.00     0.084 H 
BRANCH  20  26
ATOM     26  C9  2UE d   1      19.036  21.675  46.846  0.00  0.00     0.033 C 
ATOM     27  H12 2UE d   1      19.885  20.989  46.708  0.00  0.00     0.072 H 
ATOM     28  H13 2UE d   1      19.366  22.559  47.411  0.00  0.00     0.072 H 
BRANCH  26  29
ATOM     29  N1  2UE d   1      17.973  20.989  47.594  0.00  0.00    -0.223 N 
ATOM     30  C10 2UE d   1      17.787  21.115  48.916  0.00  0.00     0.665 C 
ATOM     31  N2  2UE d   1      18.597  21.904  49.635  0.00  0.00    -0.235 N 
ATOM     32  N3  2UE d   1      16.792  20.452  49.520  0.00  0.00    -0.235 N 
ATOM     33  H4  2UE d   1      18.454  22.000  50.650  0.00  0.00     0.174 HD
ATOM     34  H5  2UE d   1      19.363  22.414  49.172  0.00  0.00     0.174 HD
ATOM     35  H6  2UE d   1      16.169  19.845  48.969  0.00  0.00     0.174 HD
ATOM     36  H7  2UE d   1      16.651  20.549  50.536  0.00  0.00     0.174 HD
ATOM     37  H3  2UE d   1      17.332  20.375  47.071  0.00  0.00     0.178 HD
ENDBRANCH  26  29
ENDBRANCH  20  26
ENDBRANCH  13  16
ENDBRANCH  10  13
ENDBRANCH   7   9
BRANCH   7  38
ATOM     38  CB  ARG d   1      13.673  25.631  39.537  0.00  0.00    -0.036 C 
ATOM     39  H16 ARG d   1      14.351  26.488  39.661  0.00  0.00     0.036 H 
ATOM     40  H17 ARG d   1      12.638  25.992  39.443  0.00  0.00     0.036 H 
BRANCH  38  41
ATOM     41  CG  ARG d   1      14.058  24.855  38.277  0.00  0.00    -0.048 C 
ATOM     42  H18 ARG d   1      13.147  24.535  37.750  0.00  0.00     0.035 H 
ATOM     43  H19 ARG d   1      14.650  23.971  38.557  0.00  0.00     0.035 H 
BRANCH  41  44
ATOM     44  CD  ARG d   1      14.888  25.755  37.360  0.00  0.00     0.009 C 
ATOM     45  H20 ARG d   1      15.332  25.149  36.556  0.00  0.00     0.064 H 
ATOM     46  H21 ARG d   1      15.688  26.234  37.943  0.00  0.00     0.064 H 
BRANCH  44  47
ATOM     47  NE  ARG d   1      14.024  26.789  36.773  0.00  0.00    -0.227 N 
ATOM     48  CZ  ARG d   1      14.474  27.814  36.038  0.00  0.00     0.665 C 
ATOM     49  NH1 ARG d   1      15.786  27.944  35.801  0.00  0.00    -0.235 N 
ATOM     50  NH2 ARG d   1      13.612  28.710  35.541  0.00  0.00    -0.235 N 
ATOM     51  H23 ARG d   1      16.131  28.733  35.236  0.00  0.00     0.174 HD
ATOM     52  H24 ARG d   1      16.449  27.255  36.184  0.00  0.00     0.174 HD
ATOM     53  H25 ARG d   1      12.603  28.610  35.723  0.00  0.00     0.174 HD
ATOM     54  H26 ARG d   1      13.958  29.499  34.977  0.00  0.00     0.174 HD
ATOM     55  H22 ARG d   1      13.009  26.721  36.937  0.00  0.00     0.177 HD
ENDBRANCH  44  47
ENDBRANCH  41  44
ENDBRANCH  38  41
ENDBRANCH   7  38
ENDBRANCH   4   7
ENDBRANCH   1   3
BRANCH   1  56
ATOM     56  C   ARG d   1      13.023  20.113  41.387  0.00  0.00     0.241 C 
ATOM     57  O   ARG d   1      14.230  19.938  41.555  0.00  0.00    -0.271 OA
ATOM     58  N   ARG d   1      12.068  19.459  42.061  0.00  0.00    -0.346 N 
ATOM     59  H40 ARG d   1      11.109  19.660  41.860  0.00  0.00     0.163 HD
BRANCH  58  60
ATOM     60  CA  ARG d   1      12.385  18.455  43.088  0.00  0.00     0.089 C 
ATOM     61  H41 ARG d   1      13.418  18.605  43.436  0.00  0.00     0.087 H 
BRANCH  60  62
ATOM     62  C   ARG d   1      12.253  17.049  42.505  0.00  0.00     0.240 C 
ATOM     63  O   ARG d   1      11.970  16.093  43.223  0.00  0.00    -0.271 OA
ATOM     64  N23 00S d   1      12.457  16.963  41.184  0.00  0.00    -0.355 N 
ATOM     65  H53 00S d   1      12.670  17.795  40.672  0.00  0.00     0.162 HD
BRANCH  64  66
ATOM     66  C16 00S d   1      12.378  15.685  40.465  0.00  0.00     0.019 C 
ATOM     67  H54 00S d   1      12.042  15.860  39.432  0.00  0.00     0.071 H 
ATOM     68  H55 00S d   1      11.668  15.016  40.973  0.00  0.00     0.071 H 
BRANCH  66  69
ATOM     69  C17 00S d   1      13.641  15.109  40.456  0.00  0.00    -0.040 A 
ATOM     70  C22 00S d   1      14.766  15.921  40.375  0.00  0.00    -0.074 A 
ATOM     71  C21 00S d   1      16.034  15.351  40.369  0.00  0.00    -0.069 A 
ATOM     72  H56 00S d   1      14.655  16.998  40.317  0.00  0.00     0.084 H 
ATOM     73  C24 00S d   1      16.174  13.970  40.446  0.00  0.00     0.007 A 
ATOM     74  H57 00S d   1      16.913  15.983  40.304  0.00  0.00     0.085 H 
ATOM     75  C19 00S d   1      15.050  13.159  40.529  0.00  0.00    -0.069 A 
ATOM     76  C18 00S d   1      13.782  13.729  40.535  0.00  0.00    -0.074 A 
ATOM     77  H62 00S d   1      15.161  12.082  40.589  0.00  0.00     0.085 H 
ATOM     78  H63 00S d   1      12.904  13.097  40.601  0.00  0.00     0.084 H 
BRANCH  73  79
ATOM     79  C27 00S d   1      17.442  13.402  40.441  0.00  0.00     0.102 C 
BRANCH  79  80
ATOM     80  N35 00S d   1      18.496  14.210  40.377  0.00  0.00    -0.385 N 
ATOM     81  H58 00S d   1      19.448  13.816  40.372  0.00  0.00     0.157 HD
ATOM     82  H59 00S d   1      18.361  15.230  40.333  0.00  0.00     0.157 HD
ENDBRANCH  79  80
BRANCH  79  83
ATOM     83  N34 00S d   1      17.540  12.077  40.511  0.00  0.00    -0.385 N 
ATOM     84  H60 00S d   1      16.689  11.499  40.559  0.00  0.00     0.157 HD
ATOM     85  H61 00S d   1      18.467  11.629  40.518  0.00  0.00     0.157 HD
ENDBRANCH  79  83
ENDBRANCH  73  79
ENDBRANCH  66  69
ENDBRANCH  64  66
ENDBRANCH  60  62
BRANCH  60  86
ATOM     86  CB  ARG d   1      11.424  18.623  44.268  0.00  0.00    -0.036 C 
ATOM     87  H42 ARG d   1      11.537  17.776  44.961  0.00  0.00     0.036 H 
ATOM     88  H43 ARG d   1      10.388  18.660  43.900  0.00  0.00     0.036 H 
BRANCH  86  89
ATOM     89  CG  ARG d   1      11.760  19.927  44.991  0.00  0.00    -0.048 C 
ATOM     90  H44 ARG d   1      11.133  20.025  45.889  0.00  0.00     0.035 H 
ATOM     91  H45 ARG d   1      11.577  20.780  44.321  0.00  0.00     0.035 H 
BRANCH  89  92
ATOM     92  CD  ARG d   1      13.234  19.897  45.394  0.00  0.00     0.009 C 
ATOM     93  H46 ARG d   1      13.713  19.011  44.951  0.00  0.00     0.064 H 
ATOM     94  H47 ARG d   1      13.309  19.846  46.490  0.00  0.00     0.064 H 
BRANCH  92  95
ATOM     95  NE  ARG d   1      13.918  21.106  44.918  0.00  0.00    -0.227 N 
ATOM     96  CZ  ARG d   1      14.353  22.081  45.726  0.00  0.00     0.665 C 
ATOM     97  NH1 ARG d   1      14.976  23.150  45.213  0.00  0.00    -0.235 N 
ATOM     98  NH2 ARG d   1      14.162  21.989  47.049  0.00  0.00    -0.235 N 
ATOM     99  H49 ARG d   1      15.310  23.899  45.836  0.00  0.00     0.174 HD
ATOM    100  H50 ARG d   1      15.121  23.223  44.196  0.00  0.00     0.174 HD
ATOM    101  H51 ARG d   1      13.683  21.167  47.444  0.00  0.00     0.174 HD
ATOM    102  H52 ARG d   1      14.494  22.740  47.671  0.00  0.00     0.174 HD
ATOM    103  H48 ARG d   1      14.072  21.210  43.905  0.00  0.00     0.177 HD
ENDBRANCH  92  95
ENDBRANCH  89  92
ENDBRANCH  86  89
ENDBRANCH  60  86
ENDBRANCH  58  60
ENDBRANCH   1  56
BRANCH   1 104
ATOM    104  CB  ARG d   1      12.582  20.554  38.959  0.00  0.00    -0.036 C 
ATOM    105  H29 ARG d   1      12.548  19.456  39.008  0.00  0.00     0.036 H 
ATOM    106  H30 ARG d   1      13.520  20.871  38.479  0.00  0.00     0.036 H 
BRANCH 104 107
ATOM    107  CG  ARG d   1      11.391  21.070  38.151  0.00  0.00    -0.048 C 
ATOM    108  H31 ARG d   1      10.901  21.885  38.703  0.00  0.00     0.035 H 
ATOM    109  H32 ARG d   1      10.674  20.251  37.994  0.00  0.00     0.035 H 
BRANCH 107 110
ATOM    110  CD  ARG d   1      11.870  21.591  36.797  0.00  0.00     0.009 C 
ATOM    111  H33 ARG d   1      12.294  20.762  36.211  0.00  0.00     0.064 H 
ATOM    112  H34 ARG d   1      12.638  22.363  36.949  0.00  0.00     0.064 H 
BRANCH 110 113
ATOM    113  NE  ARG d   1      10.725  22.168  36.079  0.00  0.00    -0.227 N 
ATOM    114  CZ  ARG d   1      10.298  21.744  34.882  0.00  0.00     0.665 C 
ATOM    115  NH1 ARG d   1       9.241  22.329  34.303  0.00  0.00    -0.235 N 
ATOM    116  NH2 ARG d   1      10.930  20.737  34.264  0.00  0.00    -0.235 N 
ATOM    117  H36 ARG d   1       8.912  22.003  33.383  0.00  0.00     0.174 HD
ATOM    118  H37 ARG d   1       8.757  23.104  34.778  0.00  0.00     0.174 HD
ATOM    119  H38 ARG d   1      11.743  20.288  34.710  0.00  0.00     0.174 HD
ATOM    120  H39 ARG d   1      10.603  20.412  33.343  0.00  0.00     0.174 HD
ATOM    121  H35 ARG d   1      10.219  22.947  36.524  0.00  0.00     0.177 HD
ENDBRANCH 110 113
ENDBRANCH 107 110
ENDBRANCH 104 107
ENDBRANCH   1 104
TORSDOF 27
