REMARK WARNING: 32 MAX_TORS EXCEEDED!!!
REMARK  62 active torsions:
REMARK  status: ('A' for Active; 'I' for Inactive)
REMARK    1  A    between atoms: N_1  and  CA_2 
REMARK    2  A    between atoms: CA_2  and  C_3 
REMARK    3  A    between atoms: CA_2  and  CB_5 
REMARK       I    between atoms: C_3  and  N_11 
REMARK    4  A    between atoms: CB_5  and  CG_6 
REMARK    5  A    between atoms: N_11  and  CA_12 
REMARK    6  A    between atoms: CA_12  and  C_13 
REMARK    7  A    between atoms: CA_12  and  CB_15 
REMARK       I    between atoms: C_13  and  N_19 
REMARK    8  A    between atoms: CB_15  and  CG1_16 
REMARK    9  A    between atoms: CB_15  and  CG2_17 
REMARK   10  A    between atoms: CG1_16  and  CD1_18 
REMARK   11  A    between atoms: N_19  and  CA_20 
REMARK   12  A    between atoms: CA_20  and  C_21 
REMARK   13  A    between atoms: CA_20  and  CB_23 
REMARK       I    between atoms: C_21  and  N_30 
REMARK   14  A    between atoms: CB_23  and  CG_24 
REMARK   15  A    between atoms: CG_24  and  CD_25 
REMARK   16  A    between atoms: CD_25  and  NE_26 
REMARK       I    between atoms: NE_26  and  CZ_27 
REMARK       I    between atoms: CZ_27  and  NH1_28 
REMARK       I    between atoms: CZ_27  and  NH2_29 
REMARK   17  A    between atoms: N_30  and  CA_31 
REMARK   18  A    between atoms: CA_31  and  C_32 
REMARK       I    between atoms: C_32  and  N_34 
REMARK   19  A    between atoms: N_34  and  CA_35 
REMARK   20  A    between atoms: CA_35  and  C_36 
REMARK   21  A    between atoms: CA_35  and  CB_38 
REMARK       I    between atoms: C_36  and  N_40 
REMARK   22  A    between atoms: CB_38  and  OG_39 
REMARK   23  A    between atoms: N_40  and  CA_41 
REMARK   24  A    between atoms: CA_41  and  C_42 
REMARK   25  A    between atoms: CA_41  and  CB_44 
REMARK       I    between atoms: C_42  and  N_48 
REMARK   26  A    between atoms: CB_44  and  CG1_45 
REMARK   27  A    between atoms: CB_44  and  CG2_46 
REMARK   28  A    between atoms: CG1_45  and  CD1_47 
REMARK   29  A    between atoms: N_48  and  CA_49 
REMARK   30  A    between atoms: CA_49  and  C_50 
REMARK   31  A    between atoms: CA_49  and  CB_52 
REMARK       I    between atoms: C_50  and  N_55 
REMARK   32  A    between atoms: CB_52  and  OG1_53 
REMARK   33  A    between atoms: CB_52  and  CG2_54 
REMARK   34  A    between atoms: N_55  and  CA_56 
REMARK   35  A    between atoms: CA_56  and  C_57 
REMARK   36  A    between atoms: CA_56  and  CB_59 
REMARK       I    between atoms: C_57  and  N_64 
REMARK   37  A    between atoms: CB_59  and  CG_60 
REMARK   38  A    between atoms: CG_60  and  CD_61 
REMARK       I    between atoms: CD_61  and  NE2_63 
REMARK   39  A    between atoms: N_64  and  CA_65 
REMARK   40  A    between atoms: CA_65  and  C_66 
REMARK       I    between atoms: C_66  and  N_68 
REMARK   41  A    between atoms: N_68  and  CA_69 
REMARK   42  A    between atoms: CA_69  and  C_70 
REMARK   43  A    between atoms: CA_69  and  CB_72 
REMARK       I    between atoms: C_70  and  N_76 
REMARK   44  A    between atoms: CB_72  and  CG1_73 
REMARK   45  A    between atoms: CB_72  and  CG2_74 
REMARK   46  A    between atoms: CG1_73  and  CD1_75 
REMARK   47  A    between atoms: CA_77  and  C_78 
REMARK       I    between atoms: C_78  and  N_83 
REMARK   48  A    between atoms: N_83  and  CA_84 
REMARK   49  A    between atoms: CA_84  and  C_85 
REMARK   50  A    between atoms: CA_84  and  CB_87 
REMARK       I    between atoms: C_85  and  N_94 
REMARK   51  A    between atoms: CB_87  and  CG_88 
REMARK   52  A    between atoms: CG_88  and  CD_89 
REMARK   53  A    between atoms: CD_89  and  NE_90 
REMARK       I    between atoms: NE_90  and  CZ_91 
REMARK       I    between atoms: CZ_91  and  NH1_92 
REMARK   54  A    between atoms: N_94  and  CA_95 
REMARK   55  A    between atoms: CA_95  and  C_96 
REMARK   56  A    between atoms: CA_95  and  CB_98 
REMARK       I    between atoms: C_96  and  N_100 
REMARK   57  A    between atoms: CB_98  and  OG_99 
REMARK   58  A    between atoms: N_100  and  CA_101 
REMARK   59  A    between atoms: CA_101  and  C_102 
REMARK   60  A    between atoms: CA_101  and  CB_104 
REMARK   61  A    between atoms: CB_104  and  CG_105 
REMARK   62  A    between atoms: CZ_110  and  OH_111 
ROOT
ATOM      1  C   THR d   1      55.209  -2.769  -7.479  0.00  0.00     0.243 C 
ATOM      2  O   THR d   1      56.203  -2.184  -7.032  0.00  0.00    -0.271 OA
ATOM      3  N   GLN d   1      53.989  -2.246  -7.396  0.00  0.00    -0.346 N 
ATOM      4  H60 GLN d   1      53.212  -2.764  -7.753  0.00  0.00     0.163 HD
ENDROOT
BRANCH   3   5
ATOM      5  CA  GLN d   1      53.755  -0.938  -6.799  0.00  0.00     0.090 C 
ATOM      6  H61 GLN d   1      54.713  -0.398  -6.795  0.00  0.00     0.087 H 
BRANCH   5   7
ATOM      7  C   GLN d   1      53.258  -1.015  -5.360  0.00  0.00     0.240 C 
ATOM      8  O   GLN d   1      53.113   0.028  -4.715  0.00  0.00    -0.271 OA
ATOM      9  N   GLY d   1      53.002  -2.215  -4.842  0.00  0.00    -0.351 N 
ATOM     10  H68 GLY d   1      53.168  -3.034  -5.391  0.00  0.00     0.163 HD
BRANCH   9  11
ATOM     11  CA  GLY d   1      52.486  -2.350  -3.492  0.00  0.00     0.069 C 
ATOM     12  H69 GLY d   1      53.088  -1.711  -2.829  0.00  0.00     0.078 H 
ATOM     13  H70 GLY d   1      52.595  -3.401  -3.187  0.00  0.00     0.078 H 
BRANCH  11  14
ATOM     14  C   GLY d   1      51.036  -1.961  -3.331  0.00  0.00     0.236 C 
ATOM     15  O   GLY d   1      50.601  -1.684  -2.213  0.00  0.00    -0.272 OA
ATOM     16  N   ILE d   1      50.269  -1.941  -4.418  0.00  0.00    -0.346 N 
ATOM     17  H71 ILE d   1      50.658  -2.251  -5.285  0.00  0.00     0.163 HD
BRANCH  16  18
ATOM     18  CA  ILE d   1      48.881  -1.485  -4.396  0.00  0.00     0.092 C 
ATOM     19  H72 ILE d   1      48.748  -0.810  -3.538  0.00  0.00     0.088 H 
BRANCH  18  20
ATOM     20  C   ILE d   1      47.952  -2.681  -4.220  0.00  0.00     0.243 C 
ATOM     21  O   ILE d   1      48.076  -3.671  -4.958  0.00  0.00    -0.271 OA
ATOM     22  N   PRO d   1      47.003  -2.631  -3.285  0.00  0.00    -0.337 N 
ATOM     23  CA  PRO d   1      46.106  -3.774  -3.087  0.00  0.00     0.091 C 
ATOM     24  CD  PRO d   1      46.706  -1.530  -2.351  0.00  0.00    -0.001 C 
ATOM     25  CB  PRO d   1      45.344  -3.406  -1.808  0.00  0.00    -0.036 C 
ATOM     26  H82 PRO d   1      46.683  -4.700  -2.947  0.00  0.00     0.087 H 
ATOM     27  CG  PRO d   1      45.358  -1.909  -1.793  0.00  0.00    -0.048 C 
ATOM     28  H83 PRO d   1      45.853  -3.810  -0.920  0.00  0.00     0.036 H 
ATOM     29  H84 PRO d   1      44.313  -3.787  -1.845  0.00  0.00     0.036 H 
ATOM     30  H85 PRO d   1      45.244  -1.531  -0.766  0.00  0.00     0.035 H 
ATOM     31  H86 PRO d   1      44.551  -1.508  -2.424  0.00  0.00     0.035 H 
ATOM     32  H87 PRO d   1      46.658  -0.566  -2.879  0.00  0.00     0.064 H 
ATOM     33  H88 PRO d   1      47.462  -1.474  -1.554  0.00  0.00     0.064 H 
BRANCH  23  34
ATOM     34  C   PRO d   1      45.149  -3.956  -4.252  0.00  0.00     0.241 C 
ATOM     35  O   PRO d   1      44.826  -3.014  -4.980  0.00  0.00    -0.271 OA
ATOM     36  N   ARG d   1      44.691  -5.195  -4.419  0.00  0.00    -0.346 N 
ATOM     37  H89 ARG d   1      45.072  -5.941  -3.873  0.00  0.00     0.163 HD
BRANCH  36  38
ATOM     38  CA  ARG d   1      43.642  -5.475  -5.387  0.00  0.00     0.089 C 
ATOM     39  H90 ARG d   1      43.867  -4.939  -6.321  0.00  0.00     0.087 H 
BRANCH  38  40
ATOM     40  C   ARG d   1      42.308  -4.983  -4.847  0.00  0.00     0.241 C 
ATOM     41  O   ARG d   1      41.982  -5.195  -3.676  0.00  0.00    -0.271 OA
ATOM     42  N   SER d   1      41.534  -4.312  -5.697  0.00  0.00    -0.344 N 
ATOM     43 2H10 SER d   1      41.806  -4.215  -6.654  0.00  0.00     0.163 HD
BRANCH  42  44
ATOM     44  CA  SER d   1      40.289  -3.720  -5.228  0.00  0.00     0.109 C 
ATOM     45 3H10 SER d   1      39.896  -4.350  -4.417  0.00  0.00     0.090 H 
BRANCH  44  46
ATOM     46  C   SER d   1      39.261  -3.681  -6.348  0.00  0.00     0.243 C 
ATOM     47  O   SER d   1      39.607  -3.606  -7.532  0.00  0.00    -0.271 OA
ATOM     48  N   TYR d   1      37.992  -3.738  -5.944  0.00  0.00    -0.344 N 
ATOM     49 7H10 TYR d   1      37.818  -3.908  -4.974  0.00  0.00     0.163 HD
BRANCH  48  50
ATOM     50  CA  TYR d   1      36.836  -3.568  -6.825  0.00  0.00     0.100 C 
ATOM     51 8H10 TYR d   1      35.932  -3.796  -6.241  0.00  0.00     0.090 H 
BRANCH  50  52
ATOM     52  C   TYR d   1      36.870  -4.518  -8.020  0.00  0.00     0.197 C 
ATOM     53  O   TYR d   1      36.593  -5.710  -7.888  0.00  0.00    -0.646 OA
ATOM     54  OXT TYR d   1      37.175  -4.113  -9.141  0.00  0.00    -0.646 OA
ENDBRANCH  50  52
BRANCH  50  55
ATOM     55  CB  TYR d   1      36.743  -2.113  -7.304  0.00  0.00    -0.013 C 
ATOM     56 9H10 TYR d   1      35.964  -2.055  -8.078  0.00  0.00     0.043 H 
ATOM     57 0H11 TYR d   1      37.714  -1.831  -7.739  0.00  0.00     0.043 H 
BRANCH  55  58
ATOM     58  CG  TYR d   1      36.403  -1.112  -6.213  0.00  0.00    -0.056 A 
ATOM     59  CD1 TYR d   1      37.314  -0.809  -5.207  0.00  0.00    -0.074 A 
ATOM     60  CE1 TYR d   1      37.011   0.106  -4.216  0.00  0.00    -0.051 A 
ATOM     61 1H11 TYR d   1      38.281  -1.300  -5.200  0.00  0.00     0.084 H 
ATOM     62  CZ  TYR d   1      35.786   0.738  -4.225  0.00  0.00     0.065 A 
ATOM     63 3H11 TYR d   1      37.732   0.325  -3.437  0.00  0.00     0.087 H 
ATOM     64  CE2 TYR d   1      34.865   0.460  -5.215  0.00  0.00    -0.051 A 
ATOM     65  CD2 TYR d   1      35.178  -0.458  -6.202  0.00  0.00    -0.074 A 
ATOM     66 4H11 TYR d   1      33.902   0.958  -5.219  0.00  0.00     0.087 H 
ATOM     67 2H11 TYR d   1      34.454  -0.670  -6.980  0.00  0.00     0.084 H 
BRANCH  62  68
ATOM     68  OH  TYR d   1      35.479   1.652  -3.241  0.00  0.00    -0.361 OA
ATOM     69 5H11 TYR d   1      36.212   1.729  -2.642  0.00  0.00     0.217 HD
ENDBRANCH  62  68
ENDBRANCH  55  58
ENDBRANCH  50  55
ENDBRANCH  48  50
ENDBRANCH  44  46
BRANCH  44  70
ATOM     70  CB  SER d   1      40.510  -2.305  -4.673  0.00  0.00     0.044 C 
ATOM     71 4H10 SER d   1      41.189  -2.361  -3.809  0.00  0.00     0.077 H 
ATOM     72 5H10 SER d   1      39.543  -1.891  -4.353  0.00  0.00     0.077 H 
BRANCH  70  73
ATOM     73  OG  SER d   1      41.077  -1.451  -5.650  0.00  0.00    -0.398 OA
ATOM     74 6H10 SER d   1      41.915  -1.802  -5.927  0.00  0.00     0.209 HD
ENDBRANCH  70  73
ENDBRANCH  44  70
ENDBRANCH  42  44
ENDBRANCH  38  40
BRANCH  38  75
ATOM     75  CB  ARG d   1      43.581  -6.974  -5.686  0.00  0.00    -0.036 C 
ATOM     76  H91 ARG d   1      42.728  -7.162  -6.354  0.00  0.00     0.036 H 
ATOM     77  H92 ARG d   1      43.430  -7.513  -4.739  0.00  0.00     0.036 H 
BRANCH  75  78
ATOM     78  CG  ARG d   1      44.841  -7.510  -6.350  0.00  0.00    -0.048 C 
ATOM     79  H93 ARG d   1      45.716  -7.146  -5.792  0.00  0.00     0.035 H 
ATOM     80  H94 ARG d   1      44.883  -7.135  -7.383  0.00  0.00     0.035 H 
BRANCH  78  81
ATOM     81  CD  ARG d   1      44.879  -9.029  -6.381  0.00  0.00     0.009 C 
ATOM     82  H95 ARG d   1      44.866  -9.399  -5.345  0.00  0.00     0.064 H 
ATOM     83  H96 ARG d   1      45.812  -9.345  -6.872  0.00  0.00     0.064 H 
BRANCH  81  84
ATOM     84  NE  ARG d   1      43.753  -9.623  -7.100  0.00  0.00    -0.227 N 
ATOM     85  CZ  ARG d   1      43.732  -9.866  -8.409  0.00  0.00     0.665 C 
ATOM     86  NH1 ARG d   1      44.777  -9.557  -9.171  0.00  0.00    -0.235 N 
ATOM     87  NH2 ARG d   1      42.660 -10.417  -8.961  0.00  0.00    -0.235 N 
ATOM     88  H98 ARG d   1      44.751  -9.749 -10.183  0.00  0.00     0.174 HD
ATOM     89  H99 ARG d   1      45.612  -9.126  -8.750  0.00  0.00     0.174 HD
ATOM     90 0H10 ARG d   1      41.847 -10.659  -8.377  0.00  0.00     0.174 HD
ATOM     91 1H10 ARG d   1      42.640 -10.603  -9.974  0.00  0.00     0.174 HD
ATOM     92  H97 ARG d   1      42.915  -9.871  -6.554  0.00  0.00     0.177 HD
ENDBRANCH  81  84
ENDBRANCH  78  81
ENDBRANCH  75  78
ENDBRANCH  38  75
ENDBRANCH  36  38
ENDBRANCH  23  34
ENDBRANCH  18  20
BRANCH  18  93
ATOM     93  CB  ILE d   1      48.540  -0.708  -5.679  0.00  0.00    -0.030 C 
ATOM     94  H73 ILE d   1      48.803  -1.337  -6.542  0.00  0.00     0.043 H 
BRANCH  93  95
ATOM     95  CG1 ILE d   1      49.355   0.581  -5.759  0.00  0.00    -0.063 C 
ATOM     96  H74 ILE d   1      50.410   0.341  -5.561  0.00  0.00     0.033 H 
ATOM     97  H75 ILE d   1      48.987   1.276  -4.990  0.00  0.00     0.033 H 
BRANCH  95  98
ATOM     98  CD1 ILE d   1      49.259   1.265  -7.119  0.00  0.00    -0.076 C 
ATOM     99  H79 ILE d   1      49.865   2.183  -7.111  0.00  0.00     0.027 H 
ATOM    100  H80 ILE d   1      48.210   1.520  -7.328  0.00  0.00     0.027 H 
ATOM    101  H81 ILE d   1      49.633   0.585  -7.899  0.00  0.00     0.027 H 
ENDBRANCH  95  98
ENDBRANCH  93  95
BRANCH  93 102
ATOM    102  CG2 ILE d   1      47.052  -0.404  -5.748  0.00  0.00    -0.071 C 
ATOM    103  H76 ILE d   1      46.483  -1.343  -5.689  0.00  0.00     0.028 H 
ATOM    104  H77 ILE d   1      46.825   0.103  -6.697  0.00  0.00     0.028 H 
ATOM    105  H78 ILE d   1      46.772   0.248  -4.908  0.00  0.00     0.028 H 
ENDBRANCH  93 102
ENDBRANCH  18  93
ENDBRANCH  16  18
ENDBRANCH  11  14
ENDBRANCH   9  11
ENDBRANCH   5   7
BRANCH   5 106
ATOM    106  CB  GLN d   1      52.756  -0.141  -7.644  0.00  0.00    -0.030 C 
ATOM    107  H62 GLN d   1      52.552   0.811  -7.132  0.00  0.00     0.037 H 
ATOM    108  H63 GLN d   1      51.826  -0.723  -7.721  0.00  0.00     0.037 H 
BRANCH 106 109
ATOM    109  CG  GLN d   1      53.248   0.169  -9.058  0.00  0.00     0.011 C 
ATOM    110  H64 GLN d   1      53.275  -0.767  -9.635  0.00  0.00     0.047 H 
ATOM    111  H65 GLN d   1      54.262   0.590  -8.994  0.00  0.00     0.047 H 
BRANCH 109 112
ATOM    112  CD  GLN d   1      52.356   1.160  -9.782  0.00  0.00     0.215 C 
ATOM    113  OE1 GLN d   1      52.794   2.251 -10.151  0.00  0.00    -0.274 OA
ATOM    114  NE2 GLN d   1      51.097   0.787  -9.985  0.00  0.00    -0.370 N 
ATOM    115  H66 GLN d   1      50.464   1.400 -10.457  0.00  0.00     0.159 HD
ATOM    116  H67 GLN d   1      50.783  -0.107  -9.666  0.00  0.00     0.159 HD
ENDBRANCH 109 112
ENDBRANCH 106 109
ENDBRANCH   5 106
ENDBRANCH   3   5
BRANCH   1 117
ATOM    117  CA  THR d   1      55.356  -4.135  -8.143  0.00  0.00     0.113 C 
ATOM    118  H54 THR d   1      56.252  -4.620  -7.729  0.00  0.00     0.091 H 
BRANCH 117 119
ATOM    119  N   THR d   1      54.206  -4.993  -7.873  0.00  0.00    -0.344 N 
ATOM    120  C   ILE d   1      53.897  -5.338  -6.618  0.00  0.00     0.241 C 
ATOM    121  O   ILE d   1      54.565  -4.948  -5.654  0.00  0.00    -0.271 OA
ATOM    122  H53 THR d   1      53.645  -5.325  -8.632  0.00  0.00     0.163 HD
BRANCH 120 123
ATOM    123  CA  ILE d   1      52.657  -6.202  -6.400  0.00  0.00     0.092 C 
ATOM    124  H43 ILE d   1      52.251  -5.958  -5.407  0.00  0.00     0.088 H 
BRANCH 123 125
ATOM    125  N   ILE d   1      51.637  -5.883  -7.394  0.00  0.00    -0.346 N 
ATOM    126  C   SER d   1      50.993  -4.717  -7.296  0.00  0.00     0.243 C 
ATOM    127  O   SER d   1      51.168  -3.925  -6.364  0.00  0.00    -0.271 OA
ATOM    128  H42 ILE d   1      51.425  -6.523  -8.132  0.00  0.00     0.163 HD
BRANCH 126 129
ATOM    129  CA  SER d   1      50.020  -4.367  -8.405  0.00  0.00     0.109 C 
ATOM    130  H38 SER d   1      49.987  -5.194  -9.130  0.00  0.00     0.090 H 
BRANCH 129 131
ATOM    131  N   SER d   1      48.692  -4.183  -7.827  0.00  0.00    -0.344 N 
ATOM    132  C   GLY d   1      47.600  -4.223  -8.586  0.00  0.00     0.236 C 
ATOM    133  O   GLY d   1      47.614  -4.615  -9.758  0.00  0.00    -0.272 OA
ATOM    134  H37 SER d   1      48.602  -4.024  -6.844  0.00  0.00     0.163 HD
BRANCH 132 135
ATOM    135  CA  GLY d   1      46.309  -3.771  -7.942  0.00  0.00     0.069 C 
ATOM    136  H35 GLY d   1      45.778  -4.653  -7.554  0.00  0.00     0.078 H 
ATOM    137  H36 GLY d   1      46.546  -3.091  -7.111  0.00  0.00     0.078 H 
BRANCH 135 138
ATOM    138  N   GLY d   1      45.446  -3.080  -8.881  0.00  0.00    -0.351 N 
ATOM    139  C   ARG d   1      44.166  -3.415  -8.992  0.00  0.00     0.240 C 
ATOM    140  O   ARG d   1      43.644  -4.279  -8.282  0.00  0.00    -0.271 OA
ATOM    141  H34 GLY d   1      45.818  -2.346  -9.449  0.00  0.00     0.163 HD
BRANCH 139 142
ATOM    142  CA  ARG d   1      43.364  -2.686 -10.062  0.00  0.00     0.089 C 
ATOM    143  H22 ARG d   1      43.851  -2.841 -11.036  0.00  0.00     0.087 H 
BRANCH 142 144
ATOM    144  N   ARG d   1      42.038  -3.280 -10.101  0.00  0.00    -0.346 N 
ATOM    145  C   ILE d   1      41.420  -3.616 -11.230  0.00  0.00     0.241 C 
ATOM    146  O   ILE d   1      41.818  -3.263 -12.348  0.00  0.00    -0.271 OA
ATOM    147  H21 ARG d   1      41.566  -3.445  -9.235  0.00  0.00     0.163 HD
BRANCH 145 148
ATOM    148  CA  ILE d   1      40.157  -4.453 -11.078  0.00  0.00     0.092 C 
ATOM    149  H11 ILE d   1      39.863  -4.450 -10.018  0.00  0.00     0.088 H 
BRANCH 148 150
ATOM    150  N   ILE d   1      39.079  -3.850 -11.856  0.00  0.00    -0.346 N 
ATOM    151  C   HIS d   1      38.112  -3.129 -11.294  0.00  0.00     0.249 C 
ATOM    152  O   HIS d   1      38.103  -2.853 -10.099  0.00  0.00    -0.271 OA
ATOM    153  H10 ILE d   1      39.067  -3.984 -12.847  0.00  0.00     0.163 HD
BRANCH 151 154
ATOM    154  CA  HIS d   1      36.987  -2.646 -12.203  0.00  0.00     0.181 C 
ATOM    155  H4  HIS d   1      36.210  -3.424 -12.232  0.00  0.00     0.099 H 
BRANCH 154 156
ATOM    156  N   HIS d   1      36.387  -1.422 -11.680  0.00  0.00    -0.066 N 
ATOM    157  H1  HIS d   1      35.647  -1.121 -12.295  0.00  0.00     0.275 HD
ATOM    158  H2  HIS d   1      37.090  -0.702 -11.622  0.00  0.00     0.275 HD
ATOM    159  H3  HIS d   1      36.010  -1.598 -10.762  0.00  0.00     0.275 HD
ENDBRANCH 154 156
BRANCH 154 160
ATOM    160  CB  HIS d   1      37.501  -2.430 -13.628  0.00  0.00     0.011 C 
ATOM    161  H5  HIS d   1      36.634  -2.307 -14.294  0.00  0.00     0.046 H 
ATOM    162  H6  HIS d   1      38.071  -3.321 -13.929  0.00  0.00     0.046 H 
BRANCH 160 163
ATOM    163  CG  HIS d   1      38.385  -1.232 -13.781  0.00  0.00     0.053 A 
ATOM    164  ND1 HIS d   1      38.879  -0.522 -12.707  0.00  0.00    -0.247 NA
ATOM    165  CE1 HIS d   1      39.625   0.475 -13.148  0.00  0.00     0.064 A 
ATOM    166  NE2 HIS d   1      39.628   0.442 -14.468  0.00  0.00    -0.359 N 
ATOM    167  H8  HIS d   1      40.149   1.201 -12.528  0.00  0.00     0.143 H 
ATOM    168  CD2 HIS d   1      38.863  -0.618 -14.889  0.00  0.00     0.002 A 
ATOM    169  H9  HIS d   1      40.124   1.104 -15.082  0.00  0.00     0.166 HD
ATOM    170  H7  HIS d   1      38.676  -0.910 -15.921  0.00  0.00     0.114 H 
ENDBRANCH 160 163
ENDBRANCH 154 160
ENDBRANCH 151 154
ENDBRANCH 148 150
BRANCH 148 171
ATOM    171  CB  ILE d   1      40.406  -5.914 -11.499  0.00  0.00    -0.030 C 
ATOM    172  H12 ILE d   1      39.529  -6.508 -11.203  0.00  0.00     0.043 H 
BRANCH 171 173
ATOM    173  CG1 ILE d   1      41.629  -6.480 -10.770  0.00  0.00    -0.063 C 
ATOM    174  H13 ILE d   1      42.492  -5.833 -10.989  0.00  0.00     0.033 H 
ATOM    175  H14 ILE d   1      41.823  -7.492 -11.155  0.00  0.00     0.033 H 
BRANCH 173 176
ATOM    176  CD1 ILE d   1      41.467  -6.566  -9.260  0.00  0.00    -0.076 C 
ATOM    177  H18 ILE d   1      42.384  -6.980  -8.816  0.00  0.00     0.027 H 
ATOM    178  H19 ILE d   1      40.616  -7.220  -9.019  0.00  0.00     0.027 H 
ATOM    179  H20 ILE d   1      41.284  -5.561  -8.853  0.00  0.00     0.027 H 
ENDBRANCH 173 176
ENDBRANCH 171 173
BRANCH 171 180
ATOM    180  CG2 ILE d   1      40.562  -6.033 -13.016  0.00  0.00    -0.071 C 
ATOM    181  H15 ILE d   1      39.670  -5.619 -13.510  0.00  0.00     0.028 H 
ATOM    182  H16 ILE d   1      40.675  -7.092 -13.291  0.00  0.00     0.028 H 
ATOM    183  H17 ILE d   1      41.453  -5.473 -13.338  0.00  0.00     0.028 H 
ENDBRANCH 171 180
ENDBRANCH 148 171
ENDBRANCH 145 148
ENDBRANCH 142 144
BRANCH 142 184
ATOM    184  CB  ARG d   1      43.297  -1.173  -9.800  0.00  0.00    -0.036 C 
ATOM    185  H23 ARG d   1      42.517  -0.750 -10.450  0.00  0.00     0.036 H 
ATOM    186  H24 ARG d   1      44.272  -0.738 -10.066  0.00  0.00     0.036 H 
BRANCH 184 187
ATOM    187  CG  ARG d   1      42.980  -0.775  -8.364  0.00  0.00    -0.048 C 
ATOM    188  H25 ARG d   1      43.825  -1.055  -7.718  0.00  0.00     0.035 H 
ATOM    189  H26 ARG d   1      42.075  -1.306  -8.035  0.00  0.00     0.035 H 
BRANCH 187 190
ATOM    190  CD  ARG d   1      42.744   0.732  -8.254  0.00  0.00     0.009 C 
ATOM    191  H27 ARG d   1      41.850   0.994  -8.839  0.00  0.00     0.064 H 
ATOM    192  H28 ARG d   1      43.618   1.258  -8.664  0.00  0.00     0.064 H 
BRANCH 190 193
ATOM    193  NE  ARG d   1      42.543   1.160  -6.871  0.00  0.00    -0.227 N 
ATOM    194  CZ  ARG d   1      42.010   2.326  -6.515  0.00  0.00     0.665 C 
ATOM    195  NH1 ARG d   1      41.868   2.626  -5.230  0.00  0.00    -0.235 N 
ATOM    196  NH2 ARG d   1      41.608   3.188  -7.440  0.00  0.00    -0.235 N 
ATOM    197  H30 ARG d   1      41.455   3.529  -4.954  0.00  0.00     0.174 HD
ATOM    198  H31 ARG d   1      42.170   1.956  -4.508  0.00  0.00     0.174 HD
ATOM    199  H32 ARG d   1      41.716   2.960  -8.438  0.00  0.00     0.174 HD
ATOM    200  H33 ARG d   1      41.188   4.086  -7.160  0.00  0.00     0.174 HD
ATOM    201  H29 ARG d   1      42.834   0.516  -6.122  0.00  0.00     0.177 HD
ENDBRANCH 190 193
ENDBRANCH 187 190
ENDBRANCH 184 187
ENDBRANCH 142 184
ENDBRANCH 139 142
ENDBRANCH 135 138
ENDBRANCH 132 135
ENDBRANCH 129 131
BRANCH 129 202
ATOM    202  CB  SER d   1      50.467  -3.098  -9.125  0.00  0.00     0.044 C 
ATOM    203  H39 SER d   1      50.175  -2.223  -8.526  0.00  0.00     0.077 H 
ATOM    204  H40 SER d   1      49.976  -3.050 -10.108  0.00  0.00     0.077 H 
BRANCH 202 205
ATOM    205  OG  SER d   1      51.869  -3.087  -9.307  0.00  0.00    -0.398 OA
ATOM    206  H41 SER d   1      52.126  -3.840  -9.827  0.00  0.00     0.209 HD
ENDBRANCH 202 205
ENDBRANCH 129 202
ENDBRANCH 126 129
ENDBRANCH 123 125
BRANCH 123 207
ATOM    207  CB  ILE d   1      52.983  -7.710  -6.410  0.00  0.00    -0.030 C 
ATOM    208  H44 ILE d   1      52.041  -8.257  -6.256  0.00  0.00     0.043 H 
BRANCH 207 209
ATOM    209  CG1 ILE d   1      53.930  -8.073  -5.257  0.00  0.00    -0.063 C 
ATOM    210  H45 ILE d   1      53.530  -7.637  -4.330  0.00  0.00     0.033 H 
ATOM    211  H46 ILE d   1      54.918  -7.639  -5.470  0.00  0.00     0.033 H 
BRANCH 209 212
ATOM    212  CD1 ILE d   1      54.101  -9.582  -5.046  0.00  0.00    -0.076 C 
ATOM    213  H50 ILE d   1      54.790  -9.759  -4.207  0.00  0.00     0.027 H 
ATOM    214  H51 ILE d   1      54.512 -10.036  -5.960  0.00  0.00     0.027 H 
ATOM    215  H52 ILE d   1      53.124 -10.034  -4.819  0.00  0.00     0.027 H 
ENDBRANCH 209 212
ENDBRANCH 207 209
BRANCH 207 216
ATOM    216  CG2 ILE d   1      53.561  -8.149  -7.756  0.00  0.00    -0.071 C 
ATOM    217  H47 ILE d   1      52.863  -7.877  -8.561  0.00  0.00     0.028 H 
ATOM    218  H48 ILE d   1      53.710  -9.239  -7.753  0.00  0.00     0.028 H 
ATOM    219  H49 ILE d   1      54.526  -7.647  -7.922  0.00  0.00     0.028 H 
ENDBRANCH 207 216
ENDBRANCH 123 207
ENDBRANCH 120 123
ENDBRANCH 117 119
BRANCH 117 220
ATOM    220  CB  THR d   1      55.543  -3.981  -9.659  0.00  0.00     0.060 C 
ATOM    221  H55 THR d   1      54.615  -3.585 -10.097  0.00  0.00     0.086 H 
BRANCH 220 222
ATOM    222  OG1 THR d   1      55.833  -5.264 -10.233  0.00  0.00    -0.393 OA
ATOM    223  H56 THR d   1      55.949  -5.171 -11.171  0.00  0.00     0.210 HD
ENDBRANCH 220 222
BRANCH 220 224
ATOM    224  CG2 THR d   1      56.682  -3.035  -9.971  0.00  0.00    -0.050 C 
ATOM    225  H57 THR d   1      56.794  -2.943 -11.061  0.00  0.00     0.031 H 
ATOM    226  H58 THR d   1      57.614  -3.428  -9.539  0.00  0.00     0.031 H 
ATOM    227  H59 THR d   1      56.466  -2.046  -9.540  0.00  0.00     0.031 H 
ENDBRANCH 220 224
ENDBRANCH 117 220
ENDBRANCH   1 117
TORSDOF 62
