REMARK WARNING: 32 MAX_TORS EXCEEDED!!!
REMARK  53 active torsions:
REMARK  status: ('A' for Active; 'I' for Inactive)
REMARK    1  A    between atoms: N_1  and  CA_2 
REMARK    2  A    between atoms: CA_2  and  C_3 
REMARK    3  A    between atoms: CA_2  and  CB_5 
REMARK       I    between atoms: C_3  and  N_10 
REMARK    4  A    between atoms: CB_5  and  CG_6 
REMARK    5  A    between atoms: CG_6  and  CD_7 
REMARK    6  A    between atoms: N_10  and  CA_11 
REMARK    7  A    between atoms: CA_11  and  C_12 
REMARK       I    between atoms: C_12  and  N_14 
REMARK    8  A    between atoms: N_14  and  CA_15 
REMARK    9  A    between atoms: CA_15  and  C_16 
REMARK   10  A    between atoms: CA_15  and  CB_18 
REMARK       I    between atoms: C_16  and  N_20 
REMARK   11  A    between atoms: CB_18  and  OG_19 
REMARK   12  A    between atoms: N_20  and  CA_21 
REMARK   13  A    between atoms: CA_21  and  C_22 
REMARK   14  A    between atoms: CA_21  and  CB_24 
REMARK       I    between atoms: C_22  and  N_28 
REMARK   15  A    between atoms: CB_24  and  CG1_25 
REMARK   16  A    between atoms: CB_24  and  CG2_26 
REMARK   17  A    between atoms: CG1_25  and  CD1_27 
REMARK   18  A    between atoms: N_28  and  CA_29 
REMARK   19  A    between atoms: CA_29  and  C_30 
REMARK   20  A    between atoms: CA_29  and  CB_32 
REMARK       I    between atoms: C_30  and  N_35 
REMARK   21  A    between atoms: CB_32  and  OG1_33 
REMARK   22  A    between atoms: CB_32  and  CG2_34 
REMARK   23  A    between atoms: N_35  and  CA_36 
REMARK   24  A    between atoms: CA_36  and  C_37 
REMARK   25  A    between atoms: CA_36  and  CB_39 
REMARK       I    between atoms: C_37  and  N_44 
REMARK   26  A    between atoms: CB_39  and  CG_40 
REMARK   27  A    between atoms: CG_40  and  CD_41 
REMARK       I    between atoms: CD_41  and  NE2_43 
REMARK   28  A    between atoms: N_44  and  CA_45 
REMARK   29  A    between atoms: CA_45  and  C_46 
REMARK       I    between atoms: C_46  and  N_48 
REMARK   30  A    between atoms: N_48  and  CA_49 
REMARK   31  A    between atoms: CA_49  and  C_50 
REMARK   32  A    between atoms: CA_49  and  CB_52 
REMARK       I    between atoms: C_50  and  N_55 
REMARK   33  A    between atoms: CB_52  and  OG1_53 
REMARK   34  A    between atoms: CB_52  and  CG2_54 
REMARK   35  A    between atoms: CA_56  and  C_57 
REMARK       I    between atoms: C_57  and  N_62 
REMARK   36  A    between atoms: N_62  and  CA_63 
REMARK   37  A    between atoms: CA_63  and  C_64 
REMARK   38  A    between atoms: CA_63  and  CB_66 
REMARK       I    between atoms: C_64  and  N_70 
REMARK   39  A    between atoms: CB_66  and  CG_67 
REMARK   40  A    between atoms: CG_67  and  CD1_68 
REMARK   41  A    between atoms: CG_67  and  CD2_69 
REMARK   42  A    between atoms: N_70  and  CA_71 
REMARK   43  A    between atoms: CA_71  and  C_72 
REMARK   44  A    between atoms: CA_71  and  CB_74 
REMARK       I    between atoms: C_72  and  N_79 
REMARK   45  A    between atoms: CB_74  and  CG_75 
REMARK   46  A    between atoms: CG_75  and  CD_76 
REMARK   47  A    between atoms: CD_76  and  CE_77 
REMARK   48  A    between atoms: CE_77  and  NZ_78 
REMARK   49  A    between atoms: N_79  and  CA_80 
REMARK   50  A    between atoms: CA_80  and  C_81 
REMARK   51  A    between atoms: CA_80  and  CB_83 
REMARK   52  A    between atoms: CB_83  and  CG_84 
REMARK   53  A    between atoms: CZ_89  and  OH_90 
ROOT
ATOM      1  C   GLU d   1     -51.477   1.820  -3.465  0.00  0.00     0.236 C 
ATOM      2  O   GLU d   1     -50.958   1.679  -2.352  0.00  0.00    -0.272 OA
ATOM      3  N   GLU d   1     -50.793   1.675  -4.599  0.00  0.00    -0.344 N 
ATOM      4  H46 GLU d   1     -51.248   1.874  -5.467  0.00  0.00     0.163 HD
ENDROOT
BRANCH   1   5
ATOM      5  CA  GLU d   1     -52.943   2.168  -3.559  0.00  0.00     0.069 C 
ATOM      6  H44 GLU d   1     -53.498   1.507  -2.877  0.00  0.00     0.078 H 
ATOM      7  H45 GLU d   1     -53.070   3.213  -3.240  0.00  0.00     0.078 H 
BRANCH   5   8
ATOM      8  N   GLU d   1     -53.506   2.028  -4.884  0.00  0.00    -0.351 N 
ATOM      9  C   GLU d   1     -53.808   0.827  -5.369  0.00  0.00     0.240 C 
ATOM     10  O   GLU d   1     -53.747  -0.198  -4.683  0.00  0.00    -0.271 OA
ATOM     11  H43 GLU d   1     -53.670   2.842  -5.441  0.00  0.00     0.163 HD
BRANCH   9  12
ATOM     12  CA  GLU d   1     -54.236   0.719  -6.826  0.00  0.00     0.090 C 
ATOM     13  H36 GLU d   1     -55.199   0.188  -6.856  0.00  0.00     0.087 H 
BRANCH  12  14
ATOM     14  N   GLU d   1     -54.423   2.009  -7.475  0.00  0.00    -0.346 N 
ATOM     15  C   GLU d   1     -55.624   2.566  -7.620  0.00  0.00     0.243 C 
ATOM     16  O   GLU d   1     -56.652   2.044  -7.171  0.00  0.00    -0.271 OA
ATOM     17  H35 GLU d   1     -53.621   2.494  -7.824  0.00  0.00     0.163 HD
BRANCH  15  18
ATOM     18  CA  GLU d   1     -55.700   3.903  -8.348  0.00  0.00     0.113 C 
ATOM     19  H29 GLU d   1     -56.594   4.436  -7.993  0.00  0.00     0.091 H 
BRANCH  18  20
ATOM     20  N   GLU d   1     -54.533   4.736  -8.071  0.00  0.00    -0.344 N 
ATOM     21  C   GLU d   1     -54.300   5.193  -6.835  0.00  0.00     0.241 C 
ATOM     22  O   GLU d   1     -55.071   4.956  -5.898  0.00  0.00    -0.271 OA
ATOM     23  H28 GLU d   1     -53.902   4.967  -8.812  0.00  0.00     0.163 HD
BRANCH  21  24
ATOM     24  CA  GLU d   1     -53.037   6.023  -6.601  0.00  0.00     0.092 C 
ATOM     25  H18 GLU d   1     -52.671   5.795  -5.589  0.00  0.00     0.088 H 
BRANCH  24  26
ATOM     26  N   GLU d   1     -51.987   5.669  -7.549  0.00  0.00    -0.346 N 
ATOM     27  C   GLU d   1     -51.324   4.519  -7.422  0.00  0.00     0.243 C 
ATOM     28  O   GLU d   1     -51.423   3.782  -6.436  0.00  0.00    -0.271 OA
ATOM     29  H17 GLU d   1     -51.763   6.292  -8.298  0.00  0.00     0.163 HD
BRANCH  27  30
ATOM     30  CA  GLU d   1     -50.390   4.163  -8.569  0.00  0.00     0.109 C 
ATOM     31  H13 GLU d   1     -50.113   5.088  -9.097  0.00  0.00     0.090 H 
BRANCH  30  32
ATOM     32  N   GLU d   1     -49.174   3.540  -8.068  0.00  0.00    -0.344 N 
ATOM     33  C   GLU d   1     -47.969   4.000  -8.395  0.00  0.00     0.236 C 
ATOM     34  O   GLU d   1     -47.813   5.048  -9.027  0.00  0.00    -0.272 OA
ATOM     35  H12 GLU d   1     -49.246   2.747  -7.463  0.00  0.00     0.163 HD
BRANCH  33  36
ATOM     36  CA  GLU d   1     -46.768   3.198  -7.938  0.00  0.00     0.069 C 
ATOM     37  H10 GLU d   1     -46.612   3.375  -6.864  0.00  0.00     0.078 H 
ATOM     38  H11 GLU d   1     -46.970   2.130  -8.108  0.00  0.00     0.078 H 
BRANCH  36  39
ATOM     39  N   GLU d   1     -45.560   3.565  -8.653  0.00  0.00    -0.351 N 
ATOM     40  C   GLU d   1     -44.897   2.690  -9.406  0.00  0.00     0.248 C 
ATOM     41  O   GLU d   1     -45.209   1.501  -9.485  0.00  0.00    -0.271 OA
ATOM     42  H9  GLU d   1     -45.216   4.501  -8.578  0.00  0.00     0.163 HD
BRANCH  40  43
ATOM     43  CA  GLU d   1     -43.696   3.235 -10.176  0.00  0.00     0.176 C 
ATOM     44  H4  GLU d   1     -43.706   4.333 -10.105  0.00  0.00     0.099 H 
BRANCH  43  45
ATOM     45  N   GLU d   1     -42.451   2.745  -9.595  0.00  0.00    -0.066 N 
ATOM     46  H1  GLU d   1     -41.670   3.114 -10.114  0.00  0.00     0.275 HD
ATOM     47  H2  GLU d   1     -42.435   1.738  -9.634  0.00  0.00     0.275 HD
ATOM     48  H3  GLU d   1     -42.387   3.045  -8.635  0.00  0.00     0.275 HD
ENDBRANCH  43  45
BRANCH  43  49
ATOM     49  CB  GLU d   1     -43.784   2.843 -11.655  0.00  0.00    -0.021 C 
ATOM     50  H5  GLU d   1     -44.233   1.841 -11.715  0.00  0.00     0.037 H 
ATOM     51  H6  GLU d   1     -42.762   2.812 -12.060  0.00  0.00     0.037 H 
BRANCH  49  52
ATOM     52  CG  GLU d   1     -44.611   3.784 -12.532  0.00  0.00     0.018 C 
ATOM     53  H7  GLU d   1     -44.505   3.468 -13.580  0.00  0.00     0.049 H 
ATOM     54  H8  GLU d   1     -44.219   4.805 -12.415  0.00  0.00     0.049 H 
BRANCH  52  55
ATOM     55  CD  GLU d   1     -46.089   3.792 -12.178  0.00  0.00     0.172 C 
ATOM     56  OE1 GLU d   1     -46.510   4.680 -11.407  0.00  0.00    -0.648 OA
ATOM     57  OE2 GLU d   1     -46.826   2.908 -12.666  0.00  0.00    -0.648 OA
ENDBRANCH  52  55
ENDBRANCH  49  52
ENDBRANCH  43  49
ENDBRANCH  40  43
ENDBRANCH  36  39
ENDBRANCH  33  36
ENDBRANCH  30  32
BRANCH  30  58
ATOM     58  CB  GLU d   1     -51.112   3.241  -9.550  0.00  0.00     0.044 C 
ATOM     59  H14 GLU d   1     -51.386   2.310  -9.032  0.00  0.00     0.077 H 
ATOM     60  H15 GLU d   1     -50.438   3.010 -10.388  0.00  0.00     0.077 H 
BRANCH  58  61
ATOM     61  OG  GLU d   1     -52.286   3.851 -10.056  0.00  0.00    -0.398 OA
ATOM     62  H16 GLU d   1     -52.055   4.654 -10.508  0.00  0.00     0.209 HD
ENDBRANCH  58  61
ENDBRANCH  30  58
ENDBRANCH  27  30
ENDBRANCH  24  26
BRANCH  24  63
ATOM     63  CB  GLU d   1     -53.325   7.534  -6.670  0.00  0.00    -0.030 C 
ATOM     64  H19 GLU d   1     -52.374   8.069  -6.532  0.00  0.00     0.043 H 
BRANCH  63  65
ATOM     65  CG1 GLU d   1     -54.274   7.954  -5.544  0.00  0.00    -0.063 C 
ATOM     66  H20 GLU d   1     -53.838   7.635  -4.586  0.00  0.00     0.033 H 
ATOM     67  H21 GLU d   1     -55.238   7.446  -5.696  0.00  0.00     0.033 H 
BRANCH  65  68
ATOM     68  CD1 GLU d   1     -54.526   9.446  -5.480  0.00  0.00    -0.076 C 
ATOM     69  H25 GLU d   1     -55.214   9.666  -4.650  0.00  0.00     0.027 H 
ATOM     70  H26 GLU d   1     -54.974   9.783  -6.426  0.00  0.00     0.027 H 
ATOM     71  H27 GLU d   1     -53.574   9.972  -5.317  0.00  0.00     0.027 H 
ENDBRANCH  65  68
ENDBRANCH  63  65
BRANCH  63  72
ATOM     72  CG2 GLU d   1     -53.886   7.917  -8.029  0.00  0.00    -0.071 C 
ATOM     73  H22 GLU d   1     -53.185   7.604  -8.817  0.00  0.00     0.028 H 
ATOM     74  H23 GLU d   1     -54.025   9.007  -8.074  0.00  0.00     0.028 H 
ATOM     75  H24 GLU d   1     -54.854   7.417  -8.180  0.00  0.00     0.028 H 
ENDBRANCH  63  72
ENDBRANCH  24  63
ENDBRANCH  21  24
ENDBRANCH  18  20
BRANCH  18  76
ATOM     76  CB  GLU d   1     -55.835   3.680  -9.858  0.00  0.00     0.060 C 
ATOM     77  H30 GLU d   1     -54.910   3.218 -10.232  0.00  0.00     0.086 H 
BRANCH  76  78
ATOM     78  OG1 GLU d   1     -56.032   4.938 -10.515  0.00  0.00    -0.393 OA
ATOM     79  H31 GLU d   1     -56.115   4.796 -11.451  0.00  0.00     0.210 HD
ENDBRANCH  76  78
BRANCH  76  80
ATOM     80  CG2 GLU d   1     -57.007   2.762 -10.173  0.00  0.00    -0.050 C 
ATOM     81  H32 GLU d   1     -57.079   2.620 -11.261  0.00  0.00     0.031 H 
ATOM     82  H33 GLU d   1     -57.938   3.214  -9.799  0.00  0.00     0.031 H 
ATOM     83  H34 GLU d   1     -56.851   1.788  -9.686  0.00  0.00     0.031 H 
ENDBRANCH  76  80
ENDBRANCH  18  76
ENDBRANCH  15  18
ENDBRANCH  12  14
BRANCH  12  84
ATOM     84  CB  GLU d   1     -53.198  -0.109  -7.591  0.00  0.00    -0.030 C 
ATOM     85  H37 GLU d   1     -53.099  -1.085  -7.094  0.00  0.00     0.037 H 
ATOM     86  H38 GLU d   1     -52.235   0.421  -7.553  0.00  0.00     0.037 H 
BRANCH  84  87
ATOM     87  CG  GLU d   1     -53.554  -0.347  -9.042  0.00  0.00     0.011 C 
ATOM     88  H39 GLU d   1     -53.663   0.627  -9.542  0.00  0.00     0.047 H 
ATOM     89  H40 GLU d   1     -54.509  -0.891  -9.086  0.00  0.00     0.047 H 
BRANCH  87  90
ATOM     90  CD  GLU d   1     -52.504  -1.153  -9.775  0.00  0.00     0.215 C 
ATOM     91  OE1 GLU d   1     -51.385  -1.332  -9.290  0.00  0.00    -0.274 OA
ATOM     92  NE2 GLU d   1     -52.861  -1.648 -10.950  0.00  0.00    -0.370 N 
ATOM     93  H41 GLU d   1     -52.211  -2.190 -11.483  0.00  0.00     0.159 HD
ATOM     94  H42 GLU d   1     -53.781  -1.480 -11.305  0.00  0.00     0.159 HD
ENDBRANCH  87  90
ENDBRANCH  84  87
ENDBRANCH  12  84
ENDBRANCH   9  12
ENDBRANCH   5   8
ENDBRANCH   1   5
BRANCH   3  95
ATOM     95  CA  GLU d   1     -49.405   1.236  -4.615  0.00  0.00     0.114 C 
ATOM     96  H47 GLU d   1     -49.248   0.535  -3.782  0.00  0.00     0.091 H 
BRANCH  95  97
ATOM     97  C   GLU d   1     -48.478   2.430  -4.432  0.00  0.00     0.245 C 
ATOM     98  O   GLU d   1     -48.557   3.387  -5.214  0.00  0.00    -0.271 OA
ATOM     99  N   GLU d   1     -47.611   2.427  -3.422  0.00  0.00    -0.337 N 
ATOM    100  CA  GLU d   1     -46.699   3.557  -3.219  0.00  0.00     0.091 C 
ATOM    101  CD  GLU d   1     -47.330   1.318  -2.493  0.00  0.00    -0.001 C 
ATOM    102  CB  GLU d   1     -45.984   3.198  -1.912  0.00  0.00    -0.036 C 
ATOM    103  H53 GLU d   1     -47.266   4.493  -3.109  0.00  0.00     0.087 H 
ATOM    104  CG  GLU d   1     -46.006   1.705  -1.892  0.00  0.00    -0.048 C 
ATOM    105  H54 GLU d   1     -46.522   3.609  -1.045  0.00  0.00     0.036 H 
ATOM    106  H55 GLU d   1     -44.950   3.575  -1.915  0.00  0.00     0.036 H 
ATOM    107  H56 GLU d   1     -45.928   1.333  -0.860  0.00  0.00     0.035 H 
ATOM    108  H57 GLU d   1     -45.178   1.300  -2.492  0.00  0.00     0.035 H 
ATOM    109  H58 GLU d   1     -47.255   0.361  -3.031  0.00  0.00     0.064 H 
ATOM    110  H59 GLU d   1     -48.108   1.244  -1.719  0.00  0.00     0.064 H 
BRANCH 100 111
ATOM    111  C   GLU d   1     -45.703   3.715  -4.356  0.00  0.00     0.241 C 
ATOM    112  O   GLU d   1     -45.293   2.744  -4.997  0.00  0.00    -0.271 OA
ATOM    113  N   GLU d   1     -45.318   4.965  -4.603  0.00  0.00    -0.346 N 
ATOM    114  H60 GLU d   1     -45.811   5.728  -4.185  0.00  0.00     0.163 HD
BRANCH 113 115
ATOM    115  CA  GLU d   1     -44.184   5.228  -5.478  0.00  0.00     0.089 C 
ATOM    116  H61 GLU d   1     -44.353   4.723  -6.440  0.00  0.00     0.087 H 
BRANCH 115 117
ATOM    117  C   GLU d   1     -42.910   4.682  -4.849  0.00  0.00     0.241 C 
ATOM    118  O   GLU d   1     -42.706   4.780  -3.635  0.00  0.00    -0.271 OA
ATOM    119  N   GLU d   1     -42.045   4.107  -5.679  0.00  0.00    -0.346 N 
ATOM    120  H71 GLU d   1     -42.276   4.019  -6.648  0.00  0.00     0.163 HD
BRANCH 119 121
ATOM    121  CA  GLU d   1     -40.767   3.603  -5.197  0.00  0.00     0.089 C 
ATOM    122  H72 GLU d   1     -40.375   4.307  -4.448  0.00  0.00     0.087 H 
BRANCH 121 123
ATOM    123  C   GLU d   1     -39.792   3.541  -6.362  0.00  0.00     0.241 C 
ATOM    124  O   GLU d   1     -40.190   3.473  -7.528  0.00  0.00    -0.271 OA
ATOM    125  N   GLU d   1     -38.507   3.563  -6.025  0.00  0.00    -0.344 N 
ATOM    126  H84 GLU d   1     -38.258   3.538  -5.057  0.00  0.00     0.163 HD
BRANCH 125 127
ATOM    127  CA  GLU d   1     -37.450   3.622  -7.026  0.00  0.00     0.100 C 
ATOM    128  H85 GLU d   1     -37.913   3.555  -8.021  0.00  0.00     0.090 H 
BRANCH 127 129
ATOM    129  C   GLU d   1     -36.477   2.457  -6.872  0.00  0.00     0.197 C 
ATOM    130  O   GLU d   1     -36.519   1.494  -7.638  0.00  0.00    -0.646 OA
ATOM    131  OXT GLU d   1     -35.630   2.456  -5.979  0.00  0.00    -0.646 OA
ENDBRANCH 127 129
BRANCH 127 132
ATOM    132  CB  GLU d   1     -36.703   4.954  -6.928  0.00  0.00    -0.013 C 
ATOM    133  H86 GLU d   1     -36.022   5.034  -7.788  0.00  0.00     0.043 H 
ATOM    134  H87 GLU d   1     -36.119   4.956  -5.996  0.00  0.00     0.043 H 
BRANCH 132 135
ATOM    135  CG  GLU d   1     -37.611   6.166  -6.925  0.00  0.00    -0.056 A 
ATOM    136  CD1 GLU d   1     -37.992   6.775  -8.113  0.00  0.00    -0.074 A 
ATOM    137  CE1 GLU d   1     -38.823   7.882  -8.116  0.00  0.00    -0.051 A 
ATOM    138  H88 GLU d   1     -37.632   6.377  -9.055  0.00  0.00     0.084 H 
ATOM    139  CZ  GLU d   1     -39.284   8.391  -6.919  0.00  0.00     0.065 A 
ATOM    140  H90 GLU d   1     -39.110   8.346  -9.053  0.00  0.00     0.087 H 
ATOM    141  CE2 GLU d   1     -38.921   7.804  -5.725  0.00  0.00    -0.051 A 
ATOM    142  CD2 GLU d   1     -38.089   6.699  -5.733  0.00  0.00    -0.074 A 
ATOM    143  H91 GLU d   1     -39.285   8.206  -4.787  0.00  0.00     0.087 H 
ATOM    144  H89 GLU d   1     -37.804   6.240  -4.793  0.00  0.00     0.084 H 
BRANCH 139 145
ATOM    145  OH  GLU d   1     -40.111   9.491  -6.918  0.00  0.00    -0.361 OA
ATOM    146  H92 GLU d   1     -40.264   9.772  -7.813  0.00  0.00     0.217 HD
ENDBRANCH 139 145
ENDBRANCH 132 135
ENDBRANCH 127 132
ENDBRANCH 125 127
ENDBRANCH 121 123
BRANCH 121 147
ATOM    147  CB  GLU d   1     -40.910   2.231  -4.528  0.00  0.00    -0.038 C 
ATOM    148  H73 GLU d   1     -41.541   2.350  -3.635  0.00  0.00     0.036 H 
ATOM    149  H74 GLU d   1     -39.908   1.890  -4.227  0.00  0.00     0.036 H 
BRANCH 147 150
ATOM    150  CG  GLU d   1     -41.530   1.159  -5.405  0.00  0.00    -0.061 C 
ATOM    151  H75 GLU d   1     -40.916   1.033  -6.309  0.00  0.00     0.033 H 
ATOM    152  H76 GLU d   1     -42.545   1.470  -5.692  0.00  0.00     0.033 H 
BRANCH 150 153
ATOM    153  CD  GLU d   1     -41.606  -0.166  -4.665  0.00  0.00    -0.043 C 
ATOM    154  H77 GLU d   1     -42.136  -0.015  -3.713  0.00  0.00     0.035 H 
ATOM    155  H78 GLU d   1     -40.585  -0.523  -4.464  0.00  0.00     0.035 H 
BRANCH 153 156
ATOM    156  CE  GLU d   1     -42.344  -1.211  -5.481  0.00  0.00     0.080 C 
ATOM    157  H79 GLU d   1     -42.367  -2.155  -4.916  0.00  0.00     0.075 H 
ATOM    158  H80 GLU d   1     -41.810  -1.365  -6.430  0.00  0.00     0.075 H 
BRANCH 156 159
ATOM    159  NZ  GLU d   1     -43.741  -0.790  -5.775  0.00  0.00    -0.079 N 
ATOM    160  H81 GLU d   1     -44.200  -1.505  -6.317  0.00  0.00     0.274 HD
ATOM    161  H82 GLU d   1     -43.729   0.072  -6.298  0.00  0.00     0.274 HD
ATOM    162  H83 GLU d   1     -44.239  -0.652  -4.910  0.00  0.00     0.274 HD
ENDBRANCH 156 159
ENDBRANCH 153 156
ENDBRANCH 150 153
ENDBRANCH 147 150
ENDBRANCH 121 147
ENDBRANCH 119 121
ENDBRANCH 115 117
BRANCH 115 163
ATOM    163  CB  GLU d   1     -44.038   6.730  -5.728  0.00  0.00    -0.035 C 
ATOM    164  H62 GLU d   1     -43.207   6.863  -6.436  0.00  0.00     0.037 H 
ATOM    165  H63 GLU d   1     -43.779   7.197  -4.766  0.00  0.00     0.037 H 
BRANCH 163 166
ATOM    166  CG  GLU d   1     -45.238   7.490  -6.291  0.00  0.00    -0.059 C 
ATOM    167  H64 GLU d   1     -46.086   7.362  -5.602  0.00  0.00     0.038 H 
BRANCH 166 168
ATOM    168  CD1 GLU d   1     -44.923   8.973  -6.395  0.00  0.00    -0.073 C 
ATOM    169  H65 GLU d   1     -45.795   9.505  -6.801  0.00  0.00     0.028 H 
ATOM    170  H66 GLU d   1     -44.061   9.119  -7.062  0.00  0.00     0.028 H 
ATOM    171  H67 GLU d   1     -44.685   9.368  -5.396  0.00  0.00     0.028 H 
ENDBRANCH 166 168
BRANCH 166 172
ATOM    172  CD2 GLU d   1     -45.633   6.930  -7.644  0.00  0.00    -0.073 C 
ATOM    173  H68 GLU d   1     -45.856   5.857  -7.546  0.00  0.00     0.028 H 
ATOM    174  H69 GLU d   1     -44.804   7.069  -8.354  0.00  0.00     0.028 H 
ATOM    175  H70 GLU d   1     -46.525   7.458  -8.013  0.00  0.00     0.028 H 
ENDBRANCH 166 172
ENDBRANCH 163 166
ENDBRANCH 115 163
ENDBRANCH 113 115
ENDBRANCH 100 111
ENDBRANCH  95  97
BRANCH  95 176
ATOM    176  CB  GLU d   1     -49.085   0.523  -5.918  0.00  0.00     0.060 C 
ATOM    177  H48 GLU d   1     -49.254   1.213  -6.758  0.00  0.00     0.086 H 
BRANCH 176 178
ATOM    178  OG1 GLU d   1     -49.943  -0.617  -6.058  0.00  0.00    -0.393 OA
ATOM    179  H49 GLU d   1     -49.744  -1.064  -6.872  0.00  0.00     0.210 HD
ENDBRANCH 176 178
BRANCH 176 180
ATOM    180  CG2 GLU d   1     -47.635   0.064  -5.934  0.00  0.00    -0.050 C 
ATOM    181  H50 GLU d   1     -47.423  -0.449  -6.884  0.00  0.00     0.031 H 
ATOM    182  H51 GLU d   1     -47.460  -0.628  -5.097  0.00  0.00     0.031 H 
ATOM    183  H52 GLU d   1     -46.973   0.937  -5.833  0.00  0.00     0.031 H 
ENDBRANCH 176 180
ENDBRANCH  95 176
ENDBRANCH   3  95
TORSDOF 53
