REMARK  4 active torsions:
REMARK  status: ('A' for Active; 'I' for Inactive)
REMARK    1  A    between atoms: N10_22  and  C11_1 
REMARK    2  A    between atoms: C12_2  and  O13_25 
REMARK    3  A    between atoms: O13_25  and  C14_3 
REMARK    4  A    between atoms: N07_21  and  C06_8 
ROOT
ATOM      1  C08 MOL d   1      11.452  70.860  19.634  0.00  0.00     0.023 C 
ATOM      2  C09 MOL d   1      12.214  70.668  20.909  0.00  0.00    -0.001 C 
ATOM      3  C19 MOL d   1      12.114  68.283  20.708  0.00  0.00    -0.001 C 
ATOM      4  C20 MOL d   1      11.529  68.448  19.291  0.00  0.00     0.023 C 
ATOM      5  N07 MOL d   1      11.661  69.804  18.651  0.00  0.00    -0.215 N 
ATOM      6  N10 MOL d   1      11.808  69.430  21.602  0.00  0.00    -0.278 NA
ATOM      7  H7  MOL d   1      11.763  71.815  19.186  0.00  0.00     0.067 H 
ATOM      8  H8  MOL d   1      10.380  70.900  19.875  0.00  0.00     0.067 H 
ATOM      9  H9  MOL d   1      12.025  71.526  21.571  0.00  0.00     0.058 H 
ATOM     10  H10 MOL d   1      13.288  70.612  20.678  0.00  0.00     0.058 H 
ATOM     11  H14 MOL d   1      13.207  68.184  20.627  0.00  0.00     0.058 H 
ATOM     12  H15 MOL d   1      11.696  67.369  21.155  0.00  0.00     0.058 H 
ATOM     13  H16 MOL d   1      10.457  68.210  19.345  0.00  0.00     0.067 H 
ATOM     14  H17 MOL d   1      12.034  67.722  18.637  0.00  0.00     0.067 H 
ENDROOT
BRANCH   5  15
ATOM     15  C06 MOL d   1      11.900  70.038  17.324  0.00  0.00     0.683 A 
ATOM     16  N05 MOL d   1      12.074  68.923  16.489  0.00  0.00    -0.156 N 
ATOM     17  C03 MOL d   1      12.323  69.157  15.121  0.00  0.00     0.267 A 
ATOM     18  H24 MOL d   1      12.023  67.993  16.853  0.00  0.00     0.187 HD
ATOM     19  C02 MOL d   1      12.401  70.490  14.598  0.00  0.00     0.034 A 
ATOM     20  O04 MOL d   1      12.443  68.092  14.465  0.00  0.00    -0.267 OA
ATOM     21  C01 MOL d   1      12.653  70.712  13.143  0.00  0.00    -0.034 C 
ATOM     22  C22 MOL d   1      12.218  71.503  15.505  0.00  0.00     0.038 A 
ATOM     23  C25 MOL d   1      12.228  72.115  12.641  0.00  0.00    -0.061 C 
ATOM     24  H5  MOL d   1      12.092  69.956  12.575  0.00  0.00     0.040 H 
ATOM     25  H6  MOL d   1      13.730  70.588  12.955  0.00  0.00     0.040 H 
ATOM     26  C24 MOL d   1      12.718  73.202  13.575  0.00  0.00    -0.060 C 
ATOM     27  H22 MOL d   1      11.130  72.159  12.584  0.00  0.00     0.033 H 
ATOM     28  H23 MOL d   1      12.654  72.282  11.641  0.00  0.00     0.033 H 
ATOM     29  C23 MOL d   1      12.312  72.955  15.035  0.00  0.00    -0.025 C 
ATOM     30  H20 MOL d   1      13.816  73.247  13.518  0.00  0.00     0.033 H 
ATOM     31  H21 MOL d   1      12.294  74.163  13.249  0.00  0.00     0.033 H 
ATOM     32  H18 MOL d   1      13.052  73.461  15.673  0.00  0.00     0.042 H 
ATOM     33  H19 MOL d   1      11.324  73.415  15.184  0.00  0.00     0.042 H 
ATOM     34  N21 MOL d   1      11.973  71.286  16.855  0.00  0.00    -0.195 N 
ATOM     35  H25 MOL d   1      11.848  72.085  17.492  0.00  0.00     0.184 HD
ENDBRANCH   5  15
BRANCH   6  36
ATOM     36  C11 MOL d   1      12.211  69.308  22.961  0.00  0.00     0.044 A 
ATOM     37  C12 MOL d   1      11.357  69.847  23.963  0.00  0.00     0.089 A 
ATOM     38  C15 MOL d   1      11.700  69.767  25.320  0.00  0.00    -0.049 A 
ATOM     39  C16 MOL d   1      12.889  69.165  25.735  0.00  0.00    -0.080 A 
ATOM     40  H4  MOL d   1      11.028  70.181  26.063  0.00  0.00     0.087 H 
ATOM     41  C17 MOL d   1      13.751  68.644  24.775  0.00  0.00    -0.081 A 
ATOM     42  H11 MOL d   1      13.137  69.104  26.788  0.00  0.00     0.083 H 
ATOM     43  C18 MOL d   1      13.409  68.728  23.413  0.00  0.00    -0.060 A 
ATOM     44  H12 MOL d   1      14.681  68.176  25.075  0.00  0.00     0.083 H 
ATOM     45  H13 MOL d   1      14.100  68.328  22.680  0.00  0.00     0.086 H 
BRANCH  37  46
ATOM     46  O13 MOL d   1      10.169  70.426  23.532  0.00  0.00    -0.354 OA
BRANCH  46  47
ATOM     47  C14 MOL d   1       8.997  70.426  24.360  0.00  0.00     0.010 C 
ATOM     48  H1  MOL d   1       8.175  70.931  23.832  0.00  0.00     0.066 H 
ATOM     49  H2  MOL d   1       9.211  70.958  25.299  0.00  0.00     0.066 H 
ATOM     50  H3  MOL d   1       8.706  69.389  24.584  0.00  0.00     0.066 H 
ENDBRANCH  46  47
ENDBRANCH  37  46
ENDBRANCH   6  36
TORSDOF 4
