REMARK  1 active torsions:
REMARK  status: ('A' for Active; 'I' for Inactive)
REMARK    1  A    between atoms: N07_22  and  C06_10 
ROOT
ATOM      1  C10 MOL d   1       1.945 -11.857  -7.136  0.00  0.00     0.081 A 
ATOM      2  C11 MOL d   1       1.899 -11.349  -5.761  0.00  0.00    -0.005 A 
ATOM      3  C12 MOL d   1       2.044 -10.101  -5.218  0.00  0.00    -0.073 A 
ATOM      4  C13 MOL d   1       1.957  -9.931  -3.829  0.00  0.00    -0.082 A 
ATOM      5  C14 MOL d   1       1.730 -11.021  -2.998  0.00  0.00    -0.080 A 
ATOM      6  C15 MOL d   1       1.575 -12.313  -3.517  0.00  0.00    -0.050 A 
ATOM      7  C08 MOL d   1       3.590 -11.890  -9.205  0.00  0.00     0.013 C 
ATOM      8  C09 MOL d   1       3.353 -11.850  -7.699  0.00  0.00    -0.029 C 
ATOM      9  C16 MOL d   1       1.669 -12.418  -4.882  0.00  0.00     0.086 A 
ATOM     10  C18 MOL d   1       1.701 -13.343  -6.891  0.00  0.00     0.277 A 
ATOM     11  C20 MOL d   1       0.986 -11.292  -8.111  0.00  0.00    -0.029 C 
ATOM     12  C21 MOL d   1       1.034 -11.916  -9.477  0.00  0.00     0.013 C 
ATOM     13  N07 MOL d   1       2.393 -11.982 -10.092  0.00  0.00    -0.217 N 
ATOM     14  O17 MOL d   1       1.532 -13.636  -5.553  0.00  0.00    -0.277 OA
ATOM     15  O19 MOL d   1       1.664 -14.279  -7.657  0.00  0.00    -0.264 OA
ATOM     16  H1  MOL d   1       2.226  -9.247  -5.860  0.00  0.00     0.084 H 
ATOM     17  H2  MOL d   1       2.068  -8.942  -3.400  0.00  0.00     0.083 H 
ATOM     18  H3  MOL d   1       1.672 -10.869  -1.926  0.00  0.00     0.083 H 
ATOM     19  H4  MOL d   1       1.393 -13.173  -2.882  0.00  0.00     0.087 H 
ATOM     20  H7  MOL d   1       4.223 -12.765  -9.415  0.00  0.00     0.065 H 
ATOM     21  H8  MOL d   1       4.131 -10.972  -9.477  0.00  0.00     0.065 H 
ATOM     22  H9  MOL d   1       3.864 -12.728  -7.277  0.00  0.00     0.037 H 
ATOM     23  H10 MOL d   1       3.834 -10.933  -7.330  0.00  0.00     0.037 H 
ATOM     24  H11 MOL d   1       1.199 -10.218  -8.218  0.00  0.00     0.037 H 
ATOM     25  H12 MOL d   1      -0.029 -11.426  -7.709  0.00  0.00     0.037 H 
ATOM     26  H13 MOL d   1       0.386 -11.329 -10.144  0.00  0.00     0.065 H 
ATOM     27  H14 MOL d   1       0.645 -12.942  -9.398  0.00  0.00     0.065 H 
ENDROOT
BRANCH  13  28
ATOM     28  C06 MOL d   1       2.627 -12.140 -11.462  0.00  0.00     0.683 A 
ATOM     29  N05 MOL d   1       1.579 -12.249 -12.370  0.00  0.00    -0.156 N 
ATOM     30  C03 MOL d   1       1.798 -12.405 -13.769  0.00  0.00     0.267 A 
ATOM     31  H21 MOL d   1       0.639 -12.217 -12.029  0.00  0.00     0.187 HD
ATOM     32  C02 MOL d   1       3.205 -12.447 -14.204  0.00  0.00     0.034 A 
ATOM     33  O04 MOL d   1       0.797 -12.505 -14.472  0.00  0.00    -0.267 OA
ATOM     34  C01 MOL d   1       3.502 -12.605 -15.666  0.00  0.00    -0.034 C 
ATOM     35  C23 MOL d   1       4.162 -12.330 -13.235  0.00  0.00     0.038 A 
ATOM     36  C26 MOL d   1       4.977 -12.261 -15.996  0.00  0.00    -0.061 C 
ATOM     37  H5  MOL d   1       2.844 -11.934 -16.237  0.00  0.00     0.040 H 
ATOM     38  H6  MOL d   1       3.306 -13.647 -15.958  0.00  0.00     0.040 H 
ATOM     39  C25 MOL d   1       5.905 -12.970 -15.014  0.00  0.00    -0.060 C 
ATOM     40  H19 MOL d   1       5.125 -11.174 -15.918  0.00  0.00     0.033 H 
ATOM     41  H20 MOL d   1       5.208 -12.590 -17.020  0.00  0.00     0.033 H 
ATOM     42  C24 MOL d   1       5.645 -12.387 -13.613  0.00  0.00    -0.025 C 
ATOM     43  H17 MOL d   1       5.695 -14.050 -15.014  0.00  0.00     0.033 H 
ATOM     44  H18 MOL d   1       6.953 -12.800 -15.301  0.00  0.00     0.033 H 
ATOM     45  H15 MOL d   1       6.168 -13.012 -12.874  0.00  0.00     0.042 H 
ATOM     46  H16 MOL d   1       6.051 -11.365 -13.581  0.00  0.00     0.042 H 
ATOM     47  N22 MOL d   1       3.907 -12.183 -11.879  0.00  0.00    -0.195 N 
ATOM     48  H22 MOL d   1       4.682 -12.108 -11.204  0.00  0.00     0.184 HD
ENDBRANCH  13  28
TORSDOF 1
