REMARK  2 active torsions:
REMARK  status: ('A' for Active; 'I' for Inactive)
REMARK    1  A    between atoms: N13_24  and  C14_3 
REMARK    2  A    between atoms: N07_23  and  C06_8 
ROOT
ATOM      1  C10 MOL d   1       2.969 -11.741  -7.888  0.00  0.00     0.073 A 
ATOM      2  C11 MOL d   1       3.067 -10.258  -7.512  0.00  0.00     0.237 A 
ATOM      3  C15 MOL d   1       2.709 -11.390  -5.542  0.00  0.00     0.044 A 
ATOM      4  C08 MOL d   1       1.953 -11.372 -10.142  0.00  0.00     0.013 C 
ATOM      5  C09 MOL d   1       1.756 -11.988  -8.769  0.00  0.00    -0.030 C 
ATOM      6  C16 MOL d   1       2.509 -11.741  -4.230  0.00  0.00    -0.056 A 
ATOM      7  C17 MOL d   1       2.345 -13.107  -3.976  0.00  0.00    -0.081 A 
ATOM      8  C18 MOL d   1       2.388 -14.059  -4.985  0.00  0.00    -0.082 A 
ATOM      9  C19 MOL d   1       2.591 -13.695  -6.316  0.00  0.00    -0.073 A 
ATOM     10  C20 MOL d   1       2.750 -12.369  -6.570  0.00  0.00    -0.013 A 
ATOM     11  C21 MOL d   1       4.275 -12.222  -8.533  0.00  0.00    -0.030 C 
ATOM     12  C22 MOL d   1       4.469 -11.511  -9.852  0.00  0.00     0.013 C 
ATOM     13  N07 MOL d   1       3.296 -11.602 -10.714  0.00  0.00    -0.217 N 
ATOM     14  N13 MOL d   1       2.889 -10.126  -6.106  0.00  0.00    -0.321 N 
ATOM     15  O12 MOL d   1       3.241  -9.272  -8.205  0.00  0.00    -0.272 OA
ATOM     16  H6  MOL d   1       1.792 -10.287 -10.061  0.00  0.00     0.065 H 
ATOM     17  H7  MOL d   1       1.207 -11.803 -10.825  0.00  0.00     0.065 H 
ATOM     18  H8  MOL d   1       0.870 -11.540  -8.296  0.00  0.00     0.037 H 
ATOM     19  H9  MOL d   1       1.604 -13.072  -8.879  0.00  0.00     0.037 H 
ATOM     20  H10 MOL d   1       2.480 -11.003  -3.437  0.00  0.00     0.086 H 
ATOM     21  H11 MOL d   1       2.179 -13.433  -2.956  0.00  0.00     0.083 H 
ATOM     22  H12 MOL d   1       2.261 -15.106  -4.734  0.00  0.00     0.083 H 
ATOM     23  H13 MOL d   1       2.620 -14.433  -7.109  0.00  0.00     0.084 H 
ATOM     24  H14 MOL d   1       4.223 -13.307  -8.704  0.00  0.00     0.037 H 
ATOM     25  H15 MOL d   1       5.120 -11.996  -7.866  0.00  0.00     0.037 H 
ATOM     26  H16 MOL d   1       5.326 -11.963 -10.373  0.00  0.00     0.065 H 
ATOM     27  H17 MOL d   1       4.679 -10.450  -9.653  0.00  0.00     0.065 H 
ENDROOT
BRANCH  13  28
ATOM     28  C06 MOL d   1       3.489 -11.886 -12.065  0.00  0.00     0.683 A 
ATOM     29  N05 MOL d   1       2.366 -11.976 -12.899  0.00  0.00    -0.156 N 
ATOM     30  C03 MOL d   1       2.522 -12.258 -14.274  0.00  0.00     0.267 A 
ATOM     31  H24 MOL d   1       1.451 -11.840 -12.519  0.00  0.00     0.187 HD
ATOM     32  C02 MOL d   1       3.900 -12.438 -14.733  0.00  0.00     0.034 A 
ATOM     33  O04 MOL d   1       1.494 -12.320 -14.933  0.00  0.00    -0.267 OA
ATOM     34  C01 MOL d   1       4.106 -12.734 -16.165  0.00  0.00    -0.034 C 
ATOM     35  C24 MOL d   1       4.932 -12.328 -13.847  0.00  0.00     0.038 A 
ATOM     36  C27 MOL d   1       5.476 -12.280 -16.661  0.00  0.00    -0.061 C 
ATOM     37  H4  MOL d   1       3.330 -12.217 -16.748  0.00  0.00     0.040 H 
ATOM     38  H5  MOL d   1       4.017 -13.820 -16.318  0.00  0.00     0.040 H 
ATOM     39  C26 MOL d   1       6.618 -12.776 -15.750  0.00  0.00    -0.060 C 
ATOM     40  H22 MOL d   1       5.497 -11.181 -16.688  0.00  0.00     0.033 H 
ATOM     41  H23 MOL d   1       5.635 -12.675 -17.675  0.00  0.00     0.033 H 
ATOM     42  C25 MOL d   1       6.386 -12.521 -14.263  0.00  0.00    -0.025 C 
ATOM     43  H20 MOL d   1       6.734 -13.860 -15.900  0.00  0.00     0.033 H 
ATOM     44  H21 MOL d   1       7.545 -12.263 -16.048  0.00  0.00     0.033 H 
ATOM     45  H18 MOL d   1       6.786 -13.381 -13.706  0.00  0.00     0.042 H 
ATOM     46  H19 MOL d   1       6.941 -11.613 -13.985  0.00  0.00     0.042 H 
ATOM     47  N23 MOL d   1       4.748 -12.059 -12.505  0.00  0.00    -0.195 N 
ATOM     48  H25 MOL d   1       5.550 -11.993 -11.861  0.00  0.00     0.184 HD
ENDBRANCH  13  28
BRANCH  14  49
ATOM     49  C14 MOL d   1       2.944  -8.757  -5.528  0.00  0.00    -0.011 C 
ATOM     50  H1  MOL d   1       3.105  -8.025  -6.333  0.00  0.00     0.057 H 
ATOM     51  H2  MOL d   1       3.772  -8.696  -4.807  0.00  0.00     0.057 H 
ATOM     52  H3  MOL d   1       1.996  -8.537  -5.016  0.00  0.00     0.057 H 
ENDBRANCH  14  49
TORSDOF 2
