REMARK  4 active torsions:
REMARK  status: ('A' for Active; 'I' for Inactive)
REMARK    1  A    between atoms: N07_26  and  C06_9 
REMARK    2  A    between atoms: C20_14  and  C21_15 
REMARK    3  A    between atoms: C20_14  and  N19_27 
REMARK    4  A    between atoms: C21_15  and  O22_30 
ROOT
ATOM      1  C10 MOL d   1       1.936 -11.620  -7.097  0.00  0.00     0.011 C 
ATOM      2  C11 MOL d   1       1.725 -12.265  -5.798  0.00  0.00     0.018 A 
ATOM      3  C12 MOL d   1       1.430 -13.604  -5.551  0.00  0.00     0.128 A 
ATOM      4  C14 MOL d   1       1.251 -14.078  -4.217  0.00  0.00    -0.008 A 
ATOM      5  C15 MOL d   1       1.381 -13.164  -3.167  0.00  0.00     0.121 A 
ATOM      6  C08 MOL d   1       1.107 -11.394  -9.540  0.00  0.00     0.013 C 
ATOM      7  C09 MOL d   1       0.834 -11.824  -8.121  0.00  0.00    -0.037 C 
ATOM      8  C17 MOL d   1       1.680 -11.802  -3.420  0.00  0.00    -0.019 A 
ATOM      9  C18 MOL d   1       1.856 -11.356  -4.734  0.00  0.00     0.043 A 
ATOM     10  C23 MOL d   1       2.042 -10.124  -6.710  0.00  0.00     0.006 C 
ATOM     11  C24 MOL d   1       3.260 -11.989  -7.723  0.00  0.00    -0.037 C 
ATOM     12  C25 MOL d   1       3.540 -11.353  -9.095  0.00  0.00     0.013 C 
ATOM     13  F13 MOL d   1       1.306 -14.464  -6.509  0.00  0.00    -0.205 F 
ATOM     14  F16 MOL d   1       1.215 -13.590  -1.944  0.00  0.00    -0.206 F 
ATOM     15  N07 MOL d   1       2.455 -11.561 -10.078  0.00  0.00    -0.217 N 
ATOM     16  N19 MOL d   1       2.153 -10.084  -5.226  0.00  0.00    -0.377 N 
ATOM     17  H1  MOL d   1       1.020 -15.119  -4.023  0.00  0.00     0.093 H 
ATOM     18  H4  MOL d   1       0.863 -10.324  -9.606  0.00  0.00     0.065 H 
ATOM     19  H5  MOL d   1       0.427 -11.966 -10.188  0.00  0.00     0.065 H 
ATOM     20  H6  MOL d   1      -0.046 -11.264  -7.772  0.00  0.00     0.037 H 
ATOM     21  H7  MOL d   1       0.601 -12.899  -8.143  0.00  0.00     0.037 H 
ATOM     22  H8  MOL d   1       1.772 -11.105  -2.595  0.00  0.00     0.091 H 
ATOM     23  H13 MOL d   1       1.144  -9.581  -7.040  0.00  0.00     0.066 H 
ATOM     24  H14 MOL d   1       2.933  -9.673  -7.171  0.00  0.00     0.066 H 
ATOM     25  H15 MOL d   1       3.285 -13.082  -7.844  0.00  0.00     0.037 H 
ATOM     26  H16 MOL d   1       4.060 -11.677  -7.035  0.00  0.00     0.037 H 
ATOM     27  H17 MOL d   1       4.464 -11.792  -9.499  0.00  0.00     0.065 H 
ATOM     28  H18 MOL d   1       3.679 -10.271  -8.955  0.00  0.00     0.065 H 
ENDROOT
BRANCH  16  29
ATOM     29  C20 MOL d   1       2.306  -8.766  -4.540  0.00  0.00     0.015 C 
ATOM     30  H9  MOL d   1       2.893  -8.919  -3.622  0.00  0.00     0.067 H 
ATOM     31  H10 MOL d   1       2.848  -8.085  -5.213  0.00  0.00     0.067 H 
BRANCH  29  32
ATOM     32  C21 MOL d   1       0.951  -8.098  -4.152  0.00  0.00     0.032 C 
ATOM     33  H11 MOL d   1       0.888  -7.095  -4.600  0.00  0.00     0.076 H 
ATOM     34  H12 MOL d   1       0.876  -8.016  -3.058  0.00  0.00     0.076 H 
BRANCH  32  35
ATOM     35  O22 MOL d   1      -0.090  -8.902  -4.640  0.00  0.00    -0.399 OA
ATOM     36  H27 MOL d   1      -0.019  -8.972  -5.585  0.00  0.00     0.209 HD
ENDBRANCH  32  35
ENDBRANCH  29  32
ENDBRANCH  16  29
BRANCH  15  37
ATOM     37  C06 MOL d   1       2.679 -11.762 -11.411  0.00  0.00     0.683 A 
ATOM     38  N05 MOL d   1       1.614 -11.939 -12.283  0.00  0.00    -0.156 N 
ATOM     39  C03 MOL d   1       1.851 -12.170 -13.684  0.00  0.00     0.267 A 
ATOM     40  H25 MOL d   1       0.677 -11.906 -11.936  0.00  0.00     0.187 HD
ATOM     41  C02 MOL d   1       3.239 -12.239 -14.118  0.00  0.00     0.034 A 
ATOM     42  O04 MOL d   1       0.856 -12.313 -14.382  0.00  0.00    -0.267 OA
ATOM     43  C01 MOL d   1       3.512 -12.468 -15.563  0.00  0.00    -0.034 C 
ATOM     44  C27 MOL d   1       4.202 -12.057 -13.175  0.00  0.00     0.038 A 
ATOM     45  C30 MOL d   1       4.896 -11.924 -15.930  0.00  0.00    -0.061 C 
ATOM     46  H2  MOL d   1       2.748 -11.953 -16.164  0.00  0.00     0.040 H 
ATOM     47  H3  MOL d   1       3.478 -13.547 -15.773  0.00  0.00     0.040 H 
ATOM     48  C29 MOL d   1       5.917 -12.565 -15.025  0.00  0.00    -0.060 C 
ATOM     49  H23 MOL d   1       4.914 -10.832 -15.795  0.00  0.00     0.033 H 
ATOM     50  H24 MOL d   1       5.124 -12.167 -16.978  0.00  0.00     0.033 H 
ATOM     51  C28 MOL d   1       5.679 -12.135 -13.563  0.00  0.00    -0.025 C 
ATOM     52  H21 MOL d   1       5.833 -13.659 -15.100  0.00  0.00     0.033 H 
ATOM     53  H22 MOL d   1       6.925 -12.253 -15.336  0.00  0.00     0.033 H 
ATOM     54  H19 MOL d   1       6.173 -12.863 -12.903  0.00  0.00     0.042 H 
ATOM     55  H20 MOL d   1       6.129 -11.142 -13.416  0.00  0.00     0.042 H 
ATOM     56  N26 MOL d   1       3.922 -11.825 -11.845  0.00  0.00    -0.195 N 
ATOM     57  H26 MOL d   1       4.698 -11.699 -11.179  0.00  0.00     0.184 HD
ENDBRANCH  15  37
TORSDOF 4
