REMARK  7 active torsions:
REMARK  status: ('A' for Active; 'I' for Inactive)
REMARK    1  A    between atoms: CAY_2  and  CAX_4 
REMARK    2  A    between atoms: NAL_12  and  CAK_13 
REMARK    3  A    between atoms: CAP_16  and  CAQ_17 
REMARK    4  A    between atoms: CAP_16  and  CAT_18 
REMARK    5  A    between atoms: CAD_21  and  CAC_22 
REMARK    6  A    between atoms: CAD_21  and  CAA_23 
REMARK    7  A    between atoms: CAG_26  and  CAB_27 
ROOT
ATOM      1  CAK MOL d   1     -58.471  12.401 135.983  0.00  0.00     0.067 A 
ATOM      2  CAJ MOL d   1     -57.283  12.935 135.487  0.00  0.00    -0.047 A 
ATOM      3  CAI MOL d   1     -56.116  12.172 135.418  0.00  0.00    -0.041 A 
ATOM      4  CAP MOL d   1     -54.940  12.763 134.926  0.00  0.00    -0.020 C 
ATOM      5  CAO MOL d   1     -53.931  11.707 134.530  0.00  0.00    -0.054 C 
ATOM      6  CAH MOL d   1     -53.757  10.804 135.724  0.00  0.00    -0.054 C 
ATOM      7  CAD MOL d   1     -55.036  10.010 135.834  0.00  0.00    -0.020 C 
ATOM      8  CAE MOL d   1     -56.145  10.851 135.877  0.00  0.00    -0.043 A 
ATOM      9  CAF MOL d   1     -57.330  10.316 136.357  0.00  0.00    -0.068 A 
ATOM     10  CAG MOL d   1     -58.486  11.074 136.418  0.00  0.00    -0.033 A 
ATOM     11  H4  MOL d   1     -57.265  13.964 135.148  0.00  0.00     0.088 H 
ATOM     12  H11 MOL d   1     -52.972  12.178 134.268  0.00  0.00     0.034 H 
ATOM     13  H12 MOL d   1     -54.303  11.131 133.670  0.00  0.00     0.034 H 
ATOM     14  H13 MOL d   1     -53.598  11.400 136.635  0.00  0.00     0.034 H 
ATOM     15  H14 MOL d   1     -52.901  10.130 135.572  0.00  0.00     0.034 H 
ATOM     16  H21 MOL d   1     -57.352   9.285 136.691  0.00  0.00     0.085 H 
ENDROOT
BRANCH   1  17
ATOM     17  NAL MOL d   1     -59.570  13.161 136.040  0.00  0.00    -0.213 N 
ATOM     18  CAR MOL d   1     -60.155  13.588 137.161  0.00  0.00     0.091 A 
ATOM     19  CAU MOL d   1     -59.872  13.399 138.451  0.00  0.00    -0.052 A 
ATOM     20  CAS MOL d   1     -61.199  14.304 136.780  0.00  0.00     0.110 A 
ATOM     21  CAW MOL d   1     -60.675  13.957 139.432  0.00  0.00    -0.064 A 
ATOM     22  H3  MOL d   1     -59.010  12.806 138.733  0.00  0.00     0.087 H 
ATOM     23  CAX MOL d   1     -61.764  14.713 139.030  0.00  0.00     0.043 A 
ATOM     24  H2  MOL d   1     -60.458  13.807 140.483  0.00  0.00     0.085 H 
ATOM     25  CAV MOL d   1     -62.012  14.876 137.669  0.00  0.00    -0.035 A 
ATOM     26  H1  MOL d   1     -62.860  15.463 137.335  0.00  0.00     0.088 H 
ATOM     27  NAN MOL d   1     -61.171  14.278 135.452  0.00  0.00    -0.130 NA
ATOM     28  NAM MOL d   1     -60.198  13.600 135.084  0.00  0.00    -0.060 NA
BRANCH  23  29
ATOM     29  CAY MOL d   1     -62.589  15.288 139.988  0.00  0.00     0.209 C 
ATOM     30  OAZ MOL d   1     -62.361  15.096 141.203  0.00  0.00    -0.644 OA
ATOM     31  OBA MOL d   1     -63.564  15.984 139.635  0.00  0.00    -0.644 OA
ENDBRANCH  23  29
ENDBRANCH   1  17
BRANCH  10  32
ATOM     32  CAB MOL d   1     -59.630  10.458 136.913  0.00  0.00    -0.049 C 
ATOM     33  H22 MOL d   1     -60.465  11.174 136.904  0.00  0.00     0.033 H 
ATOM     34  H23 MOL d   1     -59.448  10.121 137.944  0.00  0.00     0.033 H 
ATOM     35  H24 MOL d   1     -59.882   9.592 136.283  0.00  0.00     0.033 H 
ENDBRANCH  10  32
BRANCH   4  36
ATOM     36  CAQ MOL d   1     -55.254  13.636 133.709  0.00  0.00    -0.065 C 
ATOM     37  H5  MOL d   1     -54.325  14.091 133.335  0.00  0.00     0.028 H 
ATOM     38  H6  MOL d   1     -55.960  14.428 133.998  0.00  0.00     0.028 H 
ATOM     39  H7  MOL d   1     -55.702  13.016 132.919  0.00  0.00     0.028 H 
ENDBRANCH   4  36
BRANCH   4  40
ATOM     40  CAT MOL d   1     -54.316  13.630 136.022  0.00  0.00    -0.065 C 
ATOM     41  H8  MOL d   1     -54.089  13.006 136.899  0.00  0.00     0.028 H 
ATOM     42  H9  MOL d   1     -55.023  14.422 136.310  0.00  0.00     0.028 H 
ATOM     43  H10 MOL d   1     -53.388  14.085 135.646  0.00  0.00     0.028 H 
ENDBRANCH   4  40
BRANCH   7  44
ATOM     44  CAC MOL d   1     -55.185   9.144 134.592  0.00  0.00    -0.065 C 
ATOM     45  H15 MOL d   1     -56.115   8.560 134.661  0.00  0.00     0.028 H 
ATOM     46  H16 MOL d   1     -54.327   8.460 134.517  0.00  0.00     0.028 H 
ATOM     47  H17 MOL d   1     -55.221   9.786 133.700  0.00  0.00     0.028 H 
ENDBRANCH   7  44
BRANCH   7  48
ATOM     48  CAA MOL d   1     -54.985   9.112 137.074  0.00  0.00    -0.065 C 
ATOM     49  H18 MOL d   1     -54.877   9.735 137.974  0.00  0.00     0.028 H 
ATOM     50  H19 MOL d   1     -54.127   8.428 136.997  0.00  0.00     0.028 H 
ATOM     51  H20 MOL d   1     -55.914   8.527 137.142  0.00  0.00     0.028 H 
ENDBRANCH   7  48
TORSDOF 7
