REMARK  8 active torsions:
REMARK  status: ('A' for Active; 'I' for Inactive)
REMARK       I    between atoms: C31_2  and  N33_3 
REMARK    1  A    between atoms: C31_2  and  C27_4 
REMARK    2  A    between atoms: C25_6  and  C30_7 
REMARK    3  A    between atoms: C18_13  and  C21_14 
REMARK    4  A    between atoms: C21_14  and  C23_15 
REMARK    5  A    between atoms: C21_14  and  C22_16 
REMARK    6  A    between atoms: C12_22  and  N10_23 
REMARK    7  A    between atoms: C7_27  and  C5_28 
REMARK    8  A    between atoms: N2_32  and  C1_33 
ROOT
ATOM      1  C27 MOL d   1      28.844  19.645   7.962  0.00  0.00     0.032 A 
ATOM      2  C26 MOL d   1      29.304  20.173   9.171  0.00  0.00    -0.060 A 
ATOM      3  C25 MOL d   1      30.594  19.911   9.627  0.00  0.00    -0.032 A 
ATOM      4  C28 MOL d   1      29.719  18.876   7.216  0.00  0.00    -0.066 A 
ATOM      5  C29 MOL d   1      31.020  18.591   7.665  0.00  0.00    -0.054 A 
ATOM      6  C24 MOL d   1      31.531  19.033   8.874  0.00  0.00     0.066 A 
ATOM      7  N20 MOL d   1      32.781  18.915   9.277  0.00  0.00    -0.214 N 
ATOM      8  N19 MOL d   1      33.251  18.509  10.514  0.00  0.00    -0.169 NA
ATOM      9  C18 MOL d   1      34.591  18.719  10.508  0.00  0.00     0.075 A 
ATOM     10  C13 MOL d   1      34.977  19.403   9.239  0.00  0.00     0.066 A 
ATOM     11  C14 MOL d   1      33.686  19.508   8.512  0.00  0.00     0.165 A 
ATOM     12  N15 MOL d   1      33.592  20.086   7.286  0.00  0.00    -0.240 NA
ATOM     13  C16 MOL d   1      34.674  20.559   6.707  0.00  0.00     0.007 A 
ATOM     14  C17 MOL d   1      35.929  20.503   7.328  0.00  0.00    -0.039 A 
ATOM     15  C12 MOL d   1      36.201  19.970   8.601  0.00  0.00     0.057 A 
ATOM     16  H3  MOL d   1      28.646  20.797   9.764  0.00  0.00     0.086 H 
ATOM     17  H7  MOL d   1      29.393  18.483   6.260  0.00  0.00     0.085 H 
ATOM     18  H8  MOL d   1      31.660  17.991   7.029  0.00  0.00     0.087 H 
ATOM     19  H16 MOL d   1      34.593  21.005   5.722  0.00  0.00     0.114 H 
ATOM     20  H17 MOL d   1      36.769  20.908   6.776  0.00  0.00     0.089 H 
ENDROOT
BRANCH   3  21
ATOM     21  C30 MOL d   1      30.977  20.500  10.961  0.00  0.00    -0.049 C 
ATOM     22  H4  MOL d   1      30.147  21.113  11.343  0.00  0.00     0.033 H 
ATOM     23  H5  MOL d   1      31.872  21.128  10.841  0.00  0.00     0.033 H 
ATOM     24  H6  MOL d   1      31.191  19.689  11.672  0.00  0.00     0.033 H 
ENDBRANCH   3  21
BRANCH   9  25
ATOM     25  C21 MOL d   1      35.593  18.474  11.561  0.00  0.00    -0.016 C 
ATOM     26  H9  MOL d   1      36.483  19.081  11.336  0.00  0.00     0.048 H 
BRANCH  25  27
ATOM     27  C23 MOL d   1      34.969  19.001  12.876  0.00  0.00    -0.068 C 
ATOM     28  H10 MOL d   1      35.675  18.845  13.705  0.00  0.00     0.028 H 
ATOM     29  H11 MOL d   1      34.035  18.457  13.082  0.00  0.00     0.028 H 
ATOM     30  H12 MOL d   1      34.754  20.075  12.775  0.00  0.00     0.028 H 
ENDBRANCH  25  27
BRANCH  25  31
ATOM     31  C22 MOL d   1      36.058  17.032  11.640  0.00  0.00    -0.068 C 
ATOM     32  H13 MOL d   1      36.487  16.732  10.673  0.00  0.00     0.028 H 
ATOM     33  H14 MOL d   1      35.202  16.383  11.879  0.00  0.00     0.028 H 
ATOM     34  H15 MOL d   1      36.822  16.936  12.426  0.00  0.00     0.028 H 
ENDBRANCH  25  31
ENDBRANCH   9  25
BRANCH  15  35
ATOM     35  N10 MOL d   1      37.441  19.920   9.193  0.00  0.00    -0.313 N 
ATOM     36  C9  MOL d   1      38.059  18.750   9.407  0.00  0.00     0.071 A 
ATOM     37  N8  MOL d   1      39.251  19.029   9.977  0.00  0.00    -0.241 NA
ATOM     38  H18 MOL d   1      37.673  17.761   9.166  0.00  0.00     0.144 H 
ATOM     39  C7  MOL d   1      39.324  20.340  10.077  0.00  0.00     0.087 A 
ATOM     40  C11 MOL d   1      38.195  20.976   9.545  0.00  0.00     0.015 A 
ATOM     41  H19 MOL d   1      37.985  22.040   9.444  0.00  0.00     0.116 H 
BRANCH  39  42
ATOM     42  C5  MOL d   1      40.596  20.901  10.638  0.00  0.00     0.030 A 
ATOM     43  C4  MOL d   1      41.542  20.150  11.354  0.00  0.00     0.035 A 
ATOM     44  N3  MOL d   1      42.583  20.981  11.653  0.00  0.00    -0.185 NA
ATOM     45  H20 MOL d   1      41.460  19.098  11.622  0.00  0.00     0.118 H 
ATOM     46  N2  MOL d   1      42.209  22.222  11.097  0.00  0.00    -0.285 N 
ATOM     47  C6  MOL d   1      41.022  22.189  10.453  0.00  0.00     0.011 A 
ATOM     48  H21 MOL d   1      40.523  22.994   9.915  0.00  0.00     0.115 H 
BRANCH  46  49
ATOM     49  C1  MOL d   1      43.181  23.312  11.299  0.00  0.00     0.002 C 
ATOM     50  H22 MOL d   1      42.801  24.233  10.832  0.00  0.00     0.059 H 
ATOM     51  H23 MOL d   1      44.142  23.037  10.839  0.00  0.00     0.059 H 
ATOM     52  H24 MOL d   1      43.325  23.480  12.377  0.00  0.00     0.059 H 
ENDBRANCH  46  49
ENDBRANCH  39  42
ENDBRANCH  15  35
BRANCH   1  53
ATOM     53  C31 MOL d   1      27.495  19.945   7.352  0.00  0.00     0.249 C 
ATOM     54  O32 MOL d   1      26.975  19.252   6.469  0.00  0.00    -0.268 OA
ATOM     55  N33 MOL d   1      26.925  21.091   7.693  0.00  0.00    -0.366 N 
ATOM     56  H1  MOL d   1      27.335  21.661   8.405  0.00  0.00     0.159 HD
ATOM     57  H2  MOL d   1      26.085  21.386   7.238  0.00  0.00     0.159 HD
ENDBRANCH   1  53
TORSDOF 8
