REMARK  13 active torsions:
REMARK  status: ('A' for Active; 'I' for Inactive)
REMARK    1  A    between atoms: PG_1  and  O2G_3 
REMARK    2  A    between atoms: PG_1  and  O3G_4 
REMARK    3  A    between atoms: O3B_8  and  PG_1 
REMARK    4  A    between atoms: PB_5  and  O3B_8 
REMARK    5  A    between atoms: O3A_12  and  PB_5 
REMARK    6  A    between atoms: PA_9  and  O3A_12 
REMARK    7  A    between atoms: PA_9  and  O5'_13 
REMARK    8  A    between atoms: O5'_13  and  C5'_14 
REMARK    9  A    between atoms: C5'_14  and  C4'_15 
REMARK   10  A    between atoms: C3'_17  and  O3'_18 
REMARK   11  A    between atoms: C2'_19  and  O2'_20 
REMARK   12  A    between atoms: C1'_21  and  N9_22 
REMARK   13  A    between atoms: C6_26  and  N6_27 
ROOT
ATOM      1  C4' AGS d   1      52.803  34.927 188.312  0.00  0.00     0.089 C 
ATOM      2  O4' AGS d   1      52.483  36.328 188.265  0.00  0.00    -0.353 OA
ATOM      3  C3' AGS d   1      51.495  34.157 188.151  0.00  0.00     0.091 C 
ATOM      4  C2' AGS d   1      50.389  35.191 188.430  0.00  0.00     0.105 C 
ATOM      5  C1' AGS d   1      51.104  36.547 188.470  0.00  0.00     0.139 C 
ATOM      6  H5  AGS d   1      53.246  34.675 189.287  0.00  0.00     0.090 H 
ATOM      7  H6  AGS d   1      51.402  33.760 187.129  0.00  0.00     0.091 H 
ATOM      8  H8  AGS d   1      49.646  35.178 187.619  0.00  0.00     0.093 H 
ATOM      9  H10 AGS d   1      50.944  36.993 189.463  0.00  0.00     0.122 H 
ENDROOT
BRANCH   1  10
ATOM     10  C5' AGS d   1      53.817  34.642 187.232  0.00  0.00     0.058 C 
ATOM     11  H3  AGS d   1      54.807  35.011 187.539  0.00  0.00     0.079 H 
ATOM     12  H4  AGS d   1      53.872  33.560 187.044  0.00  0.00     0.079 H 
BRANCH  10  13
ATOM     13  O5' AGS d   1      53.382  35.329 186.038  0.00  0.00    -0.287 OA
BRANCH  13  14
ATOM     14  PA  AGS d   1      53.915  34.946 184.601  0.00  0.00     0.417 P 
ATOM     15  O1A AGS d   1      53.241  35.808 183.604  0.00  0.00    -0.624 OA
ATOM     16  O2A AGS d   1      53.771  33.448 184.322  0.00  0.00    -0.624 OA
BRANCH  14  17
ATOM     17  O3A AGS d   1      55.474  35.217 184.630  0.00  0.00    -0.180 OA
BRANCH  17  18
ATOM     18  PB  AGS d   1      56.344  34.520 183.506  0.00  0.00     0.425 P 
ATOM     19  O1B AGS d   1      56.013  35.084 182.181  0.00  0.00    -0.624 OA
ATOM     20  O2B AGS d   1      56.025  33.025 183.595  0.00  0.00    -0.624 OA
BRANCH  18  21
ATOM     21  O3B AGS d   1      57.892  34.655 183.807  0.00  0.00    -0.205 OA
BRANCH  21  22
ATOM     22  PG  AGS d   1      58.816  33.459 183.431  0.00  0.00     0.333 P 
ATOM     23  S1G AGS d   1      60.661  34.047 183.200  0.00  0.00    -0.007 SA
BRANCH  22  24
ATOM     24  O2G AGS d   1      58.740  32.391 184.561  0.00  0.00    -0.324 OA
ATOM     25  H1  AGS d   1      57.839  32.109 184.668  0.00  0.00     0.220 HD
ENDBRANCH  22  24
BRANCH  22  26
ATOM     26  O3G AGS d   1      58.302  32.831 182.101  0.00  0.00    -0.324 OA
ATOM     27  H2  AGS d   1      57.403  32.545 182.214  0.00  0.00     0.220 HD
ENDBRANCH  22  26
ENDBRANCH  21  22
ENDBRANCH  18  21
ENDBRANCH  17  18
ENDBRANCH  14  17
ENDBRANCH  13  14
ENDBRANCH  10  13
ENDBRANCH   1  10
BRANCH   3  28
ATOM     28  O3' AGS d   1      51.437  33.084 189.083  0.00  0.00    -0.390 OA
ATOM     29  H7  AGS d   1      51.487  33.430 189.966  0.00  0.00     0.210 HD
ENDBRANCH   3  28
BRANCH   5  30
ATOM     30  N9  AGS d   1      50.647  37.499 187.456  0.00  0.00    -0.294 N 
ATOM     31  C8  AGS d   1      51.428  38.105 186.508  0.00  0.00     0.071 A 
ATOM     32  N7  AGS d   1      50.769  38.919 185.718  0.00  0.00    -0.236 NA
ATOM     33  H11 AGS d   1      52.499  37.927 186.418  0.00  0.00     0.144 H 
ATOM     34  C5  AGS d   1      49.452  38.841 186.182  0.00  0.00     0.149 A 
ATOM     35  C6  AGS d   1      48.274  39.465 185.766  0.00  0.00     0.155 A 
ATOM     36  C4  AGS d   1      49.385  37.965 187.252  0.00  0.00     0.167 A 
ATOM     37  N1  AGS d   1      47.142  39.166 186.445  0.00  0.00    -0.222 NA
ATOM     38  C2  AGS d   1      47.208  38.302 187.461  0.00  0.00     0.091 A 
ATOM     39  N3  AGS d   1      48.271  37.655 187.939  0.00  0.00    -0.222 NA
ATOM     40  H14 AGS d   1      46.270  38.099 187.965  0.00  0.00     0.146 H 
BRANCH  35  41
ATOM     41  N6  AGS d   1      48.200  40.323 184.751  0.00  0.00    -0.382 N 
ATOM     42  H12 AGS d   1      47.295  40.746 184.499  0.00  0.00     0.157 HD
ATOM     43  H13 AGS d   1      49.047  40.564 184.217  0.00  0.00     0.157 HD
ENDBRANCH  35  41
ENDBRANCH   5  30
BRANCH   4  44
ATOM     44  O2' AGS d   1      49.731  34.926 189.663  0.00  0.00    -0.388 OA
ATOM     45  H9  AGS d   1      49.336  34.062 189.631  0.00  0.00     0.210 HD
ENDBRANCH   4  44
TORSDOF 13
