REMARK  10 active torsions:
REMARK  status: ('A' for Active; 'I' for Inactive)
REMARK    1  A    between atoms: CAV_10  and  NAT_11 
REMARK       I    between atoms: NAT_11  and  CAM_12 
REMARK    2  A    between atoms: CAM_12  and  CAJ_14 
REMARK    3  A    between atoms: CAK_15  and  CAL_16 
REMARK    4  A    between atoms: NAH_18  and  CAN_19 
REMARK    5  A    between atoms: CAN_19  and  CAO_20 
REMARK    6  A    between atoms: CAO_20  and  CAP_21 
REMARK    7  A    between atoms: CAP_21  and  CAQ_22 
REMARK    8  A    between atoms: CAQ_22  and  CAR_23 
REMARK    9  A    between atoms: CAR_23  and  OAS_24 
REMARK   10  A    between atoms: CAG_25  and  CAE_26 
ROOT
ATOM      1  CAJ MOL d   1       8.263   0.075 -55.070  0.00  0.00     0.152 A 
ATOM      2  CAK MOL d   1       7.503  -0.525 -54.143  0.00  0.00     0.003 A 
ATOM      3  NAI MOL d   1       9.425  -0.595 -55.104  0.00  0.00    -0.166 NA
ATOM      4  NAH MOL d   1       9.414  -1.536 -54.315  0.00  0.00    -0.268 N 
ATOM      5  CAG MOL d   1       8.234  -1.534 -53.669  0.00  0.00     0.071 A 
ENDROOT
BRANCH   1   6
ATOM      6  CAM MOL d   1       8.007   1.148 -55.865  0.00  0.00     0.273 C 
ATOM      7  NAT MOL d   1       9.094   1.582 -56.563  0.00  0.00    -0.346 N 
ATOM      8  H16 MOL d   1       9.934   1.061 -56.412  0.00  0.00     0.163 HD
ATOM      9  OAU MOL d   1       6.882   1.646 -55.968  0.00  0.00    -0.266 OA
BRANCH   7  10
ATOM     10  CAV MOL d   1       9.214   2.718 -57.517  0.00  0.00     0.034 C 
ATOM     11  CAW MOL d   1       8.372   2.466 -58.835  0.00  0.00    -0.038 C 
ATOM     12  CAX MOL d   1       8.612   3.656 -59.851  0.00  0.00    -0.051 C 
ATOM     13  H1  MOL d   1       8.689   1.520 -59.297  0.00  0.00     0.037 H 
ATOM     14  H2  MOL d   1       7.303   2.410 -58.582  0.00  0.00     0.037 H 
ATOM     15  CBE MOL d   1       8.191   5.032 -59.186  0.00  0.00    -0.058 C 
ATOM     16  CAY MOL d   1      10.138   3.713 -60.222  0.00  0.00    -0.058 C 
ATOM     17  H3  MOL d   1       8.015   3.489 -60.760  0.00  0.00     0.040 H 
ATOM     18  CBC MOL d   1       9.035   5.289 -57.885  0.00  0.00    -0.051 C 
ATOM     19  H4  MOL d   1       7.123   4.997 -58.925  0.00  0.00     0.034 H 
ATOM     20  H5  MOL d   1       8.367   5.849 -59.901  0.00  0.00     0.034 H 
ATOM     21  CBB MOL d   1      10.560   5.335 -58.268  0.00  0.00    -0.058 C 
ATOM     22  CBD MOL d   1       8.787   4.111 -56.859  0.00  0.00    -0.038 C 
ATOM     23  H13 MOL d   1       8.736   6.245 -57.430  0.00  0.00     0.040 H 
ATOM     24  CAZ MOL d   1      10.995   3.975 -58.930  0.00  0.00    -0.051 C 
ATOM     25  H11 MOL d   1      10.731   6.157 -58.979  0.00  0.00     0.034 H 
ATOM     26  H12 MOL d   1      11.158   5.505 -57.360  0.00  0.00     0.034 H 
ATOM     27  CBA MOL d   1      10.745   2.800 -57.912  0.00  0.00    -0.038 C 
ATOM     28  H8  MOL d   1      12.062   4.018 -59.195  0.00  0.00     0.040 H 
ATOM     29  H9  MOL d   1      11.343   2.974 -57.005  0.00  0.00     0.037 H 
ATOM     30  H10 MOL d   1      11.050   1.850 -58.375  0.00  0.00     0.037 H 
ATOM     31  H14 MOL d   1       7.720   4.077 -56.593  0.00  0.00     0.037 H 
ATOM     32  H15 MOL d   1       9.385   4.285 -55.952  0.00  0.00     0.037 H 
ATOM     33  H6  MOL d   1      10.308   4.526 -60.943  0.00  0.00     0.034 H 
ATOM     34  H7  MOL d   1      10.440   2.756 -60.672  0.00  0.00     0.034 H 
ENDBRANCH   7  10
ENDBRANCH   1   6
BRANCH   2  35
ATOM     35  CAL MOL d   1       6.074  -0.168 -53.686  0.00  0.00    -0.047 C 
ATOM     36  H17 MOL d   1       5.718   0.709 -54.247  0.00  0.00     0.033 H 
ATOM     37  H18 MOL d   1       6.080   0.062 -52.610  0.00  0.00     0.033 H 
ATOM     38  H19 MOL d   1       5.405  -1.020 -53.875  0.00  0.00     0.033 H 
ENDBRANCH   2  35
BRANCH   5  39
ATOM     39  CAE MOL d   1       7.862  -2.396 -52.704  0.00  0.00    -0.007 A 
ATOM     40  CAD MOL d   1       8.009  -2.059 -51.346  0.00  0.00    -0.071 A 
ATOM     41  CAC MOL d   1       7.627  -2.965 -50.350  0.00  0.00    -0.082 A 
ATOM     42  H31 MOL d   1       8.419  -1.094 -51.070  0.00  0.00     0.084 H 
ATOM     43  CAB MOL d   1       7.108  -4.217 -50.703  0.00  0.00    -0.083 A 
ATOM     44  H32 MOL d   1       7.733  -2.698 -49.305  0.00  0.00     0.083 H 
ATOM     45  CAA MOL d   1       6.965  -4.566 -52.049  0.00  0.00    -0.082 A 
ATOM     46  H33 MOL d   1       6.816  -4.918 -49.929  0.00  0.00     0.083 H 
ATOM     47  CAF MOL d   1       7.334  -3.651 -53.045  0.00  0.00    -0.071 A 
ATOM     48  H34 MOL d   1       6.571  -5.538 -52.321  0.00  0.00     0.083 H 
ATOM     49  H35 MOL d   1       7.210  -3.915 -54.089  0.00  0.00     0.084 H 
ENDBRANCH   5  39
BRANCH   4  50
ATOM     50  CAN MOL d   1      10.645  -2.398 -54.172  0.00  0.00     0.017 C 
ATOM     51  H20 MOL d   1      10.879  -2.498 -53.102  0.00  0.00     0.067 H 
ATOM     52  H21 MOL d   1      11.481  -1.901 -54.685  0.00  0.00     0.067 H 
BRANCH  50  53
ATOM     53  CAO MOL d   1      10.472  -3.801 -54.767  0.00  0.00    -0.048 C 
ATOM     54  H22 MOL d   1       9.418  -4.104 -54.684  0.00  0.00     0.035 H 
ATOM     55  H23 MOL d   1      11.102  -4.511 -54.212  0.00  0.00     0.035 H 
BRANCH  53  56
ATOM     56  CAP MOL d   1      10.883  -3.804 -56.237  0.00  0.00    -0.062 C 
ATOM     57  H24 MOL d   1      11.585  -2.978 -56.423  0.00  0.00     0.033 H 
ATOM     58  H25 MOL d   1       9.991  -3.675 -56.867  0.00  0.00     0.033 H 
BRANCH  56  59
ATOM     59  CAQ MOL d   1      11.560  -5.134 -56.578  0.00  0.00    -0.045 C 
ATOM     60  H26 MOL d   1      10.798  -5.923 -56.657  0.00  0.00     0.036 H 
ATOM     61  H27 MOL d   1      12.276  -5.394 -55.785  0.00  0.00     0.036 H 
BRANCH  59  62
ATOM     62  CAR MOL d   1      12.302  -5.005 -57.913  0.00  0.00     0.017 C 
ATOM     63  H28 MOL d   1      11.711  -4.381 -58.600  0.00  0.00     0.073 H 
ATOM     64  H29 MOL d   1      12.439  -6.005 -58.351  0.00  0.00     0.073 H 
BRANCH  62  65
ATOM     65  OAS MOL d   1      13.585  -4.397 -57.705  0.00  0.00    -0.401 OA
ATOM     66  H30 MOL d   1      14.037  -4.321 -58.537  0.00  0.00     0.209 HD
ENDBRANCH  62  65
ENDBRANCH  59  62
ENDBRANCH  56  59
ENDBRANCH  53  56
ENDBRANCH  50  53
ENDBRANCH   4  50
TORSDOF 10
