REMARK WARNING: 32 MAX_TORS EXCEEDED!!!
REMARK  49 active torsions:
REMARK  status: ('A' for Active; 'I' for Inactive)
REMARK    1  A    between atoms: N_1  and  CA_2 
REMARK    2  A    between atoms: CA_2  and  C_3 
REMARK    3  A    between atoms: CA_2  and  CB_5 
REMARK       I    between atoms: C_3  and  N_7 
REMARK    4  A    between atoms: CB_5  and  OG_6 
REMARK    5  A    between atoms: N_7  and  CA_8 
REMARK    6  A    between atoms: CA_8  and  C_9 
REMARK    7  A    between atoms: CA_8  and  CB_11 
REMARK       I    between atoms: C_9  and  N_16 
REMARK    8  A    between atoms: CB_11  and  CG_12 
REMARK    9  A    between atoms: CG_12  and  CD_13 
REMARK       I    between atoms: CD_13  and  NE2_15 
REMARK   10  A    between atoms: N_16  and  CA_17 
REMARK   11  A    between atoms: CA_17  and  C_18 
REMARK   12  A    between atoms: CA_17  and  CB_20 
REMARK       I    between atoms: C_18  and  N_22 
REMARK   13  A    between atoms: CB_20  and  OG_21 
REMARK   14  A    between atoms: CA_23  and  C_24 
REMARK       I    between atoms: C_24  and  N_29 
REMARK   15  A    between atoms: N_29  and  CA_30 
REMARK   16  A    between atoms: CA_30  and  C_31 
REMARK   17  A    between atoms: CA_30  and  CB_33 
REMARK       I    between atoms: C_31  and  N_36 
REMARK   18  A    between atoms: CB_33  and  OG1_34 
REMARK   19  A    between atoms: CB_33  and  CG2_35 
REMARK   20  A    between atoms: N_36  and  CA_37 
REMARK   21  A    between atoms: CA_37  and  C_38 
REMARK   22  A    between atoms: CA_37  and  CB_40 
REMARK       I    between atoms: C_38  and  N_45 
REMARK   23  A    between atoms: CB_40  and  CG_41 
REMARK   24  A    between atoms: CG_41  and  CD_42 
REMARK   25  A    between atoms: N_45  and  CA_46 
REMARK   26  A    between atoms: CA_46  and  C_47 
REMARK   27  A    between atoms: CA_46  and  CB_49 
REMARK       I    between atoms: C_47  and  N_53 
REMARK   28  A    between atoms: CB_49  and  CG_50 
REMARK   29  A    between atoms: N_53  and  CA_54 
REMARK   30  A    between atoms: CA_54  and  C_55 
REMARK   31  A    between atoms: CA_54  and  CB_57 
REMARK       I    between atoms: C_55  and  N_61 
REMARK   32  A    between atoms: CB_57  and  CG_58 
REMARK   33  A    between atoms: N_61  and  CA_62 
REMARK   34  A    between atoms: CA_62  and  C_63 
REMARK   35  A    between atoms: CA_62  and  CB_65 
REMARK       I    between atoms: C_63  and  N_70 
REMARK   36  A    between atoms: CB_65  and  CG_66 
REMARK   37  A    between atoms: CG_66  and  CD_67 
REMARK   38  A    between atoms: N_70  and  CA_71 
REMARK   39  A    between atoms: CA_71  and  C_72 
REMARK   40  A    between atoms: CA_71  and  CB_74 
REMARK       I    between atoms: C_72  and  N_78 
REMARK   41  A    between atoms: CB_74  and  CG_75 
REMARK       I    between atoms: CG_75  and  ND2_77 
REMARK   42  A    between atoms: N_78  and  CA_79 
REMARK   43  A    between atoms: CA_79  and  C_80 
REMARK   44  A    between atoms: CA_79  and  CB_82 
REMARK       I    between atoms: C_80  and  N_87 
REMARK   45  A    between atoms: CB_82  and  CG_83 
REMARK   46  A    between atoms: CG_83  and  CD_84 
REMARK   47  A    between atoms: N_87  and  CA_88 
REMARK   48  A    between atoms: CA_88  and  C_89 
REMARK   49  A    between atoms: CA_88  and  CB_91 
ROOT
ATOM      1  CA  GLU d   1      13.205   7.243 -10.561  0.00  0.00     0.090 C 
ATOM      2  H36 GLU d   1      12.690   7.957  -9.901  0.00  0.00     0.087 H 
ENDROOT
BRANCH   1   3
ATOM      3  N   GLU d   1      12.434   7.075 -11.776  0.00  0.00    -0.346 N 
ATOM      4  C   THR d   1      11.971   8.124 -12.445  0.00  0.00     0.243 C 
ATOM      5  O   THR d   1      11.930   9.262 -11.979  0.00  0.00    -0.271 OA
ATOM      6  H35 GLU d   1      12.248   6.153 -12.116  0.00  0.00     0.163 HD
BRANCH   4   7
ATOM      7  CA  THR d   1      11.454   7.844 -13.846  0.00  0.00     0.113 C 
ATOM      8  H29 THR d   1      11.195   6.777 -13.912  0.00  0.00     0.091 H 
BRANCH   7   9
ATOM      9  N   THR d   1      10.262   8.631 -14.120  0.00  0.00    -0.344 N 
ATOM     10  C   PRO d   1       9.232   8.154 -14.815  0.00  0.00     0.241 C 
ATOM     11  O   PRO d   1       9.083   6.958 -15.055  0.00  0.00    -0.271 OA
ATOM     12  H28 THR d   1      10.214   9.568 -13.773  0.00  0.00     0.163 HD
BRANCH  10  13
ATOM     13  CA  PRO d   1       8.203   9.195 -15.231  0.00  0.00     0.091 C 
ATOM     14  N   PRO d   1       7.322   8.706 -16.296  0.00  0.00    -0.337 N 
ATOM     15  C   SER d   1       7.748   8.625 -17.554  0.00  0.00     0.245 C 
ATOM     16  CD  PRO d   1       5.962   8.451 -15.797  0.00  0.00    -0.001 C 
ATOM     17  O   SER d   1       8.833   9.083 -17.938  0.00  0.00    -0.271 OA
ATOM     18  CG  PRO d   1       6.154   8.467 -14.310  0.00  0.00    -0.048 C 
ATOM     19  H26 PRO d   1       5.590   7.474 -16.139  0.00  0.00     0.064 H 
ATOM     20  H27 PRO d   1       5.267   9.241 -16.117  0.00  0.00     0.064 H 
ATOM     21  CB  PRO d   1       7.229   9.473 -14.089  0.00  0.00    -0.036 C 
ATOM     22  H24 PRO d   1       5.227   8.769 -13.801  0.00  0.00     0.035 H 
ATOM     23  H25 PRO d   1       6.466   7.477 -13.947  0.00  0.00     0.035 H 
ATOM     24  H22 PRO d   1       6.831  10.496 -14.150  0.00  0.00     0.036 H 
ATOM     25  H23 PRO d   1       7.713   9.325 -13.112  0.00  0.00     0.036 H 
ATOM     26  H21 PRO d   1       8.721  10.114 -15.543  0.00  0.00     0.087 H 
BRANCH  15  27
ATOM     27  CA  SER d   1       6.818   7.927 -18.540  0.00  0.00     0.109 C 
ATOM     28  H17 SER d   1       5.801   7.917 -18.120  0.00  0.00     0.090 H 
BRANCH  27  29
ATOM     29  N   SER d   1       6.777   8.635 -19.825  0.00  0.00    -0.344 N 
ATOM     30  C   GLN d   1       5.846   9.570 -20.051  0.00  0.00     0.241 C 
ATOM     31  O   GLN d   1       5.068   9.972 -19.183  0.00  0.00    -0.271 OA
ATOM     32  H16 SER d   1       7.447   8.418 -20.535  0.00  0.00     0.163 HD
BRANCH  30  33
ATOM     33  CA  GLN d   1       5.744  10.127 -21.462  0.00  0.00     0.090 C 
ATOM     34  H9  GLN d   1       6.306   9.483 -22.154  0.00  0.00     0.087 H 
BRANCH  33  35
ATOM     35  N   GLN d   1       4.328  10.101 -21.818  0.00  0.00    -0.346 N 
ATOM     36  C   SER d   1       3.874   9.879 -23.052  0.00  0.00     0.251 C 
ATOM     37  O   SER d   1       4.582   9.953 -24.061  0.00  0.00    -0.271 OA
ATOM     38  H8  GLN d   1       3.658  10.259 -21.093  0.00  0.00     0.163 HD
BRANCH  36  39
ATOM     39  CA  SER d   1       2.379   9.559 -23.155  0.00  0.00     0.195 C 
ATOM     40  H4  SER d   1       2.198   8.594 -22.660  0.00  0.00     0.102 H 
BRANCH  39  41
ATOM     41  N   SER d   1       1.592  10.577 -22.471  0.00  0.00    -0.064 N 
ATOM     42  H1  SER d   1       0.612  10.352 -22.548  0.00  0.00     0.275 HD
ATOM     43  H2  SER d   1       1.765  11.476 -22.894  0.00  0.00     0.275 HD
ATOM     44  H3  SER d   1       1.854  10.607 -21.498  0.00  0.00     0.275 HD
ENDBRANCH  39  41
BRANCH  39  45
ATOM     45  CB  SER d   1       1.951   9.432 -24.624  0.00  0.00     0.051 C 
ATOM     46  H5  SER d   1       0.853   9.456 -24.680  0.00  0.00     0.077 H 
ATOM     47  H6  SER d   1       2.318   8.475 -25.022  0.00  0.00     0.077 H 
BRANCH  45  48
ATOM     48  OG  SER d   1       2.476  10.490 -25.410  0.00  0.00    -0.398 OA
ATOM     49  H7  SER d   1       3.425  10.472 -25.369  0.00  0.00     0.209 HD
ENDBRANCH  45  48
ENDBRANCH  39  45
ENDBRANCH  36  39
ENDBRANCH  33  35
BRANCH  33  50
ATOM     50  CB  GLN d   1       6.329  11.541 -21.531  0.00  0.00    -0.030 C 
ATOM     51  H10 GLN d   1       5.995  12.101 -20.645  0.00  0.00     0.037 H 
ATOM     52  H11 GLN d   1       5.950  12.032 -22.439  0.00  0.00     0.037 H 
BRANCH  50  53
ATOM     53  CG  GLN d   1       7.847  11.560 -21.570  0.00  0.00     0.011 C 
ATOM     54  H12 GLN d   1       8.171  11.369 -22.604  0.00  0.00     0.047 H 
ATOM     55  H13 GLN d   1       8.222  10.761 -20.914  0.00  0.00     0.047 H 
BRANCH  53  56
ATOM     56  CD  GLN d   1       8.451  12.886 -21.111  0.00  0.00     0.215 C 
ATOM     57  OE1 GLN d   1       9.661  12.979 -20.915  0.00  0.00    -0.274 OA
ATOM     58  NE2 GLN d   1       7.614  13.913 -20.937  0.00  0.00    -0.370 N 
ATOM     59  H14 GLN d   1       7.966  14.800 -20.637  0.00  0.00     0.159 HD
ATOM     60  H15 GLN d   1       6.636  13.795 -21.107  0.00  0.00     0.159 HD
ENDBRANCH  53  56
ENDBRANCH  50  53
ENDBRANCH  33  50
ENDBRANCH  30  33
ENDBRANCH  27  29
BRANCH  27  61
ATOM     61  CB  SER d   1       7.288   6.491 -18.719  0.00  0.00     0.044 C 
ATOM     62  H18 SER d   1       7.565   6.081 -17.737  0.00  0.00     0.077 H 
ATOM     63  H19 SER d   1       8.166   6.483 -19.381  0.00  0.00     0.077 H 
BRANCH  61  64
ATOM     64  OG  SER d   1       6.276   5.677 -19.288  0.00  0.00    -0.398 OA
ATOM     65  H20 SER d   1       5.515   5.675 -18.719  0.00  0.00     0.209 HD
ENDBRANCH  61  64
ENDBRANCH  27  61
ENDBRANCH  15  27
ENDBRANCH  10  13
ENDBRANCH   7   9
BRANCH   7  66
ATOM     66  CB  THR d   1      12.525   8.155 -14.907  0.00  0.00     0.060 C 
ATOM     67  H30 THR d   1      12.469   9.228 -15.143  0.00  0.00     0.086 H 
BRANCH  66  68
ATOM     68  OG1 THR d   1      12.220   7.408 -16.079  0.00  0.00    -0.393 OA
ATOM     69  H31 THR d   1      12.872   7.588 -16.746  0.00  0.00     0.210 HD
ENDBRANCH  66  68
BRANCH  66  70
ATOM     70  CG2 THR d   1      13.954   7.850 -14.461  0.00  0.00    -0.050 C 
ATOM     71  H32 THR d   1      14.653   8.099 -15.273  0.00  0.00     0.031 H 
ATOM     72  H33 THR d   1      14.042   6.781 -14.217  0.00  0.00     0.031 H 
ATOM     73  H34 THR d   1      14.197   8.450 -13.572  0.00  0.00     0.031 H 
ENDBRANCH  66  70
ENDBRANCH   7  66
ENDBRANCH   4   7
ENDBRANCH   1   3
BRANCH   1  74
ATOM     74  C   GLU d   1      14.577   7.792 -10.917  0.00  0.00     0.241 C 
ATOM     75  O   GLU d   1      15.230   7.299 -11.837  0.00  0.00    -0.271 OA
ATOM     76  N   ASP d   1      15.027   8.800 -10.181  0.00  0.00    -0.346 N 
ATOM     77  H41 ASP d   1      14.472   9.122  -9.414  0.00  0.00     0.163 HD
BRANCH  76  78
ATOM     78  CA  ASP d   1      16.301   9.454 -10.451  0.00  0.00     0.098 C 
ATOM     79  H42 ASP d   1      16.938   8.779 -11.041  0.00  0.00     0.088 H 
BRANCH  78  80
ATOM     80  C   ASP d   1      16.973   9.746  -9.123  0.00  0.00     0.241 C 
ATOM     81  O   ASP d   1      16.433  10.505  -8.316  0.00  0.00    -0.271 OA
ATOM     82  N   ASP d   1      18.136   9.149  -8.888  0.00  0.00    -0.345 N 
ATOM     83  H45 ASP d   1      18.500   8.495  -9.551  0.00  0.00     0.163 HD
BRANCH  82  84
ATOM     84  CA  ASP d   1      18.885   9.438  -7.675  0.00  0.00     0.098 C 
ATOM     85  H46 ASP d   1      18.178   9.551  -6.840  0.00  0.00     0.088 H 
BRANCH  84  86
ATOM     86  C   ASP d   1      19.629  10.751  -7.867  0.00  0.00     0.241 C 
ATOM     87  O   ASP d   1      20.406  10.894  -8.811  0.00  0.00    -0.271 OA
ATOM     88  N   GLU d   1      19.389  11.715  -6.979  0.00  0.00    -0.346 N 
ATOM     89  H49 GLU d   1      18.754  11.546  -6.225  0.00  0.00     0.163 HD
BRANCH  88  90
ATOM     90  CA  GLU d   1      20.042  13.015  -7.093  0.00  0.00     0.090 C 
ATOM     91  H50 GLU d   1      19.893  13.375  -8.122  0.00  0.00     0.087 H 
BRANCH  90  92
ATOM     92  C   GLU d   1      21.539  12.961  -6.829  0.00  0.00     0.241 C 
ATOM     93  O   GLU d   1      22.235  13.922  -7.164  0.00  0.00    -0.271 OA
ATOM     94  N   ASN d   1      22.047  11.878  -6.240  0.00  0.00    -0.346 N 
ATOM     95  H55 ASN d   1      21.427  11.139  -5.976  0.00  0.00     0.163 HD
BRANCH  94  96
ATOM     96  CA  ASN d   1      23.471  11.728  -5.966  0.00  0.00     0.097 C 
ATOM     97  H56 ASN d   1      23.887  12.733  -5.801  0.00  0.00     0.088 H 
BRANCH  96  98
ATOM     98  C   ASN d   1      24.243  11.080  -7.105  0.00  0.00     0.241 C 
ATOM     99  O   ASN d   1      25.479  11.088  -7.074  0.00  0.00    -0.271 OA
ATOM    100  N   GLU d   1      23.559  10.506  -8.094  0.00  0.00    -0.346 N 
ATOM    101  H61 GLU d   1      22.571  10.385  -7.999  0.00  0.00     0.163 HD
BRANCH 100 102
ATOM    102  CA  GLU d   1      24.221  10.049  -9.314  0.00  0.00     0.090 C 
ATOM    103  H62 GLU d   1      25.200   9.627  -9.044  0.00  0.00     0.087 H 
BRANCH 102 104
ATOM    104  C   GLU d   1      24.449  11.233 -10.256  0.00  0.00     0.241 C 
ATOM    105  O   GLU d   1      23.875  11.329 -11.340  0.00  0.00    -0.271 OA
ATOM    106  N   SER d   1      25.303  12.152  -9.801  0.00  0.00    -0.345 N 
ATOM    107  H67 SER d   1      25.749  11.993  -8.920  0.00  0.00     0.163 HD
BRANCH 106 108
ATOM    108  CA  SER d   1      25.619  13.383 -10.531  0.00  0.00     0.093 C 
ATOM    109  H68 SER d   1      25.071  13.368 -11.485  0.00  0.00     0.089 H 
BRANCH 108 110
ATOM    110  C   SER d   1      27.116  13.473 -10.837  0.00  0.00     0.196 C 
ATOM    111  O   SER d   1      27.575  13.030 -11.894  0.00  0.00    -0.646 OA
ATOM    112  OXT SER d   1      27.898  13.991 -10.034  0.00  0.00    -0.646 OA
ENDBRANCH 108 110
BRANCH 108 113
ATOM    113  CB  SER d   1      25.170  14.615  -9.733  0.00  0.00    -0.048 C 
ATOM    114  H69 SER d   1      25.416  15.527 -10.297  0.00  0.00     0.030 H 
ATOM    115  H70 SER d   1      25.689  14.633  -8.763  0.00  0.00     0.030 H 
ATOM    116  H71 SER d   1      24.084  14.568  -9.567  0.00  0.00     0.030 H 
ENDBRANCH 108 113
ENDBRANCH 106 108
ENDBRANCH 102 104
BRANCH 102 117
ATOM    117  CB  GLU d   1      23.400   8.958  -9.984  0.00  0.00    -0.029 C 
ATOM    118  H63 GLU d   1      24.013   8.494 -10.771  0.00  0.00     0.037 H 
ATOM    119  H64 GLU d   1      22.510   9.420 -10.437  0.00  0.00     0.037 H 
BRANCH 117 120
ATOM    120  CG  GLU d   1      22.945   7.876  -9.032  0.00  0.00     0.018 C 
ATOM    121  H65 GLU d   1      21.923   7.573  -9.305  0.00  0.00     0.049 H 
ATOM    122  H66 GLU d   1      22.946   8.283  -8.010  0.00  0.00     0.049 H 
BRANCH 120 123
ATOM    123  CD  GLU d   1      23.838   6.656  -9.069  0.00  0.00     0.172 C 
ATOM    124  OE1 GLU d   1      23.508   5.702  -9.809  0.00  0.00    -0.648 OA
ATOM    125  OE2 GLU d   1      24.868   6.649  -8.355  0.00  0.00    -0.648 OA
ENDBRANCH 120 123
ENDBRANCH 117 120
ENDBRANCH 102 117
ENDBRANCH 100 102
ENDBRANCH  96  98
BRANCH  96 126
ATOM    126  CB  ASN d   1      23.681  10.901  -4.705  0.00  0.00     0.036 C 
ATOM    127  H57 ASN d   1      24.761  10.793  -4.527  0.00  0.00     0.051 H 
ATOM    128  H58 ASN d   1      23.232   9.908  -4.853  0.00  0.00     0.051 H 
BRANCH 126 129
ATOM    129  CG  ASN d   1      23.059  11.536  -3.510  0.00  0.00     0.217 C 
ATOM    130  OD1 ASN d   1      23.098  12.757  -3.356  0.00  0.00    -0.274 OA
ATOM    131  ND2 ASN d   1      22.449  10.724  -2.662  0.00  0.00    -0.370 N 
ATOM    132  H59 ASN d   1      22.013  11.094  -1.841  0.00  0.00     0.159 HD
ATOM    133  H60 ASN d   1      22.424   9.741  -2.842  0.00  0.00     0.159 HD
ENDBRANCH 126 129
ENDBRANCH  96 126
ENDBRANCH  94  96
ENDBRANCH  90  92
BRANCH  90 134
ATOM    134  CB  GLU d   1      19.401  14.012  -6.134  0.00  0.00    -0.029 C 
ATOM    135  H51 GLU d   1      18.309  13.935  -6.238  0.00  0.00     0.037 H 
ATOM    136  H52 GLU d   1      19.726  15.023  -6.422  0.00  0.00     0.037 H 
BRANCH 134 137
ATOM    137  CG  GLU d   1      19.755  13.798  -4.670  0.00  0.00     0.018 C 
ATOM    138  H53 GLU d   1      20.830  13.986  -4.534  0.00  0.00     0.049 H 
ATOM    139  H54 GLU d   1      19.527  12.757  -4.398  0.00  0.00     0.049 H 
BRANCH 137 140
ATOM    140  CD  GLU d   1      18.974  14.727  -3.752  0.00  0.00     0.172 C 
ATOM    141  OE1 GLU d   1      18.968  14.496  -2.525  0.00  0.00    -0.648 OA
ATOM    142  OE2 GLU d   1      18.369  15.698  -4.251  0.00  0.00    -0.648 OA
ENDBRANCH 137 140
ENDBRANCH 134 137
ENDBRANCH  90 134
ENDBRANCH  88  90
ENDBRANCH  84  86
BRANCH  84 143
ATOM    143  CB  ASP d   1      19.847   8.299  -7.336  0.00  0.00     0.043 C 
ATOM    144  H47 ASP d   1      20.694   8.330  -8.037  0.00  0.00     0.052 H 
ATOM    145  H48 ASP d   1      19.315   7.342  -7.446  0.00  0.00     0.052 H 
BRANCH 143 146
ATOM    146  CG  ASP d   1      20.384   8.401  -5.915  0.00  0.00     0.175 C 
ATOM    147  OD1 ASP d   1      21.046   9.412  -5.605  0.00  0.00    -0.648 OA
ATOM    148  OD2 ASP d   1      20.139   7.492  -5.093  0.00  0.00    -0.648 OA
ENDBRANCH 143 146
ENDBRANCH  84 143
ENDBRANCH  82  84
ENDBRANCH  78  80
BRANCH  78 149
ATOM    149  CB  ASP d   1      16.091  10.750 -11.239  0.00  0.00     0.043 C 
ATOM    150  H43 ASP d   1      15.543  11.462 -10.605  0.00  0.00     0.052 H 
ATOM    151  H44 ASP d   1      15.495  10.523 -12.136  0.00  0.00     0.052 H 
BRANCH 149 152
ATOM    152  CG  ASP d   1      17.396  11.394 -11.674  0.00  0.00     0.175 C 
ATOM    153  OD1 ASP d   1      18.141  11.966 -10.826  0.00  0.00    -0.648 OA
ATOM    154  OD2 ASP d   1      17.680  11.325 -12.887  0.00  0.00    -0.648 OA
ENDBRANCH 149 152
ENDBRANCH  78 149
ENDBRANCH  76  78
ENDBRANCH   1  74
BRANCH   1 155
ATOM    155  CB  GLU d   1      13.344   5.908  -9.835  0.00  0.00    -0.029 C 
ATOM    156  H37 GLU d   1      14.343   5.869  -9.376  0.00  0.00     0.037 H 
ATOM    157  H38 GLU d   1      13.249   5.102 -10.577  0.00  0.00     0.037 H 
BRANCH 155 158
ATOM    158  CG  GLU d   1      12.317   5.675  -8.751  0.00  0.00     0.018 C 
ATOM    159  H39 GLU d   1      11.470   5.123  -9.184  0.00  0.00     0.049 H 
ATOM    160  H40 GLU d   1      11.969   6.651  -8.383  0.00  0.00     0.049 H 
BRANCH 158 161
ATOM    161  CD  GLU d   1      12.862   4.878  -7.571  0.00  0.00     0.172 C 
ATOM    162  OE1 GLU d   1      13.625   3.901  -7.779  0.00  0.00    -0.648 OA
ATOM    163  OE2 GLU d   1      12.522   5.238  -6.425  0.00  0.00    -0.648 OA
ENDBRANCH 158 161
ENDBRANCH 155 158
ENDBRANCH   1 155
TORSDOF 49
