REMARK  4 active torsions:
REMARK  status: ('A' for Active; 'I' for Inactive)
REMARK    1  A    between atoms: N26_26  and  C13_7 
REMARK    2  A    between atoms: C17_9  and  C15_8 
REMARK       I    between atoms: N27_27  and  C17_9 
REMARK    3  A    between atoms: C24_13  and  N28_28 
REMARK    4  A    between atoms: C11_18  and  C12_19 
ROOT
ATOM      1  C24 9JX d   1     -14.420  20.064  -8.408  0.00  0.00     0.127 C 
ATOM      2  C16 9JX d   1     -13.508  20.659  -6.296  0.00  0.00     0.226 C 
ATOM      3  C18 9JX d   1     -14.804  20.588  -7.043  0.00  0.00     0.038 C 
ATOM      4  C23 9JX d   1     -12.969  20.536  -8.573  0.00  0.00     0.030 C 
ATOM      5  N26 9JX d   1     -12.482  20.612  -7.178  0.00  0.00    -0.316 N 
ATOM      6  O29 9JX d   1     -13.353  20.780  -5.069  0.00  0.00    -0.273 OA
ATOM      7  H13 9JX d   1     -14.458  18.965  -8.411  0.00  0.00     0.087 H 
ATOM      8  H18 9JX d   1     -15.504  19.901  -6.545  0.00  0.00     0.050 H 
ATOM      9  H19 9JX d   1     -15.263  21.585  -7.123  0.00  0.00     0.050 H 
ATOM     10  H22 9JX d   1     -12.927  21.521  -9.060  0.00  0.00     0.068 H 
ATOM     11  H23 9JX d   1     -12.382  19.812  -9.158  0.00  0.00     0.068 H 
ENDROOT
BRANCH   1  12
ATOM     12  N28 9JX d   1     -15.303  20.551  -9.472  0.00  0.00    -0.062 N 
ATOM     13  C21 9JX d   1     -14.918  19.937 -10.787  0.00  0.00     0.099 C 
ATOM     14  C19 9JX d   1     -15.822  20.432 -11.924  0.00  0.00     0.021 C 
ATOM     15  H9  9JX d   1     -13.876  20.206 -11.016  0.00  0.00     0.078 H 
ATOM     16  H10 9JX d   1     -15.006  18.843 -10.710  0.00  0.00     0.078 H 
ATOM     17  N27 9JX d   1     -17.239  20.258 -11.594  0.00  0.00    -0.343 N 
ATOM     18  H20 9JX d   1     -15.594  19.862 -12.837  0.00  0.00     0.067 H 
ATOM     19  H21 9JX d   1     -15.624  21.500 -12.100  0.00  0.00     0.067 H 
ATOM     20  C17 9JX d   1     -18.228  19.895 -12.476  0.00  0.00     0.279 C 
ATOM     21  C20 9JX d   1     -17.611  20.781 -10.268  0.00  0.00     0.021 C 
ATOM     22  O30 9JX d   1     -19.397  20.026 -12.127  0.00  0.00    -0.265 OA
ATOM     23  C22 9JX d   1     -16.696  20.219  -9.205  0.00  0.00     0.099 C 
ATOM     24  H7  9JX d   1     -17.528  21.878 -10.275  0.00  0.00     0.067 H 
ATOM     25  H8  9JX d   1     -18.648  20.493 -10.043  0.00  0.00     0.067 H 
ATOM     26  H11 9JX d   1     -16.805  19.125  -9.181  0.00  0.00     0.078 H 
ATOM     27  H12 9JX d   1     -16.983  20.637  -8.229  0.00  0.00     0.078 H 
ATOM     28  H24 9JX d   1     -15.210  21.553  -9.533  0.00  0.00     0.280 HD
BRANCH  20  29
ATOM     29  C15 9JX d   1     -17.931  19.279 -13.764  0.00  0.00     0.165 A 
ATOM     30  N25 9JX d   1     -16.768  18.966 -14.301  0.00  0.00    -0.248 NA
ATOM     31  C9  9JX d   1     -16.980  18.340 -15.526  0.00  0.00     0.010 A 
ATOM     32  C10 9JX d   1     -18.290  18.211 -15.874  0.00  0.00    -0.026 A 
ATOM     33  H17 9JX d   1     -16.165  17.983 -16.154  0.00  0.00     0.115 H 
ATOM     34  S31 9JX d   1     -19.313  18.845 -14.683  0.00  0.00    -0.075 SA
ATOM     35  H6  9JX d   1     -18.636  17.757 -16.802  0.00  0.00     0.097 H 
ENDBRANCH  20  29
ENDBRANCH   1  12
BRANCH   5  36
ATOM     36  C13 9JX d   1     -11.125  20.769  -6.876  0.00  0.00     0.038 A 
ATOM     37  C6  9JX d   1     -10.574  20.116  -5.798  0.00  0.00    -0.057 A 
ATOM     38  C3  9JX d   1      -9.226  20.236  -5.539  0.00  0.00    -0.080 A 
ATOM     39  H3  9JX d   1     -11.199  19.508  -5.154  0.00  0.00     0.086 H 
ATOM     40  C5  9JX d   1      -8.413  20.989  -6.378  0.00  0.00    -0.072 A 
ATOM     41  H16 9JX d   1      -8.797  19.740  -4.676  0.00  0.00     0.083 H 
ATOM     42  C11 9JX d   1      -8.954  21.650  -7.474  0.00  0.00    -0.022 A 
ATOM     43  H2  9JX d   1      -7.350  21.061  -6.176  0.00  0.00     0.084 H 
ATOM     44  C8  9JX d   1     -10.325  21.518  -7.701  0.00  0.00    -0.046 A 
ATOM     45  H5  9JX d   1     -10.769  22.021  -8.552  0.00  0.00     0.088 H 
BRANCH  42  46
ATOM     46  C12 9JX d   1      -8.148  22.446  -8.427  0.00  0.00    -0.004 A 
ATOM     47  C4  9JX d   1      -7.419  21.776  -9.394  0.00  0.00    -0.071 A 
ATOM     48  C1  9JX d   1      -6.714  22.529 -10.333  0.00  0.00    -0.082 A 
ATOM     49  H1  9JX d   1      -7.396  20.693  -9.421  0.00  0.00     0.084 H 
ATOM     50  C2  9JX d   1      -6.752  23.891 -10.321  0.00  0.00    -0.081 A 
ATOM     51  H14 9JX d   1      -6.124  22.021 -11.087  0.00  0.00     0.083 H 
ATOM     52  C7  9JX d   1      -7.452  24.575  -9.381  0.00  0.00    -0.061 A 
ATOM     53  H15 9JX d   1      -6.210  24.442 -11.081  0.00  0.00     0.083 H 
ATOM     54  C14 9JX d   1      -8.142  23.825  -8.437  0.00  0.00     0.045 A 
ATOM     55  H4  9JX d   1      -7.472  25.659  -9.367  0.00  0.00     0.086 H 
ATOM     56 CL1  9JX d   1      -9.028  24.661  -7.248  0.00  0.00    -0.083 Cl
ENDBRANCH  42  46
ENDBRANCH   5  36
TORSDOF 4
