REMARK  11 active torsions:
REMARK  status: ('A' for Active; 'I' for Inactive)
REMARK    1  A    between atoms: C23_2  and  C24_3 
REMARK    2  A    between atoms: C23_2  and  C22_5 
REMARK    3  A    between atoms: C24_3  and  C25_4 
REMARK    4  A    between atoms: C22_5  and  C20_6 
REMARK    5  A    between atoms: C20_6  and  C18_7 
REMARK    6  A    between atoms: C18_7  and  C19_8 
REMARK    7  A    between atoms: C18_7  and  C16_9 
REMARK    8  A    between atoms: C10_13  and  C17_14 
REMARK    9  A    between atoms: C7_19  and  C6_20 
REMARK   10  A    between atoms: C3_24  and  O_25 
REMARK   11  A    between atoms: C1_28  and  O1_29 
ROOT
ATOM      1  C16 9K0 d   1      14.301   3.276  26.853  0.00  0.00    -0.043 C 
ATOM      2  C15 9K0 d   1      15.113   2.663  25.709  0.00  0.00    -0.060 C 
ATOM      3  C14 9K0 d   1      15.468   3.820  24.771  0.00  0.00    -0.057 C 
ATOM      4  C9  9K0 d   1      14.926   5.037  25.501  0.00  0.00    -0.025 C 
ATOM      5  C10 9K0 d   1      13.719   4.540  26.247  0.00  0.00    -0.033 C 
ATOM      6  C11 9K0 d   1      13.274   5.619  27.214  0.00  0.00    -0.057 C 
ATOM      7  C12 9K0 d   1      12.810   6.829  26.410  0.00  0.00    -0.061 C 
ATOM      8  C13 9K0 d   1      13.870   7.369  25.447  0.00  0.00    -0.044 C 
ATOM      9  C8  9K0 d   1      14.585   6.257  24.718  0.00  0.00    -0.075 C 
ATOM     10  C7  9K0 d   1      14.916   6.373  23.426  0.00  0.00    -0.080 C 
ATOM     11  H14 9K0 d   1      14.991   3.557  27.663  0.00  0.00     0.041 H 
ATOM     12  H15 9K0 d   1      14.514   1.910  25.176  0.00  0.00     0.033 H 
ATOM     13  H16 9K0 d   1      16.028   2.194  26.099  0.00  0.00     0.033 H 
ATOM     14  H17 9K0 d   1      14.981   3.698  23.792  0.00  0.00     0.034 H 
ATOM     15  H18 9K0 d   1      16.557   3.896  24.632  0.00  0.00     0.034 H 
ATOM     16  H19 9K0 d   1      15.692   5.345  26.228  0.00  0.00     0.048 H 
ATOM     17  H23 9K0 d   1      14.115   5.905  27.863  0.00  0.00     0.034 H 
ATOM     18  H24 9K0 d   1      12.445   5.244  27.832  0.00  0.00     0.034 H 
ATOM     19  H25 9K0 d   1      12.539   7.630  27.113  0.00  0.00     0.033 H 
ATOM     20  H26 9K0 d   1      11.925   6.539  25.825  0.00  0.00     0.033 H 
ATOM     21  H27 9K0 d   1      14.607   7.951  26.019  0.00  0.00     0.039 H 
ATOM     22  H28 9K0 d   1      13.381   8.021  24.709  0.00  0.00     0.039 H 
ATOM     23  H29 9K0 d   1      15.431   5.556  22.922  0.00  0.00     0.083 H 
ENDROOT
BRANCH  10  24
ATOM     24  C6  9K0 d   1      14.589   7.590  22.692  0.00  0.00    -0.080 C 
ATOM     25  C5  9K0 d   1      14.316   7.560  21.385  0.00  0.00    -0.074 C 
ATOM     26  C   9K0 d   1      13.986   8.846  20.662  0.00  0.00    -0.017 C 
ATOM     27  C4  9K0 d   1      14.315   6.247  20.628  0.00  0.00    -0.017 C 
ATOM     28  C1  9K0 d   1      14.637   8.896  19.282  0.00  0.00     0.062 C 
ATOM     29  H31 9K0 d   1      14.349   9.695  21.259  0.00  0.00     0.043 H 
ATOM     30  H32 9K0 d   1      12.895   8.920  20.545  0.00  0.00     0.043 H 
ATOM     31  C2  9K0 d   1      14.327   7.639  18.539  0.00  0.00    -0.032 C 
ATOM     32  H39 9K0 d   1      14.262   9.767  18.725  0.00  0.00     0.090 H 
ATOM     33  C3  9K0 d   1      14.775   6.355  19.171  0.00  0.00     0.062 C 
ATOM     34  C21 9K0 d   1      13.682   7.673  17.388  0.00  0.00    -0.114 C 
ATOM     35  H35 9K0 d   1      15.874   6.316  19.143  0.00  0.00     0.090 H 
ATOM     36  H37 9K0 d   1      13.375   8.628  16.964  0.00  0.00     0.067 H 
ATOM     37  H38 9K0 d   1      13.457   6.746  16.862  0.00  0.00     0.067 H 
ATOM     38  H33 9K0 d   1      13.291   5.846  20.636  0.00  0.00     0.043 H 
ATOM     39  H34 9K0 d   1      14.986   5.549  21.150  0.00  0.00     0.043 H 
ATOM     40  H30 9K0 d   1      14.567   8.542  23.220  0.00  0.00     0.083 H 
BRANCH  28  41
ATOM     41  O1  9K0 d   1      16.053   8.978  19.427  0.00  0.00    -0.391 OA
ATOM     42  H40 9K0 d   1      16.458   8.994  18.568  0.00  0.00     0.210 HD
ENDBRANCH  28  41
BRANCH  33  43
ATOM     43  O   9K0 d   1      14.248   5.248  18.440  0.00  0.00    -0.391 OA
ATOM     44  H36 9K0 d   1      13.299   5.266  18.481  0.00  0.00     0.210 HD
ENDBRANCH  33  43
ENDBRANCH  10  24
BRANCH   5  45
ATOM     45  C17 9K0 d   1      12.597   4.206  25.276  0.00  0.00    -0.068 C 
ATOM     46  H20 9K0 d   1      11.722   3.844  25.837  0.00  0.00     0.028 H 
ATOM     47  H21 9K0 d   1      12.935   3.424  24.580  0.00  0.00     0.028 H 
ATOM     48  H22 9K0 d   1      12.322   5.108  24.709  0.00  0.00     0.028 H 
ENDBRANCH   5  45
BRANCH   1  49
ATOM     49  C18 9K0 d   1      13.265   2.346  27.466  0.00  0.00    -0.053 C 
ATOM     50  H10 9K0 d   1      12.464   2.977  27.878  0.00  0.00     0.040 H 
BRANCH  49  51
ATOM     51  C20 9K0 d   1      12.634   1.438  26.426  0.00  0.00    -0.056 C 
ATOM     52  H8  9K0 d   1      12.609   1.961  25.459  0.00  0.00     0.034 H 
ATOM     53  H9  9K0 d   1      13.238   0.523  26.333  0.00  0.00     0.034 H 
BRANCH  51  54
ATOM     54  C22 9K0 d   1      11.215   1.060  26.824  0.00  0.00    -0.009 C 
ATOM     55  H6  9K0 d   1      10.706   0.625  25.951  0.00  0.00     0.044 H 
ATOM     56  H7  9K0 d   1      11.260   0.314  27.631  0.00  0.00     0.044 H 
BRANCH  54  57
ATOM     57  C23 9K0 d   1      10.416   2.259  27.310  0.00  0.00     0.126 C 
ATOM     58  O2  9K0 d   1      10.395   3.279  26.646  0.00  0.00    -0.298 OA
BRANCH  57  59
ATOM     59  C24 9K0 d   1       9.633   2.218  28.605  0.00  0.00    -0.013 C 
ATOM     60  H1  9K0 d   1       8.676   2.745  28.475  0.00  0.00     0.043 H 
ATOM     61  H2  9K0 d   1      10.214   2.703  29.403  0.00  0.00     0.043 H 
BRANCH  59  62
ATOM     62  C25 9K0 d   1       9.370   0.763  28.975  0.00  0.00    -0.070 C 
ATOM     63  H3  9K0 d   1       8.801   0.721  29.916  0.00  0.00     0.028 H 
ATOM     64  H4  9K0 d   1      10.328   0.238  29.102  0.00  0.00     0.028 H 
ATOM     65  H5  9K0 d   1       8.791   0.280  28.174  0.00  0.00     0.028 H 
ENDBRANCH  59  62
ENDBRANCH  57  59
ENDBRANCH  54  57
ENDBRANCH  51  54
ENDBRANCH  49  51
BRANCH  49  66
ATOM     66  C19 9K0 d   1      13.849   1.544  28.619  0.00  0.00    -0.072 C 
ATOM     67  H11 9K0 d   1      14.297   2.230  29.353  0.00  0.00     0.028 H 
ATOM     68  H12 9K0 d   1      14.621   0.861  28.236  0.00  0.00     0.028 H 
ATOM     69  H13 9K0 d   1      13.051   0.961  29.102  0.00  0.00     0.028 H 
ENDBRANCH  49  66
ENDBRANCH   1  49
TORSDOF 11
