REMARK  12 active torsions:
REMARK  status: ('A' for Active; 'I' for Inactive)
REMARK    1  A    between atoms: C23_2  and  C24_3 
REMARK    2  A    between atoms: C23_2  and  C22_6 
REMARK    3  A    between atoms: C24_3  and  C25_4 
REMARK    4  A    between atoms: C25_4  and  C26_5 
REMARK    5  A    between atoms: C22_6  and  C20_7 
REMARK    6  A    between atoms: C20_7  and  C18_8 
REMARK    7  A    between atoms: C18_8  and  C19_9 
REMARK    8  A    between atoms: C18_8  and  C16_10 
REMARK    9  A    between atoms: C10_14  and  C17_15 
REMARK   10  A    between atoms: C7_20  and  C6_21 
REMARK   11  A    between atoms: C3_25  and  O_26 
REMARK   12  A    between atoms: C1_29  and  O1_30 
ROOT
ATOM      1  C16 9KR d   1      13.922   3.354  26.962  0.00  0.00    -0.043 C 
ATOM      2  C15 9KR d   1      14.829   2.657  25.927  0.00  0.00    -0.060 C 
ATOM      3  C14 9KR d   1      15.366   3.777  25.024  0.00  0.00    -0.057 C 
ATOM      4  C9  9KR d   1      14.767   5.033  25.641  0.00  0.00    -0.025 C 
ATOM      5  C10 9KR d   1      13.453   4.644  26.269  0.00  0.00    -0.033 C 
ATOM      6  C11 9KR d   1      13.056   5.779  27.201  0.00  0.00    -0.057 C 
ATOM      7  C12 9KR d   1      12.967   7.089  26.404  0.00  0.00    -0.061 C 
ATOM      8  C13 9KR d   1      14.271   7.450  25.656  0.00  0.00    -0.044 C 
ATOM      9  C8  9KR d   1      14.613   6.260  24.816  0.00  0.00    -0.075 C 
ATOM     10  C7  9KR d   1      14.779   6.268  23.489  0.00  0.00    -0.080 C 
ATOM     11  H16 9KR d   1      14.570   3.663  27.795  0.00  0.00     0.041 H 
ATOM     12  H17 9KR d   1      14.250   1.932  25.336  0.00  0.00     0.033 H 
ATOM     13  H18 9KR d   1      15.659   2.140  26.431  0.00  0.00     0.033 H 
ATOM     14  H19 9KR d   1      15.025   3.646  23.986  0.00  0.00     0.034 H 
ATOM     15  H20 9KR d   1      16.465   3.811  25.048  0.00  0.00     0.034 H 
ATOM     16  H21 9KR d   1      15.450   5.319  26.454  0.00  0.00     0.048 H 
ATOM     17  H25 9KR d   1      13.811   5.883  27.994  0.00  0.00     0.034 H 
ATOM     18  H26 9KR d   1      12.078   5.558  27.652  0.00  0.00     0.034 H 
ATOM     19  H27 9KR d   1      12.730   7.905  27.102  0.00  0.00     0.033 H 
ATOM     20  H28 9KR d   1      12.158   6.992  25.665  0.00  0.00     0.033 H 
ATOM     21  H29 9KR d   1      15.079   7.655  26.374  0.00  0.00     0.039 H 
ATOM     22  H30 9KR d   1      14.114   8.333  25.020  0.00  0.00     0.039 H 
ATOM     23  H31 9KR d   1      15.085   5.350  22.990  0.00  0.00     0.083 H 
ENDROOT
BRANCH   1  24
ATOM     24  C18 9KR d   1      12.851   2.488  27.615  0.00  0.00    -0.053 C 
ATOM     25  H12 9KR d   1      11.945   3.100  27.741  0.00  0.00     0.040 H 
BRANCH  24  26
ATOM     26  C20 9KR d   1      12.498   1.246  26.833  0.00  0.00    -0.056 C 
ATOM     27  H10 9KR d   1      12.169   1.517  25.819  0.00  0.00     0.034 H 
ATOM     28  H11 9KR d   1      13.369   0.578  26.770  0.00  0.00     0.034 H 
BRANCH  26  29
ATOM     29  C22 9KR d   1      11.367   0.563  27.585  0.00  0.00    -0.009 C 
ATOM     30  H8  9KR d   1      10.979  -0.251  26.956  0.00  0.00     0.044 H 
ATOM     31  H9  9KR d   1      11.777   0.144  28.516  0.00  0.00     0.044 H 
BRANCH  29  32
ATOM     32  C23 9KR d   1      10.203   1.482  27.948  0.00  0.00     0.127 C 
ATOM     33  O2  9KR d   1      10.260   2.673  27.592  0.00  0.00    -0.298 OA
BRANCH  32  34
ATOM     34  C24 9KR d   1       8.960   0.974  28.724  0.00  0.00    -0.010 C 
ATOM     35  H1  9KR d   1       8.182   0.723  27.988  0.00  0.00     0.044 H 
ATOM     36  H2  9KR d   1       8.606   1.793  29.367  0.00  0.00     0.044 H 
BRANCH  34  37
ATOM     37  C25 9KR d   1       9.189  -0.283  29.629  0.00  0.00    -0.062 C 
ATOM     38  H3  9KR d   1       9.608   0.029  30.597  0.00  0.00     0.033 H 
ATOM     39  H4  9KR d   1       9.886  -0.974  29.133  0.00  0.00     0.033 H 
BRANCH  37  40
ATOM     40  C26 9KR d   1       7.859  -0.970  29.847  0.00  0.00    -0.076 C 
ATOM     41  H5  9KR d   1       8.004  -1.856  30.482  0.00  0.00     0.027 H 
ATOM     42  H6  9KR d   1       7.442  -1.278  28.877  0.00  0.00     0.027 H 
ATOM     43  H7  9KR d   1       7.164  -0.275  30.341  0.00  0.00     0.027 H 
ENDBRANCH  37  40
ENDBRANCH  34  37
ENDBRANCH  32  34
ENDBRANCH  29  32
ENDBRANCH  26  29
ENDBRANCH  24  26
BRANCH  24  44
ATOM     44  C19 9KR d   1      13.341   1.998  28.980  0.00  0.00    -0.072 C 
ATOM     45  H13 9KR d   1      13.616   2.862  29.603  0.00  0.00     0.028 H 
ATOM     46  H14 9KR d   1      14.219   1.350  28.843  0.00  0.00     0.028 H 
ATOM     47  H15 9KR d   1      12.540   1.430  29.475  0.00  0.00     0.028 H 
ENDBRANCH  24  44
ENDBRANCH   1  24
BRANCH   5  48
ATOM     48  C17 9KR d   1      12.402   4.396  25.171  0.00  0.00    -0.068 C 
ATOM     49  H22 9KR d   1      11.446   4.113  25.636  0.00  0.00     0.028 H 
ATOM     50  H23 9KR d   1      12.744   3.584  24.512  0.00  0.00     0.028 H 
ATOM     51  H24 9KR d   1      12.265   5.314  24.581  0.00  0.00     0.028 H 
ENDBRANCH   5  48
BRANCH  10  52
ATOM     52  C6  9KR d   1      14.563   7.471  22.689  0.00  0.00    -0.080 C 
ATOM     53  C5  9KR d   1      14.312   7.455  21.351  0.00  0.00    -0.074 C 
ATOM     54  C   9KR d   1      14.272   6.199  20.501  0.00  0.00    -0.017 C 
ATOM     55  C4  9KR d   1      14.059   8.790  20.726  0.00  0.00    -0.017 C 
ATOM     56  C1  9KR d   1      14.720   6.359  19.054  0.00  0.00     0.062 C 
ATOM     57  H33 9KR d   1      13.236   5.830  20.494  0.00  0.00     0.043 H 
ATOM     58  H34 9KR d   1      14.925   5.451  20.975  0.00  0.00     0.043 H 
ATOM     59  C2  9KR d   1      14.334   7.697  18.527  0.00  0.00    -0.032 C 
ATOM     60  H41 9KR d   1      15.818   6.296  19.038  0.00  0.00     0.090 H 
ATOM     61  C3  9KR d   1      14.676   8.894  19.339  0.00  0.00     0.062 C 
ATOM     62  C21 9KR d   1      13.765   7.849  17.354  0.00  0.00    -0.114 C 
ATOM     63  H37 9KR d   1      14.271   9.794  18.854  0.00  0.00     0.090 H 
ATOM     64  H39 9KR d   1      13.512   6.976  16.754  0.00  0.00     0.067 H 
ATOM     65  H40 9KR d   1      13.546   8.848  16.980  0.00  0.00     0.067 H 
ATOM     66  H35 9KR d   1      14.493   9.571  21.368  0.00  0.00     0.043 H 
ATOM     67  H36 9KR d   1      12.973   8.944  20.644  0.00  0.00     0.043 H 
ATOM     68  H32 9KR d   1      14.605   8.436  23.192  0.00  0.00     0.083 H 
BRANCH  56  69
ATOM     69  O1  9KR d   1      14.212   5.304  18.205  0.00  0.00    -0.391 OA
ATOM     70  H42 9KR d   1      13.264   5.357  18.169  0.00  0.00     0.210 HD
ENDBRANCH  56  69
BRANCH  61  71
ATOM     71  O   9KR d   1      16.096   8.976  19.343  0.00  0.00    -0.391 OA
ATOM     72  H38 9KR d   1      16.411   9.038  18.449  0.00  0.00     0.210 HD
ENDBRANCH  61  71
ENDBRANCH  10  52
TORSDOF 12
