REMARK  10 active torsions:
REMARK  status: ('A' for Active; 'I' for Inactive)
REMARK    1  A    between atoms: C7_24  and  C6_3 
REMARK    2  A    between atoms: C20_7  and  C22_8 
REMARK    3  A    between atoms: C18_13  and  C20_7 
REMARK    4  A    between atoms: C23_9  and  C24_10 
REMARK    5  A    between atoms: C25_11  and  C26_12 
REMARK    6  A    between atoms: C18_13  and  C19_14 
REMARK    7  A    between atoms: C16_15  and  C18_13 
REMARK    8  A    between atoms: C10_19  and  C17_20 
REMARK    9  A    between atoms: C3_26  and  O_27 
REMARK   10  A    between atoms: C1_29  and  O1_30 
ROOT
ATOM      1  C8  9N9 d   1      14.928   6.190  24.754  0.00  0.00    -0.075 C 
ATOM      2  C16 9N9 d   1      14.638   2.966  26.444  0.00  0.00    -0.036 C 
ATOM      3  C15 9N9 d   1      15.926   2.731  25.653  0.00  0.00    -0.060 C 
ATOM      4  C14 9N9 d   1      16.271   4.024  24.956  0.00  0.00    -0.057 C 
ATOM      5  C9  9N9 d   1      15.282   5.005  25.571  0.00  0.00    -0.025 C 
ATOM      6  C10 9N9 d   1      14.005   4.291  25.963  0.00  0.00    -0.032 C 
ATOM      7  C11 9N9 d   1      13.325   5.223  26.962  0.00  0.00    -0.057 C 
ATOM      8  C12 9N9 d   1      13.150   6.654  26.420  0.00  0.00    -0.061 C 
ATOM      9  C13 9N9 d   1      14.323   7.260  25.628  0.00  0.00    -0.044 C 
ATOM     10  C7  9N9 d   1      15.136   6.224  23.422  0.00  0.00    -0.080 C 
ATOM     11  H13 9N9 d   1      14.898   3.119  27.502  0.00  0.00     0.042 H 
ATOM     12  H14 9N9 d   1      15.771   1.934  24.911  0.00  0.00     0.033 H 
ATOM     13  H15 9N9 d   1      16.739   2.444  26.336  0.00  0.00     0.033 H 
ATOM     14  H16 9N9 d   1      16.124   3.941  23.869  0.00  0.00     0.034 H 
ATOM     15  H17 9N9 d   1      17.309   4.323  25.164  0.00  0.00     0.034 H 
ATOM     16  H18 9N9 d   1      15.753   5.384  26.490  0.00  0.00     0.048 H 
ATOM     17  H22 9N9 d   1      13.937   5.266  27.875  0.00  0.00     0.034 H 
ATOM     18  H23 9N9 d   1      12.332   4.815  27.204  0.00  0.00     0.034 H 
ATOM     19  H24 9N9 d   1      12.958   7.312  27.281  0.00  0.00     0.033 H 
ATOM     20  H25 9N9 d   1      12.272   6.651  25.758  0.00  0.00     0.033 H 
ATOM     21  H26 9N9 d   1      13.957   8.086  25.000  0.00  0.00     0.039 H 
ATOM     22  H27 9N9 d   1      15.083   7.639  26.327  0.00  0.00     0.039 H 
ATOM     23  H28 9N9 d   1      15.609   5.370  22.940  0.00  0.00     0.083 H 
ENDROOT
BRANCH  10  24
ATOM     24  C6  9N9 d   1      14.746   7.372  22.606  0.00  0.00    -0.080 C 
ATOM     25  C5  9N9 d   1      14.721   7.370  21.263  0.00  0.00    -0.074 C 
ATOM     26  C4  9N9 d   1      15.156   6.169  20.427  0.00  0.00    -0.017 C 
ATOM     27  C   9N9 d   1      14.255   8.653  20.632  0.00  0.00    -0.017 C 
ATOM     28  C3  9N9 d   1      15.238   6.346  18.907  0.00  0.00     0.062 C 
ATOM     29  H2  9N9 d   1      14.441   5.356  20.624  0.00  0.00     0.043 H 
ATOM     30  H3  9N9 d   1      16.155   5.871  20.777  0.00  0.00     0.043 H 
ATOM     31  C2  9N9 d   1      14.662   7.669  18.512  0.00  0.00    -0.032 C 
ATOM     32  H31 9N9 d   1      16.294   6.312  18.599  0.00  0.00     0.090 H 
ATOM     33  C21 9N9 d   1      13.833   7.802  17.493  0.00  0.00    -0.114 C 
ATOM     34  C1  9N9 d   1      15.028   8.847  19.341  0.00  0.00     0.062 C 
ATOM     35  H33 9N9 d   1      13.436   8.784  17.239  0.00  0.00     0.067 H 
ATOM     36  H34 9N9 d   1      13.546   6.930  16.907  0.00  0.00     0.067 H 
ATOM     37  H35 9N9 d   1      14.715   9.780  18.849  0.00  0.00     0.090 H 
ATOM     38  H29 9N9 d   1      14.447   9.495  21.313  0.00  0.00     0.043 H 
ATOM     39  H30 9N9 d   1      13.178   8.594  20.417  0.00  0.00     0.043 H 
ATOM     40  H1  9N9 d   1      14.457   8.288  23.120  0.00  0.00     0.083 H 
BRANCH  28  41
ATOM     41  O   9N9 d   1      14.533   5.284  18.261  0.00  0.00    -0.391 OA
ATOM     42  H32 9N9 d   1      13.623   5.299  18.532  0.00  0.00     0.210 HD
ENDBRANCH  28  41
BRANCH  34  43
ATOM     43  O1  9N9 d   1      16.441   8.882  19.549  0.00  0.00    -0.391 OA
ATOM     44  H36 9N9 d   1      16.880   9.005  18.715  0.00  0.00     0.210 HD
ENDBRANCH  34  43
ENDBRANCH  10  24
BRANCH   6  45
ATOM     45  C17 9N9 d   1      13.020   4.116  24.808  0.00  0.00    -0.068 C 
ATOM     46  H19 9N9 d   1      12.122   3.592  25.168  0.00  0.00     0.028 H 
ATOM     47  H20 9N9 d   1      13.493   3.526  24.009  0.00  0.00     0.028 H 
ATOM     48  H21 9N9 d   1      12.736   5.104  24.416  0.00  0.00     0.028 H 
ENDBRANCH   6  45
BRANCH   2  49
ATOM     49  C18 9N9 d   1      13.831   1.667  26.384  0.00  0.00     0.017 C 
ATOM     50  H9  9N9 d   1      14.533   0.830  26.256  0.00  0.00     0.053 H 
BRANCH  49  51
ATOM     51  C20 9N9 d   1      13.102   1.501  27.681  0.00  0.00     0.206 C 
ATOM     52  O2  9N9 d   1      13.682   1.069  28.662  0.00  0.00    -0.283 OA
BRANCH  51  53
ATOM     53  C22 9N9 d   1      11.888   1.808  27.743  0.00  0.00    -0.024 C 
ATOM     54  C23 9N9 d   1      10.765   2.102  27.878  0.00  0.00    -0.070 C 
BRANCH  54  55
ATOM     55  C24 9N9 d   1       9.548   2.312  28.040  0.00  0.00    -0.036 C 
ATOM     56  C25 9N9 d   1       8.698   1.417  27.576  0.00  0.00    -0.099 C 
ATOM     57  H5  9N9 d   1       9.063   0.527  27.065  0.00  0.00     0.077 H 
ATOM     58  H4  9N9 d   1       9.197   3.208  28.550  0.00  0.00     0.097 H 
BRANCH  56  59
ATOM     59  C26 9N9 d   1       7.234   1.632  27.756  0.00  0.00    -0.059 C 
ATOM     60  H6  9N9 d   1       6.682   0.791  27.310  0.00  0.00     0.032 H 
ATOM     61  H7  9N9 d   1       6.937   2.569  27.261  0.00  0.00     0.032 H 
ATOM     62  H8  9N9 d   1       7.002   1.695  28.829  0.00  0.00     0.032 H 
ENDBRANCH  56  59
ENDBRANCH  54  55
ENDBRANCH  51  53
ENDBRANCH  49  51
BRANCH  49  63
ATOM     63  C19 9N9 d   1      12.836   1.630  25.238  0.00  0.00    -0.065 C 
ATOM     64  H10 9N9 d   1      12.293   0.673  25.255  0.00  0.00     0.028 H 
ATOM     65  H11 9N9 d   1      13.373   1.731  24.283  0.00  0.00     0.028 H 
ATOM     66  H12 9N9 d   1      12.121   2.459  25.346  0.00  0.00     0.028 H 
ENDBRANCH  49  63
ENDBRANCH   2  49
TORSDOF 10
