REMARK  10 active torsions:
REMARK  status: ('A' for Active; 'I' for Inactive)
REMARK    1  A    between atoms: O1_1  and  C1_2 
REMARK    2  A    between atoms: C3_4  and  O_29 
REMARK    3  A    between atoms: C6_7  and  C7_8 
REMARK    4  A    between atoms: C11_12  and  C18_19 
REMARK    5  A    between atoms: C17_18  and  C19_20 
REMARK    6  A    between atoms: C19_20  and  C20_21 
REMARK    7  A    between atoms: C19_20  and  C21_23 
REMARK    8  A    between atoms: C21_23  and  C22_24 
REMARK    9  A    between atoms: C23_25  and  C24_26 
REMARK   10  A    between atoms: C25_27  and  C26_28 
ROOT
ATOM      1  C7  9KX d   1      14.733   6.058  23.497  0.00  0.00    -0.080 C 
ATOM      2  C8  9KX d   1      14.622   6.030  24.815  0.00  0.00    -0.075 C 
ATOM      3  C10 9KX d   1      14.901   4.791  25.582  0.00  0.00    -0.025 C 
ATOM      4  C11 9KX d   1      13.815   4.516  26.556  0.00  0.00    -0.032 C 
ATOM      5  C12 9KX d   1      13.714   5.677  27.508  0.00  0.00    -0.057 C 
ATOM      6  C13 9KX d   1      13.310   6.941  26.783  0.00  0.00    -0.061 C 
ATOM      7  C14 9KX d   1      14.258   7.237  25.624  0.00  0.00    -0.044 C 
ATOM      8  C15 9KX d   1      15.139   3.456  24.870  0.00  0.00    -0.057 C 
ATOM      9  C16 9KX d   1      14.792   2.410  25.876  0.00  0.00    -0.060 C 
ATOM     10  C17 9KX d   1      14.280   3.183  27.106  0.00  0.00    -0.036 C 
ATOM     11  H7  9KX d   1      15.013   5.151  22.963  0.00  0.00     0.083 H 
ATOM     12  H10 9KX d   1      15.822   5.005  26.145  0.00  0.00     0.048 H 
ATOM     13  H11 9KX d   1      14.691   5.835  27.988  0.00  0.00     0.034 H 
ATOM     14  H12 9KX d   1      12.961   5.447  28.276  0.00  0.00     0.034 H 
ATOM     15  H13 9KX d   1      13.333   7.784  27.490  0.00  0.00     0.033 H 
ATOM     16  H14 9KX d   1      12.290   6.819  26.390  0.00  0.00     0.033 H 
ATOM     17  H15 9KX d   1      13.774   7.967  24.959  0.00  0.00     0.039 H 
ATOM     18  H16 9KX d   1      15.182   7.671  26.034  0.00  0.00     0.039 H 
ATOM     19  H17 9KX d   1      16.192   3.364  24.565  0.00  0.00     0.034 H 
ATOM     20  H18 9KX d   1      14.492   3.370  23.985  0.00  0.00     0.034 H 
ATOM     21  H19 9KX d   1      15.681   1.816  26.137  0.00  0.00     0.033 H 
ATOM     22  H20 9KX d   1      14.008   1.745  25.485  0.00  0.00     0.033 H 
ATOM     23  H21 9KX d   1      15.137   3.369  27.769  0.00  0.00     0.042 H 
ENDROOT
BRANCH   1  24
ATOM     24  C6  9KX d   1      14.484   7.296  22.741  0.00  0.00    -0.080 C 
ATOM     25  C5  9KX d   1      14.287   7.325  21.451  0.00  0.00    -0.074 C 
ATOM     26  C4  9KX d   1      14.310   6.030  20.637  0.00  0.00    -0.017 C 
ATOM     27  C   9KX d   1      13.998   8.659  20.791  0.00  0.00    -0.017 C 
ATOM     28  C3  9KX d   1      14.782   6.194  19.199  0.00  0.00     0.062 C 
ATOM     29  H4  9KX d   1      14.983   5.320  21.140  0.00  0.00     0.043 H 
ATOM     30  H5  9KX d   1      13.290   5.618  20.619  0.00  0.00     0.043 H 
ATOM     31  C2  9KX d   1      14.408   7.534  18.611  0.00  0.00    -0.032 C 
ATOM     32  H3  9KX d   1      15.878   6.098  19.179  0.00  0.00     0.090 H 
ATOM     33  C1  9KX d   1      14.714   8.756  19.434  0.00  0.00     0.062 C 
ATOM     34  C9  9KX d   1      13.803   7.657  17.425  0.00  0.00    -0.114 C 
ATOM     35  H2  9KX d   1      14.337   9.643  18.903  0.00  0.00     0.090 H 
ATOM     36  H8  9KX d   1      13.552   8.645  17.041  0.00  0.00     0.067 H 
ATOM     37  H9  9KX d   1      13.561   6.769  16.843  0.00  0.00     0.067 H 
ATOM     38  H37 9KX d   1      12.914   8.758  20.636  0.00  0.00     0.043 H 
ATOM     39  H38 9KX d   1      14.351   9.470  21.445  0.00  0.00     0.043 H 
ATOM     40  H6  9KX d   1      14.463   8.238  23.287  0.00  0.00     0.083 H 
BRANCH  28  41
ATOM     41  O   9KX d   1      14.199   5.152  18.393  0.00  0.00    -0.391 OA
ATOM     42  H36 9KX d   1      13.252   5.217  18.430  0.00  0.00     0.210 HD
ENDBRANCH  28  41
BRANCH  33  43
ATOM     43  O1  9KX d   1      16.110   8.894  19.599  0.00  0.00    -0.391 OA
ATOM     44  H1  9KX d   1      16.291   9.668  20.119  0.00  0.00     0.210 HD
ENDBRANCH  33  43
ENDBRANCH   1  24
BRANCH   4  45
ATOM     45  C18 9KX d   1      12.498   4.362  25.835  0.00  0.00    -0.068 C 
ATOM     46  H22 9KX d   1      12.178   5.339  25.444  0.00  0.00     0.028 H 
ATOM     47  H23 9KX d   1      11.739   3.981  26.534  0.00  0.00     0.028 H 
ATOM     48  H24 9KX d   1      12.617   3.654  25.001  0.00  0.00     0.028 H 
ENDBRANCH   4  45
BRANCH  10  49
ATOM     49  C19 9KX d   1      13.242   2.444  27.956  0.00  0.00     0.008 C 
ATOM     50  H25 9KX d   1      12.689   3.189  28.547  0.00  0.00     0.052 H 
BRANCH  49  51
ATOM     51  C20 9KX d   1      13.910   1.467  28.919  0.00  0.00    -0.066 C 
ATOM     52  H26 9KX d   1      13.140   0.954  29.513  0.00  0.00     0.028 H 
ATOM     53  H27 9KX d   1      14.585   2.018  29.591  0.00  0.00     0.028 H 
ATOM     54  H28 9KX d   1      14.487   0.725  28.347  0.00  0.00     0.028 H 
ENDBRANCH  49  51
BRANCH  49  55
ATOM     55  C21 9KX d   1      12.282   1.725  27.095  0.00  0.00     0.153 C 
ATOM     56  O2  9KX d   1      12.664   0.789  26.380  0.00  0.00    -0.293 OA
BRANCH  55  57
ATOM     57  C22 9KX d   1      10.855   2.145  27.227  0.00  0.00    -0.038 C 
ATOM     58  C23 9KX d   1       9.929   1.211  27.239  0.00  0.00    -0.080 C 
ATOM     59  H30 9KX d   1      10.206   0.165  27.115  0.00  0.00     0.083 H 
ATOM     60  H29 9KX d   1      10.588   3.197  27.311  0.00  0.00     0.089 H 
BRANCH  58  61
ATOM     61  C24 9KX d   1       8.523   1.582  27.420  0.00  0.00    -0.087 C 
ATOM     62  C25 9KX d   1       7.558   0.685  27.209  0.00  0.00    -0.107 C 
ATOM     63  H32 9KX d   1       7.791  -0.338  26.915  0.00  0.00     0.076 H 
ATOM     64  H31 9KX d   1       8.265   2.594  27.728  0.00  0.00     0.083 H 
BRANCH  62  65
ATOM     65  C26 9KX d   1       6.139   1.140  27.392  0.00  0.00    -0.060 C 
ATOM     66  H33 9KX d   1       5.456   0.303  27.186  0.00  0.00     0.032 H 
ATOM     67  H34 9KX d   1       5.926   1.966  26.697  0.00  0.00     0.032 H 
ATOM     68  H35 9KX d   1       5.995   1.485  28.427  0.00  0.00     0.032 H 
ENDBRANCH  62  65
ENDBRANCH  58  61
ENDBRANCH  55  57
ENDBRANCH  49  55
ENDBRANCH  10  49
TORSDOF 10
