REMARK  12 active torsions:
REMARK  status: ('A' for Active; 'I' for Inactive)
REMARK    1  A    between atoms: C5_2  and  C4_1 
REMARK    2  A    between atoms: C4_1  and  C3_16 
REMARK    3  A    between atoms: C6_3  and  C5_2 
REMARK    4  A    between atoms: C7_4  and  C6_3 
REMARK    5  A    between atoms: O8_17  and  C7_4 
REMARK    6  A    between atoms: C14_21  and  C15_7 
REMARK    7  A    between atoms: C15_7  and  N16_22 
REMARK    8  A    between atoms: C17_8  and  C18_23 
REMARK    9  A    between atoms: C21_9  and  C22_10 
REMARK   10  A    between atoms: C25_27  and  C26_12 
REMARK   11  A    between atoms: C3_16  and  C2_15 
REMARK   12  A    between atoms: C9_18  and  O8_17 
ROOT
ATOM      1  C15 MOL d   1       3.466  -1.501  49.171  0.00  0.00     0.028 C 
ATOM      2  H11 MOL d   1       3.084  -1.366  50.194  0.00  0.00     0.072 H 
ATOM      3  H12 MOL d   1       3.171  -0.640  48.553  0.00  0.00     0.072 H 
ENDROOT
BRANCH   1   4
ATOM      4  C14 MOL d   1       2.841  -2.759  48.582  0.00  0.00    -0.006 A 
ATOM      5  C13 MOL d   1       3.547  -3.961  48.478  0.00  0.00    -0.073 A 
ATOM      6  C12 MOL d   1       2.934  -5.090  47.935  0.00  0.00    -0.082 A 
ATOM      7  H10 MOL d   1       4.574  -4.016  48.820  0.00  0.00     0.084 H 
ATOM      8  C11 MOL d   1       1.614  -5.017  47.513  0.00  0.00    -0.080 A 
ATOM      9  H18 MOL d   1       3.485  -6.019  47.843  0.00  0.00     0.083 H 
ATOM     10  C10 MOL d   1       0.913  -3.783  47.569  0.00  0.00    -0.050 A 
ATOM     11  H17 MOL d   1       1.116  -5.905  47.139  0.00  0.00     0.083 H 
ATOM     12  C9  MOL d   1       1.525  -2.681  48.122  0.00  0.00     0.076 A 
ATOM     13  H9  MOL d   1      -0.096  -3.710  47.179  0.00  0.00     0.087 H 
BRANCH  12  14
ATOM     14  O8  MOL d   1       0.854  -1.474  48.234  0.00  0.00    -0.351 OA
BRANCH  14  15
ATOM     15  C7  MOL d   1      -0.557  -1.427  48.157  0.00  0.00     0.026 C 
ATOM     16  H7  MOL d   1      -0.882  -1.708  47.144  0.00  0.00     0.075 H 
ATOM     17  H8  MOL d   1      -0.991  -2.125  48.888  0.00  0.00     0.075 H 
BRANCH  15  18
ATOM     18  C6  MOL d   1      -1.014  -0.019  48.465  0.00  0.00    -0.045 C 
ATOM     19  H5  MOL d   1      -2.080   0.072  48.209  0.00  0.00     0.036 H 
ATOM     20  H6  MOL d   1      -0.877   0.171  49.540  0.00  0.00     0.036 H 
BRANCH  18  21
ATOM     21  C5  MOL d   1      -0.231   1.020  47.680  0.00  0.00    -0.063 C 
ATOM     22  H3  MOL d   1       0.813   1.056  48.025  0.00  0.00     0.033 H 
ATOM     23  H4  MOL d   1      -0.254   0.787  46.605  0.00  0.00     0.033 H 
BRANCH  21  24
ATOM     24  C4  MOL d   1      -0.930   2.354  47.952  0.00  0.00    -0.056 C 
ATOM     25  H1  MOL d   1      -1.232   2.412  49.008  0.00  0.00     0.033 H 
ATOM     26  H2  MOL d   1      -1.818   2.451  47.311  0.00  0.00     0.033 H 
BRANCH  24  27
ATOM     27  C3  MOL d   1       0.060   3.453  47.635  0.00  0.00     0.016 C 
ATOM     28  H15 MOL d   1       1.075   3.116  47.892  0.00  0.00     0.049 H 
ATOM     29  H16 MOL d   1      -0.189   4.349  48.223  0.00  0.00     0.049 H 
BRANCH  27  30
ATOM     30  C2  MOL d   1       0.001   3.784  46.173  0.00  0.00     0.172 C 
ATOM     31  O1  MOL d   1      -0.927   3.332  45.457  0.00  0.00    -0.648 OA
ATOM     32  O33 MOL d   1       0.911   4.553  45.744  0.00  0.00    -0.648 OA
ENDBRANCH  27  30
ENDBRANCH  24  27
ENDBRANCH  21  24
ENDBRANCH  18  21
ENDBRANCH  15  18
ENDBRANCH  14  15
ENDBRANCH  12  14
ENDBRANCH   1   4
BRANCH   1  33
ATOM     33  N16 MOL d   1       4.948  -1.559  49.223  0.00  0.00    -0.329 N 
ATOM     34  C17 MOL d   1       5.762  -1.396  48.175  0.00  0.00     0.027 A 
ATOM     35  C19 MOL d   1       7.094  -1.467  48.530  0.00  0.00     0.026 A 
ATOM     36  N20 MOL d   1       7.081  -1.705  49.872  0.00  0.00    -0.240 NA
ATOM     37  H22 MOL d   1       7.962  -1.357  47.882  0.00  0.00     0.117 H 
ATOM     38  C21 MOL d   1       5.756  -1.732  50.264  0.00  0.00     0.140 A 
BRANCH  34  39
ATOM     39  C18 MOL d   1       5.462  -1.180  46.721  0.00  0.00    -0.036 C 
ATOM     40  H19 MOL d   1       6.405  -1.089  46.162  0.00  0.00     0.035 H 
ATOM     41  H20 MOL d   1       4.874  -0.258  46.601  0.00  0.00     0.035 H 
ATOM     42  H21 MOL d   1       4.887  -2.034  46.334  0.00  0.00     0.035 H 
ENDBRANCH  34  39
BRANCH  38  43
ATOM     43  C22 MOL d   1       5.332  -1.987  51.671  0.00  0.00     0.010 A 
ATOM     44  C23 MOL d   1       4.370  -2.982  51.948  0.00  0.00    -0.069 A 
ATOM     45  C24 MOL d   1       4.059  -3.225  53.273  0.00  0.00    -0.069 A 
ATOM     46  H23 MOL d   1       3.891  -3.537  51.149  0.00  0.00     0.085 H 
ATOM     47  C25 MOL d   1       4.705  -2.479  54.291  0.00  0.00    -0.002 A 
ATOM     48  H13 MOL d   1       3.326  -3.981  53.532  0.00  0.00     0.085 H 
ATOM     49  C31 MOL d   1       5.646  -1.544  53.999  0.00  0.00    -0.069 A 
ATOM     50  C32 MOL d   1       5.966  -1.295  52.671  0.00  0.00    -0.069 A 
ATOM     51  H26 MOL d   1       6.142  -0.998  54.794  0.00  0.00     0.085 H 
ATOM     52  H27 MOL d   1       6.717  -0.553  52.425  0.00  0.00     0.085 H 
BRANCH  47  53
ATOM     53  C26 MOL d   1       4.375  -2.752  55.682  0.00  0.00     0.085 A 
ATOM     54  C27 MOL d   1       3.363  -3.525  56.183  0.00  0.00    -0.048 A 
ATOM     55  C28 MOL d   1       3.434  -3.427  57.536  0.00  0.00    -0.059 A 
ATOM     56  H24 MOL d   1       2.642  -4.105  55.609  0.00  0.00     0.087 H 
ATOM     57  C29 MOL d   1       4.443  -2.569  57.887  0.00  0.00     0.019 A 
ATOM     58  H14 MOL d   1       2.786  -3.952  58.237  0.00  0.00     0.086 H 
ATOM     59  O30 MOL d   1       5.022  -2.110  56.722  0.00  0.00    -0.322 OA
ATOM     60  H25 MOL d   1       4.735  -2.299  58.901  0.00  0.00     0.123 H 
ENDBRANCH  47  53
ENDBRANCH  38  43
ENDBRANCH   1  33
TORSDOF 12
