REMARK  8 active torsions:
REMARK  status: ('A' for Active; 'I' for Inactive)
REMARK    1  A    between atoms: P13_1  and  O16_4 
REMARK    2  A    between atoms: O29_12  and  P13_1 
REMARK    3  A    between atoms: O16_4  and  P17_5 
REMARK    4  A    between atoms: C30_13  and  C21_9 
REMARK    5  A    between atoms: C28_11  and  C27_10 
REMARK    6  A    between atoms: C28_11  and  O29_12 
REMARK    7  A    between atoms: C30_13  and  C31_14 
REMARK    8  A    between atoms: C31_14  and  O33_15 
ROOT
ATOM      1  C27 H6P d   1      47.747 150.785  59.527  0.00  0.00    -0.076 C 
ATOM      2  C30 H6P d   1      47.742 152.119  59.493  0.00  0.00    -0.062 C 
ATOM      3  H4  H6P d   1      48.576 150.298  59.015  0.00  0.00     0.080 H 
ENDROOT
BRANCH   1   4
ATOM      4  C28 H6P d   1      46.760 149.878  60.178  0.00  0.00     0.047 C 
ATOM      5  H5  H6P d   1      46.191 150.447  60.928  0.00  0.00     0.081 H 
ATOM      6  H6  H6P d   1      47.300 149.057  60.672  0.00  0.00     0.081 H 
BRANCH   4   7
ATOM      7  O29 H6P d   1      45.838 149.321  59.210  0.00  0.00    -0.286 OA
BRANCH   7   8
ATOM      8  P13 H6P d   1      44.551 148.531  59.758  0.00  0.00     0.418 P 
ATOM      9  O14 H6P d   1      43.824 148.158  58.503  0.00  0.00    -0.624 OA
ATOM     10  O15 H6P d   1      43.839 149.305  60.820  0.00  0.00    -0.624 OA
BRANCH   8  11
ATOM     11  O16 H6P d   1      45.254 147.257  60.470  0.00  0.00    -0.173 OA
BRANCH  11  12
ATOM     12  P17 H6P d   1      46.304 146.047  60.085  0.00  0.00     0.431 P 
ATOM     13  O18 H6P d   1      45.499 144.768  60.341  0.00  0.00    -0.616 OA
ATOM     14  O19 H6P d   1      46.654 146.349  58.632  0.00  0.00    -0.616 OA
ATOM     15  O20 H6P d   1      47.544 146.113  61.001  0.00  0.00    -0.616 OA
ENDBRANCH  11  12
ENDBRANCH   8  11
ENDBRANCH   7   8
ENDBRANCH   4   7
ENDBRANCH   1   4
BRANCH   2  16
ATOM     16  C21 H6P d   1      46.783 152.977  60.243  0.00  0.00    -0.053 C 
ATOM     17  H1  H6P d   1      46.096 152.341  60.820  0.00  0.00     0.033 H 
ATOM     18  H2  H6P d   1      46.207 153.590  59.534  0.00  0.00     0.033 H 
ATOM     19  H3  H6P d   1      47.338 153.634  60.929  0.00  0.00     0.033 H 
ENDBRANCH   2  16
BRANCH   2  20
ATOM     20  C31 H6P d   1      48.801 152.860  58.612  0.00  0.00     0.036 C 
ATOM     21  H7  H6P d   1      49.579 153.275  59.270  0.00  0.00     0.081 H 
ATOM     22  H8  H6P d   1      48.301 153.679  58.074  0.00  0.00     0.081 H 
BRANCH  20  23
ATOM     23  O33 H6P d   1      49.420 151.996  57.659  0.00  0.00    -0.397 OA
ATOM     24  H9  H6P d   1      48.757 151.637  57.081  0.00  0.00     0.209 HD
ENDBRANCH  20  23
ENDBRANCH   2  20
TORSDOF 8
