REMARK  11 active torsions:
REMARK  status: ('A' for Active; 'I' for Inactive)
REMARK    1  A    between atoms: C4_2  and  C13_23 
REMARK    2  A    between atoms: C10_6  and  C6_4 
REMARK    3  A    between atoms: S1_11  and  C20_13 
REMARK    4  A    between atoms: S1_11  and  C7_16 
REMARK    5  A    between atoms: C20_13  and  C21_14 
REMARK    6  A    between atoms: C21_14  and  O3_15 
REMARK    7  A    between atoms: C23_18  and  C24_19 
REMARK    8  A    between atoms: C24_19  and  C27_20 
REMARK    9  A    between atoms: C24_19  and  C26_21 
REMARK   10  A    between atoms: C24_19  and  C25_22 
REMARK   11  A    between atoms: C14_25  and  C18_26 
ROOT
ATOM      1  C5  MOL d   1     -33.917   3.714  -7.507  0.00  0.00    -0.066 A 
ATOM      2  C4  MOL d   1     -35.228   3.231  -7.697  0.00  0.00    -0.052 A 
ATOM      3  C3  MOL d   1     -36.054   2.950  -6.572  0.00  0.00    -0.070 A 
ATOM      4  C6  MOL d   1     -33.352   3.887  -6.210  0.00  0.00    -0.025 A 
ATOM      5  C1  MOL d   1     -34.179   3.586  -5.058  0.00  0.00    -0.065 A 
ATOM      6  C23 MOL d   1     -35.539   3.114  -5.241  0.00  0.00    -0.049 A 
ATOM      7  H1  MOL d   1     -33.319   3.962  -8.376  0.00  0.00     0.085 H 
ATOM      8  H2  MOL d   1     -37.073   2.612  -6.720  0.00  0.00     0.085 H 
ATOM      9  H4  MOL d   1     -33.781   3.714  -4.058  0.00  0.00     0.085 H 
ENDROOT
BRANCH   4  10
ATOM     10  C10 MOL d   1     -31.982   4.395  -6.073  0.00  0.00    -0.026 A 
ATOM     11  C11 MOL d   1     -31.592   5.477  -6.924  0.00  0.00    -0.071 A 
ATOM     12  C12 MOL d   1     -30.277   6.005  -6.836  0.00  0.00    -0.061 A 
ATOM     13  H3  MOL d   1     -32.298   5.892  -7.634  0.00  0.00     0.084 H 
ATOM     14  C7  MOL d   1     -29.391   5.416  -5.889  0.00  0.00     0.059 A 
ATOM     15  H6  MOL d   1     -29.959   6.827  -7.467  0.00  0.00     0.085 H 
ATOM     16  C8  MOL d   1     -29.762   4.342  -5.016  0.00  0.00    -0.061 A 
ATOM     17  C9  MOL d   1     -31.057   3.825  -5.150  0.00  0.00    -0.071 A 
ATOM     18  H5  MOL d   1     -29.069   3.946  -4.282  0.00  0.00     0.085 H 
ATOM     19  H12 MOL d   1     -31.360   2.979  -4.543  0.00  0.00     0.084 H 
BRANCH  14  20
ATOM     20  S1  MOL d   1     -27.742   6.158  -5.741  0.00  0.00     0.177 S 
ATOM     21  O1  MOL d   1     -27.604   5.944  -4.228  0.00  0.00    -0.223 OA
ATOM     22  O2  MOL d   1     -27.881   7.590  -6.372  0.00  0.00    -0.223 OA
BRANCH  20  23
ATOM     23  C20 MOL d   1     -26.395   5.186  -6.561  0.00  0.00     0.052 C 
ATOM     24  H7  MOL d   1     -26.533   4.121  -6.322  0.00  0.00     0.059 H 
ATOM     25  H8  MOL d   1     -25.425   5.527  -6.169  0.00  0.00     0.059 H 
BRANCH  23  26
ATOM     26  C21 MOL d   1     -26.394   5.352  -8.089  0.00  0.00     0.029 C 
ATOM     27  H9  MOL d   1     -25.510   4.861  -8.521  0.00  0.00     0.075 H 
ATOM     28  H10 MOL d   1     -26.385   6.420  -8.352  0.00  0.00     0.075 H 
BRANCH  26  29
ATOM     29  O3  MOL d   1     -27.580   4.739  -8.577  0.00  0.00    -0.400 OA
ATOM     30  H11 MOL d   1     -27.581   3.819  -8.340  0.00  0.00     0.209 HD
ENDBRANCH  26  29
ENDBRANCH  23  26
ENDBRANCH  20  23
ENDBRANCH  14  20
ENDBRANCH   4  10
BRANCH   2  31
ATOM     31  C13 MOL d   1     -35.672   3.125  -9.103  0.00  0.00    -0.019 A 
ATOM     32  C22 MOL d   1     -36.991   3.843  -9.264  0.00  0.00    -0.048 A 
ATOM     33  C14 MOL d   1     -36.808   2.440  -9.820  0.00  0.00    -0.004 A 
ATOM     34  H23 MOL d   1     -37.072   4.700  -9.948  0.00  0.00     0.035 H 
ATOM     35  H24 MOL d   1     -37.638   4.009  -8.390  0.00  0.00     0.035 H 
ATOM     36  H25 MOL d   1     -36.654   2.356 -10.906  0.00  0.00     0.050 H 
ATOM     37  H22 MOL d   1     -34.800   3.340  -9.738  0.00  0.00     0.048 H 
BRANCH  33  38
ATOM     38  C18 MOL d   1     -37.724   1.270  -9.502  0.00  0.00     0.039 A 
ATOM     39  N1  MOL d   1     -37.188   0.196  -8.898  0.00  0.00    -0.265 NA
ATOM     40  C19 MOL d   1     -38.020  -0.841  -8.639  0.00  0.00     0.003 A 
ATOM     41  C15 MOL d   1     -39.384  -0.902  -8.985  0.00  0.00    -0.066 A 
ATOM     42  H26 MOL d   1     -37.601  -1.696  -8.122  0.00  0.00     0.114 H 
ATOM     43  C16 MOL d   1     -39.937   0.199  -9.637  0.00  0.00    -0.080 A 
ATOM     44  H27 MOL d   1     -39.983  -1.775  -8.752  0.00  0.00     0.085 H 
ATOM     45  C17 MOL d   1     -39.083   1.285  -9.891  0.00  0.00    -0.059 A 
ATOM     46  H28 MOL d   1     -40.979   0.216  -9.935  0.00  0.00     0.083 H 
ATOM     47  H29 MOL d   1     -39.477   2.158 -10.399  0.00  0.00     0.086 H 
ENDBRANCH  33  38
ENDBRANCH   2  31
BRANCH   6  48
ATOM     48  C24 MOL d   1     -36.406   2.793  -4.004  0.00  0.00    -0.024 C 
BRANCH  48  49
ATOM     49  C27 MOL d   1     -36.855   4.064  -3.225  0.00  0.00    -0.066 C 
ATOM     50  H13 MOL d   1     -37.466   3.767  -2.360  0.00  0.00     0.028 H 
ATOM     51  H14 MOL d   1     -37.448   4.710  -3.889  0.00  0.00     0.028 H 
ATOM     52  H15 MOL d   1     -35.968   4.613  -2.876  0.00  0.00     0.028 H 
ENDBRANCH  48  49
BRANCH  48  53
ATOM     53  C26 MOL d   1     -37.654   1.938  -4.371  0.00  0.00    -0.066 C 
ATOM     54  H16 MOL d   1     -37.335   1.041  -4.921  0.00  0.00     0.028 H 
ATOM     55  H17 MOL d   1     -38.333   2.532  -5.000  0.00  0.00     0.028 H 
ATOM     56  H18 MOL d   1     -38.176   1.637  -3.451  0.00  0.00     0.028 H 
ENDBRANCH  48  53
BRANCH  48  57
ATOM     57  C25 MOL d   1     -35.481   1.931  -3.152  0.00  0.00    -0.066 C 
ATOM     58  H19 MOL d   1     -34.588   2.512  -2.877  0.00  0.00     0.028 H 
ATOM     59  H20 MOL d   1     -35.178   1.042  -3.724  0.00  0.00     0.028 H 
ATOM     60  H21 MOL d   1     -36.009   1.617  -2.240  0.00  0.00     0.028 H 
ENDBRANCH  48  57
ENDBRANCH   6  48
TORSDOF 11
