REMARK  12 active torsions:
REMARK  status: ('A' for Active; 'I' for Inactive)
REMARK    1  A    between atoms: C4_22  and  C13_2 
REMARK    2  A    between atoms: C14_3  and  C18_6 
REMARK    3  A    between atoms: S1_15  and  C20_8 
REMARK    4  A    between atoms: C20_8  and  C21_17 
REMARK    5  A    between atoms: C10_20  and  C6_11 
REMARK    6  A    between atoms: C7_12  and  S1_15 
REMARK    7  A    between atoms: C21_17  and  O3_18 
REMARK    8  A    between atoms: C3_23  and  C24_24 
REMARK    9  A    between atoms: C24_24  and  C25_25 
REMARK   10  A    between atoms: C25_25  and  C26_26 
REMARK   11  A    between atoms: C26_26  and  C27_27 
REMARK   12  A    between atoms: C27_27  and  C28_28 
ROOT
ATOM      1  C5  MOL d   1     -34.158   3.827  -6.408  0.00  0.00    -0.065 A 
ATOM      2  C6  MOL d   1     -33.339   4.493  -7.352  0.00  0.00    -0.025 A 
ATOM      3  C4  MOL d   1     -35.443   3.418  -6.767  0.00  0.00    -0.046 A 
ATOM      4  C3  MOL d   1     -35.893   3.611  -8.103  0.00  0.00    -0.051 A 
ATOM      5  C23 MOL d   1     -35.099   4.288  -9.052  0.00  0.00    -0.075 A 
ATOM      6  C1  MOL d   1     -33.800   4.712  -8.669  0.00  0.00    -0.072 A 
ATOM      7  H9  MOL d   1     -33.787   3.635  -5.408  0.00  0.00     0.085 H 
ATOM      8  H27 MOL d   1     -35.473   4.480 -10.051  0.00  0.00     0.084 H 
ATOM      9  H28 MOL d   1     -33.159   5.206  -9.390  0.00  0.00     0.084 H 
ENDROOT
BRANCH   2  10
ATOM     10  C10 MOL d   1     -32.012   4.945  -6.921  0.00  0.00    -0.026 A 
ATOM     11  C9  MOL d   1     -31.412   4.446  -5.742  0.00  0.00    -0.071 A 
ATOM     12  C8  MOL d   1     -30.113   4.831  -5.324  0.00  0.00    -0.061 A 
ATOM     13  H10 MOL d   1     -31.967   3.741  -5.134  0.00  0.00     0.084 H 
ATOM     14  C7  MOL d   1     -29.478   5.780  -6.143  0.00  0.00     0.059 A 
ATOM     15  H14 MOL d   1     -29.643   4.423  -4.436  0.00  0.00     0.085 H 
ATOM     16  C12 MOL d   1     -30.051   6.324  -7.276  0.00  0.00    -0.061 A 
ATOM     17  C11 MOL d   1     -31.332   5.900  -7.698  0.00  0.00    -0.071 A 
ATOM     18  H1  MOL d   1     -29.517   7.078  -7.843  0.00  0.00     0.085 H 
ATOM     19  H15 MOL d   1     -31.780   6.302  -8.600  0.00  0.00     0.084 H 
BRANCH  14  20
ATOM     20  S1  MOL d   1     -27.892   6.433  -5.626  0.00  0.00     0.177 S 
ATOM     21  O1  MOL d   1     -27.754   6.203  -4.173  0.00  0.00    -0.223 OA
ATOM     22  O2  MOL d   1     -27.835   7.765  -6.262  0.00  0.00    -0.223 OA
BRANCH  20  23
ATOM     23  C20 MOL d   1     -26.530   5.405  -6.292  0.00  0.00     0.052 C 
ATOM     24  H7  MOL d   1     -26.736   4.354  -6.041  0.00  0.00     0.059 H 
ATOM     25  H8  MOL d   1     -25.593   5.720  -5.810  0.00  0.00     0.059 H 
BRANCH  23  26
ATOM     26  C21 MOL d   1     -26.348   5.510  -7.819  0.00  0.00     0.029 C 
ATOM     27  H11 MOL d   1     -25.332   5.192  -8.095  0.00  0.00     0.075 H 
ATOM     28  H12 MOL d   1     -26.507   6.550  -8.141  0.00  0.00     0.075 H 
BRANCH  26  29
ATOM     29  O3  MOL d   1     -27.292   4.671  -8.438  0.00  0.00    -0.400 OA
ATOM     30  H13 MOL d   1     -27.152   3.775  -8.155  0.00  0.00     0.209 HD
ENDBRANCH  26  29
ENDBRANCH  23  26
ENDBRANCH  20  23
ENDBRANCH  14  20
ENDBRANCH   2  10
BRANCH   3  31
ATOM     31  C13 MOL d   1     -36.316   2.782  -5.711  0.00  0.00    -0.018 A 
ATOM     32  C14 MOL d   1     -35.733   1.806  -4.674  0.00  0.00    -0.004 A 
ATOM     33  C22 MOL d   1     -36.606   1.316  -5.789  0.00  0.00    -0.048 A 
ATOM     34  H3  MOL d   1     -36.082   1.849  -3.632  0.00  0.00     0.050 H 
ATOM     35  H29 MOL d   1     -36.168   0.716  -6.601  0.00  0.00     0.035 H 
ATOM     36  H30 MOL d   1     -37.619   0.948  -5.567  0.00  0.00     0.035 H 
ATOM     37  H2  MOL d   1     -37.103   3.490  -5.412  0.00  0.00     0.048 H 
BRANCH  32  38
ATOM     38  C18 MOL d   1     -34.332   1.321  -4.730  0.00  0.00     0.039 A 
ATOM     39  C17 MOL d   1     -33.448   1.447  -3.653  0.00  0.00    -0.059 A 
ATOM     40  C16 MOL d   1     -32.142   0.953  -3.782  0.00  0.00    -0.080 A 
ATOM     41  H5  MOL d   1     -33.768   1.920  -2.732  0.00  0.00     0.086 H 
ATOM     42  C15 MOL d   1     -31.757   0.399  -5.044  0.00  0.00    -0.066 A 
ATOM     43  H31 MOL d   1     -31.446   0.990  -2.952  0.00  0.00     0.083 H 
ATOM     44  C19 MOL d   1     -32.689   0.308  -6.087  0.00  0.00     0.003 A 
ATOM     45  H4  MOL d   1     -30.742   0.049  -5.194  0.00  0.00     0.085 H 
ATOM     46  N1  MOL d   1     -33.966   0.753  -5.938  0.00  0.00    -0.265 NA
ATOM     47  H6  MOL d   1     -32.386  -0.126  -7.033  0.00  0.00     0.114 H 
ENDBRANCH  32  38
ENDBRANCH   3  31
BRANCH   4  48
ATOM     48  C24 MOL d   1     -37.315   3.175  -8.450  0.00  0.00    -0.040 C 
ATOM     49  H16 MOL d   1     -37.783   3.934  -9.094  0.00  0.00     0.040 H 
ATOM     50  H17 MOL d   1     -37.900   3.067  -7.525  0.00  0.00     0.040 H 
BRANCH  48  51
ATOM     51  C25 MOL d   1     -37.278   1.823  -9.195  0.00  0.00    -0.061 C 
ATOM     52  H18 MOL d   1     -36.807   1.046  -8.575  0.00  0.00     0.033 H 
ATOM     53  H19 MOL d   1     -36.732   1.914 -10.146  0.00  0.00     0.033 H 
BRANCH  51  54
ATOM     54  C26 MOL d   1     -38.764   1.502  -9.443  0.00  0.00    -0.065 C 
ATOM     55  H20 MOL d   1     -39.057   1.855 -10.443  0.00  0.00     0.033 H 
ATOM     56  H21 MOL d   1     -39.382   2.001  -8.682  0.00  0.00     0.033 H 
BRANCH  54  57
ATOM     57  C27 MOL d   1     -38.961  -0.005  -9.355  0.00  0.00    -0.069 C 
ATOM     58  H22 MOL d   1     -38.777  -0.343  -8.324  0.00  0.00     0.032 H 
ATOM     59  H23 MOL d   1     -38.261  -0.510 -10.037  0.00  0.00     0.032 H 
BRANCH  57  60
ATOM     60  C28 MOL d   1     -40.402  -0.337  -9.757  0.00  0.00    -0.077 C 
ATOM     61  H24 MOL d   1     -40.558  -1.424  -9.698  0.00  0.00     0.027 H 
ATOM     62  H25 MOL d   1     -40.583   0.004 -10.787  0.00  0.00     0.027 H 
ATOM     63  H26 MOL d   1     -41.099   0.171  -9.075  0.00  0.00     0.027 H 
ENDBRANCH  57  60
ENDBRANCH  54  57
ENDBRANCH  51  54
ENDBRANCH  48  51
ENDBRANCH   4  48
TORSDOF 12
