REMARK  12 active torsions:
REMARK  status: ('A' for Active; 'I' for Inactive)
REMARK    1  A    between atoms: C4_22  and  C13_2 
REMARK    2  A    between atoms: C14_3  and  C18_6 
REMARK    3  A    between atoms: S1_15  and  C20_8 
REMARK    4  A    between atoms: C20_8  and  C21_17 
REMARK    5  A    between atoms: C10_20  and  C6_11 
REMARK    6  A    between atoms: C7_12  and  S1_15 
REMARK    7  A    between atoms: C21_17  and  O3_18 
REMARK    8  A    between atoms: C3_23  and  C24_24 
REMARK    9  A    between atoms: C24_24  and  C25_25 
REMARK   10  A    between atoms: C25_25  and  C26_26 
REMARK   11  A    between atoms: C26_26  and  C27_27 
REMARK   12  A    between atoms: C27_27  and  C28_28 
ROOT
ATOM      1  C5  MOL d   1     -34.339   3.804  -6.384  0.00  0.00    -0.065 A 
ATOM      2  C6  MOL d   1     -33.521   4.417  -7.347  0.00  0.00    -0.025 A 
ATOM      3  C4  MOL d   1     -35.636   3.368  -6.736  0.00  0.00    -0.046 A 
ATOM      4  C3  MOL d   1     -36.101   3.492  -8.067  0.00  0.00    -0.051 A 
ATOM      5  C23 MOL d   1     -35.309   4.125  -9.033  0.00  0.00    -0.075 A 
ATOM      6  C1  MOL d   1     -34.000   4.556  -8.673  0.00  0.00    -0.072 A 
ATOM      7  H9  MOL d   1     -33.976   3.666  -5.372  0.00  0.00     0.085 H 
ATOM      8  H27 MOL d   1     -35.685   4.284 -10.037  0.00  0.00     0.084 H 
ATOM      9  H28 MOL d   1     -33.359   4.998  -9.427  0.00  0.00     0.084 H 
ENDROOT
BRANCH   2  10
ATOM     10  C10 MOL d   1     -32.154   4.887  -6.967  0.00  0.00    -0.026 A 
ATOM     11  C9  MOL d   1     -31.582   4.427  -5.782  0.00  0.00    -0.071 A 
ATOM     12  C8  MOL d   1     -30.297   4.875  -5.352  0.00  0.00    -0.061 A 
ATOM     13  H10 MOL d   1     -32.125   3.713  -5.173  0.00  0.00     0.084 H 
ATOM     14  C7  MOL d   1     -29.609   5.761  -6.213  0.00  0.00     0.059 A 
ATOM     15  H14 MOL d   1     -29.869   4.551  -4.410  0.00  0.00     0.085 H 
ATOM     16  C12 MOL d   1     -30.127   6.249  -7.390  0.00  0.00    -0.061 A 
ATOM     17  C11 MOL d   1     -31.427   5.774  -7.778  0.00  0.00    -0.071 A 
ATOM     18  H1  MOL d   1     -29.579   6.960  -7.998  0.00  0.00     0.085 H 
ATOM     19  H15 MOL d   1     -31.855   6.107  -8.716  0.00  0.00     0.084 H 
BRANCH  14  20
ATOM     20  S1  MOL d   1     -28.067   6.358  -5.653  0.00  0.00     0.177 S 
ATOM     21  O1  MOL d   1     -27.969   6.196  -4.213  0.00  0.00    -0.223 OA
ATOM     22  O2  MOL d   1     -28.032   7.709  -6.195  0.00  0.00    -0.223 OA
BRANCH  20  23
ATOM     23  C20 MOL d   1     -26.631   5.392  -6.275  0.00  0.00     0.052 C 
ATOM     24  H7  MOL d   1     -26.764   4.332  -6.012  0.00  0.00     0.059 H 
ATOM     25  H8  MOL d   1     -25.708   5.772  -5.812  0.00  0.00     0.059 H 
BRANCH  23  26
ATOM     26  C21 MOL d   1     -26.527   5.529  -7.813  0.00  0.00     0.029 C 
ATOM     27  H11 MOL d   1     -25.488   5.337  -8.120  0.00  0.00     0.075 H 
ATOM     28  H12 MOL d   1     -26.812   6.552  -8.101  0.00  0.00     0.075 H 
BRANCH  26  29
ATOM     29  O3  MOL d   1     -27.387   4.602  -8.480  0.00  0.00    -0.400 OA
ATOM     30  H13 MOL d   1     -27.143   3.716  -8.239  0.00  0.00     0.209 HD
ENDBRANCH  26  29
ENDBRANCH  23  26
ENDBRANCH  20  23
ENDBRANCH  14  20
ENDBRANCH   2  10
BRANCH   3  31
ATOM     31  C13 MOL d   1     -36.456   2.692  -5.665  0.00  0.00    -0.018 A 
ATOM     32  C14 MOL d   1     -35.929   1.604  -4.729  0.00  0.00    -0.004 A 
ATOM     33  C22 MOL d   1     -36.998   1.303  -5.748  0.00  0.00    -0.048 A 
ATOM     34  H3  MOL d   1     -36.202   1.626  -3.664  0.00  0.00     0.050 H 
ATOM     35  H29 MOL d   1     -36.761   0.675  -6.620  0.00  0.00     0.035 H 
ATOM     36  H30 MOL d   1     -38.026   1.097  -5.417  0.00  0.00     0.035 H 
ATOM     37  H2  MOL d   1     -37.107   3.467  -5.234  0.00  0.00     0.048 H 
BRANCH  32  38
ATOM     38  C18 MOL d   1     -34.556   1.115  -4.841  0.00  0.00     0.039 A 
ATOM     39  C17 MOL d   1     -33.603   1.251  -3.787  0.00  0.00    -0.059 A 
ATOM     40  C16 MOL d   1     -32.311   0.783  -3.997  0.00  0.00    -0.080 A 
ATOM     41  H5  MOL d   1     -33.880   1.709  -2.844  0.00  0.00     0.086 H 
ATOM     42  C15 MOL d   1     -31.951   0.237  -5.249  0.00  0.00    -0.066 A 
ATOM     43  H31 MOL d   1     -31.579   0.837  -3.199  0.00  0.00     0.083 H 
ATOM     44  C19 MOL d   1     -32.941   0.161  -6.254  0.00  0.00     0.003 A 
ATOM     45  H4  MOL d   1     -30.942  -0.114  -5.434  0.00  0.00     0.085 H 
ATOM     46  N1  MOL d   1     -34.231   0.589  -6.074  0.00  0.00    -0.265 NA
ATOM     47  H6  MOL d   1     -32.667  -0.257  -7.216  0.00  0.00     0.114 H 
ENDBRANCH  32  38
ENDBRANCH   3  31
BRANCH   4  48
ATOM     48  C24 MOL d   1     -37.502   3.084  -8.480  0.00  0.00    -0.040 C 
ATOM     49  H16 MOL d   1     -37.940   3.881  -9.099  0.00  0.00     0.040 H 
ATOM     50  H17 MOL d   1     -38.115   2.942  -7.578  0.00  0.00     0.040 H 
BRANCH  48  51
ATOM     51  C25 MOL d   1     -37.486   1.762  -9.294  0.00  0.00    -0.061 C 
ATOM     52  H18 MOL d   1     -36.951   0.975  -8.743  0.00  0.00     0.033 H 
ATOM     53  H19 MOL d   1     -37.006   1.915 -10.272  0.00  0.00     0.033 H 
BRANCH  51  54
ATOM     54  C26 MOL d   1     -38.970   1.387  -9.471  0.00  0.00    -0.065 C 
ATOM     55  H20 MOL d   1     -39.279   1.558 -10.513  0.00  0.00     0.033 H 
ATOM     56  H21 MOL d   1     -39.594   1.995  -8.799  0.00  0.00     0.033 H 
BRANCH  54  57
ATOM     57  C27 MOL d   1     -39.113  -0.085  -9.122  0.00  0.00    -0.069 C 
ATOM     58  H22 MOL d   1     -39.227  -0.216  -8.036  0.00  0.00     0.032 H 
ATOM     59  H23 MOL d   1     -38.237  -0.652  -9.470  0.00  0.00     0.032 H 
BRANCH  57  60
ATOM     60  C28 MOL d   1     -40.368  -0.538  -9.850  0.00  0.00    -0.077 C 
ATOM     61  H24 MOL d   1     -40.544  -1.605  -9.647  0.00  0.00     0.027 H 
ATOM     62  H25 MOL d   1     -40.239  -0.387 -10.932  0.00  0.00     0.027 H 
ATOM     63  H26 MOL d   1     -41.229   0.050  -9.498  0.00  0.00     0.027 H 
ENDBRANCH  57  60
ENDBRANCH  54  57
ENDBRANCH  51  54
ENDBRANCH  48  51
ENDBRANCH   4  48
TORSDOF 12
