REMARK  8 active torsions:
REMARK  status: ('A' for Active; 'I' for Inactive)
REMARK    1  A    between atoms: C14_4  and  C13_3 
REMARK    2  A    between atoms: C13_3  and  O1_18 
REMARK    3  A    between atoms: S1_16  and  C14_4 
REMARK    4  A    between atoms: C15_5  and  S1_16 
REMARK    5  A    between atoms: C17_6  and  C9_14 
REMARK    6  A    between atoms: C19_8  and  C20_9 
REMARK    7  A    between atoms: C6_12  and  C1_23 
REMARK    8  A    between atoms: C27_26  and  C22_28 
ROOT
ATOM      1  C17 MOL d   1     -32.232   4.421  -6.610  0.00  0.00    -0.025 A 
ATOM      2  C18 MOL d   1     -33.091   3.923  -5.599  0.00  0.00    -0.065 A 
ATOM      3  C20 MOL d   1     -34.383   3.410  -5.841  0.00  0.00    -0.046 A 
ATOM      4  C6  MOL d   1     -34.896   3.451  -7.176  0.00  0.00    -0.047 A 
ATOM      5  C7  MOL d   1     -34.021   3.930  -8.199  0.00  0.00    -0.075 A 
ATOM      6  C8  MOL d   1     -32.733   4.465  -7.956  0.00  0.00    -0.072 A 
ATOM      7  H8  MOL d   1     -32.733   3.937  -4.576  0.00  0.00     0.085 H 
ATOM      8  H12 MOL d   1     -34.365   3.881  -9.226  0.00  0.00     0.084 H 
ATOM      9  H17 MOL d   1     -32.144   4.894  -8.759  0.00  0.00     0.084 H 
ENDROOT
BRANCH   1  10
ATOM     10  C9  MOL d   1     -30.914   4.903  -6.253  0.00  0.00    -0.026 A 
ATOM     11  C10 MOL d   1     -30.196   5.680  -7.126  0.00  0.00    -0.071 A 
ATOM     12  C16 MOL d   1     -28.875   6.171  -6.859  0.00  0.00    -0.061 A 
ATOM     13  H15 MOL d   1     -30.654   5.938  -8.074  0.00  0.00     0.084 H 
ATOM     14  C15 MOL d   1     -28.310   5.769  -5.606  0.00  0.00     0.059 A 
ATOM     15  H14 MOL d   1     -28.340   6.804  -7.558  0.00  0.00     0.085 H 
ATOM     16  C12 MOL d   1     -29.010   4.931  -4.756  0.00  0.00    -0.061 A 
ATOM     17  C11 MOL d   1     -30.295   4.474  -5.045  0.00  0.00    -0.071 A 
ATOM     18  H3  MOL d   1     -28.541   4.618  -3.830  0.00  0.00     0.085 H 
ATOM     19  H16 MOL d   1     -30.811   3.807  -4.365  0.00  0.00     0.084 H 
BRANCH  14  20
ATOM     20  S1  MOL d   1     -26.713   6.369  -5.159  0.00  0.00     0.177 S 
ATOM     21  O3  MOL d   1     -26.578   6.222  -3.660  0.00  0.00    -0.223 OA
ATOM     22  O2  MOL d   1     -26.590   7.609  -5.837  0.00  0.00    -0.223 OA
BRANCH  20  23
ATOM     23  C14 MOL d   1     -25.429   5.301  -5.875  0.00  0.00     0.052 C 
ATOM     24  H6  MOL d   1     -24.477   5.563  -5.391  0.00  0.00     0.059 H 
ATOM     25  H7  MOL d   1     -25.692   4.261  -5.629  0.00  0.00     0.059 H 
BRANCH  23  26
ATOM     26  C13 MOL d   1     -25.203   5.372  -7.420  0.00  0.00     0.029 C 
ATOM     27  H4  MOL d   1     -24.220   4.958  -7.688  0.00  0.00     0.075 H 
ATOM     28  H5  MOL d   1     -25.273   6.411  -7.776  0.00  0.00     0.075 H 
BRANCH  26  29
ATOM     29  O1  MOL d   1     -26.241   4.586  -7.968  0.00  0.00    -0.400 OA
ATOM     30  H13 MOL d   1     -26.170   3.697  -7.640  0.00  0.00     0.209 HD
ENDBRANCH  26  29
ENDBRANCH  23  26
ENDBRANCH  20  23
ENDBRANCH  14  20
ENDBRANCH   1  10
BRANCH   3  31
ATOM     31  C19 MOL d   1     -35.223   2.875  -4.708  0.00  0.00    -0.018 A 
ATOM     32  C27 MOL d   1     -34.611   1.885  -3.713  0.00  0.00    -0.004 A 
ATOM     33  C21 MOL d   1     -35.740   1.459  -4.625  0.00  0.00    -0.048 A 
ATOM     34  H23 MOL d   1     -34.844   2.009  -2.645  0.00  0.00     0.050 H 
ATOM     35  H24 MOL d   1     -35.544   0.755  -5.447  0.00  0.00     0.035 H 
ATOM     36  H25 MOL d   1     -36.738   1.264  -4.206  0.00  0.00     0.035 H 
ATOM     37  H9  MOL d   1     -35.868   3.688  -4.344  0.00  0.00     0.048 H 
BRANCH  32  38
ATOM     38  C22 MOL d   1     -33.162   1.409  -3.792  0.00  0.00     0.039 A 
ATOM     39  N1  MOL d   1     -32.669   0.911  -4.961  0.00  0.00    -0.265 NA
ATOM     40  C26 MOL d   1     -31.326   0.624  -5.029  0.00  0.00     0.003 A 
ATOM     41  C25 MOL d   1     -30.378   0.694  -3.992  0.00  0.00    -0.066 A 
ATOM     42  H29 MOL d   1     -30.954   0.306  -5.996  0.00  0.00     0.114 H 
ATOM     43  C24 MOL d   1     -30.914   1.209  -2.776  0.00  0.00    -0.080 A 
ATOM     44  H28 MOL d   1     -29.345   0.387  -4.106  0.00  0.00     0.085 H 
ATOM     45  C23 MOL d   1     -32.263   1.581  -2.695  0.00  0.00    -0.059 A 
ATOM     46  H27 MOL d   1     -30.274   1.314  -1.907  0.00  0.00     0.083 H 
ATOM     47  H26 MOL d   1     -32.635   2.012  -1.773  0.00  0.00     0.086 H 
ENDBRANCH  32  38
ENDBRANCH   3  31
BRANCH   4  48
ATOM     48  C1  MOL d   1     -36.309   2.954  -7.507  0.00  0.00    -0.028 C 
ATOM     49  C2  MOL d   1     -37.200   4.025  -8.147  0.00  0.00    -0.058 C 
ATOM     50  C5  MOL d   1     -38.351   3.187  -8.781  0.00  0.00    -0.064 C 
ATOM     51  H1  MOL d   1     -37.588   4.721  -7.389  0.00  0.00     0.034 H 
ATOM     52  H2  MOL d   1     -36.651   4.589  -8.916  0.00  0.00     0.034 H 
ATOM     53  C4  MOL d   1     -37.850   1.778  -9.004  0.00  0.00    -0.064 C 
ATOM     54  H10 MOL d   1     -38.648   3.632  -9.742  0.00  0.00     0.033 H 
ATOM     55  H11 MOL d   1     -39.216   3.170  -8.102  0.00  0.00     0.033 H 
ATOM     56  C3  MOL d   1     -36.371   1.742  -8.489  0.00  0.00    -0.058 C 
ATOM     57  H21 MOL d   1     -37.885   1.528 -10.075  0.00  0.00     0.033 H 
ATOM     58  H22 MOL d   1     -38.466   1.062  -8.440  0.00  0.00     0.033 H 
ATOM     59  H19 MOL d   1     -36.158   0.798  -7.966  0.00  0.00     0.034 H 
ATOM     60  H20 MOL d   1     -35.661   1.869  -9.319  0.00  0.00     0.034 H 
ATOM     61  H18 MOL d   1     -36.763   2.646  -6.554  0.00  0.00     0.047 H 
ENDBRANCH   4  48
TORSDOF 8
