REMARK WARNING: 32 MAX_TORS EXCEEDED!!!
REMARK  45 active torsions:
REMARK  status: ('A' for Active; 'I' for Inactive)
REMARK    1  A    between atoms: N_1  and  CA_2 
REMARK    2  A    between atoms: CA_2  and  C_3 
REMARK    3  A    between atoms: CA_2  and  CB_5 
REMARK       I    between atoms: C_3  and  N_9 
REMARK    4  A    between atoms: CB_5  and  CG_6 
REMARK    5  A    between atoms: CG_6  and  CD1_7 
REMARK    6  A    between atoms: CG_6  and  CD2_8 
REMARK    7  A    between atoms: CA_10  and  C_11 
REMARK       I    between atoms: C_11  and  N_16 
REMARK    8  A    between atoms: N_16  and  CA_17 
REMARK    9  A    between atoms: CA_17  and  C_18 
REMARK   10  A    between atoms: CA_17  and  CB_20 
REMARK       I    between atoms: C_18  and  N_27 
REMARK   11  A    between atoms: CB_20  and  CG_21 
REMARK   12  A    between atoms: N_27  and  CA_28 
REMARK   13  A    between atoms: CA_28  and  C_29 
REMARK   14  A    between atoms: CA_28  and  CB_31 
REMARK       I    between atoms: C_29  and  N_36 
REMARK   15  A    between atoms: CB_31  and  CG_32 
REMARK   16  A    between atoms: CG_32  and  CD_33 
REMARK   17  A    between atoms: N_36  and  CA_37 
REMARK   18  A    between atoms: CA_37  and  C_38 
REMARK   19  A    between atoms: CA_37  and  CB_40 
REMARK       I    between atoms: C_38  and  N_44 
REMARK   20  A    between atoms: CB_40  and  CG_41 
REMARK   21  A    between atoms: CG_41  and  CD1_42 
REMARK   22  A    between atoms: CG_41  and  CD2_43 
REMARK   23  A    between atoms: N_44  and  CA_45 
REMARK   24  A    between atoms: CA_45  and  C_46 
REMARK   25  A    between atoms: CA_45  and  CB_48 
REMARK       I    between atoms: C_46  and  N_55 
REMARK   26  A    between atoms: CB_48  and  CG_49 
REMARK   27  A    between atoms: CG_49  and  CD_50 
REMARK   28  A    between atoms: CD_50  and  NE_51 
REMARK       I    between atoms: NE_51  and  CZ_52 
REMARK       I    between atoms: CZ_52  and  NH1_53 
REMARK   29  A    between atoms: N_55  and  CA_56 
REMARK   30  A    between atoms: CA_56  and  C_57 
REMARK       I    between atoms: C_57  and  N_59 
REMARK   31  A    between atoms: N_59  and  CA_60 
REMARK   32  A    between atoms: CA_60  and  C_61 
REMARK   33  A    between atoms: CA_60  and  CB_63 
REMARK       I    between atoms: C_61  and  N_69 
REMARK   34  A    between atoms: CB_63  and  CG_64 
REMARK   35  A    between atoms: N_69  and  CA_70 
REMARK   36  A    between atoms: CA_70  and  C_71 
REMARK   37  A    between atoms: CA_70  and  CB_73 
REMARK       I    between atoms: C_71  and  N_77 
REMARK   38  A    between atoms: CB_73  and  CG_74 
REMARK   39  A    between atoms: CG_74  and  CD1_75 
REMARK   40  A    between atoms: CG_74  and  CD2_76 
REMARK   41  A    between atoms: N_77  and  CA_78 
REMARK   42  A    between atoms: CA_78  and  C_79 
REMARK   43  A    between atoms: CA_78  and  CB_81 
REMARK   44  A    between atoms: CB_81  and  CG1_82 
REMARK   45  A    between atoms: CB_81  and  CG2_83 
ROOT
ATOM      1  CA  LEU d   1     -37.907  -3.442 -15.698  0.00  0.00     0.089 C 
ATOM      2  H37 LEU d   1     -37.323  -4.273 -16.120  0.00  0.00     0.087 H 
ENDROOT
BRANCH   1   3
ATOM      3  N   LEU d   1     -36.970  -2.432 -15.144  0.00  0.00    -0.346 N 
ATOM      4  C   LEU d   1     -35.674  -2.558 -15.312  0.00  0.00     0.241 C 
ATOM      5  O   LEU d   1     -35.160  -3.441 -15.937  0.00  0.00    -0.271 OA
ATOM      6  H36 LEU d   1     -37.330  -1.648 -14.638  0.00  0.00     0.163 HD
BRANCH   4   7
ATOM      7  CA  LEU d   1     -34.724  -1.539 -14.691  0.00  0.00     0.090 C 
ATOM      8  H31 LEU d   1     -34.027  -1.200 -15.472  0.00  0.00     0.087 H 
BRANCH   7   9
ATOM      9  N   LEU d   1     -35.455  -0.357 -14.188  0.00  0.00    -0.346 N 
ATOM     10  C   LEU d   1     -35.857   0.544 -15.037  0.00  0.00     0.241 C 
ATOM     11  O   LEU d   1     -35.730   0.400 -16.257  0.00  0.00    -0.271 OA
ATOM     12  H30 LEU d   1     -35.638  -0.251 -13.211  0.00  0.00     0.163 HD
BRANCH  10  13
ATOM     13  CA  LEU d   1     -36.566   1.784 -14.479  0.00  0.00     0.093 C 
ATOM     14  H22 LEU d   1     -37.340   2.070 -15.206  0.00  0.00     0.088 H 
BRANCH  13  15
ATOM     15  N   LEU d   1     -37.246   1.603 -13.185  0.00  0.00    -0.346 N 
ATOM     16  C   LEU d   1     -38.147   0.638 -13.003  0.00  0.00     0.241 C 
ATOM     17  O   LEU d   1     -38.326  -0.275 -13.788  0.00  0.00    -0.271 OA
ATOM     18  H21 LEU d   1     -37.027   2.217 -12.427  0.00  0.00     0.163 HD
BRANCH  16  19
ATOM     19  CA  LEU d   1     -38.994   0.617 -11.736  0.00  0.00     0.091 C 
ATOM     20  N   LEU d   1     -40.284  -0.028 -12.010  0.00  0.00    -0.337 N 
ATOM     21  C   LEU d   1     -41.171   0.511 -12.867  0.00  0.00     0.251 C 
ATOM     22  CD  LEU d   1     -40.383  -1.349 -11.364  0.00  0.00    -0.001 C 
ATOM     23  O   LEU d   1     -41.034   1.641 -13.339  0.00  0.00    -0.271 OA
ATOM     24  CG  LEU d   1     -38.973  -1.618 -10.929  0.00  0.00    -0.048 C 
ATOM     25  H19 LEU d   1     -40.730  -2.112 -12.076  0.00  0.00     0.064 H 
ATOM     26  H20 LEU d   1     -41.064  -1.317 -10.501  0.00  0.00     0.064 H 
ATOM     27  CB  LEU d   1     -38.365  -0.287 -10.681  0.00  0.00    -0.036 C 
ATOM     28  H17 LEU d   1     -38.965  -2.220 -10.009  0.00  0.00     0.035 H 
ATOM     29  H18 LEU d   1     -38.423  -2.149 -11.720  0.00  0.00     0.035 H 
ATOM     30  H15 LEU d   1     -38.606   0.069  -9.669  0.00  0.00     0.036 H 
ATOM     31  H16 LEU d   1     -37.273  -0.329 -10.804  0.00  0.00     0.036 H 
ATOM     32  H14 LEU d   1     -39.128   1.641 -11.356  0.00  0.00     0.087 H 
BRANCH  21  33
ATOM     33  CA  LEU d   1     -42.378  -0.342 -13.257  0.00  0.00     0.176 C 
ATOM     34  H4  LEU d   1     -42.592  -1.040 -12.434  0.00  0.00     0.099 H 
BRANCH  33  35
ATOM     35  N   LEU d   1     -43.554   0.489 -13.475  0.00  0.00    -0.066 N 
ATOM     36  H1  LEU d   1     -44.335  -0.095 -13.730  0.00  0.00     0.275 HD
ATOM     37  H2  LEU d   1     -43.368   1.146 -14.217  0.00  0.00     0.275 HD
ATOM     38  H3  LEU d   1     -43.772   0.991 -12.629  0.00  0.00     0.275 HD
ENDBRANCH  33  35
BRANCH  33  39
ATOM     39  CB  LEU d   1     -42.064  -1.152 -14.518  0.00  0.00    -0.028 C 
ATOM     40  H5  LEU d   1     -41.126  -1.696 -14.334  0.00  0.00     0.037 H 
ATOM     41  H6  LEU d   1     -41.918  -0.436 -15.341  0.00  0.00     0.037 H 
BRANCH  39  42
ATOM     42  CG  LEU d   1     -43.104  -2.177 -14.982  0.00  0.00    -0.059 C 
ATOM     43  H7  LEU d   1     -44.101  -1.723 -14.887  0.00  0.00     0.038 H 
BRANCH  42  44
ATOM     44  CD1 LEU d   1     -42.883  -2.542 -16.444  0.00  0.00    -0.073 C 
ATOM     45  H8  LEU d   1     -43.639  -3.278 -16.756  0.00  0.00     0.028 H 
ATOM     46  H9  LEU d   1     -41.879  -2.974 -16.566  0.00  0.00     0.028 H 
ATOM     47  H10 LEU d   1     -42.972  -1.639 -17.065  0.00  0.00     0.028 H 
ENDBRANCH  42  44
BRANCH  42  48
ATOM     48  CD2 LEU d   1     -43.062  -3.421 -14.110  0.00  0.00    -0.073 C 
ATOM     49  H11 LEU d   1     -43.223  -3.138 -13.059  0.00  0.00     0.028 H 
ATOM     50  H12 LEU d   1     -42.081  -3.907 -14.212  0.00  0.00     0.028 H 
ATOM     51  H13 LEU d   1     -43.852  -4.118 -14.427  0.00  0.00     0.028 H 
ENDBRANCH  42  48
ENDBRANCH  39  42
ENDBRANCH  33  39
ENDBRANCH  21  33
ENDBRANCH  16  19
ENDBRANCH  13  15
BRANCH  13  52
ATOM     52  CB  LEU d   1     -35.548   2.918 -14.395  0.00  0.00    -0.014 C 
ATOM     53  H23 LEU d   1     -34.818   2.672 -13.610  0.00  0.00     0.043 H 
ATOM     54  H24 LEU d   1     -36.079   3.842 -14.125  0.00  0.00     0.043 H 
BRANCH  52  55
ATOM     55  CG  LEU d   1     -34.801   3.157 -15.683  0.00  0.00    -0.056 A 
ATOM     56  CD1 LEU d   1     -35.401   3.830 -16.735  0.00  0.00    -0.077 A 
ATOM     57  CE1 LEU d   1     -34.710   4.053 -17.915  0.00  0.00    -0.082 A 
ATOM     58  H25 LEU d   1     -36.420   4.185 -16.634  0.00  0.00     0.084 H 
ATOM     59  CZ  LEU d   1     -33.409   3.611 -18.047  0.00  0.00    -0.083 A 
ATOM     60  H27 LEU d   1     -35.191   4.575 -18.735  0.00  0.00     0.083 H 
ATOM     61  CE2 LEU d   1     -32.802   2.940 -17.007  0.00  0.00    -0.082 A 
ATOM     62  H29 LEU d   1     -32.865   3.791 -18.967  0.00  0.00     0.083 H 
ATOM     63  CD2 LEU d   1     -33.496   2.721 -15.831  0.00  0.00    -0.077 A 
ATOM     64  H28 LEU d   1     -31.783   2.585 -17.111  0.00  0.00     0.083 H 
ATOM     65  H26 LEU d   1     -33.011   2.200 -15.013  0.00  0.00     0.084 H 
ENDBRANCH  52  55
ENDBRANCH  13  52
ENDBRANCH  10  13
ENDBRANCH   7   9
BRANCH   7  66
ATOM     66  CB  LEU d   1     -33.914  -2.193 -13.581  0.00  0.00    -0.029 C 
ATOM     67  H32 LEU d   1     -33.378  -3.059 -13.997  0.00  0.00     0.037 H 
ATOM     68  H33 LEU d   1     -34.603  -2.532 -12.793  0.00  0.00     0.037 H 
BRANCH  66  69
ATOM     69  CG  LEU d   1     -32.908  -1.247 -12.971  0.00  0.00     0.018 C 
ATOM     70  H34 LEU d   1     -32.357  -0.761 -13.790  0.00  0.00     0.049 H 
ATOM     71  H35 LEU d   1     -32.211  -1.839 -12.360  0.00  0.00     0.049 H 
BRANCH  69  72
ATOM     72  CD  LEU d   1     -33.497  -0.157 -12.089  0.00  0.00     0.172 C 
ATOM     73  OE1 LEU d   1     -34.643  -0.308 -11.668  0.00  0.00    -0.648 OA
ATOM     74  OE2 LEU d   1     -32.779   0.858 -11.849  0.00  0.00    -0.648 OA
ENDBRANCH  69  72
ENDBRANCH  66  69
ENDBRANCH   7  66
ENDBRANCH   4   7
ENDBRANCH   1   3
BRANCH   1  75
ATOM     75  C   LEU d   1     -38.769  -2.836 -16.803  0.00  0.00     0.241 C 
ATOM     76  O   LEU d   1     -39.543  -3.554 -17.376  0.00  0.00    -0.271 OA
ATOM     77  N   LEU d   1     -38.652  -1.557 -17.021  0.00  0.00    -0.346 N 
ATOM     78  H47 LEU d   1     -37.959  -1.043 -16.515  0.00  0.00     0.163 HD
BRANCH  77  79
ATOM     79  CA  LEU d   1     -39.502  -0.842 -17.984  0.00  0.00     0.089 C 
ATOM     80  H48 LEU d   1     -40.564  -1.088 -17.834  0.00  0.00     0.087 H 
BRANCH  79  81
ATOM     81  C   LEU d   1     -39.085  -1.197 -19.416  0.00  0.00     0.240 C 
ATOM     82  O   LEU d   1     -37.933  -1.304 -19.632  0.00  0.00    -0.271 OA
ATOM     83  N   LEU d   1     -40.004  -1.370 -20.334  0.00  0.00    -0.351 N 
ATOM     84  H60 LEU d   1     -40.972  -1.313 -20.091  0.00  0.00     0.163 HD
BRANCH  83  85
ATOM     85  CA  LEU d   1     -39.608  -1.648 -21.723  0.00  0.00     0.069 C 
ATOM     86  H61 LEU d   1     -38.657  -1.133 -21.923  0.00  0.00     0.078 H 
ATOM     87  H62 LEU d   1     -40.387  -1.254 -22.392  0.00  0.00     0.078 H 
BRANCH  85  88
ATOM     88  C   LEU d   1     -39.425  -3.122 -22.017  0.00  0.00     0.236 C 
ATOM     89  O   LEU d   1     -39.507  -3.909 -21.092  0.00  0.00    -0.272 OA
ATOM     90  N   LEU d   1     -39.115  -3.423 -23.235  0.00  0.00    -0.346 N 
ATOM     91  H63 LEU d   1     -38.967  -2.686 -23.895  0.00  0.00     0.163 HD
BRANCH  90  92
ATOM     92  CA  LEU d   1     -38.974  -4.819 -23.678  0.00  0.00     0.094 C 
ATOM     93  H64 LEU d   1     -39.473  -5.491 -22.964  0.00  0.00     0.088 H 
BRANCH  92  94
ATOM     94  C   LEU d   1     -37.495  -5.179 -23.759  0.00  0.00     0.241 C 
ATOM     95  O   LEU d   1     -36.797  -4.490 -24.434  0.00  0.00    -0.271 OA
ATOM     96  N   LEU d   1     -37.087  -6.237 -23.101  0.00  0.00    -0.346 N 
ATOM     97  H70 LEU d   1     -37.735  -6.782 -22.569  0.00  0.00     0.163 HD
BRANCH  96  98
ATOM     98  CA  LEU d   1     -35.664  -6.616 -23.153  0.00  0.00     0.089 C 
ATOM     99  H71 LEU d   1     -35.052  -5.704 -23.102  0.00  0.00     0.087 H 
BRANCH  98 100
ATOM    100  C   LEU d   1     -35.368  -7.332 -24.473  0.00  0.00     0.241 C 
ATOM    101  O   LEU d   1     -36.099  -8.184 -24.859  0.00  0.00    -0.271 OA
ATOM    102  N   LEU d   1     -34.294  -6.935 -25.093  0.00  0.00    -0.344 N 
ATOM    103  H81 LEU d   1     -33.774  -6.167 -24.720  0.00  0.00     0.163 HD
BRANCH 102 104
ATOM    104  CA  LEU d   1     -33.821  -7.590 -26.335  0.00  0.00     0.099 C 
ATOM    105  H82 LEU d   1     -34.416  -8.501 -26.498  0.00  0.00     0.090 H 
BRANCH 104 106
ATOM    106  C   LEU d   1     -32.356  -8.001 -26.121  0.00  0.00     0.197 C 
ATOM    107  O   LEU d   1     -31.844  -8.635 -26.955  0.00  0.00    -0.646 OA
ATOM    108  OXT LEU d   1     -31.806  -7.688 -25.081  0.00  0.00    -0.646 OA
ENDBRANCH 104 106
BRANCH 104 109
ATOM    109  CB  LEU d   1     -34.009  -6.686 -27.564  0.00  0.00    -0.032 C 
ATOM    110  H83 LEU d   1     -33.644  -7.245 -28.438  0.00  0.00     0.042 H 
BRANCH 109 111
ATOM    111  CG1 LEU d   1     -35.464  -6.361 -27.815  0.00  0.00    -0.071 C 
ATOM    112  H84 LEU d   1     -35.548  -5.714 -28.701  0.00  0.00     0.028 H 
ATOM    113  H85 LEU d   1     -35.880  -5.840 -26.940  0.00  0.00     0.028 H 
ATOM    114  H86 LEU d   1     -36.023  -7.292 -27.987  0.00  0.00     0.028 H 
ENDBRANCH 109 111
BRANCH 109 115
ATOM    115  CG2 LEU d   1     -33.184  -5.429 -27.455  0.00  0.00    -0.071 C 
ATOM    116  H87 LEU d   1     -32.132  -5.695 -27.273  0.00  0.00     0.028 H 
ATOM    117  H88 LEU d   1     -33.557  -4.817 -26.621  0.00  0.00     0.028 H 
ATOM    118  H89 LEU d   1     -33.261  -4.858 -28.392  0.00  0.00     0.028 H 
ENDBRANCH 109 115
ENDBRANCH 104 109
ENDBRANCH 102 104
ENDBRANCH  98 100
BRANCH  98 119
ATOM    119  CB  LEU d   1     -35.311  -7.507 -21.962  0.00  0.00    -0.035 C 
ATOM    120  H72 LEU d   1     -35.893  -8.436 -22.051  0.00  0.00     0.037 H 
ATOM    121  H73 LEU d   1     -35.605  -6.977 -21.044  0.00  0.00     0.037 H 
BRANCH 119 122
ATOM    122  CG  LEU d   1     -33.846  -7.884 -21.835  0.00  0.00    -0.059 C 
ATOM    123  H74 LEU d   1     -33.510  -8.269 -22.809  0.00  0.00     0.038 H 
BRANCH 122 124
ATOM    124  CD1 LEU d   1     -33.013  -6.679 -21.499  0.00  0.00    -0.073 C 
ATOM    125  H75 LEU d   1     -31.957  -6.976 -21.412  0.00  0.00     0.028 H 
ATOM    126  H76 LEU d   1     -33.354  -6.252 -20.544  0.00  0.00     0.028 H 
ATOM    127  H77 LEU d   1     -33.118  -5.927 -22.295  0.00  0.00     0.028 H 
ENDBRANCH 122 124
BRANCH 122 128
ATOM    128  CD2 LEU d   1     -33.647  -8.976 -20.810  0.00  0.00    -0.073 C 
ATOM    129  H78 LEU d   1     -34.265  -9.846 -21.076  0.00  0.00     0.028 H 
ATOM    130  H79 LEU d   1     -33.943  -8.606 -19.817  0.00  0.00     0.028 H 
ATOM    131  H80 LEU d   1     -32.588  -9.272 -20.790  0.00  0.00     0.028 H 
ENDBRANCH 122 128
ENDBRANCH 119 122
ENDBRANCH  98 119
ENDBRANCH  96  98
ENDBRANCH  92  94
BRANCH  92 132
ATOM    132  CB  LEU d   1     -39.634  -4.942 -25.043  0.00  0.00     0.004 C 
ATOM    133  H65 LEU d   1     -39.052  -4.354 -25.768  0.00  0.00     0.046 H 
ATOM    134  H66 LEU d   1     -40.655  -4.537 -24.977  0.00  0.00     0.046 H 
BRANCH 132 135
ATOM    135  CG  LEU d   1     -39.711  -6.335 -25.521  0.00  0.00     0.053 A 
ATOM    136  ND1 LEU d   1     -38.730  -6.907 -26.264  0.00  0.00    -0.247 NA
ATOM    137  CE1 LEU d   1     -39.051  -8.145 -26.525  0.00  0.00     0.064 A 
ATOM    138  NE2 LEU d   1     -40.206  -8.384 -25.998  0.00  0.00    -0.359 N 
ATOM    139  H68 LEU d   1     -38.449  -8.855 -27.090  0.00  0.00     0.143 H 
ATOM    140  CD2 LEU d   1     -40.636  -7.279 -25.343  0.00  0.00     0.002 A 
ATOM    141  H69 LEU d   1     -40.719  -9.274 -26.065  0.00  0.00     0.166 HD
ATOM    142  H67 LEU d   1     -41.562  -7.180 -24.778  0.00  0.00     0.114 H 
ENDBRANCH 132 135
ENDBRANCH  92 132
ENDBRANCH  90  92
ENDBRANCH  85  88
ENDBRANCH  83  85
ENDBRANCH  79  81
BRANCH  79 143
ATOM    143  CB  LEU d   1     -39.237   0.635 -17.693  0.00  0.00    -0.036 C 
ATOM    144  H49 LEU d   1     -38.555   1.017 -18.467  0.00  0.00     0.036 H 
ATOM    145  H50 LEU d   1     -38.752   0.706 -16.709  0.00  0.00     0.036 H 
BRANCH 143 146
ATOM    146  CG  LEU d   1     -40.465   1.518 -17.674  0.00  0.00    -0.048 C 
ATOM    147  H51 LEU d   1     -41.203   1.085 -16.983  0.00  0.00     0.035 H 
ATOM    148  H52 LEU d   1     -40.890   1.558 -18.688  0.00  0.00     0.035 H 
BRANCH 146 149
ATOM    149  CD  LEU d   1     -40.141   2.933 -17.222  0.00  0.00     0.009 C 
ATOM    150  H53 LEU d   1     -40.892   3.626 -17.629  0.00  0.00     0.064 H 
ATOM    151  H54 LEU d   1     -39.144   3.214 -17.593  0.00  0.00     0.064 H 
BRANCH 149 152
ATOM    152  NE  LEU d   1     -40.153   3.010 -15.781  0.00  0.00    -0.227 N 
ATOM    153  CZ  LEU d   1     -39.711   4.029 -15.061  0.00  0.00     0.665 C 
ATOM    154  NH1 LEU d   1     -39.048   5.007 -15.641  0.00  0.00    -0.235 N 
ATOM    155  NH2 LEU d   1     -39.930   4.057 -13.765  0.00  0.00    -0.235 N 
ATOM    156  H56 LEU d   1     -38.704   5.800 -15.080  0.00  0.00     0.174 HD
ATOM    157  H57 LEU d   1     -38.873   4.980 -16.656  0.00  0.00     0.174 HD
ATOM    158  H58 LEU d   1     -40.449   3.290 -13.314  0.00  0.00     0.174 HD
ATOM    159  H59 LEU d   1     -39.583   4.846 -13.201  0.00  0.00     0.174 HD
ATOM    160  H55 LEU d   1     -40.538   2.203 -15.269  0.00  0.00     0.177 HD
ENDBRANCH 149 152
ENDBRANCH 146 149
ENDBRANCH 143 146
ENDBRANCH  79 143
ENDBRANCH  77  79
ENDBRANCH   1  75
BRANCH   1 161
ATOM    161  CB  LEU d   1     -38.803  -3.979 -14.582  0.00  0.00    -0.035 C 
ATOM    162  H38 LEU d   1     -39.586  -4.598 -15.045  0.00  0.00     0.037 H 
ATOM    163  H39 LEU d   1     -39.267  -3.119 -14.078  0.00  0.00     0.037 H 
BRANCH 161 164
ATOM    164  CG  LEU d   1     -38.107  -4.821 -13.524  0.00  0.00    -0.059 C 
ATOM    165  H40 LEU d   1     -37.324  -4.210 -13.051  0.00  0.00     0.038 H 
BRANCH 164 166
ATOM    166  CD1 LEU d   1     -39.087  -5.267 -12.453  0.00  0.00    -0.073 C 
ATOM    167  H41 LEU d   1     -38.559  -5.873 -11.702  0.00  0.00     0.028 H 
ATOM    168  H42 LEU d   1     -39.885  -5.868 -12.914  0.00  0.00     0.028 H 
ATOM    169  H43 LEU d   1     -39.527  -4.383 -11.968  0.00  0.00     0.028 H 
ENDBRANCH 164 166
BRANCH 164 170
ATOM    170  CD2 LEU d   1     -37.464  -6.025 -14.157  0.00  0.00    -0.073 C 
ATOM    171  H44 LEU d   1     -36.755  -5.697 -14.932  0.00  0.00     0.028 H 
ATOM    172  H45 LEU d   1     -38.240  -6.657 -14.614  0.00  0.00     0.028 H 
ATOM    173  H46 LEU d   1     -36.927  -6.600 -13.389  0.00  0.00     0.028 H 
ENDBRANCH 164 170
ENDBRANCH 161 164
ENDBRANCH   1 161
TORSDOF 45
