REMARK  3 active torsions:
REMARK  status: ('A' for Active; 'I' for Inactive)
REMARK    1  A    between atoms: C11_7  and  C16_16 
REMARK    2  A    between atoms: C13_8  and  C15_10 
REMARK    3  A    between atoms: C16_16  and  C17_17 
ROOT
ATOM      1  C4  9M0 d   1      34.161 -30.670 -40.774  0.00  0.00     0.093 A 
ATOM      2  C5  9M0 d   1      34.280 -30.392 -39.413  0.00  0.00     0.087 A 
ATOM      3  C6  9M0 d   1      33.113 -30.382 -38.682  0.00  0.00     0.133 A 
ATOM      4  C8  9M0 d   1      36.424 -30.346 -41.056  0.00  0.00     0.115 A 
ATOM      5  C9  9M0 d   1      36.652 -30.165 -39.694  0.00  0.00     0.081 A 
ATOM      6  C10 9M0 d   1      35.562 -30.144 -38.807  0.00  0.00     0.203 C 
ATOM      7  C11 9M0 d   1      37.534 -30.082 -41.739  0.00  0.00     0.049 A 
ATOM      8  C13 9M0 d   1      37.964 -29.765 -39.571  0.00  0.00     0.086 A 
ATOM      9  O7  9M0 d   1      35.255 -30.730 -41.595  0.00  0.00    -0.307 OA
ATOM     10  C1  9M0 d   1      31.884 -30.648 -39.219  0.00  0.00    -0.044 A 
ATOM     11  C2  9M0 d   1      31.802 -30.914 -40.574  0.00  0.00    -0.077 A 
ATOM     12  C3  9M0 d   1      32.937 -30.922 -41.357  0.00  0.00    -0.049 A 
ATOM     13  N12 9M0 d   1      38.488 -29.726 -40.831  0.00  0.00    -0.354 N 
ATOM     14  O14 9M0 d   1      35.688 -29.961 -37.605  0.00  0.00    -0.286 OA
ATOM     15  F30 9M0 d   1      33.201 -30.074 -37.388  0.00  0.00    -0.205 F 
ATOM     16  H1  9M0 d   1      30.995 -30.650 -38.598  0.00  0.00     0.088 H 
ATOM     17  H2  9M0 d   1      30.837 -31.118 -41.024  0.00  0.00     0.083 H 
ATOM     18  H3  9M0 d   1      32.868 -31.124 -42.420  0.00  0.00     0.087 H 
ATOM     19  H4  9M0 d   1      39.458 -29.467 -41.062  0.00  0.00     0.166 HD
ENDROOT
BRANCH   7  20
ATOM     20  C16 9M0 d   1      37.611 -30.183 -43.230  0.00  0.00    -0.000 C 
ATOM     21  H5  9M0 d   1      38.476 -29.617 -43.606  0.00  0.00     0.049 H 
ATOM     22  H6  9M0 d   1      36.690 -29.791 -43.686  0.00  0.00     0.049 H 
BRANCH  20  23
ATOM     23  C17 9M0 d   1      37.768 -31.648 -43.547  0.00  0.00    -0.050 A 
ATOM     24  C18 9M0 d   1      38.969 -32.290 -43.279  0.00  0.00    -0.042 A 
ATOM     25  C19 9M0 d   1      39.100 -33.610 -43.615  0.00  0.00     0.105 A 
ATOM     26  H7  9M0 d   1      39.788 -31.756 -42.812  0.00  0.00     0.088 H 
ATOM     27  C20 9M0 d   1      38.083 -34.298 -44.195  0.00  0.00     0.105 A 
ATOM     28  O23 9M0 d   1      40.173 -34.440 -43.403  0.00  0.00    -0.323 OA
ATOM     29  C21 9M0 d   1      36.867 -33.707 -44.438  0.00  0.00    -0.047 A 
ATOM     30  O25 9M0 d   1      38.484 -35.580 -44.484  0.00  0.00    -0.323 OA
ATOM     31  C22 9M0 d   1      36.725 -32.372 -44.112  0.00  0.00    -0.074 A 
ATOM     32  H8  9M0 d   1      36.047 -34.269 -44.871  0.00  0.00     0.087 H 
ATOM     33  H9  9M0 d   1      35.779 -31.878 -44.301  0.00  0.00     0.084 H 
ATOM     34  C24 9M0 d   1      39.817 -35.680 -44.003  0.00  0.00     0.115 A 
ATOM     35  H10 9M0 d   1      39.883 -36.486 -43.257  0.00  0.00     0.118 H 
ATOM     36  H11 9M0 d   1      40.498 -35.897 -44.839  0.00  0.00     0.118 H 
ENDBRANCH  20  23
ENDBRANCH   7  20
BRANCH   8  37
ATOM     37  C15 9M0 d   1      38.804 -29.390 -38.445  0.00  0.00     0.124 A 
ATOM     38  S26 9M0 d   1      38.207 -29.016 -36.871  0.00  0.00    -0.079 SA
ATOM     39  C27 9M0 d   1      39.767 -28.726 -36.360  0.00  0.00    -0.026 A 
ATOM     40  C28 9M0 d   1      40.630 -28.915 -37.359  0.00  0.00     0.010 A 
ATOM     41  H12 9M0 d   1      40.043 -28.424 -35.351  0.00  0.00     0.097 H 
ATOM     42  N29 9M0 d   1      40.094 -29.301 -38.554  0.00  0.00    -0.251 NA
ATOM     43  H13 9M0 d   1      41.701 -28.770 -37.229  0.00  0.00     0.115 H 
ENDBRANCH   8  37
TORSDOF 3
