REMARK  12 active torsions:
REMARK  status: ('A' for Active; 'I' for Inactive)
REMARK    1  A    between atoms: C2_3  and  C1_19 
REMARK    2  A    between atoms: C31_6  and  C32_7 
REMARK       I    between atoms: N30_17  and  C31_6 
REMARK    3  A    between atoms: C35_10  and  C38_11 
REMARK    4  A    between atoms: C38_11  and  C42_12 
REMARK    5  A    between atoms: C38_11  and  C41_13 
REMARK    6  A    between atoms: C38_11  and  C39_14 
REMARK    7  A    between atoms: N30_17  and  C7_18 
REMARK    8  A    between atoms: C3_20  and  C13_21 
REMARK    9  A    between atoms: C11_24  and  N24_28 
REMARK   10  A    between atoms: C9_26  and  N14_27 
REMARK   11  A    between atoms: N24_28  and  C16_29 
REMARK   12  A    between atoms: C19_32  and  C22_35 
REMARK       I    between atoms: C22_35  and  N23_37 
ROOT
ATOM      1  C5  9M3 d   1      -8.076  11.243 272.925  0.00  0.00    -0.080 A 
ATOM      2  C6  9M3 d   1      -7.288  12.395 272.755  0.00  0.00    -0.057 A 
ATOM      3  C2  9M3 d   1      -9.264  13.827 273.239  0.00  0.00    -0.021 A 
ATOM      4  C4  9M3 d   1      -9.431  11.325 273.245  0.00  0.00    -0.069 A 
ATOM      5  C7  9M3 d   1      -7.818  13.674 272.913  0.00  0.00     0.042 A 
ATOM      6  C3  9M3 d   1     -10.060  12.558 273.424  0.00  0.00     0.021 A 
ATOM      7  H1  9M3 d   1      -7.619  10.267 272.804  0.00  0.00     0.083 H 
ATOM      8  H2  9M3 d   1      -6.242  12.285 272.494  0.00  0.00     0.086 H 
ATOM      9  H3  9M3 d   1     -10.007  10.413 273.357  0.00  0.00     0.085 H 
ENDROOT
BRANCH   6  10
ATOM     10  C13 9M3 d   1     -11.524  12.574 273.726  0.00  0.00     0.198 A 
ATOM     11  N8  9M3 d   1     -12.071  13.578 274.466  0.00  0.00    -0.041 NA
ATOM     12  C9  9M3 d   1     -13.400  13.590 274.692  0.00  0.00     0.738 A 
ATOM     13  N10 9M3 d   1     -14.201  12.601 274.174  0.00  0.00     0.130 NA
ATOM     14  C11 9M3 d   1     -13.671  11.572 273.432  0.00  0.00     0.744 A 
ATOM     15  N12 9M3 d   1     -12.318  11.576 273.215  0.00  0.00    -0.041 NA
BRANCH  12  16
ATOM     16  N14 9M3 d   1     -13.897  14.615 275.439  0.00  0.00    -0.230 N 
ATOM     17  H21 9M3 d   1     -13.263  15.337 275.809  0.00  0.00     0.174 HD
ATOM     18  H22 9M3 d   1     -14.907  14.668 275.634  0.00  0.00     0.174 HD
ENDBRANCH  12  16
BRANCH  14  19
ATOM     19  N24 9M3 d   1     -14.497  10.587 272.926  0.00  0.00    -0.188 N 
ATOM     20  H23 9M3 d   1     -15.501  10.743 273.092  0.00  0.00     0.184 HD
BRANCH  19  21
ATOM     21  C16 9M3 d   1     -14.204   9.431 272.237  0.00  0.00     0.049 A 
ATOM     22  C21 9M3 d   1     -15.250   8.579 271.831  0.00  0.00    -0.056 A 
ATOM     23  C20 9M3 d   1     -14.983   7.376 271.135  0.00  0.00    -0.066 A 
ATOM     24  H24 9M3 d   1     -16.276   8.849 272.055  0.00  0.00     0.087 H 
ATOM     25  C19 9M3 d   1     -13.656   6.986 270.834  0.00  0.00     0.032 A 
ATOM     26  H25 9M3 d   1     -15.808   6.743 270.828  0.00  0.00     0.085 H 
ATOM     27  C18 9M3 d   1     -12.616   7.843 271.227  0.00  0.00    -0.066 A 
ATOM     28  C17 9M3 d   1     -12.888   9.043 271.917  0.00  0.00    -0.056 A 
ATOM     29  H26 9M3 d   1     -11.590   7.579 270.997  0.00  0.00     0.085 H 
ATOM     30  H27 9M3 d   1     -12.063   9.683 272.209  0.00  0.00     0.087 H 
BRANCH  25  31
ATOM     31  C22 9M3 d   1     -13.318   5.723 270.049  0.00  0.00     0.253 C 
ATOM     32  O29 9M3 d   1     -12.442   4.946 270.435  0.00  0.00    -0.267 OA
ATOM     33  N23 9M3 d   1     -13.964   5.525 268.877  0.00  0.00    -0.344 N 
ATOM     34  C28 9M3 d   1     -14.911   4.412 268.661  0.00  0.00     0.018 C 
ATOM     35  C24 9M3 d   1     -13.747   6.424 267.721  0.00  0.00     0.018 C 
ATOM     36  C27 9M3 d   1     -15.982   4.813 267.615  0.00  0.00     0.034 C 
ATOM     37  H28 9M3 d   1     -15.406   4.167 269.612  0.00  0.00     0.067 H 
ATOM     38  H29 9M3 d   1     -14.360   3.532 268.297  0.00  0.00     0.067 H 
ATOM     39  O26 9M3 d   1     -16.242   6.228 267.610  0.00  0.00    -0.388 OA
ATOM     40  H30 9M3 d   1     -16.918   4.283 267.846  0.00  0.00     0.076 H 
ATOM     41  H31 9M3 d   1     -15.629   4.515 266.616  0.00  0.00     0.076 H 
ATOM     42  C25 9M3 d   1     -15.097   7.056 267.322  0.00  0.00     0.034 C 
ATOM     43  H32 9M3 d   1     -15.210   8.004 267.869  0.00  0.00     0.076 H 
ATOM     44  H33 9M3 d   1     -15.079   7.256 266.240  0.00  0.00     0.076 H 
ATOM     45  H34 9M3 d   1     -13.344   5.848 266.875  0.00  0.00     0.067 H 
ATOM     46  H35 9M3 d   1     -13.035   7.216 267.997  0.00  0.00     0.067 H 
ENDBRANCH  25  31
ENDBRANCH  19  21
ENDBRANCH  14  19
ENDBRANCH   6  10
BRANCH   3  47
ATOM     47  C1  9M3 d   1      -9.850  15.227 273.373  0.00  0.00    -0.048 C 
ATOM     48  H18 9M3 d   1      -9.063  15.973 273.190  0.00  0.00     0.033 H 
ATOM     49  H19 9M3 d   1     -10.253  15.360 274.388  0.00  0.00     0.033 H 
ATOM     50  H20 9M3 d   1     -10.657  15.359 272.637  0.00  0.00     0.033 H 
ENDBRANCH   3  47
BRANCH   5  51
ATOM     51  N30 9M3 d   1      -7.034  14.820 272.734  0.00  0.00    -0.322 N 
ATOM     52  C31 9M3 d   1      -6.120  15.247 273.508  0.00  0.00     0.256 C 
ATOM     53  O43 9M3 d   1      -5.827  14.662 274.574  0.00  0.00    -0.267 OA
ATOM     54  H17 9M3 d   1      -7.212  15.360 271.911  0.00  0.00     0.169 HD
BRANCH  52  55
ATOM     55  C32 9M3 d   1      -5.484  16.565 273.055  0.00  0.00     0.032 A 
ATOM     56  C37 9M3 d   1      -4.989  17.483 273.985  0.00  0.00    -0.067 A 
ATOM     57  C36 9M3 d   1      -4.432  18.724 273.624  0.00  0.00    -0.075 A 
ATOM     58  H4  9M3 d   1      -5.036  17.226 275.037  0.00  0.00     0.085 H 
ATOM     59  C35 9M3 d   1      -4.375  19.134 272.291  0.00  0.00    -0.051 A 
ATOM     60  H5  9M3 d   1      -4.039  19.375 274.397  0.00  0.00     0.084 H 
ATOM     61  C34 9M3 d   1      -4.885  18.226 271.347  0.00  0.00    -0.075 A 
ATOM     62  C33 9M3 d   1      -5.441  16.974 271.719  0.00  0.00    -0.067 A 
ATOM     63  H15 9M3 d   1      -4.853  18.491 270.296  0.00  0.00     0.084 H 
ATOM     64  H16 9M3 d   1      -5.840  16.322 270.951  0.00  0.00     0.085 H 
BRANCH  59  65
ATOM     65  C38 9M3 d   1      -3.777  20.481 271.924  0.00  0.00    -0.024 C 
BRANCH  65  66
ATOM     66  C42 9M3 d   1      -2.418  20.200 271.329  0.00  0.00    -0.066 C 
ATOM     67  H6  9M3 d   1      -1.939  21.148 271.044  0.00  0.00     0.028 H 
ATOM     68  H7  9M3 d   1      -2.532  19.565 270.438  0.00  0.00     0.028 H 
ATOM     69  H8  9M3 d   1      -1.793  19.682 272.071  0.00  0.00     0.028 H 
ENDBRANCH  65  66
BRANCH  65  70
ATOM     70  C41 9M3 d   1      -4.631  21.297 270.972  0.00  0.00    -0.066 C 
ATOM     71  H9  9M3 d   1      -5.613  21.486 271.431  0.00  0.00     0.028 H 
ATOM     72  H10 9M3 d   1      -4.766  20.741 270.033  0.00  0.00     0.028 H 
ATOM     73  H11 9M3 d   1      -4.133  22.255 270.763  0.00  0.00     0.028 H 
ENDBRANCH  65  70
BRANCH  65  74
ATOM     74  C39 9M3 d   1      -3.597  21.418 273.112  0.00  0.00    -0.066 C 
ATOM     75  H12 9M3 d   1      -2.983  20.924 273.879  0.00  0.00     0.028 H 
ATOM     76  H13 9M3 d   1      -4.581  21.667 273.535  0.00  0.00     0.028 H 
ATOM     77  H14 9M3 d   1      -3.097  22.340 272.780  0.00  0.00     0.028 H 
ENDBRANCH  65  74
ENDBRANCH  59  65
ENDBRANCH  52  55
ENDBRANCH   5  51
TORSDOF 12
