REMARK  10 active torsions:
REMARK  status: ('A' for Active; 'I' for Inactive)
REMARK    1  A    between atoms: N_1  and  CA_2 
REMARK    2  A    between atoms: CA_2  and  CB_3 
REMARK    3  A    between atoms: CA_2  and  C_6 
REMARK    4  A    between atoms: CB_3  and  CG_4 
REMARK    5  A    between atoms: CG_4  and  SD_5 
REMARK    6  A    between atoms: SD_5  and  C5'_9 
REMARK    7  A    between atoms: C5'_9  and  C4'_10 
REMARK    8  A    between atoms: C3'_12  and  O3'_13 
REMARK    9  A    between atoms: C2'_14  and  O2'_15 
REMARK   10  A    between atoms: C1'_16  and  N9_17 
ROOT
ATOM      1  C4' SAH d   1     -13.555  30.953 -13.997  0.00  0.00     0.076 C 
ATOM      2  O4' SAH d   1     -12.541  30.638 -13.044  0.00  0.00    -0.355 OA
ATOM      3  C3' SAH d   1     -12.847  31.746 -15.082  0.00  0.00     0.090 C 
ATOM      4  C2' SAH d   1     -11.393  31.298 -14.990  0.00  0.00     0.105 C 
ATOM      5  C1' SAH d   1     -11.247  31.083 -13.495  0.00  0.00     0.139 C 
ATOM      6  H11 SAH d   1     -14.330  31.583 -13.536  0.00  0.00     0.088 H 
ATOM      7  H12 SAH d   1     -13.257  31.518 -16.077  0.00  0.00     0.091 H 
ATOM      8  H14 SAH d   1     -11.250  30.352 -15.532  0.00  0.00     0.093 H 
ATOM      9  H16 SAH d   1     -10.970  32.035 -13.019  0.00  0.00     0.122 H 
ENDROOT
BRANCH   1  10
ATOM     10  C5' SAH d   1     -14.208  29.663 -14.478  0.00  0.00     0.003 C 
ATOM     11  H9  SAH d   1     -13.451  29.060 -15.000  0.00  0.00     0.052 H 
ATOM     12  H10 SAH d   1     -14.578  29.109 -13.603  0.00  0.00     0.052 H 
BRANCH  10  13
ATOM     13  SD  SAH d   1     -15.564  29.949 -15.582  0.00  0.00    -0.166 SA
BRANCH  13  14
ATOM     14  CG  SAH d   1     -16.842  30.461 -14.486  0.00  0.00    -0.021 C 
ATOM     15  H7  SAH d   1     -17.779  29.946 -14.746  0.00  0.00     0.049 H 
ATOM     16  H8  SAH d   1     -16.562  30.213 -13.452  0.00  0.00     0.049 H 
BRANCH  14  17
ATOM     17  CB  SAH d   1     -17.036  31.987 -14.618  0.00  0.00    -0.021 C 
ATOM     18  H5  SAH d   1     -16.105  32.482 -14.306  0.00  0.00     0.037 H 
ATOM     19  H6  SAH d   1     -17.238  32.219 -15.674  0.00  0.00     0.037 H 
BRANCH  17  20
ATOM     20  CA  SAH d   1     -18.184  32.547 -13.774  0.00  0.00     0.183 C 
ATOM     21  H4  SAH d   1     -18.041  33.633 -13.678  0.00  0.00     0.101 H 
BRANCH  20  22
ATOM     22  N   SAH d   1     -18.207  31.975 -12.424  0.00  0.00    -0.065 N 
ATOM     23  H1  SAH d   1     -17.325  32.152 -11.969  0.00  0.00     0.275 HD
ATOM     24  H2  SAH d   1     -18.361  30.981 -12.483  0.00  0.00     0.275 HD
ATOM     25  H3  SAH d   1     -18.951  32.399 -11.892  0.00  0.00     0.275 HD
ENDBRANCH  20  22
BRANCH  20  26
ATOM     26  C   SAH d   1     -19.487  32.299 -14.479  0.00  0.00     0.204 C 
ATOM     27  O   SAH d   1     -19.636  32.598 -15.667  0.00  0.00    -0.646 OA
ATOM     28  OXT SAH d   1     -20.439  31.796 -13.885  0.00  0.00    -0.646 OA
ENDBRANCH  20  26
ENDBRANCH  17  20
ENDBRANCH  14  17
ENDBRANCH  13  14
ENDBRANCH  10  13
ENDBRANCH   1  10
BRANCH   3  29
ATOM     29  O3' SAH d   1     -13.016  33.143 -14.797  0.00  0.00    -0.390 OA
ATOM     30  H13 SAH d   1     -12.638  33.340 -13.948  0.00  0.00     0.210 HD
ENDBRANCH   3  29
BRANCH   5  31
ATOM     31  N9  SAH d   1     -10.273  30.040 -13.087  0.00  0.00    -0.294 N 
ATOM     32  C8  SAH d   1     -10.097  28.816 -13.640  0.00  0.00     0.071 A 
ATOM     33  N7  SAH d   1      -9.135  28.123 -12.980  0.00  0.00    -0.236 NA
ATOM     34  H17 SAH d   1     -10.652  28.439 -14.498  0.00  0.00     0.144 H 
ATOM     35  C5  SAH d   1      -8.688  28.900 -11.981  0.00  0.00     0.149 A 
ATOM     36  C6  SAH d   1      -7.675  28.781 -10.905  0.00  0.00     0.155 A 
ATOM     37  C4  SAH d   1      -9.444  30.167 -12.048  0.00  0.00     0.167 A 
ATOM     38  N6  SAH d   1      -6.946  27.647 -10.786  0.00  0.00    -0.382 N 
ATOM     39  N1  SAH d   1      -7.516  29.844 -10.062  0.00  0.00    -0.222 NA
ATOM     40  H18 SAH d   1      -6.242  27.563 -10.039  0.00  0.00     0.157 HD
ATOM     41  H19 SAH d   1      -7.095  26.868 -11.443  0.00  0.00     0.157 HD
ATOM     42  C2  SAH d   1      -8.249  30.973 -10.184  0.00  0.00     0.091 A 
ATOM     43  N3  SAH d   1      -9.185  31.150 -11.139  0.00  0.00    -0.222 NA
ATOM     44  H20 SAH d   1      -8.076  31.777  -9.478  0.00  0.00     0.146 H 
ENDBRANCH   5  31
BRANCH   4  45
ATOM     45  O2' SAH d   1     -10.464  32.244 -15.502  0.00  0.00    -0.388 OA
ATOM     46  H15 SAH d   1     -10.540  33.056 -15.015  0.00  0.00     0.210 HD
ENDBRANCH   4  45
TORSDOF 10
