REMARK  4 active torsions:
REMARK  status: ('A' for Active; 'I' for Inactive)
REMARK    1  A    between atoms: C2'_10  and  O2'_11 
REMARK    2  A    between atoms: C1'_12  and  N9_13 
REMARK    3  A    between atoms: C2'1_32  and  O2'1_33 
REMARK    4  A    between atoms: C1'1_34  and  N91_35 
ROOT
ATOM      1  P   MOL d   1      -8.163   4.893  15.263  0.00  0.00     0.408 P 
ATOM      2  O1P MOL d   1      -8.661   5.900  16.275  0.00  0.00    -0.624 OA
ATOM      3  O2P MOL d   1      -6.671   4.740  15.060  0.00  0.00    -0.624 OA
ATOM      4  O5' MOL d   1      -8.832   5.187  13.827  0.00  0.00    -0.287 OA
ATOM      5  C5' MOL d   1     -10.173   5.667  13.746  0.00  0.00     0.058 C 
ATOM      6  C4' MOL d   1     -10.634   5.723  12.295  0.00  0.00     0.090 C 
ATOM      7  O4' MOL d   1      -9.851   6.697  11.598  0.00  0.00    -0.353 OA
ATOM      8  C3' MOL d   1     -10.427   4.427  11.530  0.00  0.00     0.106 C 
ATOM      9  O3' MOL d   1     -11.579   3.599  11.471  0.00  0.00    -0.279 OA
ATOM     10  C2' MOL d   1     -10.147   4.877  10.120  0.00  0.00     0.106 C 
ATOM     11  C1' MOL d   1      -9.545   6.251  10.274  0.00  0.00     0.140 C 
ATOM     12  P1  MOL d   1     -11.364   2.010  11.547  0.00  0.00     0.408 P 
ATOM     13  O1P MOL d   1     -12.654   1.318  11.204  0.00  0.00    -0.624 OA
ATOM     14  O2P MOL d   1     -10.123   1.648  10.762  0.00  0.00    -0.624 OA
ATOM     15  O5' MOL d   1     -11.036   1.774  13.104  0.00  0.00    -0.287 OA
ATOM     16  C5' MOL d   1      -9.865   1.026  13.380  0.00  0.00     0.058 C 
ATOM     17  C4' MOL d   1      -9.301   1.171  14.783  0.00  0.00     0.090 C 
ATOM     18  O4' MOL d   1      -8.562  -0.035  15.000  0.00  0.00    -0.353 OA
ATOM     19  C3' MOL d   1      -8.287   2.302  14.909  0.00  0.00     0.106 C 
ATOM     20  O3' MOL d   1      -8.778   3.443  15.607  0.00  0.00    -0.279 OA
ATOM     21  C2' MOL d   1      -7.122   1.682  15.645  0.00  0.00     0.106 C 
ATOM     22  C1' MOL d   1      -7.176   0.239  15.208  0.00  0.00     0.140 C 
ATOM     23  H1  MOL d   1     -10.223   6.676  14.181  0.00  0.00     0.079 H 
ATOM     24  H2  MOL d   1     -10.834   4.992  14.310  0.00  0.00     0.079 H 
ATOM     25  H3  MOL d   1     -11.699   5.996  12.273  0.00  0.00     0.090 H 
ATOM     26  H4  MOL d   1      -9.584   3.863  11.955  0.00  0.00     0.092 H 
ATOM     27  H5  MOL d   1      -9.465   4.189   9.598  0.00  0.00     0.093 H 
ATOM     28  H7  MOL d   1      -9.922   6.957   9.520  0.00  0.00     0.122 H 
ATOM     29  H12 MOL d   1      -9.087   1.343  12.670  0.00  0.00     0.079 H 
ATOM     30  H13 MOL d   1     -10.098  -0.037  13.219  0.00  0.00     0.079 H 
ATOM     31  H14 MOL d   1     -10.112   1.299  15.515  0.00  0.00     0.090 H 
ATOM     32  H15 MOL d   1      -7.971   2.623  13.905  0.00  0.00     0.092 H 
ATOM     33  H16 MOL d   1      -6.165   2.156  15.381  0.00  0.00     0.093 H 
ATOM     34  H18 MOL d   1      -6.745  -0.441  15.957  0.00  0.00     0.122 H 
ENDROOT
BRANCH  11  35
ATOM     35  N9  MOL d   1      -8.086   6.040  10.143  0.00  0.00    -0.294 N 
ATOM     36  C8  MOL d   1      -7.178   6.086  11.136  0.00  0.00     0.071 A 
ATOM     37  N7  MOL d   1      -5.930   5.829  10.665  0.00  0.00    -0.236 NA
ATOM     38  H8  MOL d   1      -7.413   6.301  12.178  0.00  0.00     0.144 H 
ATOM     39  C5  MOL d   1      -6.035   5.608   9.341  0.00  0.00     0.149 A 
ATOM     40  C6  MOL d   1      -5.108   5.281   8.231  0.00  0.00     0.155 A 
ATOM     41  C4  MOL d   1      -7.460   5.741   9.005  0.00  0.00     0.167 A 
ATOM     42  N6  MOL d   1      -3.779   5.136   8.443  0.00  0.00    -0.382 N 
ATOM     43  N1  MOL d   1      -5.636   5.129   6.998  0.00  0.00    -0.222 NA
ATOM     44  H9  MOL d   1      -3.154   4.909   7.657  0.00  0.00     0.157 HD
ATOM     45  H10 MOL d   1      -3.393   5.253   9.391  0.00  0.00     0.157 HD
ATOM     46  C2  MOL d   1      -6.954   5.270   6.767  0.00  0.00     0.091 A 
ATOM     47  N3  MOL d   1      -7.850   5.566   7.722  0.00  0.00    -0.222 NA
ATOM     48  H11 MOL d   1      -7.313   5.137   5.753  0.00  0.00     0.146 H 
ENDBRANCH  11  35
BRANCH  10  49
ATOM     49  O2' MOL d   1     -11.391   4.988   9.426  0.00  0.00    -0.388 OA
ATOM     50  H6  MOL d   1     -11.230   5.271   8.534  0.00  0.00     0.210 HD
ENDBRANCH  10  49
BRANCH  21  51
ATOM     51  O2' MOL d   1      -7.359   1.769  17.053  0.00  0.00    -0.388 OA
ATOM     52  H17 MOL d   1      -7.447   2.682  17.302  0.00  0.00     0.210 HD
ENDBRANCH  21  51
BRANCH  22  53
ATOM     53  N91 MOL d   1      -6.414   0.178  13.927  0.00  0.00    -0.294 N 
ATOM     54  C81 MOL d   1      -6.906   0.134  12.670  0.00  0.00     0.071 A 
ATOM     55  N71 MOL d   1      -5.928   0.104  11.736  0.00  0.00    -0.236 NA
ATOM     56  H19 MOL d   1      -7.969   0.124  12.435  0.00  0.00     0.144 H 
ATOM     57  C51 MOL d   1      -4.758   0.127  12.396  0.00  0.00     0.149 A 
ATOM     58  C61 MOL d   1      -3.323   0.112  12.027  0.00  0.00     0.155 A 
ATOM     59  C41 MOL d   1      -5.085   0.179  13.832  0.00  0.00     0.167 A 
ATOM     60  N61 MOL d   1      -2.922   0.065  10.737  0.00  0.00    -0.382 N 
ATOM     61  N11 MOL d   1      -2.423   0.149  13.033  0.00  0.00    -0.222 NA
ATOM     62  H20 MOL d   1      -1.917   0.056  10.510  0.00  0.00     0.157 HD
ATOM     63  H21 MOL d   1      -3.621   0.039   9.981  0.00  0.00     0.157 HD
ATOM     64  C21 MOL d   1      -2.803   0.198  14.324  0.00  0.00     0.091 A 
ATOM     65  N31 MOL d   1      -4.080   0.211  14.730  0.00  0.00    -0.222 NA
ATOM     66  H22 MOL d   1      -2.028   0.229  15.081  0.00  0.00     0.146 H 
ENDBRANCH  22  53
TORSDOF 4
