REMARK  6 active torsions:
REMARK  status: ('A' for Active; 'I' for Inactive)
REMARK    1  A    between atoms: C2'_10  and  O2'_11 
REMARK    2  A    between atoms: C1'_12  and  N9_13 
REMARK    3  A    between atoms: C2_20  and  N2_21 
REMARK    4  A    between atoms: C2A_33  and  O2A_34 
REMARK    5  A    between atoms: C1A_35  and  N91_36 
REMARK    6  A    between atoms: C21_43  and  N21_44 
ROOT
ATOM      1  P1  C2E d   1       6.033  -3.161 -18.481  0.00  0.00     0.408 P 
ATOM      2  O2P C2E d   1       4.866  -3.645 -17.663  0.00  0.00    -0.624 OA
ATOM      3  O1P C2E d   1       6.965  -4.295 -18.589  0.00  0.00    -0.624 OA
ATOM      4  O5' C2E d   1       5.469  -2.753 -19.870  0.00  0.00    -0.287 OA
ATOM      5  C5' C2E d   1       6.429  -2.345 -20.790  0.00  0.00     0.058 C 
ATOM      6  C4' C2E d   1       5.860  -1.605 -21.975  0.00  0.00     0.090 C 
ATOM      7  O4' C2E d   1       4.960  -2.461 -22.619  0.00  0.00    -0.353 OA
ATOM      8  C3' C2E d   1       5.060  -0.379 -21.660  0.00  0.00     0.106 C 
ATOM      9  O3' C2E d   1       5.806   0.793 -21.610  0.00  0.00    -0.279 OA
ATOM     10  C2' C2E d   1       4.207  -0.306 -22.779  0.00  0.00     0.106 C 
ATOM     11  C1' C2E d   1       3.845  -1.724 -23.016  0.00  0.00     0.140 C 
ATOM     12  P11 C2E d   1       5.336   1.865 -20.545  0.00  0.00     0.408 P 
ATOM     13  O21 C2E d   1       3.906   2.274 -20.895  0.00  0.00    -0.624 OA
ATOM     14  O11 C2E d   1       6.272   3.055 -20.635  0.00  0.00    -0.624 OA
ATOM     15  O5A C2E d   1       5.294   1.312 -19.076  0.00  0.00    -0.287 OA
ATOM     16  C5A C2E d   1       6.554   1.104 -18.551  0.00  0.00     0.058 C 
ATOM     17  C4A C2E d   1       6.496   0.359 -17.251  0.00  0.00     0.090 C 
ATOM     18  O4A C2E d   1       5.707   1.159 -16.334  0.00  0.00    -0.353 OA
ATOM     19  C3A C2E d   1       5.830  -0.936 -17.362  0.00  0.00     0.106 C 
ATOM     20  O3A C2E d   1       6.691  -1.977 -17.691  0.00  0.00    -0.279 OA
ATOM     21  C2A C2E d   1       5.355  -1.112 -15.992  0.00  0.00     0.106 C 
ATOM     22  C1A C2E d   1       4.933   0.267 -15.565  0.00  0.00     0.140 C 
ATOM     23  H1  C2E d   1       6.957  -3.237 -21.159  0.00  0.00     0.079 H 
ATOM     24  H2  C2E d   1       7.142  -1.683 -20.277  0.00  0.00     0.079 H 
ATOM     25  H3  C2E d   1       6.687  -1.332 -22.646  0.00  0.00     0.090 H 
ATOM     26  H4  C2E d   1       4.503  -0.504 -20.720  0.00  0.00     0.092 H 
ATOM     27  H5  C2E d   1       3.325   0.318 -22.570  0.00  0.00     0.093 H 
ATOM     28  H7  C2E d   1       3.664  -1.907 -24.085  0.00  0.00     0.122 H 
ATOM     29  H12 C2E d   1       7.035   2.079 -18.382  0.00  0.00     0.079 H 
ATOM     30  H13 C2E d   1       7.148   0.521 -19.270  0.00  0.00     0.079 H 
ATOM     31  H14 C2E d   1       7.516   0.216 -16.865  0.00  0.00     0.090 H 
ATOM     32  H15 C2E d   1       5.003  -0.899 -18.086  0.00  0.00     0.092 H 
ATOM     33  H16 C2E d   1       4.505  -1.810 -15.948  0.00  0.00     0.093 H 
ATOM     34  H18 C2E d   1       5.107   0.431 -14.491  0.00  0.00     0.122 H 
ENDROOT
BRANCH  11  35
ATOM     35  N9  C2E d   1       2.580  -1.970 -22.278  0.00  0.00    -0.293 N 
ATOM     36  C8  C2E d   1       2.447  -2.427 -21.068  0.00  0.00     0.071 A 
ATOM     37  N7  C2E d   1       1.262  -2.505 -20.693  0.00  0.00    -0.235 NA
ATOM     38  H8  C2E d   1       3.291  -2.714 -20.442  0.00  0.00     0.144 H 
ATOM     39  C5  C2E d   1       0.385  -2.103 -21.597  0.00  0.00     0.159 A 
ATOM     40  C6  C2E d   1      -1.007  -1.980 -21.714  0.00  0.00     0.226 A 
ATOM     41  C4  C2E d   1       1.234  -1.708 -22.716  0.00  0.00     0.185 A 
ATOM     42  O6  C2E d   1      -1.804  -2.334 -20.698  0.00  0.00    -0.169 OA
ATOM     43  N1  C2E d   1      -1.531  -1.499 -22.870  0.00  0.00    -0.164 N 
ATOM     44  C2  C2E d   1      -0.704  -1.143 -23.901  0.00  0.00     0.702 A 
ATOM     45  H9  C2E d   1      -2.522  -1.405 -22.968  0.00  0.00     0.186 HD
ATOM     46  N3  C2E d   1       0.652  -1.241 -23.831  0.00  0.00    -0.044 NA
BRANCH  44  47
ATOM     47  N2  C2E d   1      -1.302  -0.616 -25.184  0.00  0.00    -0.233 N 
ATOM     48  H10 C2E d   1      -0.688  -0.345 -25.965  0.00  0.00     0.174 HD
ATOM     49  H11 C2E d   1      -2.324  -0.527 -25.277  0.00  0.00     0.174 HD
ENDBRANCH  44  47
ENDBRANCH  11  35
BRANCH  10  50
ATOM     50  O2' C2E d   1       4.884   0.168 -23.929  0.00  0.00    -0.388 OA
ATOM     51  H6  C2E d   1       5.226   1.038 -23.758  0.00  0.00     0.210 HD
ENDBRANCH  10  50
BRANCH  21  52
ATOM     52  O2A C2E d   1       6.408  -1.598 -15.216  0.00  0.00    -0.388 OA
ATOM     53  H17 C2E d   1       6.701  -2.431 -15.567  0.00  0.00     0.210 HD
ENDBRANCH  21  52
BRANCH  22  54
ATOM     54  N91 C2E d   1       3.596   0.373 -15.854  0.00  0.00    -0.293 N 
ATOM     55  C81 C2E d   1       2.990   0.773 -16.951  0.00  0.00     0.071 A 
ATOM     56  N71 C2E d   1       1.733   0.733 -16.891  0.00  0.00    -0.235 NA
ATOM     57  H19 C2E d   1       3.529   1.110 -17.835  0.00  0.00     0.144 H 
ATOM     58  C51 C2E d   1       1.301   0.291 -15.733  0.00  0.00     0.159 A 
ATOM     59  C61 C2E d   1       0.107   0.035 -15.059  0.00  0.00     0.226 A 
ATOM     60  C41 C2E d   1       2.537   0.038 -14.982  0.00  0.00     0.185 A 
ATOM     61  O61 C2E d   1      -1.147   0.234 -15.653  0.00  0.00    -0.169 OA
ATOM     62  N11 C2E d   1       0.148  -0.443 -13.785  0.00  0.00    -0.164 N 
ATOM     63  C21 C2E d   1       1.327  -0.671 -13.128  0.00  0.00     0.702 A 
ATOM     64  H20 C2E d   1      -0.713  -0.634 -13.313  0.00  0.00     0.186 HD
ATOM     65  N31 C2E d   1       2.506  -0.432 -13.724  0.00  0.00    -0.044 NA
BRANCH  63  66
ATOM     66  N21 C2E d   1       1.314  -1.165 -11.746  0.00  0.00    -0.233 N 
ATOM     67  H21 C2E d   1       2.201  -1.336 -11.252  0.00  0.00     0.174 HD
ATOM     68  H22 C2E d   1       0.417  -1.340 -11.270  0.00  0.00     0.174 HD
ENDBRANCH  63  66
ENDBRANCH  22  54
TORSDOF 6
