REMARK  6 active torsions:
REMARK  status: ('A' for Active; 'I' for Inactive)
REMARK    1  A    between atoms: CBA_4  and  NAA_5 
REMARK    2  A    between atoms: NBQ_11  and  CBO_12 
REMARK    3  A    between atoms: CBI_13  and  OAG_14 
REMARK    4  A    between atoms: C2'_33  and  O2'_34 
REMARK    5  A    between atoms: C1'_35  and  N9_36 
REMARK    6  A    between atoms: C6_44  and  N6_45 
ROOT
ATOM      1  CBO MOL d   1      19.753  -0.026  23.832  0.00  0.00     0.139 C 
ATOM      2  CBI MOL d   1      19.035   1.307  23.498  0.00  0.00     0.106 C 
ATOM      3  OAX MOL d   1      19.003  -0.991  23.130  0.00  0.00    -0.353 OA
ATOM      4  CBK MOL d   1      18.559  -0.316  21.952  0.00  0.00     0.090 C 
ATOM      5  CAN MOL d   1      17.709  -1.233  21.094  0.00  0.00     0.058 C 
ATOM      6  OAV MOL d   1      18.742  -2.024  20.501  0.00  0.00    -0.287 OA
ATOM      7  PBR MOL d   1      18.970  -1.954  18.924  0.00  0.00     0.408 P 
ATOM      8  O3' MOL d   1      18.499  -0.470  18.539  0.00  0.00    -0.279 OA
ATOM      9  OAH MOL d   1      20.397  -2.173  18.566  0.00  0.00    -0.624 OA
ATOM     10  OAD MOL d   1      18.030  -3.101  18.316  0.00  0.00    -0.624 OA
ATOM     11  CBM MOL d   1      17.911   0.934  22.521  0.00  0.00     0.106 C 
ATOM     12  OAZ MOL d   1      17.577   1.920  21.535  0.00  0.00    -0.279 OA
ATOM     13  PBS MOL d   1      18.232   3.352  21.136  0.00  0.00     0.408 P 
ATOM     14  OAI MOL d   1      19.554   3.777  21.938  0.00  0.00    -0.624 OA
ATOM     15  OAE MOL d   1      17.185   4.405  21.138  0.00  0.00    -0.624 OA
ATOM     16  O5' MOL d   1      18.620   3.174  19.604  0.00  0.00    -0.287 OA
ATOM     17  C5' MOL d   1      17.803   2.342  18.786  0.00  0.00     0.058 C 
ATOM     18  C4' MOL d   1      18.876   1.712  17.916  0.00  0.00     0.090 C 
ATOM     19  O4' MOL d   1      19.276   2.529  16.815  0.00  0.00    -0.353 OA
ATOM     20  C3' MOL d   1      18.594   0.326  17.364  0.00  0.00     0.106 C 
ATOM     21  C2' MOL d   1      19.881   0.250  16.539  0.00  0.00     0.106 C 
ATOM     22  C1' MOL d   1      20.311   1.725  16.294  0.00  0.00     0.140 C 
ATOM     23  H6  MOL d   1      19.704  -0.206  24.916  0.00  0.00     0.122 H 
ATOM     24  H7  MOL d   1      19.729   2.054  23.086  0.00  0.00     0.093 H 
ATOM     25  H9  MOL d   1      19.423  -0.015  21.341  0.00  0.00     0.090 H 
ATOM     26  H10 MOL d   1      17.136  -0.674  20.340  0.00  0.00     0.079 H 
ATOM     27  H11 MOL d   1      17.022  -1.842  21.700  0.00  0.00     0.079 H 
ATOM     28  H12 MOL d   1      16.988   0.688  23.067  0.00  0.00     0.092 H 
ATOM     29  H13 MOL d   1      17.086   2.928  18.193  0.00  0.00     0.079 H 
ATOM     30  H14 MOL d   1      17.261   1.590  19.378  0.00  0.00     0.079 H 
ATOM     31  H15 MOL d   1      19.752   1.609  18.574  0.00  0.00     0.090 H 
ATOM     32  H16 MOL d   1      17.690   0.228  16.745  0.00  0.00     0.092 H 
ATOM     33  H17 MOL d   1      20.663  -0.325  17.056  0.00  0.00     0.093 H 
ATOM     34  H19 MOL d   1      20.426   1.906  15.215  0.00  0.00     0.122 H 
ENDROOT
BRANCH   1  35
ATOM     35  NBQ MOL d   1      21.171  -0.116  23.407  0.00  0.00    -0.295 N 
ATOM     36  CBG MOL d   1      22.249   0.263  24.161  0.00  0.00     0.161 A 
ATOM     37  NAS MOL d   1      22.360   0.786  25.377  0.00  0.00    -0.174 N 
ATOM     38  CBE MOL d   1      23.407  -0.002  23.409  0.00  0.00     0.171 A 
ATOM     39  CBA MOL d   1      23.537   1.070  25.881  0.00  0.00     0.680 A 
ATOM     40  H4  MOL d   1      21.511   0.971  25.931  0.00  0.00     0.186 HD
ATOM     41  NAT MOL d   1      24.701   0.840  25.204  0.00  0.00    -0.154 N 
ATOM     42  CBC MOL d   1      24.674   0.301  23.970  0.00  0.00     0.292 A 
ATOM     43  H1  MOL d   1      25.577   1.073  25.627  0.00  0.00     0.187 HD
ATOM     44  OAC MOL d   1      25.711   0.089  23.366  0.00  0.00    -0.265 OA
ATOM     45  NAR MOL d   1      22.990  -0.541  22.238  0.00  0.00    -0.234 NA
ATOM     46  CAL MOL d   1      21.694  -0.610  22.246  0.00  0.00     0.071 A 
ATOM     47  H5  MOL d   1      21.098  -1.012  21.428  0.00  0.00     0.144 H 
BRANCH  39  48
ATOM     48  NAA MOL d   1      23.564   1.608  27.137  0.00  0.00    -0.234 N 
ATOM     49  H2  MOL d   1      22.683   1.779  27.643  0.00  0.00     0.174 HD
ATOM     50  H3  MOL d   1      24.465   1.842  27.578  0.00  0.00     0.174 HD
ENDBRANCH  39  48
ENDBRANCH   1  35
BRANCH   2  51
ATOM     51  OAG MOL d   1      18.362   1.785  24.649  0.00  0.00    -0.388 OA
ATOM     52  H8  MOL d   1      18.992   1.931  25.345  0.00  0.00     0.210 HD
ENDBRANCH   2  51
BRANCH  21  53
ATOM     53  O2' MOL d   1      19.567  -0.324  15.270  0.00  0.00    -0.388 OA
ATOM     54  H18 MOL d   1      20.356  -0.379  14.744  0.00  0.00     0.210 HD
ENDBRANCH  21  53
BRANCH  22  55
ATOM     55  N9  MOL d   1      21.572   2.038  16.970  0.00  0.00    -0.294 N 
ATOM     56  C8  MOL d   1      21.783   2.758  18.123  0.00  0.00     0.071 A 
ATOM     57  N7  MOL d   1      23.042   2.823  18.412  0.00  0.00    -0.236 NA
ATOM     58  H20 MOL d   1      20.992   3.215  18.716  0.00  0.00     0.144 H 
ATOM     59  C5  MOL d   1      23.721   2.143  17.456  0.00  0.00     0.149 A 
ATOM     60  C4  MOL d   1      22.794   1.639  16.522  0.00  0.00     0.167 A 
ATOM     61  C6  MOL d   1      25.069   1.870  17.241  0.00  0.00     0.155 A 
ATOM     62  N3  MOL d   1      23.214   0.934  15.470  0.00  0.00    -0.222 NA
ATOM     63  C2  MOL d   1      24.501   0.702  15.318  0.00  0.00     0.091 A 
ATOM     64  N1  MOL d   1      25.406   1.150  16.173  0.00  0.00    -0.222 NA
ATOM     65  H21 MOL d   1      24.831   0.124  14.463  0.00  0.00     0.146 H 
BRANCH  61  66
ATOM     66  N6  MOL d   1      26.004   2.343  18.130  0.00  0.00    -0.382 N 
ATOM     67  H22 MOL d   1      27.004   2.146  17.979  0.00  0.00     0.157 HD
ATOM     68  H23 MOL d   1      25.705   2.894  18.947  0.00  0.00     0.157 HD
ENDBRANCH  61  66
ENDBRANCH  22  55
TORSDOF 6
