REMARK  6 active torsions:
REMARK  status: ('A' for Active; 'I' for Inactive)
REMARK    1  A    between atoms: C6_3  and  N01_2 
REMARK    2  A    between atoms: N9_10  and  C1'_11 
REMARK    3  A    between atoms: C2'_12  and  O2'_13 
REMARK    4  A    between atoms: C22_22  and  O23_23 
REMARK    5  A    between atoms: C32_32  and  N33_33 
REMARK    6  A    between atoms: C40_40  and  N41_41 
ROOT
ATOM      1  C1' MOL d   1      20.731   1.709 -22.732  0.00  0.00     0.140 C 
ATOM      2  C2' MOL d   1      20.186   0.337 -22.458  0.00  0.00     0.106 C 
ATOM      3  C3' MOL d   1      19.489   0.539 -21.169  0.00  0.00     0.106 C 
ATOM      4  C4' MOL d   1      18.804   1.787 -21.416  0.00  0.00     0.090 C 
ATOM      5  C16 MOL d   1      18.439   2.506 -20.092  0.00  0.00     0.058 C 
ATOM      6  O17 MOL d   1      19.697   2.690 -19.440  0.00  0.00    -0.287 OA
ATOM      7  P18 MOL d   1      19.804   3.407 -17.890  0.00  0.00     0.408 P 
ATOM      8  O19 MOL d   1      21.229   3.777 -17.539  0.00  0.00    -0.624 OA
ATOM      9  O20 MOL d   1      19.043   2.426 -16.792  0.00  0.00    -0.277 OA
ATOM     10  C21 MOL d   1      19.229   0.991 -17.011  0.00  0.00     0.120 C 
ATOM     11  C22 MOL d   1      17.893   0.410 -17.012  0.00  0.00     0.092 C 
ATOM     12  C24 MOL d   1      18.090  -1.036 -16.632  0.00  0.00     0.089 C 
ATOM     13  C25 MOL d   1      18.248  -1.890 -17.803  0.00  0.00     0.058 C 
ATOM     14  O26 MOL d   1      19.340  -1.368 -18.607  0.00  0.00    -0.287 OA
ATOM     15  P27 MOL d   1      19.222  -1.896 -20.192  0.00  0.00     0.408 P 
ATOM     16  O28 MOL d   1      18.545  -0.539 -20.927  0.00  0.00    -0.279 OA
ATOM     17  O29 MOL d   1      20.657  -2.055 -20.632  0.00  0.00    -0.624 OA
ATOM     18  O30 MOL d   1      18.402  -3.141 -20.384  0.00  0.00    -0.624 OA
ATOM     19  O31 MOL d   1      19.331  -1.047 -15.809  0.00  0.00    -0.353 OA
ATOM     20  C32 MOL d   1      19.857   0.300 -15.896  0.00  0.00     0.140 C 
ATOM     21  O44 MOL d   1      18.934   4.635 -17.928  0.00  0.00    -0.624 OA
ATOM     22  O4' MOL d   1      19.814   2.610 -22.084  0.00  0.00    -0.353 OA
ATOM     23  H5  MOL d   1      20.733   1.900 -23.815  0.00  0.00     0.122 H 
ATOM     24  H6  MOL d   1      20.977  -0.425 -22.389  0.00  0.00     0.093 H 
ATOM     25  H8  MOL d   1      20.193   0.618 -20.328  0.00  0.00     0.092 H 
ATOM     26  H9  MOL d   1      17.909   1.637 -22.038  0.00  0.00     0.090 H 
ATOM     27  H10 MOL d   1      17.769   1.883 -19.481  0.00  0.00     0.079 H 
ATOM     28  H11 MOL d   1      17.957   3.474 -20.293  0.00  0.00     0.079 H 
ATOM     29  H12 MOL d   1      19.775   0.812 -17.949  0.00  0.00     0.095 H 
ATOM     30  H13 MOL d   1      17.422   0.496 -18.002  0.00  0.00     0.091 H 
ATOM     31  H15 MOL d   1      17.234  -1.393 -16.041  0.00  0.00     0.090 H 
ATOM     32  H16 MOL d   1      17.319  -1.888 -18.392  0.00  0.00     0.079 H 
ATOM     33  H17 MOL d   1      18.479  -2.917 -17.485  0.00  0.00     0.079 H 
ATOM     34  H18 MOL d   1      19.665   0.852 -14.964  0.00  0.00     0.123 H 
ENDROOT
BRANCH  20  35
ATOM     35  N33 MOL d   1      21.300   0.156 -16.113  0.00  0.00    -0.295 N 
ATOM     36  C34 MOL d   1      21.776  -0.248 -17.303  0.00  0.00     0.071 A 
ATOM     37  N35 MOL d   1      23.126  -0.287 -17.246  0.00  0.00    -0.234 NA
ATOM     38  H19 MOL d   1      21.172  -0.503 -18.172  0.00  0.00     0.144 H 
ATOM     39  C37 MOL d   1      23.469   0.087 -16.015  0.00  0.00     0.171 A 
ATOM     40  C36 MOL d   1      22.316   0.361 -15.330  0.00  0.00     0.161 A 
ATOM     41  C38 MOL d   1      24.813   0.263 -15.314  0.00  0.00     0.292 A 
ATOM     42  N42 MOL d   1      22.303   0.813 -13.918  0.00  0.00    -0.174 N 
ATOM     43  C40 MOL d   1      23.585   0.966 -13.264  0.00  0.00     0.680 A 
ATOM     44  H23 MOL d   1      21.421   1.009 -13.424  0.00  0.00     0.186 HD
ATOM     45  N39 MOL d   1      24.799   0.698 -13.966  0.00  0.00    -0.154 N 
ATOM     46  H20 MOL d   1      25.669   0.822 -13.490  0.00  0.00     0.187 HD
ATOM     47  O43 MOL d   1      25.859   0.058 -15.859  0.00  0.00    -0.265 OA
BRANCH  43  48
ATOM     48  N41 MOL d   1      23.632   1.387 -11.884  0.00  0.00    -0.234 N 
ATOM     49  H21 MOL d   1      22.758   1.581 -11.375  0.00  0.00     0.174 HD
ATOM     50  H22 MOL d   1      24.540   1.493 -11.409  0.00  0.00     0.174 HD
ENDBRANCH  43  48
ENDBRANCH  20  35
BRANCH  11  51
ATOM     51  O23 MOL d   1      17.098   1.074 -16.026  0.00  0.00    -0.390 OA
ATOM     52  H14 MOL d   1      17.046   2.000 -16.233  0.00  0.00     0.210 HD
ENDBRANCH  11  51
BRANCH   2  53
ATOM     53  O2' MOL d   1      19.251   0.005 -23.476  0.00  0.00    -0.388 OA
ATOM     54  H7  MOL d   1      19.686   0.017 -24.320  0.00  0.00     0.210 HD
ENDBRANCH   2  53
BRANCH   1  55
ATOM     55  N9  MOL d   1      22.068   1.846 -22.250  0.00  0.00    -0.294 N 
ATOM     56  C4  MOL d   1      23.188   1.407 -22.844  0.00  0.00     0.167 A 
ATOM     57  N3  MOL d   1      23.372   0.726 -23.983  0.00  0.00    -0.222 NA
ATOM     58  C5  MOL d   1      24.224   1.748 -22.074  0.00  0.00     0.149 A 
ATOM     59  C2  MOL d   1      24.630   0.389 -24.371  0.00  0.00     0.091 A 
ATOM     60  N1  MOL d   1      25.690   0.736 -23.595  0.00  0.00    -0.222 NA
ATOM     61  H1  MOL d   1      24.787  -0.154 -25.296  0.00  0.00     0.146 H 
ATOM     62  C6  MOL d   1      25.492   1.403 -22.464  0.00  0.00     0.155 A 
ATOM     63  N7  MOL d   1      23.750   2.416 -21.006  0.00  0.00    -0.236 NA
ATOM     64  C8  MOL d   1      22.408   2.472 -21.109  0.00  0.00     0.071 A 
ATOM     65  H4  MOL d   1      21.725   2.938 -20.400  0.00  0.00     0.144 H 
BRANCH  62  66
ATOM     66  N01 MOL d   1      26.749   1.671 -21.796  0.00  0.00    -0.382 N 
ATOM     67  H2  MOL d   1      26.758   2.183 -20.902  0.00  0.00     0.157 HD
ATOM     68  H3  MOL d   1      27.634   1.350 -22.215  0.00  0.00     0.157 HD
ENDBRANCH  62  66
ENDBRANCH   1  55
TORSDOF 6
