REMARK  7 active torsions:
REMARK  status: ('A' for Active; 'I' for Inactive)
REMARK    1  A    between atoms: C11_8  and  C4_4 
REMARK    2  A    between atoms: C6_6  and  O8_11 
REMARK    3  A    between atoms: O8_11  and  C10_7 
REMARK    4  A    between atoms: C14_9  and  S19_18 
REMARK    5  A    between atoms: N12_13  and  N14_14 
REMARK    6  A    between atoms: C17_15  and  C18_20 
REMARK    7  A    between atoms: S19_18  and  C20_19 
ROOT
ATOM      1  C14 MOL d   1      -0.428  12.155  27.296  0.00  0.00     0.212 A 
ATOM      2  N14 MOL d   1      -0.598  12.377  25.976  0.00  0.00    -0.187 N 
ATOM      3  C17 MOL d   1      -0.884  13.716  25.784  0.00  0.00     0.185 A 
ATOM      4  N16 MOL d   1      -0.860  14.268  27.057  0.00  0.00    -0.127 NA
ATOM      5  N15 MOL d   1      -0.572  13.275  28.032  0.00  0.00    -0.120 NA
ENDROOT
BRANCH   2   6
ATOM      6  N12 MOL d   1      -0.506  11.420  25.033  0.00  0.00    -0.175 NA
ATOM      7  C11 MOL d   1      -0.525  10.181  25.279  0.00  0.00     0.033 C 
ATOM      8  H7  MOL d   1      -0.811   9.827  26.268  0.00  0.00     0.118 H 
BRANCH   7   9
ATOM      9  C4  MOL d   1      -0.158   9.208  24.223  0.00  0.00    -0.000 A 
ATOM     10  C3  MOL d   1       0.243   7.873  24.424  0.00  0.00     0.026 A 
ATOM     11  C2  MOL d   1       0.562   6.986  23.436  0.00  0.00    -0.018 A 
ATOM     12 BR9  MOL d   1       0.369   7.167  26.089  0.00  0.00    -0.050 Br
ATOM     13  C1  MOL d   1       0.497   7.493  22.153  0.00  0.00     0.183 A 
ATOM     14  H1  MOL d   1       0.847   5.956  23.644  0.00  0.00     0.091 H 
ATOM     15  C6  MOL d   1       0.096   8.805  21.860  0.00  0.00     0.116 A 
ATOM     16  O7  MOL d   1       0.837   6.674  21.238  0.00  0.00    -0.290 OA
ATOM     17  C5  MOL d   1      -0.242   9.652  22.909  0.00  0.00    -0.056 A 
ATOM     18  H3  MOL d   1       1.141   9.147  21.901  0.00  0.00     0.102 H 
ATOM     19  H2  MOL d   1      -0.574  10.668  22.700  0.00  0.00     0.083 H 
BRANCH  15  20
ATOM     20  O8  MOL d   1      -0.003   9.237  20.554  0.00  0.00    -0.379 OA
BRANCH  20  21
ATOM     21  C10 MOL d   1      -0.555  10.511  20.218  0.00  0.00     0.005 C 
ATOM     22  H4  MOL d   1      -0.534  10.643  19.126  0.00  0.00     0.066 H 
ATOM     23  H5  MOL d   1       0.038  11.305  20.695  0.00  0.00     0.066 H 
ATOM     24  H6  MOL d   1      -1.594  10.566  20.574  0.00  0.00     0.066 H 
ENDBRANCH  20  21
ENDBRANCH  15  20
ENDBRANCH   7   9
ENDBRANCH   2   6
BRANCH   1  25
ATOM     25  S19 MOL d   1      -0.058  10.611  28.040  0.00  0.00    -0.093 SA
BRANCH  25  26
ATOM     26  C20 MOL d   1      -0.493  10.685  29.768  0.00  0.00    -0.027 C 
ATOM     27  H8  MOL d   1      -0.265   9.720  30.245  0.00  0.00     0.042 H 
ATOM     28  H9  MOL d   1      -1.568  10.898  29.867  0.00  0.00     0.042 H 
ATOM     29  H10 MOL d   1       0.085  11.482  30.258  0.00  0.00     0.042 H 
ENDBRANCH  25  26
ENDBRANCH   1  25
BRANCH   3  30
ATOM     30  C18 MOL d   1      -1.215  14.535  24.547  0.00  0.00     0.014 A 
ATOM     31  C25 MOL d   1      -1.528  13.960  23.291  0.00  0.00    -0.069 A 
ATOM     32  C24 MOL d   1      -1.858  14.748  22.157  0.00  0.00    -0.082 A 
ATOM     33  H11 MOL d   1      -1.515  12.881  23.192  0.00  0.00     0.085 H 
ATOM     34  C23 MOL d   1      -1.899  16.130  22.300  0.00  0.00    -0.083 A 
ATOM     35  H12 MOL d   1      -2.073  14.283  21.202  0.00  0.00     0.083 H 
ATOM     36  C22 MOL d   1      -1.618  16.716  23.536  0.00  0.00    -0.082 A 
ATOM     37  H13 MOL d   1      -2.150  16.754  21.450  0.00  0.00     0.083 H 
ATOM     38  C21 MOL d   1      -1.299  15.932  24.658  0.00  0.00    -0.069 A 
ATOM     39  H14 MOL d   1      -1.646  17.795  23.632  0.00  0.00     0.083 H 
ATOM     40  H15 MOL d   1      -1.117  16.409  25.614  0.00  0.00     0.085 H 
ENDBRANCH   3  30
TORSDOF 7
