REMARK  31 active torsions:
REMARK  status: ('A' for Active; 'I' for Inactive)
REMARK    1  A    between atoms: N_1  and  CA_2 
REMARK    2  A    between atoms: CA_2  and  C_3 
REMARK    3  A    between atoms: CA_2  and  CB_5 
REMARK       I    between atoms: C_3  and  N_10 
REMARK    4  A    between atoms: CB_5  and  CG_6 
REMARK    5  A    between atoms: CG_6  and  CD_7 
REMARK    6  A    between atoms: CD_7  and  CE_8 
REMARK    7  A    between atoms: CE_8  and  NZ_9 
REMARK    8  A    between atoms: N_10  and  CA_11 
REMARK    9  A    between atoms: CA_11  and  C_12 
REMARK   10  A    between atoms: CA_11  and  CB_14 
REMARK       I    between atoms: C_12  and  N_22 
REMARK   11  A    between atoms: CB_14  and  CG_15 
REMARK   12  A    between atoms: CZ_20  and  OH_21 
REMARK   13  A    between atoms: N_22  and  CA_23 
REMARK   14  A    between atoms: CA_23  and  C_24 
REMARK   15  A    between atoms: CA_23  and  CB_26 
REMARK       I    between atoms: C_24  and  N_36 
REMARK   16  A    between atoms: CB_26  and  CG_27 
REMARK   17  A    between atoms: N_36  and  CA_37 
REMARK   18  A    between atoms: CA_37  and  C_38 
REMARK   19  A    between atoms: CA_37  and  CB_40 
REMARK       I    between atoms: C_38  and  N_50 
REMARK   20  A    between atoms: CB_40  and  CG_41 
REMARK   21  A    between atoms: N_50  and  CA_51 
REMARK   22  A    between atoms: CA_51  and  C_52 
REMARK   23  A    between atoms: CA_51  and  CB_54 
REMARK       I    between atoms: C_52  and  N_59 
REMARK   24  A    between atoms: CB_54  and  CG_55 
REMARK   25  A    between atoms: CG_55  and  CD_56 
REMARK   26  A    between atoms: CD_56  and  CE_57 
REMARK   27  A    between atoms: CE_57  and  NZ_58 
REMARK   28  A    between atoms: N_59  and  CA_60 
REMARK   29  A    between atoms: CA_60  and  C_61 
REMARK   30  A    between atoms: CA_60  and  CB_63 
REMARK   31  A    between atoms: CB_63  and  CG_64 
REMARK       I    between atoms: CG_64  and  ND2_66 
ROOT
ATOM      1  CA  LYS d   1      85.845  83.764 -40.980  0.00  0.00     0.093 C 
ATOM      2  H26 LYS d   1      86.710  84.398 -41.221  0.00  0.00     0.088 H 
ENDROOT
BRANCH   1   3
ATOM      3  N   LYS d   1      84.912  83.841 -42.100  0.00  0.00    -0.346 N 
ATOM      4  C   LYS d   1      85.292  83.619 -43.355  0.00  0.00     0.241 C 
ATOM      5  O   LYS d   1      86.433  83.265 -43.658  0.00  0.00    -0.271 OA
ATOM      6  H25 LYS d   1      83.955  84.068 -41.918  0.00  0.00     0.163 HD
BRANCH   4   7
ATOM      7  CA  LYS d   1      84.226  83.825 -44.433  0.00  0.00     0.093 C 
ATOM      8  H17 LYS d   1      83.347  84.299 -43.971  0.00  0.00     0.088 H 
BRANCH   7   9
ATOM      9  N   LYS d   1      84.723  84.705 -45.487  0.00  0.00    -0.346 N 
ATOM     10  C   LYS d   1      85.202  85.920 -45.228  0.00  0.00     0.249 C 
ATOM     11  O   LYS d   1      85.254  86.403 -44.093  0.00  0.00    -0.271 OA
ATOM     12  H16 LYS d   1      84.703  84.385 -46.434  0.00  0.00     0.163 HD
BRANCH  10  13
ATOM     13  CA  LYS d   1      85.689  86.718 -46.432  0.00  0.00     0.176 C 
ATOM     14  H4  LYS d   1      84.907  86.688 -47.205  0.00  0.00     0.099 H 
BRANCH  13  15
ATOM     15  N   LYS d   1      85.925  88.113 -46.074  0.00  0.00    -0.067 N 
ATOM     16  H1  LYS d   1      86.246  88.618 -46.885  0.00  0.00     0.275 HD
ATOM     17  H2  LYS d   1      86.625  88.160 -45.350  0.00  0.00     0.275 HD
ATOM     18  H3  LYS d   1      85.067  88.524 -45.739  0.00  0.00     0.275 HD
ENDBRANCH  13  15
BRANCH  13  19
ATOM     19  CB  LYS d   1      86.960  86.091 -47.007  0.00  0.00    -0.030 C 
ATOM     20  H5  LYS d   1      86.740  85.050 -47.288  0.00  0.00     0.036 H 
ATOM     21  H6  LYS d   1      87.738  86.104 -46.230  0.00  0.00     0.036 H 
BRANCH  19  22
ATOM     22  CG  LYS d   1      87.489  86.819 -48.231  0.00  0.00    -0.061 C 
ATOM     23  H7  LYS d   1      87.734  87.854 -47.950  0.00  0.00     0.033 H 
ATOM     24  H8  LYS d   1      86.708  86.824 -49.006  0.00  0.00     0.033 H 
BRANCH  22  25
ATOM     25  CD  LYS d   1      88.736  86.156 -48.795  0.00  0.00    -0.043 C 
ATOM     26  H9  LYS d   1      88.505  85.111 -49.049  0.00  0.00     0.035 H 
ATOM     27  H10 LYS d   1      89.532  86.182 -48.036  0.00  0.00     0.035 H 
BRANCH  25  28
ATOM     28  CE  LYS d   1      89.216  86.879 -50.047  0.00  0.00     0.080 C 
ATOM     29  H11 LYS d   1      89.506  87.904 -49.772  0.00  0.00     0.075 H 
ATOM     30  H12 LYS d   1      88.389  86.914 -50.772  0.00  0.00     0.075 H 
BRANCH  28  31
ATOM     31  NZ  LYS d   1      90.382  86.209 -50.686  0.00  0.00    -0.079 N 
ATOM     32  H13 LYS d   1      90.658  86.726 -51.506  0.00  0.00     0.274 HD
ATOM     33  H14 LYS d   1      90.127  85.270 -50.950  0.00  0.00     0.274 HD
ATOM     34  H15 LYS d   1      91.150  86.177 -50.034  0.00  0.00     0.274 HD
ENDBRANCH  28  31
ENDBRANCH  25  28
ENDBRANCH  22  25
ENDBRANCH  19  22
ENDBRANCH  13  19
ENDBRANCH  10  13
ENDBRANCH   7   9
BRANCH   7  35
ATOM     35  CB  LYS d   1      83.802  82.469 -45.009  0.00  0.00    -0.014 C 
ATOM     36  H18 LYS d   1      83.380  81.869 -44.189  0.00  0.00     0.043 H 
ATOM     37  H19 LYS d   1      84.701  81.972 -45.402  0.00  0.00     0.043 H 
BRANCH  35  38
ATOM     38  CG  LYS d   1      82.773  82.525 -46.124  0.00  0.00    -0.056 A 
ATOM     39  CD1 LYS d   1      82.672  81.488 -47.048  0.00  0.00    -0.074 A 
ATOM     40  CE1 LYS d   1      81.737  81.522 -48.070  0.00  0.00    -0.051 A 
ATOM     41  H20 LYS d   1      83.338  80.637 -46.966  0.00  0.00     0.084 H 
ATOM     42  CZ  LYS d   1      80.883  82.598 -48.179  0.00  0.00     0.065 A 
ATOM     43  H22 LYS d   1      81.678  80.706 -48.781  0.00  0.00     0.087 H 
ATOM     44  CE2 LYS d   1      80.957  83.639 -47.276  0.00  0.00    -0.051 A 
ATOM     45  CD2 LYS d   1      81.896  83.599 -46.251  0.00  0.00    -0.074 A 
ATOM     46  H23 LYS d   1      80.285  84.485 -47.365  0.00  0.00     0.087 H 
ATOM     47  H21 LYS d   1      81.946  84.416 -45.540  0.00  0.00     0.084 H 
BRANCH  42  48
ATOM     48  OH  LYS d   1      79.951  82.633 -49.196  0.00  0.00    -0.361 OA
ATOM     49  H24 LYS d   1      80.031  81.848 -49.725  0.00  0.00     0.217 HD
ENDBRANCH  42  48
ENDBRANCH  35  38
ENDBRANCH   7  35
ENDBRANCH   4   7
ENDBRANCH   1   3
BRANCH   1  50
ATOM     50  C   LYS d   1      86.363  82.349 -40.722  0.00  0.00     0.241 C 
ATOM     51  O   LYS d   1      87.300  82.155 -39.946  0.00  0.00    -0.271 OA
ATOM     52  N   LYS d   1      85.749  81.364 -41.371  0.00  0.00    -0.346 N 
ATOM     53  H35 LYS d   1      85.065  81.589 -42.065  0.00  0.00     0.163 HD
BRANCH  52  54
ATOM     54  CA  LYS d   1      86.050  79.963 -41.095  0.00  0.00     0.093 C 
ATOM     55  H36 LYS d   1      86.653  79.932 -40.175  0.00  0.00     0.088 H 
BRANCH  54  56
ATOM     56  C   LYS d   1      86.856  79.272 -42.193  0.00  0.00     0.241 C 
ATOM     57  O   LYS d   1      86.890  78.043 -42.254  0.00  0.00    -0.271 OA
ATOM     58  N   LYS d   1      87.508  80.052 -43.052  0.00  0.00    -0.346 N 
ATOM     59  H45 LYS d   1      87.475  81.045 -42.938  0.00  0.00     0.163 HD
BRANCH  58  60
ATOM     60  CA  LYS d   1      88.272  79.479 -44.161  0.00  0.00     0.089 C 
ATOM     61  H46 LYS d   1      87.970  78.425 -44.249  0.00  0.00     0.087 H 
BRANCH  60  62
ATOM     62  C   LYS d   1      89.785  79.495 -43.924  0.00  0.00     0.241 C 
ATOM     63  O   LYS d   1      90.494  78.576 -44.339  0.00  0.00    -0.271 OA
ATOM     64  N   LYS d   1      90.274  80.541 -43.263  0.00  0.00    -0.344 N 
ATOM     65  H58 LYS d   1      89.654  81.273 -42.980  0.00  0.00     0.163 HD
BRANCH  64  66
ATOM     66  CA  LYS d   1      91.695  80.645 -42.941  0.00  0.00     0.104 C 
ATOM     67  H59 LYS d   1      92.250  80.088 -43.711  0.00  0.00     0.090 H 
BRANCH  66  68
ATOM     68  C   LYS d   1      92.037  80.026 -41.587  0.00  0.00     0.197 C 
ATOM     69  O   LYS d   1      93.069  79.371 -41.433  0.00  0.00    -0.646 OA
ATOM     70  OXT LYS d   1      91.288  80.168 -40.619  0.00  0.00    -0.646 OA
ENDBRANCH  66  68
BRANCH  66  71
ATOM     71  CB  LYS d   1      92.159  82.106 -42.989  0.00  0.00     0.037 C 
ATOM     72  H60 LYS d   1      92.083  82.466 -44.026  0.00  0.00     0.051 H 
ATOM     73  H61 LYS d   1      93.208  82.153 -42.660  0.00  0.00     0.051 H 
BRANCH  71  74
ATOM     74  CG  LYS d   1      91.329  83.014 -42.098  0.00  0.00     0.217 C 
ATOM     75  OD1 LYS d   1      90.100  83.032 -42.182  0.00  0.00    -0.274 OA
ATOM     76  ND2 LYS d   1      91.999  83.772 -41.236  0.00  0.00    -0.370 N 
ATOM     77  H62 LYS d   1      91.505  84.389 -40.624  0.00  0.00     0.159 HD
ATOM     78  H63 LYS d   1      92.997  83.725 -41.200  0.00  0.00     0.159 HD
ENDBRANCH  71  74
ENDBRANCH  66  71
ENDBRANCH  64  66
ENDBRANCH  60  62
BRANCH  60  79
ATOM     79  CB  LYS d   1      87.926  80.171 -45.484  0.00  0.00    -0.038 C 
ATOM     80  H47 LYS d   1      88.656  79.851 -46.242  0.00  0.00     0.036 H 
ATOM     81  H48 LYS d   1      88.005  81.258 -45.335  0.00  0.00     0.036 H 
BRANCH  79  82
ATOM     82  CG  LYS d   1      86.526  79.860 -46.007  0.00  0.00    -0.061 C 
ATOM     83  H49 LYS d   1      85.863  80.707 -45.778  0.00  0.00     0.033 H 
ATOM     84  H50 LYS d   1      86.151  78.955 -45.506  0.00  0.00     0.033 H 
BRANCH  82  85
ATOM     85  CD  LYS d   1      86.529  79.626 -47.517  0.00  0.00    -0.043 C 
ATOM     86  H51 LYS d   1      86.013  78.678 -47.729  0.00  0.00     0.035 H 
ATOM     87  H52 LYS d   1      87.571  79.562 -47.863  0.00  0.00     0.035 H 
BRANCH  85  88
ATOM     88  CE  LYS d   1      85.828  80.746 -48.277  0.00  0.00     0.080 C 
ATOM     89  H53 LYS d   1      84.797  80.831 -47.903  0.00  0.00     0.075 H 
ATOM     90  H54 LYS d   1      85.810  80.486 -49.346  0.00  0.00     0.075 H 
BRANCH  88  91
ATOM     91  NZ  LYS d   1      86.499  82.067 -48.122  0.00  0.00    -0.079 N 
ATOM     92  H55 LYS d   1      85.992  82.764 -48.644  0.00  0.00     0.274 HD
ATOM     93  H56 LYS d   1      87.443  82.007 -48.469  0.00  0.00     0.274 HD
ATOM     94  H57 LYS d   1      86.515  82.323 -47.147  0.00  0.00     0.274 HD
ENDBRANCH  88  91
ENDBRANCH  85  88
ENDBRANCH  82  85
ENDBRANCH  79  82
ENDBRANCH  60  79
ENDBRANCH  58  60
ENDBRANCH  54  56
BRANCH  54  95
ATOM     95  CB  LYS d   1      84.754  79.188 -40.843  0.00  0.00    -0.012 C 
ATOM     96  H37 LYS d   1      84.213  79.678 -40.020  0.00  0.00     0.044 H 
ATOM     97  H38 LYS d   1      85.018  78.162 -40.548  0.00  0.00     0.044 H 
BRANCH  95  98
ATOM     98  CG  LYS d   1      83.836  79.116 -42.035  0.00  0.00    -0.028 A 
ATOM     99  CD1 LYS d   1      83.821  78.152 -43.000  0.00  0.00    -0.015 A 
ATOM    100  NE1 LYS d   1      82.836  78.420 -43.925  0.00  0.00    -0.365 N 
ATOM    101  H39 LYS d   1      84.491  77.294 -43.034  0.00  0.00     0.112 H 
ATOM    102  CE2 LYS d   1      82.192  79.572 -43.565  0.00  0.00     0.042 A 
ATOM    103  H40 LYS d   1      82.620  77.847 -44.753  0.00  0.00     0.165 HD
ATOM    104  CD2 LYS d   1      82.792  80.041 -42.378  0.00  0.00    -0.002 A 
ATOM    105  CZ2 LYS d   1      81.133  80.243 -44.180  0.00  0.00    -0.056 A 
ATOM    106  CE3 LYS d   1      82.311  81.218 -41.797  0.00  0.00    -0.070 A 
ATOM    107  CZ3 LYS d   1      81.259  81.882 -42.412  0.00  0.00    -0.082 A 
ATOM    108  H41 LYS d   1      82.751  81.604 -40.885  0.00  0.00     0.084 H 
ATOM    109  CH2 LYS d   1      80.684  81.392 -43.589  0.00  0.00    -0.081 A 
ATOM    110  H43 LYS d   1      80.876  82.796 -41.973  0.00  0.00     0.083 H 
ATOM    111  H44 LYS d   1      79.864  81.935 -44.044  0.00  0.00     0.083 H 
ATOM    112  H42 LYS d   1      80.683  79.867 -45.092  0.00  0.00     0.086 H 
ENDBRANCH  95  98
ENDBRANCH  54  95
ENDBRANCH  52  54
ENDBRANCH   1  50
BRANCH   1 113
ATOM    113  CB  LYS d   1      85.183  84.312 -39.713  0.00  0.00    -0.012 C 
ATOM    114  H27 LYS d   1      84.923  85.367 -39.885  0.00  0.00     0.044 H 
ATOM    115  H28 LYS d   1      85.905  84.243 -38.886  0.00  0.00     0.044 H 
BRANCH 113 116
ATOM    116  CG  LYS d   1      83.937  83.575 -39.318  0.00  0.00    -0.028 A 
ATOM    117  CD1 LYS d   1      82.650  83.917 -39.618  0.00  0.00    -0.015 A 
ATOM    118  NE1 LYS d   1      81.779  82.999 -39.081  0.00  0.00    -0.365 N 
ATOM    119  H29 LYS d   1      82.356  84.790 -40.198  0.00  0.00     0.112 H 
ATOM    120  CE2 LYS d   1      82.496  82.041 -38.420  0.00  0.00     0.042 A 
ATOM    121  H30 LYS d   1      80.753  83.028 -39.163  0.00  0.00     0.165 HD
ATOM    122  CD2 LYS d   1      83.861  82.369 -38.545  0.00  0.00    -0.002 A 
ATOM    123  CZ2 LYS d   1      82.066  80.914 -37.719  0.00  0.00    -0.056 A 
ATOM    124  CE3 LYS d   1      84.815  81.539 -37.950  0.00  0.00    -0.070 A 
ATOM    125  CZ3 LYS d   1      84.384  80.425 -37.259  0.00  0.00    -0.082 A 
ATOM    126  H31 LYS d   1      85.872  81.766 -38.030  0.00  0.00     0.084 H 
ATOM    127  CH2 LYS d   1      83.023  80.121 -37.150  0.00  0.00    -0.081 A 
ATOM    128  H33 LYS d   1      85.114  79.773 -36.792  0.00  0.00     0.083 H 
ATOM    129  H34 LYS d   1      82.720  79.236 -36.602  0.00  0.00     0.083 H 
ATOM    130  H32 LYS d   1      81.012  80.676 -37.629  0.00  0.00     0.086 H 
ENDBRANCH 113 116
ENDBRANCH   1 113
TORSDOF 31
