REMARK  4 active torsions:
REMARK  status: ('A' for Active; 'I' for Inactive)
REMARK    1  A    between atoms: N3_6  and  C2_9 
REMARK    2  A    between atoms: N10_12  and  C13_7 
REMARK    3  A    between atoms: C2_9  and  C1_8 
REMARK       I    between atoms: C1_8  and  N21_21 
REMARK    4  A    between atoms: C2_9  and  C20_20 
ROOT
ATOM      1  C4  MOL d   1     -31.424  45.328 -10.057  0.00  0.00     0.683 A 
ATOM      2  C6  MOL d   1     -29.293  44.690  -9.934  0.00  0.00     0.157 A 
ATOM      3  C7  MOL d   1     -29.338  44.422  -8.558  0.00  0.00     0.098 A 
ATOM      4  C8  MOL d   1     -30.585  44.638  -7.876  0.00  0.00     0.275 A 
ATOM      5  C12 MOL d   1     -28.057  43.940  -8.254  0.00  0.00     0.041 A 
ATOM      6  N3  MOL d   1     -32.480  45.876 -10.704  0.00  0.00    -0.213 N 
ATOM      7  N5  MOL d   1     -30.300  45.142 -10.727  0.00  0.00    -0.174 N 
ATOM      8  N9  MOL d   1     -31.587  45.072  -8.723  0.00  0.00    -0.155 N 
ATOM      9  N10 MOL d   1     -28.040  44.390 -10.359  0.00  0.00    -0.248 N 
ATOM     10  N11 MOL d   1     -27.273  43.911  -9.324  0.00  0.00    -0.182 NA
ATOM     11  O15 MOL d   1     -30.785  44.537  -6.655  0.00  0.00    -0.267 OA
ATOM     12  H1  MOL d   1     -27.743  43.627  -7.259  0.00  0.00     0.119 H 
ATOM     13  H2  MOL d   1     -33.334  46.030 -10.149  0.00  0.00     0.178 HD
ATOM     14  H5  MOL d   1     -30.199  45.320 -11.736  0.00  0.00     0.186 HD
ATOM     15  H6  MOL d   1     -32.497  45.209  -8.332  0.00  0.00     0.187 HD
ENDROOT
BRANCH   6  16
ATOM     16  C2  MOL d   1     -32.531  46.269 -12.102  0.00  0.00     0.100 C 
ATOM     17  H4  MOL d   1     -31.503  46.454 -12.447  0.00  0.00     0.087 H 
BRANCH  16  18
ATOM     18  C1  MOL d   1     -33.151  45.173 -12.977  0.00  0.00     0.242 C 
ATOM     19  O14 MOL d   1     -34.323  44.880 -12.807  0.00  0.00    -0.271 OA
ATOM     20  N21 MOL d   1     -32.418  44.629 -13.974  0.00  0.00    -0.348 N 
ATOM     21  C22 MOL d   1     -32.981  43.708 -14.965  0.00  0.00     0.000 C 
ATOM     22  C25 MOL d   1     -30.998  44.841 -14.257  0.00  0.00     0.026 C 
ATOM     23  C23 MOL d   1     -31.763  42.956 -15.482  0.00  0.00    -0.020 C 
ATOM     24  H18 MOL d   1     -33.477  44.259 -15.777  0.00  0.00     0.064 H 
ATOM     25  H19 MOL d   1     -33.700  43.019 -14.498  0.00  0.00     0.064 H 
ATOM     26  C24 MOL d   1     -30.621  43.912 -15.365  0.00  0.00     0.096 C 
ATOM     27  H20 MOL d   1     -31.911  42.661 -16.531  0.00  0.00     0.039 H 
ATOM     28  H21 MOL d   1     -31.578  42.060 -14.872  0.00  0.00     0.039 H 
ATOM     29  F26 MOL d   1     -29.471  43.191 -14.967  0.00  0.00    -0.248 F 
ATOM     30  H22 MOL d   1     -30.444  44.452 -16.307  0.00  0.00     0.094 H 
ATOM     31  H23 MOL d   1     -30.399  44.621 -13.361  0.00  0.00     0.068 H 
ATOM     32  H24 MOL d   1     -30.827  45.883 -14.565  0.00  0.00     0.068 H 
ENDBRANCH  16  18
BRANCH  16  33
ATOM     33  C20 MOL d   1     -33.344  47.548 -12.267  0.00  0.00    -0.049 C 
ATOM     34  H15 MOL d   1     -33.372  47.830 -13.330  0.00  0.00     0.030 H 
ATOM     35  H16 MOL d   1     -32.878  48.357 -11.685  0.00  0.00     0.030 H 
ATOM     36  H17 MOL d   1     -34.369  47.380 -11.905  0.00  0.00     0.030 H 
ENDBRANCH  16  33
ENDBRANCH   6  16
BRANCH   9  37
ATOM     37  C13 MOL d   1     -27.426  44.572 -11.688  0.00  0.00     0.036 C 
ATOM     38  C16 MOL d   1     -27.011  43.269 -12.371  0.00  0.00    -0.044 C 
ATOM     39  C17 MOL d   1     -25.825  43.654 -13.265  0.00  0.00    -0.063 C 
ATOM     40  H7  MOL d   1     -27.838  42.868 -12.976  0.00  0.00     0.036 H 
ATOM     41  H8  MOL d   1     -26.706  42.520 -11.625  0.00  0.00     0.036 H 
ATOM     42  C18 MOL d   1     -25.534  45.130 -13.010  0.00  0.00    -0.063 C 
ATOM     43  H9  MOL d   1     -26.083  43.497 -14.323  0.00  0.00     0.033 H 
ATOM     44  H10 MOL d   1     -24.945  43.046 -13.008  0.00  0.00     0.033 H 
ATOM     45  C19 MOL d   1     -26.165  45.435 -11.682  0.00  0.00    -0.044 C 
ATOM     46  H11 MOL d   1     -25.979  45.752 -13.800  0.00  0.00     0.033 H 
ATOM     47  H12 MOL d   1     -24.449  45.308 -12.971  0.00  0.00     0.033 H 
ATOM     48  H13 MOL d   1     -25.498  45.153 -10.854  0.00  0.00     0.036 H 
ATOM     49  H14 MOL d   1     -26.418  46.502 -11.601  0.00  0.00     0.036 H 
ATOM     50  H3  MOL d   1     -28.181  45.067 -12.317  0.00  0.00     0.076 H 
ENDBRANCH   9  37
TORSDOF 4
