REMARK WARNING: 32 MAX_TORS EXCEEDED!!!
REMARK  69 active torsions:
REMARK  status: ('A' for Active; 'I' for Inactive)
REMARK    1  A    between atoms: N_1  and  CA_2 
REMARK    2  A    between atoms: CA_2  and  C_3 
REMARK    3  A    between atoms: CA_2  and  CB_5 
REMARK       I    between atoms: C_3  and  N_12 
REMARK    4  A    between atoms: CB_5  and  CG_6 
REMARK    5  A    between atoms: CG_6  and  CD_7 
REMARK    6  A    between atoms: CD_7  and  NE_8 
REMARK       I    between atoms: NE_8  and  CZ_9 
REMARK       I    between atoms: CZ_9  and  NH1_10 
REMARK       I    between atoms: CZ_9  and  NH2_11 
REMARK    7  A    between atoms: N_12  and  CA_13 
REMARK    8  A    between atoms: CA_13  and  C_14 
REMARK    9  A    between atoms: CA_13  and  CB_16 
REMARK       I    between atoms: C_14  and  N_24 
REMARK   10  A    between atoms: CB_16  and  CG_17 
REMARK   11  A    between atoms: CZ_22  and  OH_23 
REMARK   12  A    between atoms: N_24  and  CA_25 
REMARK   13  A    between atoms: CA_25  and  C_26 
REMARK   14  A    between atoms: CA_25  and  CB_28 
REMARK       I    between atoms: C_26  and  N_32 
REMARK   15  A    between atoms: CB_28  and  CG1_29 
REMARK   16  A    between atoms: CB_28  and  CG2_30 
REMARK   17  A    between atoms: CG1_29  and  CD1_31 
REMARK   18  A    between atoms: N_32  and  CA_33 
REMARK   19  A    between atoms: CA_33  and  C_34 
REMARK   20  A    between atoms: CA_33  and  CB_36 
REMARK       I    between atoms: C_34  and  N_38 
REMARK   21  A    between atoms: CB_36  and  OG_37 
REMARK   22  A    between atoms: N_38  and  CA_39 
REMARK   23  A    between atoms: CA_39  and  C_40 
REMARK   24  A    between atoms: CA_39  and  CB_42 
REMARK       I    between atoms: C_40  and  N_50 
REMARK   25  A    between atoms: CB_42  and  CG_43 
REMARK   26  A    between atoms: CZ_48  and  OH_49 
REMARK   27  A    between atoms: N_50  and  CA_51 
REMARK   28  A    between atoms: CA_51  and  C_52 
REMARK       I    between atoms: C_52  and  N_54 
REMARK   29  A    between atoms: N_54  and  CA_55 
REMARK   30  A    between atoms: CA_55  and  C_56 
REMARK   31  A    between atoms: CA_55  and  CB_58 
REMARK       I    between atoms: C_56  and  N_59 
REMARK   32  A    between atoms: N_59  and  CA_60 
REMARK   33  A    between atoms: CA_60  and  C_61 
REMARK   34  A    between atoms: CA_60  and  CB_63 
REMARK       I    between atoms: C_61  and  N_67 
REMARK   35  A    between atoms: CB_63  and  CG_64 
REMARK   36  A    between atoms: CG_64  and  CD1_65 
REMARK   37  A    between atoms: CG_64  and  CD2_66 
REMARK   38  A    between atoms: N_67  and  CA_68 
REMARK   39  A    between atoms: CA_68  and  C_69 
REMARK   40  A    between atoms: CA_68  and  CB_71 
REMARK       I    between atoms: C_69  and  N_78 
REMARK   41  A    between atoms: CB_71  and  CG_72 
REMARK   42  A    between atoms: CG_72  and  CD_73 
REMARK   43  A    between atoms: CD_73  and  NE_74 
REMARK       I    between atoms: NE_74  and  CZ_75 
REMARK       I    between atoms: CZ_75  and  NH1_76 
REMARK       I    between atoms: CZ_75  and  NH2_77 
REMARK   44  A    between atoms: N_78  and  CA_79 
REMARK   45  A    between atoms: CA_79  and  C_80 
REMARK   46  A    between atoms: CA_79  and  CB_82 
REMARK       I    between atoms: C_80  and  N_89 
REMARK   47  A    between atoms: CB_82  and  CG_83 
REMARK   48  A    between atoms: CG_83  and  CD_84 
REMARK   49  A    between atoms: CD_84  and  NE_85 
REMARK       I    between atoms: NE_85  and  CZ_86 
REMARK       I    between atoms: CZ_86  and  NH1_87 
REMARK       I    between atoms: CZ_86  and  NH2_88 
REMARK   50  A    between atoms: N_89  and  CA_90 
REMARK   51  A    between atoms: CA_90  and  C_91 
REMARK   52  A    between atoms: CA_90  and  CB_93 
REMARK       I    between atoms: C_91  and  N_97 
REMARK   53  A    between atoms: CB_93  and  CG_94 
REMARK       I    between atoms: CG_94  and  ND2_96 
REMARK   54  A    between atoms: N_97  and  CA_98 
REMARK   55  A    between atoms: CA_98  and  C_99 
REMARK   56  A    between atoms: CA_98  and  CB_101 
REMARK       I    between atoms: C_99  and  N_104 
REMARK   57  A    between atoms: CB_101  and  OG1_102 
REMARK   58  A    between atoms: CB_101  and  CG2_103 
REMARK   59  A    between atoms: N_104  and  CA_105 
REMARK   60  A    between atoms: CA_105  and  C_106 
REMARK   61  A    between atoms: CA_105  and  CB_108 
REMARK       I    between atoms: C_106  and  N_112 
REMARK   62  A    between atoms: CB_108  and  CG1_109 
REMARK   63  A    between atoms: CB_108  and  CG2_110 
REMARK   64  A    between atoms: CG1_109  and  CD1_111 
REMARK   65  A    between atoms: CA_113  and  C_114 
REMARK       I    between atoms: C_114  and  N_119 
REMARK   66  A    between atoms: N_119  and  CA_120 
REMARK   67  A    between atoms: CA_120  and  C_121 
REMARK   68  A    between atoms: CA_120  and  CB_123 
REMARK   69  A    between atoms: CB_123  and  SG_124 
ROOT
ATOM      1  CA  ARG d   1     -40.028   5.307  36.980  0.00  0.00     0.089 C 
ATOM      2  H59 ARG d   1     -40.478   4.538  37.625  0.00  0.00     0.087 H 
ENDROOT
BRANCH   1   3
ATOM      3  N   ARG d   1     -40.939   5.567  35.870  0.00  0.00    -0.346 N 
ATOM      4  C   ARG d   1     -42.182   6.002  36.093  0.00  0.00     0.240 C 
ATOM      5  O   ARG d   1     -42.621   6.199  37.234  0.00  0.00    -0.271 OA
ATOM      6  H58 ARG d   1     -40.629   5.418  34.931  0.00  0.00     0.163 HD
BRANCH   4   7
ATOM      7  CA  ARG d   1     -43.050   6.273  34.872  0.00  0.00     0.086 C 
ATOM      8  H54 ARG d   1     -43.890   6.913  35.181  0.00  0.00     0.086 H 
BRANCH   7   9
ATOM      9  N   ARG d   1     -42.293   6.973  33.843  0.00  0.00    -0.347 N 
ATOM     10  C   ARG d   1     -41.836   8.207  34.066  0.00  0.00     0.236 C 
ATOM     11  O   ARG d   1     -42.105   8.834  35.095  0.00  0.00    -0.272 OA
ATOM     12  H53 ARG d   1     -42.115   6.527  32.966  0.00  0.00     0.163 HD
BRANCH  10  13
ATOM     13  CA  ARG d   1     -40.961   8.817  32.989  0.00  0.00     0.069 C 
ATOM     14  H51 ARG d   1     -41.603   9.169  32.168  0.00  0.00     0.078 H 
ATOM     15  H52 ARG d   1     -40.413   9.669  33.418  0.00  0.00     0.078 H 
BRANCH  13  16
ATOM     16  N   ARG d   1     -40.001   7.864  32.456  0.00  0.00    -0.351 N 
ATOM     17  C   ARG d   1     -39.108   7.303  33.273  0.00  0.00     0.241 C 
ATOM     18  O   ARG d   1     -38.984   7.654  34.446  0.00  0.00    -0.271 OA
ATOM     19  H50 ARG d   1     -40.010   7.631  31.484  0.00  0.00     0.163 HD
BRANCH  17  20
ATOM     20  CA  ARG d   1     -38.223   6.185  32.739  0.00  0.00     0.093 C 
ATOM     21  H42 ARG d   1     -38.082   5.452  33.547  0.00  0.00     0.088 H 
BRANCH  20  22
ATOM     22  N   ARG d   1     -38.822   5.490  31.607  0.00  0.00    -0.346 N 
ATOM     23  C   ARG d   1     -39.972   4.825  31.742  0.00  0.00     0.243 C 
ATOM     24  O   ARG d   1     -40.561   4.703  32.822  0.00  0.00    -0.271 OA
ATOM     25  H41 ARG d   1     -38.366   5.511  30.717  0.00  0.00     0.163 HD
BRANCH  23  26
ATOM     26  CA  ARG d   1     -40.543   4.244  30.457  0.00  0.00     0.109 C 
ATOM     27  H37 ARG d   1     -39.710   3.981  29.788  0.00  0.00     0.090 H 
BRANCH  26  28
ATOM     28  N   ARG d   1     -41.312   3.046  30.730  0.00  0.00    -0.344 N 
ATOM     29  C   ARG d   1     -40.708   1.899  31.003  0.00  0.00     0.241 C 
ATOM     30  O   ARG d   1     -39.481   1.794  31.092  0.00  0.00    -0.271 OA
ATOM     31  H36 ARG d   1     -42.311   3.086  30.712  0.00  0.00     0.163 HD
BRANCH  29  32
ATOM     32  CA  ARG d   1     -41.605   0.684  31.162  0.00  0.00     0.092 C 
ATOM     33  H26 ARG d   1     -42.655   0.993  31.052  0.00  0.00     0.088 H 
BRANCH  32  34
ATOM     34  N   ARG d   1     -41.267  -0.242  30.087  0.00  0.00    -0.346 N 
ATOM     35  C   ARG d   1     -41.769  -0.071  28.866  0.00  0.00     0.241 C 
ATOM     36  O   ARG d   1     -42.760   0.625  28.635  0.00  0.00    -0.271 OA
ATOM     37  H25 ARG d   1     -40.654  -1.011  30.268  0.00  0.00     0.163 HD
BRANCH  35  38
ATOM     38  CA  ARG d   1     -41.029  -0.772  27.741  0.00  0.00     0.093 C 
ATOM     39  H17 ARG d   1     -40.617  -1.722  28.112  0.00  0.00     0.088 H 
BRANCH  38  40
ATOM     40  N   ARG d   1     -41.936  -1.059  26.642  0.00  0.00    -0.346 N 
ATOM     41  C   ARG d   1     -41.954  -2.211  25.978  0.00  0.00     0.249 C 
ATOM     42  O   ARG d   1     -41.248  -3.162  26.277  0.00  0.00    -0.271 OA
ATOM     43  H16 ARG d   1     -42.585  -0.348  26.369  0.00  0.00     0.163 HD
BRANCH  41  44
ATOM     44  CA  ARG d   1     -42.921  -2.295  24.787  0.00  0.00     0.176 C 
ATOM     45  H4  ARG d   1     -42.889  -1.317  24.284  0.00  0.00     0.099 H 
BRANCH  44  46
ATOM     46  N   ARG d   1     -42.528  -3.290  23.791  0.00  0.00    -0.067 N 
ATOM     47  H1  ARG d   1     -43.199  -3.296  23.039  0.00  0.00     0.275 HD
ATOM     48  H2  ARG d   1     -42.496  -4.201  24.221  0.00  0.00     0.275 HD
ATOM     49  H3  ARG d   1     -41.617  -3.059  23.426  0.00  0.00     0.275 HD
ENDBRANCH  44  46
BRANCH  44  50
ATOM     50  CB  ARG d   1     -44.351  -2.509  25.256  0.00  0.00    -0.029 C 
ATOM     51  H5  ARG d   1     -44.998  -1.799  24.720  0.00  0.00     0.036 H 
ATOM     52  H6  ARG d   1     -44.393  -2.301  26.335  0.00  0.00     0.036 H 
BRANCH  50  53
ATOM     53  CG  ARG d   1     -44.886  -3.902  25.023  0.00  0.00    -0.047 C 
ATOM     54  H7  ARG d   1     -44.520  -4.567  25.819  0.00  0.00     0.035 H 
ATOM     55  H8  ARG d   1     -44.531  -4.267  24.048  0.00  0.00     0.035 H 
BRANCH  53  56
ATOM     56  CD  ARG d   1     -46.397  -3.901  25.033  0.00  0.00     0.009 C 
ATOM     57  H9  ARG d   1     -46.756  -4.713  24.383  0.00  0.00     0.064 H 
ATOM     58  H10 ARG d   1     -46.753  -2.936  24.644  0.00  0.00     0.064 H 
BRANCH  56  59
ATOM     59  NE  ARG d   1     -46.938  -4.096  26.367  0.00  0.00    -0.227 N 
ATOM     60  CZ  ARG d   1     -46.489  -4.995  27.230  0.00  0.00     0.665 C 
ATOM     61  NH1 ARG d   1     -45.492  -5.785  26.904  0.00  0.00    -0.235 N 
ATOM     62  NH2 ARG d   1     -47.040  -5.103  28.418  0.00  0.00    -0.235 N 
ATOM     63  H12 ARG d   1     -45.146  -6.483  27.578  0.00  0.00     0.174 HD
ATOM     64  H13 ARG d   1     -45.056  -5.707  25.974  0.00  0.00     0.174 HD
ATOM     65  H14 ARG d   1     -47.822  -4.487  28.681  0.00  0.00     0.174 HD
ATOM     66  H15 ARG d   1     -46.690  -5.804  29.087  0.00  0.00     0.174 HD
ATOM     67  H11 ARG d   1     -47.722  -3.496  26.661  0.00  0.00     0.177 HD
ENDBRANCH  56  59
ENDBRANCH  53  56
ENDBRANCH  50  53
ENDBRANCH  44  50
ENDBRANCH  41  44
ENDBRANCH  38  40
BRANCH  38  68
ATOM     68  CB  ARG d   1     -39.879   0.134  27.301  0.00  0.00    -0.014 C 
ATOM     69  H18 ARG d   1     -39.226   0.306  28.169  0.00  0.00     0.043 H 
ATOM     70  H19 ARG d   1     -40.305   1.092  26.967  0.00  0.00     0.043 H 
BRANCH  68  71
ATOM     71  CG  ARG d   1     -39.039  -0.422  26.184  0.00  0.00    -0.056 A 
ATOM     72  CD1 ARG d   1     -37.933  -1.208  26.461  0.00  0.00    -0.074 A 
ATOM     73  CE1 ARG d   1     -37.154  -1.727  25.455  0.00  0.00    -0.051 A 
ATOM     74  H20 ARG d   1     -37.676  -1.418  27.493  0.00  0.00     0.084 H 
ATOM     75  CZ  ARG d   1     -37.465  -1.455  24.148  0.00  0.00     0.065 A 
ATOM     76  H22 ARG d   1     -36.298  -2.348  25.694  0.00  0.00     0.087 H 
ATOM     77  CE2 ARG d   1     -38.556  -0.667  23.836  0.00  0.00    -0.051 A 
ATOM     78  CD2 ARG d   1     -39.337  -0.153  24.855  0.00  0.00    -0.074 A 
ATOM     79  H23 ARG d   1     -38.798  -0.453  22.801  0.00  0.00     0.087 H 
ATOM     80  H21 ARG d   1     -40.192   0.468  24.613  0.00  0.00     0.084 H 
BRANCH  75  81
ATOM     81  OH  ARG d   1     -36.675  -1.978  23.155  0.00  0.00    -0.361 OA
ATOM     82  H24 ARG d   1     -35.976  -2.490  23.545  0.00  0.00     0.217 HD
ENDBRANCH  75  81
ENDBRANCH  68  71
ENDBRANCH  38  68
ENDBRANCH  35  38
ENDBRANCH  32  34
BRANCH  32  83
ATOM     83  CB  ARG d   1     -41.435   0.048  32.545  0.00  0.00    -0.030 C 
ATOM     84  H27 ARG d   1     -40.408  -0.337  32.637  0.00  0.00     0.043 H 
BRANCH  83  85
ATOM     85  CG1 ARG d   1     -42.414  -1.106  32.745  0.00  0.00    -0.063 C 
ATOM     86  H28 ARG d   1     -42.031  -1.984  32.205  0.00  0.00     0.033 H 
ATOM     87  H29 ARG d   1     -43.387  -0.813  32.325  0.00  0.00     0.033 H 
BRANCH  85  88
ATOM     88  CD1 ARG d   1     -42.618  -1.492  34.213  0.00  0.00    -0.076 C 
ATOM     89  H33 ARG d   1     -43.333  -2.326  34.277  0.00  0.00     0.027 H 
ATOM     90  H34 ARG d   1     -43.012  -0.628  34.768  0.00  0.00     0.027 H 
ATOM     91  H35 ARG d   1     -41.656  -1.800  34.648  0.00  0.00     0.027 H 
ENDBRANCH  85  88
ENDBRANCH  83  85
BRANCH  83  92
ATOM     92  CG2 ARG d   1     -41.670   1.095  33.604  0.00  0.00    -0.071 C 
ATOM     93  H30 ARG d   1     -40.965   1.927  33.460  0.00  0.00     0.028 H 
ATOM     94  H31 ARG d   1     -41.516   0.651  34.599  0.00  0.00     0.028 H 
ATOM     95  H32 ARG d   1     -42.701   1.471  33.526  0.00  0.00     0.028 H 
ENDBRANCH  83  92
ENDBRANCH  32  83
ENDBRANCH  29  32
ENDBRANCH  26  28
BRANCH  26  96
ATOM     96  CB  ARG d   1     -41.418   5.288  29.767  0.00  0.00     0.044 C 
ATOM     97  H38 ARG d   1     -41.735   4.905  28.786  0.00  0.00     0.077 H 
ATOM     98  H39 ARG d   1     -40.839   6.213  29.630  0.00  0.00     0.077 H 
BRANCH  96  99
ATOM     99  OG  ARG d   1     -42.565   5.566  30.553  0.00  0.00    -0.398 OA
ATOM    100  H40 ARG d   1     -43.068   4.768  30.671  0.00  0.00     0.209 HD
ENDBRANCH  96  99
ENDBRANCH  26  96
ENDBRANCH  23  26
ENDBRANCH  20  22
BRANCH  20 101
ATOM    101  CB  ARG d   1     -36.855   6.739  32.352  0.00  0.00    -0.014 C 
ATOM    102  H43 ARG d   1     -36.477   7.354  33.182  0.00  0.00     0.043 H 
ATOM    103  H44 ARG d   1     -36.969   7.364  31.454  0.00  0.00     0.043 H 
BRANCH 101 104
ATOM    104  CG  ARG d   1     -35.849   5.652  32.059  0.00  0.00    -0.056 A 
ATOM    105  CD1 ARG d   1     -35.689   4.579  32.927  0.00  0.00    -0.074 A 
ATOM    106  CE1 ARG d   1     -34.784   3.581  32.660  0.00  0.00    -0.051 A 
ATOM    107  H45 ARG d   1     -36.288   4.529  33.829  0.00  0.00     0.084 H 
ATOM    108  CZ  ARG d   1     -34.023   3.642  31.515  0.00  0.00     0.065 A 
ATOM    109  H47 ARG d   1     -34.670   2.750  33.347  0.00  0.00     0.087 H 
ATOM    110  CE2 ARG d   1     -34.164   4.695  30.639  0.00  0.00    -0.051 A 
ATOM    111  CD2 ARG d   1     -35.071   5.688  30.913  0.00  0.00    -0.074 A 
ATOM    112  H48 ARG d   1     -33.562   4.739  29.738  0.00  0.00     0.087 H 
ATOM    113  H46 ARG d   1     -35.181   6.515  30.221  0.00  0.00     0.084 H 
BRANCH 108 114
ATOM    114  OH  ARG d   1     -33.114   2.647  31.242  0.00  0.00    -0.361 OA
ATOM    115  H49 ARG d   1     -33.336   2.235  30.416  0.00  0.00     0.217 HD
ENDBRANCH 108 114
ENDBRANCH 101 104
ENDBRANCH  20 101
ENDBRANCH  17  20
ENDBRANCH  13  16
ENDBRANCH  10  13
ENDBRANCH   7   9
BRANCH   7 116
ATOM    116  CB  ARG d   1     -43.618   4.970  34.309  0.00  0.00    -0.049 C 
ATOM    117  H55 ARG d   1     -44.187   4.449  35.093  0.00  0.00     0.030 H 
ATOM    118  H56 ARG d   1     -42.793   4.328  33.967  0.00  0.00     0.030 H 
ATOM    119  H57 ARG d   1     -44.282   5.195  33.462  0.00  0.00     0.030 H 
ENDBRANCH   7 116
ENDBRANCH   4   7
ENDBRANCH   1   3
BRANCH   1 120
ATOM    120  C   ARG d   1     -39.802   6.557  37.821  0.00  0.00     0.241 C 
ATOM    121  O   ARG d   1     -39.705   6.467  39.049  0.00  0.00    -0.271 OA
ATOM    122  N   ARG d   1     -39.750   7.730  37.183  0.00  0.00    -0.346 N 
ATOM    123  H69 ARG d   1     -39.848   7.735  36.188  0.00  0.00     0.163 HD
BRANCH 122 124
ATOM    124  CA  ARG d   1     -39.558   8.999  37.866  0.00  0.00     0.089 C 
ATOM    125  H70 ARG d   1     -38.665   8.905  38.502  0.00  0.00     0.087 H 
BRANCH 124 126
ATOM    126  C   ARG d   1     -40.725   9.373  38.762  0.00  0.00     0.241 C 
ATOM    127  O   ARG d   1     -40.629  10.374  39.479  0.00  0.00    -0.271 OA
ATOM    128  N   ARG d   1     -41.760   8.568  38.744  0.00  0.00    -0.346 N 
ATOM    129  H82 ARG d   1     -41.808   7.821  38.081  0.00  0.00     0.163 HD
BRANCH 128 130
ATOM    130  CA  ARG d   1     -42.828   8.772  39.691  0.00  0.00     0.089 C 
ATOM    131  H83 ARG d   1     -42.953   9.857  39.826  0.00  0.00     0.087 H 
BRANCH 130 132
ATOM    132  C   ARG d   1     -42.476   8.171  41.053  0.00  0.00     0.241 C 
ATOM    133  O   ARG d   1     -43.205   8.327  41.990  0.00  0.00    -0.271 OA
ATOM    134  N   ARG d   1     -41.350   7.471  41.124  0.00  0.00    -0.346 N 
ATOM    135  H95 ARG d   1     -40.848   7.343  40.269  0.00  0.00     0.163 HD
BRANCH 134 136
ATOM    136  CA  ARG d   1     -40.777   6.877  42.302  0.00  0.00     0.097 C 
ATOM    137  H96 ARG d   1     -41.546   6.798  43.084  0.00  0.00     0.088 H 
BRANCH 136 138
ATOM    138  C   ARG d   1     -39.613   7.726  42.834  0.00  0.00     0.241 C 
ATOM    139  O   ARG d   1     -38.891   7.314  43.688  0.00  0.00    -0.271 OA
ATOM    140  N   ARG d   1     -39.456   8.909  42.286  0.00  0.00    -0.344 N 
ATOM    141 1H10 ARG d   1     -40.092   9.186  41.566  0.00  0.00     0.163 HD
BRANCH 140 142
ATOM    142  CA  ARG d   1     -38.407   9.835  42.671  0.00  0.00     0.113 C 
ATOM    143 2H10 ARG d   1     -37.432   9.357  42.497  0.00  0.00     0.091 H 
BRANCH 142 144
ATOM    144  C   ARG d   1     -38.515  10.157  44.156  0.00  0.00     0.243 C 
ATOM    145  O   ARG d   1     -39.620  10.231  44.678  0.00  0.00    -0.271 OA
ATOM    146  N   ARG d   1     -37.375  10.284  44.833  0.00  0.00    -0.346 N 
ATOM    147 8H10 ARG d   1     -36.510  10.158  44.348  0.00  0.00     0.163 HD
BRANCH 146 148
ATOM    148  CA  ARG d   1     -37.343  10.599  46.251  0.00  0.00     0.092 C 
ATOM    149 9H10 ARG d   1     -38.051   9.924  46.755  0.00  0.00     0.088 H 
BRANCH 148 150
ATOM    150  C   ARG d   1     -37.750  12.037  46.584  0.00  0.00     0.243 C 
ATOM    151  O   ARG d   1     -37.277  12.982  45.990  0.00  0.00    -0.271 OA
ATOM    152  N   ARG d   1     -38.608  12.176  47.575  0.00  0.00    -0.337 N 
ATOM    153  CA  ARG d   1     -39.145  13.460  48.023  0.00  0.00     0.091 C 
ATOM    154  CD  ARG d   1     -39.516  11.070  47.873  0.00  0.00    -0.001 C 
ATOM    155  CB  ARG d   1     -40.546  13.087  48.456  0.00  0.00    -0.036 C 
ATOM    156 9H11 ARG d   1     -39.160  14.171  47.184  0.00  0.00     0.087 H 
ATOM    157  CG  ARG d   1     -40.440  11.676  48.855  0.00  0.00    -0.048 C 
ATOM    158 0H12 ARG d   1     -41.255  13.204  47.623  0.00  0.00     0.036 H 
ATOM    159 1H12 ARG d   1     -40.870  13.708  49.304  0.00  0.00     0.036 H 
ATOM    160 2H12 ARG d   1     -41.424  11.187  48.813  0.00  0.00     0.035 H 
ATOM    161 3H12 ARG d   1     -40.032  11.591  49.873  0.00  0.00     0.035 H 
ATOM    162 4H12 ARG d   1     -38.975  10.217  48.309  0.00  0.00     0.064 H 
ATOM    163 5H12 ARG d   1     -40.053  10.742  46.971  0.00  0.00     0.064 H 
BRANCH 153 164
ATOM    164  C   ARG d   1     -38.432  14.115  49.204  0.00  0.00     0.241 C 
ATOM    165  O   ARG d   1     -37.447  13.592  49.694  0.00  0.00    -0.271 OA
ATOM    166  N   ARG d   1     -38.880  15.294  49.610  0.00  0.00    -0.344 N 
ATOM    167 6H12 ARG d   1     -39.605  15.762  49.104  0.00  0.00     0.163 HD
BRANCH 166 168
ATOM    168  CA  ARG d   1     -38.307  15.896  50.795  0.00  0.00     0.104 C 
ATOM    169 7H12 ARG d   1     -37.359  15.375  50.997  0.00  0.00     0.090 H 
BRANCH 168 170
ATOM    170  C   ARG d   1     -39.214  15.710  52.003  0.00  0.00     0.197 C 
ATOM    171  O   ARG d   1     -38.997  14.840  52.836  0.00  0.00    -0.646 OA
ATOM    172  OXT ARG d   1     -40.192  16.424  52.183  0.00  0.00    -0.646 OA
ENDBRANCH 168 170
BRANCH 168 173
ATOM    173  CB  ARG d   1     -37.995  17.362  50.635  0.00  0.00     0.003 C 
ATOM    174 8H12 ARG d   1     -38.923  17.936  50.498  0.00  0.00     0.052 H 
ATOM    175 9H12 ARG d   1     -37.335  17.519  49.769  0.00  0.00     0.052 H 
BRANCH 173 176
ATOM    176  SG  ARG d   1     -37.163  17.872  52.156  0.00  0.00    -0.180 SA
ATOM    177 0H13 ARG d   1     -36.932  18.852  52.099  0.00  0.00     0.101 HD
ENDBRANCH 173 176
ENDBRANCH 168 173
ENDBRANCH 166 168
ENDBRANCH 153 164
ENDBRANCH 148 150
BRANCH 148 178
ATOM    178  CB  ARG d   1     -35.955  10.351  46.813  0.00  0.00    -0.030 C 
ATOM    179 0H11 ARG d   1     -35.269  11.106  46.402  0.00  0.00     0.043 H 
BRANCH 178 180
ATOM    180  CG1 ARG d   1     -35.472   8.983  46.412  0.00  0.00    -0.063 C 
ATOM    181 1H11 ARG d   1     -35.389   8.951  45.316  0.00  0.00     0.033 H 
ATOM    182 2H11 ARG d   1     -36.213   8.241  46.745  0.00  0.00     0.033 H 
BRANCH 180 183
ATOM    183  CD1 ARG d   1     -34.136   8.619  47.001  0.00  0.00    -0.076 C 
ATOM    184 6H11 ARG d   1     -33.850   7.611  46.666  0.00  0.00     0.027 H 
ATOM    185 7H11 ARG d   1     -34.203   8.635  48.099  0.00  0.00     0.027 H 
ATOM    186 8H11 ARG d   1     -33.379   9.345  46.669  0.00  0.00     0.027 H 
ENDBRANCH 180 183
ENDBRANCH 178 180
BRANCH 178 187
ATOM    187  CG2 ARG d   1     -35.953  10.462  48.310  0.00  0.00    -0.071 C 
ATOM    188 3H11 ARG d   1     -36.306  11.461  48.604  0.00  0.00     0.028 H 
ATOM    189 4H11 ARG d   1     -34.931  10.308  48.688  0.00  0.00     0.028 H 
ATOM    190 5H11 ARG d   1     -36.620   9.698  48.735  0.00  0.00     0.028 H 
ENDBRANCH 178 187
ENDBRANCH 148 178
ENDBRANCH 146 148
ENDBRANCH 142 144
BRANCH 142 191
ATOM    191  CB  ARG d   1     -38.495  11.090  41.777  0.00  0.00     0.060 C 
ATOM    192 3H10 ARG d   1     -39.529  11.464  41.800  0.00  0.00     0.086 H 
BRANCH 191 193
ATOM    193  OG1 ARG d   1     -38.152  10.730  40.442  0.00  0.00    -0.393 OA
ATOM    194 4H10 ARG d   1     -38.757  10.068  40.128  0.00  0.00     0.210 HD
ENDBRANCH 191 193
BRANCH 191 195
ATOM    195  CG2 ARG d   1     -37.581  12.185  42.224  0.00  0.00    -0.050 C 
ATOM    196 5H10 ARG d   1     -37.688  13.049  41.551  0.00  0.00     0.031 H 
ATOM    197 6H10 ARG d   1     -36.541  11.828  42.200  0.00  0.00     0.031 H 
ATOM    198 7H10 ARG d   1     -37.842  12.485  43.250  0.00  0.00     0.031 H 
ENDBRANCH 191 195
ENDBRANCH 142 191
ENDBRANCH 140 142
ENDBRANCH 136 138
BRANCH 136 199
ATOM    199  CB  ARG d   1     -40.294   5.491  41.924  0.00  0.00     0.036 C 
ATOM    200  H97 ARG d   1     -39.448   5.595  41.229  0.00  0.00     0.051 H 
ATOM    201  H98 ARG d   1     -41.117   4.960  41.423  0.00  0.00     0.051 H 
BRANCH 199 202
ATOM    202  CG  ARG d   1     -39.846   4.672  43.096  0.00  0.00     0.217 C 
ATOM    203  OD1 ARG d   1     -38.914   3.940  42.978  0.00  0.00    -0.274 OA
ATOM    204  ND2 ARG d   1     -40.517   4.777  44.201  0.00  0.00    -0.370 N 
ATOM    205  H99 ARG d   1     -40.246   4.245  45.003  0.00  0.00     0.159 HD
ATOM    206 0H10 ARG d   1     -41.306   5.390  44.251  0.00  0.00     0.159 HD
ENDBRANCH 199 202
ENDBRANCH 136 199
ENDBRANCH 134 136
ENDBRANCH 130 132
BRANCH 130 207
ATOM    207  CB  ARG d   1     -44.131   8.224  39.170  0.00  0.00    -0.036 C 
ATOM    208  H84 ARG d   1     -44.823   8.102  40.017  0.00  0.00     0.036 H 
ATOM    209  H85 ARG d   1     -43.939   7.244  38.709  0.00  0.00     0.036 H 
BRANCH 207 210
ATOM    210  CG  ARG d   1     -44.786   9.123  38.137  0.00  0.00    -0.048 C 
ATOM    211  H86 ARG d   1     -45.735   8.665  37.822  0.00  0.00     0.035 H 
ATOM    212  H87 ARG d   1     -44.115   9.210  37.270  0.00  0.00     0.035 H 
BRANCH 210 213
ATOM    213  CD  ARG d   1     -45.071  10.511  38.671  0.00  0.00     0.009 C 
ATOM    214  H88 ARG d   1     -44.128  10.966  39.010  0.00  0.00     0.064 H 
ATOM    215  H89 ARG d   1     -45.766  10.433  39.520  0.00  0.00     0.064 H 
BRANCH 213 216
ATOM    216  NE  ARG d   1     -45.664  11.356  37.649  0.00  0.00    -0.227 N 
ATOM    217  CZ  ARG d   1     -45.046  12.351  37.029  0.00  0.00     0.665 C 
ATOM    218  NH1 ARG d   1     -43.802  12.658  37.334  0.00  0.00    -0.235 N 
ATOM    219  NH2 ARG d   1     -45.685  13.045  36.107  0.00  0.00    -0.235 N 
ATOM    220  H91 ARG d   1     -43.329  13.433  36.848  0.00  0.00     0.174 HD
ATOM    221  H92 ARG d   1     -43.303  12.123  38.059  0.00  0.00     0.174 HD
ATOM    222  H93 ARG d   1     -46.658  12.808  35.866  0.00  0.00     0.174 HD
ATOM    223  H94 ARG d   1     -45.211  13.824  35.628  0.00  0.00     0.174 HD
ATOM    224  H90 ARG d   1     -46.642  11.167  37.386  0.00  0.00     0.177 HD
ENDBRANCH 213 216
ENDBRANCH 210 213
ENDBRANCH 207 210
ENDBRANCH 130 207
ENDBRANCH 128 130
ENDBRANCH 124 126
BRANCH 124 225
ATOM    225  CB  ARG d   1     -39.305  10.109  36.842  0.00  0.00    -0.036 C 
ATOM    226  H71 ARG d   1     -39.344  11.078  37.360  0.00  0.00     0.036 H 
ATOM    227  H72 ARG d   1     -40.097  10.069  36.080  0.00  0.00     0.036 H 
BRANCH 225 228
ATOM    228  CG  ARG d   1     -37.958   9.987  36.146  0.00  0.00    -0.048 C 
ATOM    229  H73 ARG d   1     -37.990   9.118  35.472  0.00  0.00     0.035 H 
ATOM    230  H74 ARG d   1     -37.182   9.831  36.910  0.00  0.00     0.035 H 
BRANCH 228 231
ATOM    231  CD  ARG d   1     -37.593  11.217  35.331  0.00  0.00     0.009 C 
ATOM    232  H75 ARG d   1     -36.808  11.778  35.859  0.00  0.00     0.064 H 
ATOM    233  H76 ARG d   1     -38.485  11.851  35.219  0.00  0.00     0.064 H 
BRANCH 231 234
ATOM    234  NE  ARG d   1     -37.103  10.845  34.005  0.00  0.00    -0.227 N 
ATOM    235  CZ  ARG d   1     -37.824  10.957  32.896  0.00  0.00     0.665 C 
ATOM    236  NH1 ARG d   1     -39.054  11.443  32.964  0.00  0.00    -0.235 N 
ATOM    237  NH2 ARG d   1     -37.317  10.598  31.722  0.00  0.00    -0.235 N 
ATOM    238  H78 ARG d   1     -39.620  11.533  32.108  0.00  0.00     0.174 HD
ATOM    239  H79 ARG d   1     -39.444  11.731  33.873  0.00  0.00     0.174 HD
ATOM    240  H80 ARG d   1     -36.360  10.220  31.668  0.00  0.00     0.174 HD
ATOM    241  H81 ARG d   1     -37.880  10.698  30.866  0.00  0.00     0.174 HD
ATOM    242  H77 ARG d   1     -36.145  10.475  33.927  0.00  0.00     0.177 HD
ENDBRANCH 231 234
ENDBRANCH 228 231
ENDBRANCH 225 228
ENDBRANCH 124 225
ENDBRANCH 122 124
ENDBRANCH   1 120
BRANCH   1 243
ATOM    243  CB  ARG d   1     -38.701   4.771  36.439  0.00  0.00    -0.035 C 
ATOM    244  H60 ARG d   1     -37.908   5.061  37.144  0.00  0.00     0.037 H 
ATOM    245  H61 ARG d   1     -38.518   5.247  35.465  0.00  0.00     0.037 H 
BRANCH 243 246
ATOM    246  CG  ARG d   1     -38.622   3.260  36.243  0.00  0.00    -0.059 C 
ATOM    247  H62 ARG d   1     -39.273   2.982  35.401  0.00  0.00     0.038 H 
BRANCH 246 248
ATOM    248  CD1 ARG d   1     -37.205   2.824  35.911  0.00  0.00    -0.073 C 
ATOM    249  H63 ARG d   1     -37.179   1.733  35.776  0.00  0.00     0.028 H 
ATOM    250  H64 ARG d   1     -36.532   3.107  36.734  0.00  0.00     0.028 H 
ATOM    251  H65 ARG d   1     -36.878   3.316  34.983  0.00  0.00     0.028 H 
ENDBRANCH 246 248
BRANCH 246 252
ATOM    252  CD2 ARG d   1     -39.128   2.562  37.500  0.00  0.00    -0.073 C 
ATOM    253  H66 ARG d   1     -40.154   2.895  37.717  0.00  0.00     0.028 H 
ATOM    254  H67 ARG d   1     -38.474   2.814  38.348  0.00  0.00     0.028 H 
ATOM    255  H68 ARG d   1     -39.122   1.473  37.343  0.00  0.00     0.028 H 
ENDBRANCH 246 252
ENDBRANCH 243 246
ENDBRANCH   1 243
TORSDOF 69
