REMARK  13 active torsions:
REMARK  status: ('A' for Active; 'I' for Inactive)
REMARK    1  A    between atoms: C13_2  and  C16_26 
REMARK    2  A    between atoms: C16_26  and  C17_4 
REMARK    3  A    between atoms: C24_7  and  C25_8 
REMARK    4  A    between atoms: C24_7  and  C29_11 
REMARK    5  A    between atoms: C16_26  and  C24_7 
REMARK    6  A    between atoms: C25_8  and  C26_9 
REMARK    7  A    between atoms: C26_9  and  C27_10 
REMARK    8  A    between atoms: C27_10  and  O28_34 
REMARK    9  A    between atoms: C02_17  and  C01_16 
REMARK   10  A    between atoms: C02_17  and  C03_18 
REMARK   11  A    between atoms: N04_31  and  C02_17 
REMARK   12  A    between atoms: C10_23  and  N07_32 
REMARK   13  A    between atoms: C19_27  and  O23_33 
ROOT
ATOM      1  C16 MOL d   1      67.560  -2.709 147.564  0.00  0.00    -0.008 C 
ENDROOT
BRANCH   1   2
ATOM      2  C13 MOL d   1      68.105  -3.411 148.805  0.00  0.00    -0.024 A 
ATOM      3  C12 MOL d   1      68.188  -2.650 149.967  0.00  0.00    -0.070 A 
ATOM      4  C11 MOL d   1      68.723  -3.236 151.122  0.00  0.00    -0.057 A 
ATOM      5  H1  MOL d   1      67.845  -1.622 149.978  0.00  0.00     0.084 H 
ATOM      6  C10 MOL d   1      69.171  -4.562 151.092  0.00  0.00     0.030 A 
ATOM      7  H30 MOL d   1      68.790  -2.662 152.039  0.00  0.00     0.086 H 
ATOM      8  C15 MOL d   1      69.103  -5.332 149.923  0.00  0.00    -0.057 A 
ATOM      9  C14 MOL d   1      68.558  -4.744 148.776  0.00  0.00    -0.070 A 
ATOM     10  H31 MOL d   1      69.463  -6.354 149.908  0.00  0.00     0.086 H 
ATOM     11  H2  MOL d   1      68.484  -5.318 147.859  0.00  0.00     0.084 H 
BRANCH   6  12
ATOM     12  N07 MOL d   1      69.731  -5.157 152.352  0.00  0.00    -0.378 N 
ATOM     13  C06 MOL d   1      70.344  -4.278 153.322  0.00  0.00     0.018 C 
ATOM     14  C05 MOL d   1      70.778  -4.935 154.630  0.00  0.00     0.098 C 
ATOM     15  H24 MOL d   1      71.235  -3.830 152.857  0.00  0.00     0.066 H 
ATOM     16  H25 MOL d   1      69.620  -3.486 153.565  0.00  0.00     0.066 H 
ATOM     17  N04 MOL d   1      71.299  -6.224 154.581  0.00  0.00    -0.065 N 
ATOM     18  H22 MOL d   1      69.896  -4.965 155.287  0.00  0.00     0.078 H 
ATOM     19  H23 MOL d   1      71.548  -4.290 155.078  0.00  0.00     0.078 H 
ATOM     20  C09 MOL d   1      70.792  -7.044 153.587  0.00  0.00     0.098 C 
ATOM     21  H35 MOL d   1      72.266  -6.097 154.326  0.00  0.00     0.280 HD
ATOM     22  C08 MOL d   1      70.533  -6.352 152.248  0.00  0.00     0.018 C 
ATOM     23  H28 MOL d   1      71.511  -7.859 153.417  0.00  0.00     0.078 H 
ATOM     24  H29 MOL d   1      69.840  -7.464 153.944  0.00  0.00     0.078 H 
ATOM     25  H26 MOL d   1      70.013  -7.061 151.587  0.00  0.00     0.066 H 
ATOM     26  H27 MOL d   1      71.503  -6.081 151.805  0.00  0.00     0.066 H 
BRANCH  17  27
ATOM     27  C02 MOL d   1      71.333  -6.793 155.794  0.00  0.00     0.097 C 
ATOM     28  H18 MOL d   1      70.312  -6.771 156.204  0.00  0.00     0.083 H 
BRANCH  27  29
ATOM     29  C01 MOL d   1      72.275  -5.993 156.750  0.00  0.00    -0.050 C 
ATOM     30  H15 MOL d   1      72.289  -6.475 157.739  0.00  0.00     0.030 H 
ATOM     31  H16 MOL d   1      71.906  -4.962 156.850  0.00  0.00     0.030 H 
ATOM     32  H17 MOL d   1      73.293  -5.979 156.334  0.00  0.00     0.030 H 
ENDBRANCH  27  29
BRANCH  27  33
ATOM     33  C03 MOL d   1      71.813  -8.270 155.762  0.00  0.00    -0.050 C 
ATOM     34  H19 MOL d   1      71.162  -8.853 155.093  0.00  0.00     0.030 H 
ATOM     35  H20 MOL d   1      71.768  -8.692 156.777  0.00  0.00     0.030 H 
ATOM     36  H21 MOL d   1      72.849  -8.311 155.393  0.00  0.00     0.030 H 
ENDBRANCH  27  33
ENDBRANCH  17  27
ENDBRANCH   6  12
ENDBRANCH   1   2
BRANCH   1  37
ATOM     37  C17 MOL d   1      68.279  -1.312 147.251  0.00  0.00    -0.022 A 
ATOM     38  C18 MOL d   1      69.677  -1.235 147.135  0.00  0.00    -0.040 A 
ATOM     39  C19 MOL d   1      70.288   0.002 146.867  0.00  0.00     0.066 A 
ATOM     40  H3  MOL d   1      70.282  -2.127 147.252  0.00  0.00     0.089 H 
ATOM     41  C20 MOL d   1      69.538   1.167 146.727  0.00  0.00    -0.051 A 
ATOM     42  C21 MOL d   1      68.167   1.111 146.851  0.00  0.00    -0.080 A 
ATOM     43  H32 MOL d   1      70.029   2.111 146.522  0.00  0.00     0.087 H 
ATOM     44  C22 MOL d   1      67.548  -0.126 147.118  0.00  0.00    -0.072 A 
ATOM     45  H33 MOL d   1      67.570   2.010 146.744  0.00  0.00     0.083 H 
ATOM     46  H4  MOL d   1      66.470  -0.160 147.224  0.00  0.00     0.084 H 
BRANCH  39  47
ATOM     47  O23 MOL d   1      71.676   0.125 146.739  0.00  0.00    -0.361 OA
ATOM     48  H36 MOL d   1      72.080  -0.727 146.853  0.00  0.00     0.217 HD
ENDBRANCH  39  47
ENDBRANCH   1  37
BRANCH   1  49
ATOM     49  C24 MOL d   1      66.576  -3.233 146.798  0.00  0.00    -0.036 C 
BRANCH  49  50
ATOM     50  C25 MOL d   1      66.121  -2.363 145.565  0.00  0.00    -0.037 C 
ATOM     51  H5  MOL d   1      66.988  -2.275 144.893  0.00  0.00     0.040 H 
ATOM     52  H6  MOL d   1      65.854  -1.368 145.951  0.00  0.00     0.040 H 
BRANCH  50  53
ATOM     53  C26 MOL d   1      64.940  -2.850 144.717  0.00  0.00    -0.042 C 
ATOM     54  H7  MOL d   1      64.205  -3.369 145.350  0.00  0.00     0.036 H 
ATOM     55  H8  MOL d   1      65.292  -3.532 143.929  0.00  0.00     0.036 H 
BRANCH  53  56
ATOM     56  C27 MOL d   1      64.309  -1.586 144.088  0.00  0.00     0.017 C 
ATOM     57  H9  MOL d   1      64.992  -0.732 144.205  0.00  0.00     0.073 H 
ATOM     58  H10 MOL d   1      63.353  -1.362 144.584  0.00  0.00     0.073 H 
BRANCH  56  59
ATOM     59  O28 MOL d   1      64.088  -1.834 142.719  0.00  0.00    -0.401 OA
ATOM     60  H37 MOL d   1      64.916  -2.030 142.296  0.00  0.00     0.209 HD
ENDBRANCH  56  59
ENDBRANCH  53  56
ENDBRANCH  50  53
ENDBRANCH  49  50
BRANCH  49  61
ATOM     61  C29 MOL d   1      65.875  -4.602 147.122  0.00  0.00    -0.029 A 
ATOM     62  C30 MOL d   1      66.222  -5.814 146.412  0.00  0.00    -0.072 A 
ATOM     63  C31 MOL d   1      65.597  -7.094 146.690  0.00  0.00    -0.082 A 
ATOM     64  H11 MOL d   1      66.981  -5.764 145.640  0.00  0.00     0.084 H 
ATOM     65  C32 MOL d   1      64.647  -7.007 147.689  0.00  0.00    -0.083 A 
ATOM     66  H12 MOL d   1      65.847  -8.013 146.173  0.00  0.00     0.083 H 
ATOM     67  C33 MOL d   1      64.179  -5.956 148.464  0.00  0.00    -0.082 A 
ATOM     68  H13 MOL d   1      64.169  -7.954 147.913  0.00  0.00     0.083 H 
ATOM     69  C34 MOL d   1      64.846  -4.709 148.136  0.00  0.00    -0.072 A 
ATOM     70  H34 MOL d   1      63.410  -6.054 149.221  0.00  0.00     0.083 H 
ATOM     71  H14 MOL d   1      64.560  -3.814 148.676  0.00  0.00     0.084 H 
ENDBRANCH  49  61
ENDBRANCH   1  49
TORSDOF 13
