REMARK WARNING: 32 MAX_TORS EXCEEDED!!!
REMARK  71 active torsions:
REMARK  status: ('A' for Active; 'I' for Inactive)
REMARK    1  A    between atoms: N_1  and  CA_2 
REMARK    2  A    between atoms: CA_2  and  C_3 
REMARK       I    between atoms: C_3  and  N_5 
REMARK    3  A    between atoms: CA_6  and  C_7 
REMARK       I    between atoms: C_7  and  N_12 
REMARK    4  A    between atoms: N_12  and  CA_13 
REMARK    5  A    between atoms: CA_13  and  C_14 
REMARK    6  A    between atoms: CA_13  and  CB_16 
REMARK       I    between atoms: C_14  and  N_20 
REMARK    7  A    between atoms: CB_16  and  CG_17 
REMARK    8  A    between atoms: CG_17  and  CD1_18 
REMARK    9  A    between atoms: CG_17  and  CD2_19 
REMARK   10  A    between atoms: N_20  and  CA_21 
REMARK   11  A    between atoms: CA_21  and  C_22 
REMARK   12  A    between atoms: CA_21  and  CB_24 
REMARK       I    between atoms: C_22  and  N_26 
REMARK   13  A    between atoms: CB_24  and  OG_25 
REMARK   14  A    between atoms: N_26  and  CA_27 
REMARK   15  A    between atoms: CA_27  and  C_28 
REMARK   16  A    between atoms: CA_27  and  CB_30 
REMARK       I    between atoms: C_28  and  N_34 
REMARK   17  A    between atoms: CB_30  and  CG_31 
REMARK   18  A    between atoms: N_34  and  CA_35 
REMARK   19  A    between atoms: CA_35  and  C_36 
REMARK   20  A    between atoms: CA_35  and  CB_38 
REMARK       I    between atoms: C_36  and  N_42 
REMARK   21  A    between atoms: CB_38  and  CG_39 
REMARK       I    between atoms: CG_39  and  ND2_41 
REMARK   22  A    between atoms: N_42  and  CA_43 
REMARK   23  A    between atoms: CA_43  and  C_44 
REMARK   24  A    between atoms: CA_43  and  CB_46 
REMARK       I    between atoms: C_44  and  N_51 
REMARK   25  A    between atoms: CB_46  and  CG_47 
REMARK   26  A    between atoms: CG_47  and  CD_48 
REMARK   27  A    between atoms: N_51  and  CA_52 
REMARK   28  A    between atoms: CA_52  and  C_53 
REMARK   29  A    between atoms: CA_52  and  CB_55 
REMARK       I    between atoms: C_53  and  N_60 
REMARK   30  A    between atoms: CB_55  and  CG_56 
REMARK   31  A    between atoms: CG_56  and  CD_57 
REMARK   32  A    between atoms: N_60  and  CA_61 
REMARK   33  A    between atoms: CA_61  and  C_62 
REMARK   34  A    between atoms: CA_61  and  CB_64 
REMARK       I    between atoms: C_62  and  N_71 
REMARK   35  A    between atoms: CB_64  and  CG_65 
REMARK   36  A    between atoms: N_71  and  CA_72 
REMARK   37  A    between atoms: CA_72  and  C_73 
REMARK   38  A    between atoms: CA_72  and  CB_75 
REMARK       I    between atoms: C_73  and  N_80 
REMARK   39  A    between atoms: CB_75  and  CG_76 
REMARK   40  A    between atoms: CG_76  and  CD_77 
REMARK   41  A    between atoms: N_80  and  CA_81 
REMARK   42  A    between atoms: CA_81  and  C_82 
REMARK   43  A    between atoms: CA_81  and  CB_84 
REMARK       I    between atoms: C_82  and  N_88 
REMARK   44  A    between atoms: CB_84  and  CG_85 
REMARK       I    between atoms: CG_85  and  ND2_87 
REMARK   45  A    between atoms: N_88  and  CA_89 
REMARK   46  A    between atoms: CA_89  and  C_90 
REMARK   47  A    between atoms: CA_89  and  CB_92 
REMARK       I    between atoms: C_90  and  N_95 
REMARK   48  A    between atoms: CB_92  and  CG1_93 
REMARK   49  A    between atoms: CB_92  and  CG2_94 
REMARK   50  A    between atoms: N_95  and  CA_96 
REMARK   51  A    between atoms: CA_96  and  C_97 
REMARK   52  A    between atoms: CA_96  and  CB_99 
REMARK       I    between atoms: C_97  and  N_102 
REMARK   53  A    between atoms: CB_99  and  CG1_100 
REMARK   54  A    between atoms: CB_99  and  CG2_101 
REMARK   55  A    between atoms: N_102  and  CA_103 
REMARK   56  A    between atoms: CA_103  and  C_104 
REMARK   57  A    between atoms: CA_103  and  CB_106 
REMARK       I    between atoms: C_104  and  N_111 
REMARK   58  A    between atoms: CB_106  and  CG_107 
REMARK   59  A    between atoms: CG_107  and  CD_108 
REMARK   60  A    between atoms: CD_108  and  CE_109 
REMARK   61  A    between atoms: CE_109  and  NZ_110 
REMARK   62  A    between atoms: N_111  and  CA_112 
REMARK   63  A    between atoms: CA_112  and  C_113 
REMARK   64  A    between atoms: CA_112  and  CB_115 
REMARK       I    between atoms: C_113  and  N_119 
REMARK   65  A    between atoms: CB_115  and  CG_116 
REMARK       I    between atoms: CG_116  and  ND2_118 
REMARK   66  A    between atoms: N_119  and  CA_120 
REMARK   67  A    between atoms: CA_120  and  C_121 
REMARK       I    between atoms: C_121  and  N_123 
REMARK   68  A    between atoms: N_123  and  CA_124 
REMARK   69  A    between atoms: CA_124  and  C_125 
REMARK   70  A    between atoms: CA_124  and  CB_127 
REMARK   71  A    between atoms: CB_127  and  CG_128 
ROOT
ATOM      1  CA  PHE d   1     -55.859  23.757  -4.964  0.00  0.00     0.093 C 
ATOM      2  H52 PHE d   1     -56.673  23.085  -4.653  0.00  0.00     0.088 H 
ENDROOT
BRANCH   1   3
ATOM      3  N   PHE d   1     -55.208  24.268  -3.767  0.00  0.00    -0.346 N 
ATOM      4  C   GLU d   1     -54.709  23.409  -2.878  0.00  0.00     0.241 C 
ATOM      5  O   GLU d   1     -54.863  22.188  -2.989  0.00  0.00    -0.271 OA
ATOM      6  H51 PHE d   1     -55.136  25.253  -3.613  0.00  0.00     0.163 HD
BRANCH   4   7
ATOM      7  CA  GLU d   1     -53.913  23.978  -1.712  0.00  0.00     0.090 C 
ATOM      8  H46 GLU d   1     -53.161  23.229  -1.423  0.00  0.00     0.087 H 
BRANCH   7   9
ATOM      9  N   GLU d   1     -53.203  25.193  -2.098  0.00  0.00    -0.346 N 
ATOM     10  C   GLU d   1     -52.153  25.098  -2.918  0.00  0.00     0.241 C 
ATOM     11  O   GLU d   1     -51.813  24.021  -3.424  0.00  0.00    -0.271 OA
ATOM     12  H45 GLU d   1     -53.498  26.084  -1.754  0.00  0.00     0.163 HD
BRANCH  10  13
ATOM     13  CA  GLU d   1     -51.383  26.373  -3.244  0.00  0.00     0.090 C 
ATOM     14  H40 GLU d   1     -50.761  26.170  -4.128  0.00  0.00     0.087 H 
BRANCH  13  15
ATOM     15  N   GLU d   1     -52.278  27.479  -3.571  0.00  0.00    -0.346 N 
ATOM     16  C   ASN d   1     -52.985  27.454  -4.704  0.00  0.00     0.241 C 
ATOM     17  O   ASN d   1     -53.023  26.456  -5.434  0.00  0.00    -0.271 OA
ATOM     18  H39 GLU d   1     -52.362  28.256  -2.947  0.00  0.00     0.163 HD
BRANCH  16  19
ATOM     19  CA  ASN d   1     -53.761  28.714  -5.072  0.00  0.00     0.097 C 
ATOM     20  H34 ASN d   1     -54.495  28.452  -5.849  0.00  0.00     0.088 H 
BRANCH  19  21
ATOM     21  N   ASN d   1     -54.485  29.254  -3.923  0.00  0.00    -0.346 N 
ATOM     22  C   ASP d   1     -55.395  28.512  -3.287  0.00  0.00     0.241 C 
ATOM     23  O   ASP d   1     -55.697  27.372  -3.658  0.00  0.00    -0.271 OA
ATOM     24  H33 ASN d   1     -54.298  30.185  -3.611  0.00  0.00     0.163 HD
BRANCH  22  25
ATOM     25  CA  ASP d   1     -56.104  29.107  -2.075  0.00  0.00     0.098 C 
ATOM     26  H30 ASP d   1     -55.851  28.489  -1.201  0.00  0.00     0.088 H 
BRANCH  25  27
ATOM     27  N   ASP d   1     -55.705  30.476  -1.773  0.00  0.00    -0.345 N 
ATOM     28  C   SER d   1     -54.788  30.781  -0.855  0.00  0.00     0.243 C 
ATOM     29  O   SER d   1     -54.152  29.914  -0.245  0.00  0.00    -0.271 OA
ATOM     30  H29 ASP d   1     -56.140  31.221  -2.278  0.00  0.00     0.163 HD
BRANCH  28  31
ATOM     31  CA  SER d   1     -54.523  32.261  -0.586  0.00  0.00     0.109 C 
ATOM     32  H25 SER d   1     -53.483  32.365  -0.243  0.00  0.00     0.090 H 
BRANCH  31  33
ATOM     33  N   SER d   1     -54.690  33.068  -1.790  0.00  0.00    -0.344 N 
ATOM     34  C   LEU d   1     -53.974  32.823  -2.892  0.00  0.00     0.241 C 
ATOM     35  O   LEU d   1     -53.131  31.919  -2.957  0.00  0.00    -0.271 OA
ATOM     36  H24 SER d   1     -55.352  33.818  -1.791  0.00  0.00     0.163 HD
BRANCH  34  37
ATOM     37  CA  LEU d   1     -54.222  33.704  -4.110  0.00  0.00     0.089 C 
ATOM     38  H14 LEU d   1     -54.224  33.062  -5.003  0.00  0.00     0.087 H 
BRANCH  37  39
ATOM     39  N   LEU d   1     -55.511  34.391  -4.045  0.00  0.00    -0.346 N 
ATOM     40  C   PRO d   1     -56.646  33.701  -4.215  0.00  0.00     0.241 C 
ATOM     41  O   PRO d   1     -56.641  32.491  -4.481  0.00  0.00    -0.271 OA
ATOM     42  H13 LEU d   1     -55.545  35.376  -3.874  0.00  0.00     0.163 HD
BRANCH  40  43
ATOM     43  CA  PRO d   1     -57.992  34.413  -4.079  0.00  0.00     0.091 C 
ATOM     44  N   PRO d   1     -57.907  35.732  -3.439  0.00  0.00    -0.337 N 
ATOM     45  C   GLY d   1     -57.361  35.857  -2.226  0.00  0.00     0.246 C 
ATOM     46  CD  PRO d   1     -58.868  36.677  -4.011  0.00  0.00    -0.001 C 
ATOM     47  O   GLY d   1     -57.131  34.894  -1.491  0.00  0.00    -0.272 OA
ATOM     48  CG  PRO d   1     -59.279  36.044  -5.316  0.00  0.00    -0.048 C 
ATOM     49  H11 PRO d   1     -58.397  37.656  -4.184  0.00  0.00     0.064 H 
ATOM     50  H12 PRO d   1     -59.736  36.800  -3.347  0.00  0.00     0.064 H 
ATOM     51  CB  PRO d   1     -58.590  34.723  -5.460  0.00  0.00    -0.036 C 
ATOM     52  H9  PRO d   1     -60.369  35.894  -5.325  0.00  0.00     0.035 H 
ATOM     53  H10 PRO d   1     -58.993  36.701  -6.150  0.00  0.00     0.035 H 
ATOM     54  H7  PRO d   1     -59.311  33.944  -5.749  0.00  0.00     0.036 H 
ATOM     55  H8  PRO d   1     -57.794  34.786  -6.217  0.00  0.00     0.036 H 
ATOM     56  H6  PRO d   1     -58.670  33.764  -3.505  0.00  0.00     0.087 H 
BRANCH  45  57
ATOM     57  CA  GLY d   1     -57.048  37.260  -1.757  0.00  0.00     0.152 C 
ATOM     58  H4  GLY d   1     -57.812  37.949  -2.148  0.00  0.00     0.090 H 
ATOM     59  H5  GLY d   1     -57.062  37.283  -0.657  0.00  0.00     0.090 H 
BRANCH  57  60
ATOM     60  N   GLY d   1     -55.743  37.685  -2.224  0.00  0.00    -0.071 N 
ATOM     61  H1  GLY d   1     -55.558  38.621  -1.899  0.00  0.00     0.274 HD
ATOM     62  H2  GLY d   1     -55.725  37.670  -3.232  0.00  0.00     0.274 HD
ATOM     63  H3  GLY d   1     -55.038  37.060  -1.866  0.00  0.00     0.274 HD
ENDBRANCH  57  60
ENDBRANCH  45  57
ENDBRANCH  40  43
ENDBRANCH  37  39
BRANCH  37  64
ATOM     64  CB  LEU d   1     -53.085  34.716  -4.240  0.00  0.00    -0.035 C 
ATOM     65  H15 LEU d   1     -52.139  34.178  -4.082  0.00  0.00     0.037 H 
ATOM     66  H16 LEU d   1     -53.215  35.469  -3.449  0.00  0.00     0.037 H 
BRANCH  64  67
ATOM     67  CG  LEU d   1     -52.982  35.456  -5.575  0.00  0.00    -0.059 C 
ATOM     68  H17 LEU d   1     -53.578  36.377  -5.495  0.00  0.00     0.038 H 
BRANCH  67  69
ATOM     69  CD1 LEU d   1     -51.544  35.852  -5.865  0.00  0.00    -0.073 C 
ATOM     70  H18 LEU d   1     -51.497  36.381  -6.828  0.00  0.00     0.028 H 
ATOM     71  H19 LEU d   1     -50.917  34.949  -5.912  0.00  0.00     0.028 H 
ATOM     72  H20 LEU d   1     -51.177  36.512  -5.065  0.00  0.00     0.028 H 
ENDBRANCH  67  69
BRANCH  67  73
ATOM     73  CD2 LEU d   1     -53.553  34.631  -6.719  0.00  0.00    -0.073 C 
ATOM     74  H21 LEU d   1     -54.593  34.355  -6.489  0.00  0.00     0.028 H 
ATOM     75  H22 LEU d   1     -52.952  33.719  -6.849  0.00  0.00     0.028 H 
ATOM     76  H23 LEU d   1     -53.527  35.222  -7.646  0.00  0.00     0.028 H 
ENDBRANCH  67  73
ENDBRANCH  64  67
ENDBRANCH  37  64
ENDBRANCH  34  37
ENDBRANCH  31  33
BRANCH  31  77
ATOM     77  CB  SER d   1     -55.453  32.782   0.514  0.00  0.00     0.044 C 
ATOM     78  H26 SER d   1     -54.982  33.647   1.004  0.00  0.00     0.077 H 
ATOM     79  H27 SER d   1     -55.617  31.985   1.254  0.00  0.00     0.077 H 
BRANCH  77  80
ATOM     80  OG  SER d   1     -56.706  33.179  -0.029  0.00  0.00    -0.398 OA
ATOM     81  H28 SER d   1     -56.569  33.870  -0.667  0.00  0.00     0.209 HD
ENDBRANCH  77  80
ENDBRANCH  31  77
ENDBRANCH  28  31
ENDBRANCH  25  27
BRANCH  25  82
ATOM     82  CB  ASP d   1     -57.620  29.026  -2.304  0.00  0.00     0.043 C 
ATOM     83  H31 ASP d   1     -57.903  27.968  -2.407  0.00  0.00     0.052 H 
ATOM     84  H32 ASP d   1     -57.863  29.562  -3.233  0.00  0.00     0.052 H 
BRANCH  82  85
ATOM     85  CG  ASP d   1     -58.426  29.634  -1.170  0.00  0.00     0.175 C 
ATOM     86  OD1 ASP d   1     -58.344  29.120  -0.025  0.00  0.00    -0.648 OA
ATOM     87  OD2 ASP d   1     -59.181  30.593  -1.437  0.00  0.00    -0.648 OA
ENDBRANCH  82  85
ENDBRANCH  25  82
ENDBRANCH  22  25
ENDBRANCH  19  21
BRANCH  19  88
ATOM     88  CB  ASN d   1     -52.810  29.769  -5.638  0.00  0.00     0.036 C 
ATOM     89  H35 ASN d   1     -51.978  29.257  -6.144  0.00  0.00     0.051 H 
ATOM     90  H36 ASN d   1     -52.418  30.371  -4.805  0.00  0.00     0.051 H 
BRANCH  88  91
ATOM     91  CG  ASN d   1     -53.481  30.696  -6.630  0.00  0.00     0.217 C 
ATOM     92  OD1 ASN d   1     -54.654  31.047  -6.487  0.00  0.00    -0.274 OA
ATOM     93  ND2 ASN d   1     -52.739  31.082  -7.660  0.00  0.00    -0.370 N 
ATOM     94  H37 ASN d   1     -53.123  31.694  -8.351  0.00  0.00     0.159 HD
ATOM     95  H38 ASN d   1     -51.796  30.761  -7.745  0.00  0.00     0.159 HD
ENDBRANCH  88  91
ENDBRANCH  19  88
ENDBRANCH  16  19
ENDBRANCH  13  15
BRANCH  13  96
ATOM     96  CB  GLU d   1     -50.455  26.768  -2.093  0.00  0.00    -0.029 C 
ATOM     97  H41 GLU d   1     -50.179  25.857  -1.541  0.00  0.00     0.037 H 
ATOM     98  H42 GLU d   1     -51.001  27.450  -1.425  0.00  0.00     0.037 H 
BRANCH  96  99
ATOM     99  CG  GLU d   1     -49.176  27.461  -2.547  0.00  0.00     0.018 C 
ATOM    100  H43 GLU d   1     -48.775  28.048  -1.708  0.00  0.00     0.049 H 
ATOM    101  H44 GLU d   1     -49.416  28.134  -3.384  0.00  0.00     0.049 H 
BRANCH  99 102
ATOM    102  CD  GLU d   1     -48.116  26.475  -3.003  0.00  0.00     0.172 C 
ATOM    103  OE1 GLU d   1     -47.933  25.446  -2.318  0.00  0.00    -0.648 OA
ATOM    104  OE2 GLU d   1     -47.476  26.720  -4.048  0.00  0.00    -0.648 OA
ENDBRANCH  99 102
ENDBRANCH  96  99
ENDBRANCH  13  96
ENDBRANCH  10  13
ENDBRANCH   7   9
BRANCH   7 105
ATOM    105  CB  GLU d   1     -54.814  24.226  -0.499  0.00  0.00    -0.029 C 
ATOM    106  H47 GLU d   1     -54.256  24.869   0.198  0.00  0.00     0.037 H 
ATOM    107  H48 GLU d   1     -55.004  23.251  -0.026  0.00  0.00     0.037 H 
BRANCH 105 108
ATOM    108  CG  GLU d   1     -56.160  24.881  -0.739  0.00  0.00     0.018 C 
ATOM    109  H49 GLU d   1     -56.885  24.111  -1.040  0.00  0.00     0.049 H 
ATOM    110  H50 GLU d   1     -56.059  25.625  -1.543  0.00  0.00     0.049 H 
BRANCH 108 111
ATOM    111  CD  GLU d   1     -56.665  25.574   0.518  0.00  0.00     0.172 C 
ATOM    112  OE1 GLU d   1     -57.424  24.937   1.283  0.00  0.00    -0.648 OA
ATOM    113  OE2 GLU d   1     -56.297  26.748   0.748  0.00  0.00    -0.648 OA
ENDBRANCH 108 111
ENDBRANCH 105 108
ENDBRANCH   7 105
ENDBRANCH   4   7
ENDBRANCH   1   3
BRANCH   1 114
ATOM    114  C   PHE d   1     -54.878  22.962  -5.812  0.00  0.00     0.241 C 
ATOM    115  O   PHE d   1     -55.180  21.848  -6.254  0.00  0.00    -0.271 OA
ATOM    116  N   GLU d   1     -53.692  23.522  -6.047  0.00  0.00    -0.346 N 
ATOM    117  H60 GLU d   1     -53.471  24.411  -5.645  0.00  0.00     0.163 HD
BRANCH 116 118
ATOM    118  CA  GLU d   1     -52.717  22.841  -6.889  0.00  0.00     0.090 C 
ATOM    119  H61 GLU d   1     -53.200  22.605  -7.849  0.00  0.00     0.087 H 
BRANCH 118 120
ATOM    120  C   GLU d   1     -52.252  21.530  -6.264  0.00  0.00     0.241 C 
ATOM    121  O   GLU d   1     -52.019  20.554  -6.984  0.00  0.00    -0.271 OA
ATOM    122  N   ASN d   1     -52.129  21.477  -4.935  0.00  0.00    -0.346 N 
ATOM    123  H66 ASN d   1     -52.324  22.288  -4.383  0.00  0.00     0.163 HD
BRANCH 122 124
ATOM    124  CA  ASN d   1     -51.711  20.237  -4.288  0.00  0.00     0.097 C 
ATOM    125  H67 ASN d   1     -50.851  19.839  -4.846  0.00  0.00     0.088 H 
BRANCH 124 126
ATOM    126  C   ASN d   1     -52.812  19.188  -4.307  0.00  0.00     0.241 C 
ATOM    127  O   ASN d   1     -52.518  17.988  -4.361  0.00  0.00    -0.271 OA
ATOM    128  N   VAL d   1     -54.076  19.611  -4.242  0.00  0.00    -0.346 N 
ATOM    129  H72 VAL d   1     -54.269  20.581  -4.096  0.00  0.00     0.163 HD
BRANCH 128 130
ATOM    130  CA  VAL d   1     -55.177  18.665  -4.383  0.00  0.00     0.092 C 
ATOM    131  H73 VAL d   1     -55.000  17.824  -3.697  0.00  0.00     0.088 H 
BRANCH 130 132
ATOM    132  C   VAL d   1     -55.219  18.116  -5.802  0.00  0.00     0.241 C 
ATOM    133  O   VAL d   1     -55.472  16.925  -6.015  0.00  0.00    -0.271 OA
ATOM    134  N   VAL d   1     -54.971  18.971  -6.794  0.00  0.00    -0.346 N 
ATOM    135  H81 VAL d   1     -54.781  19.930  -6.586  0.00  0.00     0.163 HD
BRANCH 134 136
ATOM    136  CA  VAL d   1     -54.974  18.518  -8.182  0.00  0.00     0.092 C 
ATOM    137  H82 VAL d   1     -55.946  18.048  -8.390  0.00  0.00     0.088 H 
BRANCH 136 138
ATOM    138  C   VAL d   1     -53.888  17.473  -8.398  0.00  0.00     0.241 C 
ATOM    139  O   VAL d   1     -54.129  16.411  -8.984  0.00  0.00    -0.271 OA
ATOM    140  N   LYS d   1     -52.681  17.743  -7.901  0.00  0.00    -0.346 N 
ATOM    141  H90 LYS d   1     -52.556  18.517  -7.281  0.00  0.00     0.163 HD
BRANCH 140 142
ATOM    142  CA  LYS d   1     -51.543  16.906  -8.264  0.00  0.00     0.089 C 
ATOM    143  H91 LYS d   1     -51.724  16.523  -9.279  0.00  0.00     0.087 H 
BRANCH 142 144
ATOM    144  C   LYS d   1     -51.377  15.703  -7.342  0.00  0.00     0.241 C 
ATOM    145  O   LYS d   1     -50.949  14.635  -7.795  0.00  0.00    -0.271 OA
ATOM    146  N   ASN d   1     -51.713  15.846  -6.058  0.00  0.00    -0.346 N 
ATOM    147 3H10 ASN d   1     -52.116  16.709  -5.752  0.00  0.00     0.163 HD
BRANCH 146 148
ATOM    148  CA  ASN d   1     -51.507  14.776  -5.093  0.00  0.00     0.097 C 
ATOM    149 4H10 ASN d   1     -51.142  13.900  -5.650  0.00  0.00     0.088 H 
BRANCH 148 150
ATOM    150  C   ASN d   1     -52.764  14.350  -4.348  0.00  0.00     0.241 C 
ATOM    151  O   ASN d   1     -52.693  13.408  -3.548  0.00  0.00    -0.271 OA
ATOM    152  N   GLY d   1     -53.905  14.997  -4.585  0.00  0.00    -0.351 N 
ATOM    153 9H10 GLY d   1     -53.905  15.775  -5.213  0.00  0.00     0.163 HD
BRANCH 152 154
ATOM    154  CA  GLY d   1     -55.146  14.597  -3.951  0.00  0.00     0.069 C 
ATOM    155 0H11 GLY d   1     -55.195  13.498  -3.963  0.00  0.00     0.078 H 
ATOM    156 1H11 GLY d   1     -55.978  15.007  -4.543  0.00  0.00     0.078 H 
BRANCH 154 157
ATOM    157  C   GLY d   1     -55.318  15.056  -2.524  0.00  0.00     0.236 C 
ATOM    158  O   GLY d   1     -56.260  14.608  -1.858  0.00  0.00    -0.272 OA
ATOM    159  N   HIS d   1     -54.439  15.926  -2.034  0.00  0.00    -0.345 N 
ATOM    160 2H11 HIS d   1     -53.684  16.221  -2.619  0.00  0.00     0.163 HD
BRANCH 159 161
ATOM    161  CA  HIS d   1     -54.525  16.470  -0.683  0.00  0.00     0.101 C 
ATOM    162 3H11 HIS d   1     -55.525  16.909  -0.549  0.00  0.00     0.090 H 
BRANCH 161 163
ATOM    163  C   HIS d   1     -53.483  17.569  -0.486  0.00  0.00     0.197 C 
ATOM    164  O   HIS d   1     -53.796  18.661  -0.013  0.00  0.00    -0.646 OA
ATOM    165  OXT HIS d   1     -52.306  17.388  -0.796  0.00  0.00    -0.646 OA
ENDBRANCH 161 163
BRANCH 161 166
ATOM    166  CB  HIS d   1     -54.336  15.369   0.366  0.00  0.00     0.005 C 
ATOM    167 4H11 HIS d   1     -55.173  14.660   0.280  0.00  0.00     0.046 H 
ATOM    168 5H11 HIS d   1     -54.350  15.834   1.363  0.00  0.00     0.046 H 
BRANCH 166 169
ATOM    169  CG  HIS d   1     -53.056  14.608   0.218  0.00  0.00     0.053 A 
ATOM    170  ND1 HIS d   1     -51.846  15.090   0.670  0.00  0.00    -0.247 NA
ATOM    171  CE1 HIS d   1     -50.897  14.211   0.400  0.00  0.00     0.064 A 
ATOM    172  NE2 HIS d   1     -51.447  13.178  -0.212  0.00  0.00    -0.359 N 
ATOM    173 7H11 HIS d   1     -49.841  14.320   0.641  0.00  0.00     0.143 H 
ATOM    174  CD2 HIS d   1     -52.796  13.402  -0.339  0.00  0.00     0.002 A 
ATOM    175 8H11 HIS d   1     -50.946  12.340  -0.541  0.00  0.00     0.166 HD
ATOM    176 6H11 HIS d   1     -53.521  12.734  -0.801  0.00  0.00     0.114 H 
ENDBRANCH 166 169
ENDBRANCH 161 166
ENDBRANCH 159 161
ENDBRANCH 154 157
ENDBRANCH 152 154
ENDBRANCH 148 150
BRANCH 148 177
ATOM    177  CB  ASN d   1     -50.430  15.184  -4.077  0.00  0.00     0.036 C 
ATOM    178 5H10 ASN d   1     -50.187  14.313  -3.450  0.00  0.00     0.051 H 
ATOM    179 6H10 ASN d   1     -50.828  15.991  -3.445  0.00  0.00     0.051 H 
BRANCH 177 180
ATOM    180  CG  ASN d   1     -49.156  15.673  -4.750  0.00  0.00     0.217 C 
ATOM    181  OD1 ASN d   1     -48.692  16.784  -4.499  0.00  0.00    -0.274 OA
ATOM    182  ND2 ASN d   1     -48.603  14.848  -5.640  0.00  0.00    -0.370 N 
ATOM    183 7H10 ASN d   1     -47.764  15.114  -6.115  0.00  0.00     0.159 HD
ATOM    184 8H10 ASN d   1     -49.027  13.963  -5.832  0.00  0.00     0.159 HD
ENDBRANCH 177 180
ENDBRANCH 148 177
ENDBRANCH 146 148
ENDBRANCH 142 144
BRANCH 142 185
ATOM    185  CB  LYS d   1     -50.261  17.737  -8.295  0.00  0.00    -0.038 C 
ATOM    186  H92 LYS d   1     -49.466  17.140  -8.766  0.00  0.00     0.036 H 
ATOM    187  H93 LYS d   1     -49.974  17.980  -7.261  0.00  0.00     0.036 H 
BRANCH 185 188
ATOM    188  CG  LYS d   1     -50.420  19.025  -9.067  0.00  0.00    -0.061 C 
ATOM    189  H94 LYS d   1     -50.512  19.856  -8.353  0.00  0.00     0.033 H 
ATOM    190  H95 LYS d   1     -51.334  18.962  -9.676  0.00  0.00     0.033 H 
BRANCH 188 191
ATOM    191  CD  LYS d   1     -49.241  19.298  -9.984  0.00  0.00    -0.043 C 
ATOM    192  H96 LYS d   1     -49.575  19.937 -10.814  0.00  0.00     0.035 H 
ATOM    193  H97 LYS d   1     -48.871  18.342 -10.383  0.00  0.00     0.035 H 
BRANCH 191 194
ATOM    194  CE  LYS d   1     -48.117  19.992  -9.254  0.00  0.00     0.080 C 
ATOM    195  H98 LYS d   1     -47.364  19.247  -8.958  0.00  0.00     0.075 H 
ATOM    196  H99 LYS d   1     -48.519  20.483  -8.356  0.00  0.00     0.075 H 
BRANCH 194 197
ATOM    197  NZ  LYS d   1     -47.473  21.019 -10.127  0.00  0.00    -0.079 N 
ATOM    198 0H10 LYS d   1     -46.727  21.470  -9.621  0.00  0.00     0.274 HD
ATOM    199 1H10 LYS d   1     -48.158  21.707 -10.398  0.00  0.00     0.274 HD
ATOM    200 2H10 LYS d   1     -47.100  20.574 -10.951  0.00  0.00     0.274 HD
ENDBRANCH 194 197
ENDBRANCH 191 194
ENDBRANCH 188 191
ENDBRANCH 185 188
ENDBRANCH 142 185
ENDBRANCH 140 142
ENDBRANCH 136 138
BRANCH 136 201
ATOM    201  CB  VAL d   1     -54.809  19.714  -9.137  0.00  0.00    -0.033 C 
ATOM    202  H83 VAL d   1     -53.928  20.294  -8.825  0.00  0.00     0.042 H 
BRANCH 201 203
ATOM    203  CG1 VAL d   1     -54.597  19.233 -10.554  0.00  0.00    -0.071 C 
ATOM    204  H84 VAL d   1     -54.481  20.099 -11.222  0.00  0.00     0.028 H 
ATOM    205  H85 VAL d   1     -55.465  18.638 -10.873  0.00  0.00     0.028 H 
ATOM    206  H86 VAL d   1     -53.690  18.612 -10.599  0.00  0.00     0.028 H 
ENDBRANCH 201 203
BRANCH 201 207
ATOM    207  CG2 VAL d   1     -56.036  20.613  -9.072  0.00  0.00    -0.071 C 
ATOM    208  H87 VAL d   1     -56.183  20.959  -8.038  0.00  0.00     0.028 H 
ATOM    209  H88 VAL d   1     -56.922  20.049  -9.399  0.00  0.00     0.028 H 
ATOM    210  H89 VAL d   1     -55.890  21.481  -9.731  0.00  0.00     0.028 H 
ENDBRANCH 201 207
ENDBRANCH 136 201
ENDBRANCH 134 136
ENDBRANCH 130 132
BRANCH 130 211
ATOM    211  CB  VAL d   1     -56.510  19.329  -3.990  0.00  0.00    -0.033 C 
ATOM    212  H74 VAL d   1     -56.575  20.308  -4.487  0.00  0.00     0.042 H 
BRANCH 211 213
ATOM    213  CG1 VAL d   1     -57.678  18.475  -4.442  0.00  0.00    -0.071 C 
ATOM    214  H75 VAL d   1     -58.621  18.962  -4.154  0.00  0.00     0.028 H 
ATOM    215  H76 VAL d   1     -57.616  17.486  -3.965  0.00  0.00     0.028 H 
ATOM    216  H77 VAL d   1     -57.645  18.357  -5.535  0.00  0.00     0.028 H 
ENDBRANCH 211 213
BRANCH 211 217
ATOM    217  CG2 VAL d   1     -56.574  19.540  -2.493  0.00  0.00    -0.071 C 
ATOM    218  H78 VAL d   1     -55.724  20.160  -2.174  0.00  0.00     0.028 H 
ATOM    219  H79 VAL d   1     -56.530  18.566  -1.983  0.00  0.00     0.028 H 
ATOM    220  H80 VAL d   1     -57.515  20.047  -2.234  0.00  0.00     0.028 H 
ENDBRANCH 211 217
ENDBRANCH 130 211
ENDBRANCH 128 130
ENDBRANCH 124 126
BRANCH 124 221
ATOM    221  CB  ASN d   1     -51.268  20.497  -2.848  0.00  0.00     0.036 C 
ATOM    222  H68 ASN d   1     -51.184  19.532  -2.326  0.00  0.00     0.051 H 
ATOM    223  H69 ASN d   1     -52.029  21.117  -2.352  0.00  0.00     0.051 H 
BRANCH 221 224
ATOM    224  CG  ASN d   1     -49.931  21.211  -2.766  0.00  0.00     0.217 C 
ATOM    225  OD1 ASN d   1     -49.665  21.939  -1.812  0.00  0.00    -0.274 OA
ATOM    226  ND2 ASN d   1     -49.088  21.015  -3.778  0.00  0.00    -0.370 N 
ATOM    227  H70 ASN d   1     -48.193  21.461  -3.776  0.00  0.00     0.159 HD
ATOM    228  H71 ASN d   1     -49.350  20.422  -4.540  0.00  0.00     0.159 HD
ENDBRANCH 221 224
ENDBRANCH 124 221
ENDBRANCH 122 124
ENDBRANCH 118 120
BRANCH 118 229
ATOM    229  CB  GLU d   1     -51.533  23.769  -7.164  0.00  0.00    -0.029 C 
ATOM    230  H62 GLU d   1     -51.246  24.248  -6.216  0.00  0.00     0.037 H 
ATOM    231  H63 GLU d   1     -51.860  24.538  -7.880  0.00  0.00     0.037 H 
BRANCH 229 232
ATOM    232  CG  GLU d   1     -50.306  23.083  -7.736  0.00  0.00     0.018 C 
ATOM    233  H64 GLU d   1     -50.632  22.323  -8.461  0.00  0.00     0.049 H 
ATOM    234  H65 GLU d   1     -49.759  22.596  -6.915  0.00  0.00     0.049 H 
BRANCH 232 235
ATOM    235  CD  GLU d   1     -49.372  24.054  -8.436  0.00  0.00     0.172 C 
ATOM    236  OE1 GLU d   1     -49.870  25.033  -9.032  0.00  0.00    -0.648 OA
ATOM    237  OE2 GLU d   1     -48.141  23.853  -8.377  0.00  0.00    -0.648 OA
ENDBRANCH 232 235
ENDBRANCH 229 232
ENDBRANCH 118 229
ENDBRANCH 116 118
ENDBRANCH   1 114
BRANCH   1 238
ATOM    238  CB  PHE d   1     -56.462  24.894  -5.785  0.00  0.00    -0.014 C 
ATOM    239  H53 PHE d   1     -55.668  25.620  -6.014  0.00  0.00     0.043 H 
ATOM    240  H54 PHE d   1     -57.244  25.383  -5.186  0.00  0.00     0.043 H 
BRANCH 238 241
ATOM    241  CG  PHE d   1     -57.070  24.426  -7.075  0.00  0.00    -0.056 A 
ATOM    242  CD1 PHE d   1     -58.255  23.705  -7.069  0.00  0.00    -0.077 A 
ATOM    243  CE1 PHE d   1     -58.819  23.257  -8.250  0.00  0.00    -0.082 A 
ATOM    244  H55 PHE d   1     -58.745  23.490  -6.127  0.00  0.00     0.084 H 
ATOM    245  CZ  PHE d   1     -58.193  23.509  -9.461  0.00  0.00    -0.083 A 
ATOM    246  H57 PHE d   1     -59.753  22.707  -8.229  0.00  0.00     0.083 H 
ATOM    247  CE2 PHE d   1     -57.005  24.218  -9.483  0.00  0.00    -0.082 A 
ATOM    248  H59 PHE d   1     -58.632  23.152 -10.386  0.00  0.00     0.083 H 
ATOM    249  CD2 PHE d   1     -56.445  24.670  -8.289  0.00  0.00    -0.077 A 
ATOM    250  H58 PHE d   1     -56.511  24.422 -10.426  0.00  0.00     0.083 H 
ATOM    251  H56 PHE d   1     -55.510  25.218  -8.310  0.00  0.00     0.084 H 
ENDBRANCH 238 241
ENDBRANCH   1 238
TORSDOF 71
