REMARK  12 active torsions:
REMARK  status: ('A' for Active; 'I' for Inactive)
REMARK    1  A    between atoms: C1_1  and  O11_7 
REMARK    2  A    between atoms: C2_2  and  O12_12 
REMARK    3  A    between atoms: C3_3  and  O13_17 
REMARK    4  A    between atoms: C4_4  and  O14_22 
REMARK    5  A    between atoms: C5_5  and  O15_27 
REMARK    6  A    between atoms: C6_6  and  O16_32 
REMARK    7  A    between atoms: O11_7  and  P1_8 
REMARK    8  A    between atoms: O12_12  and  P2_13 
REMARK    9  A    between atoms: O13_17  and  P3_18 
REMARK   10  A    between atoms: O14_22  and  P4_23 
REMARK   11  A    between atoms: O15_27  and  P5_28 
REMARK   12  A    between atoms: O16_32  and  P6_33 
ROOT
ATOM      1  C1  IHP d   1       6.451 -19.891 -77.754  0.00  0.00     0.107 C 
ATOM      2  C2  IHP d   1       5.628 -18.711 -78.321  0.00  0.00     0.107 C 
ATOM      3  C3  IHP d   1       6.344 -18.029 -79.498  0.00  0.00     0.107 C 
ATOM      4  C4  IHP d   1       6.622 -19.010 -80.646  0.00  0.00     0.107 C 
ATOM      5  C5  IHP d   1       7.651 -19.998 -80.097  0.00  0.00     0.107 C 
ATOM      6  C6  IHP d   1       7.151 -20.749 -78.830  0.00  0.00     0.107 C 
ATOM      7  H1  IHP d   1       7.224 -19.494 -77.079  0.00  0.00     0.092 H 
ATOM      8  H2  IHP d   1       4.661 -19.096 -78.677  0.00  0.00     0.092 H 
ATOM      9  H3  IHP d   1       7.312 -17.656 -79.131  0.00  0.00     0.092 H 
ATOM     10  H4  IHP d   1       5.699 -19.522 -80.956  0.00  0.00     0.092 H 
ATOM     11  H5  IHP d   1       8.518 -19.387 -79.805  0.00  0.00     0.092 H 
ATOM     12  H6  IHP d   1       8.032 -21.218 -78.368  0.00  0.00     0.092 H 
ENDROOT
BRANCH   1  13
ATOM     13  O11 IHP d   1       5.535 -20.684 -77.017  0.00  0.00    -0.272 OA
BRANCH  13  14
ATOM     14  P1  IHP d   1       5.863 -21.345 -75.533  0.00  0.00     0.422 P 
ATOM     15  O21 IHP d   1       6.120 -20.264 -74.509  0.00  0.00    -0.617 OA
ATOM     16  O31 IHP d   1       7.072 -22.243 -75.631  0.00  0.00    -0.617 OA
ATOM     17  O41 IHP d   1       4.688 -22.175 -75.061  0.00  0.00    -0.617 OA
ENDBRANCH  13  14
ENDBRANCH   1  13
BRANCH   2  18
ATOM     18  O12 IHP d   1       5.400 -17.776 -77.293  0.00  0.00    -0.272 OA
BRANCH  18  19
ATOM     19  P2  IHP d   1       3.855 -17.374 -76.859  0.00  0.00     0.422 P 
ATOM     20  O22 IHP d   1       2.860 -18.105 -77.731  0.00  0.00    -0.617 OA
ATOM     21  O32 IHP d   1       3.609 -17.741 -75.411  0.00  0.00    -0.617 OA
ATOM     22  O42 IHP d   1       3.665 -15.886 -77.042  0.00  0.00    -0.617 OA
ENDBRANCH  18  19
ENDBRANCH   2  18
BRANCH   6  23
ATOM     23  O16 IHP d   1       6.215 -21.763 -79.178  0.00  0.00    -0.272 OA
BRANCH  23  24
ATOM     24  P6  IHP d   1       6.506 -23.399 -79.111  0.00  0.00     0.422 P 
ATOM     25  O26 IHP d   1       7.272 -23.774 -77.865  0.00  0.00    -0.617 OA
ATOM     26  O36 IHP d   1       7.303 -23.813 -80.324  0.00  0.00    -0.617 OA
ATOM     27  O46 IHP d   1       5.201 -24.166 -79.132  0.00  0.00    -0.617 OA
ENDBRANCH  23  24
ENDBRANCH   6  23
BRANCH   3  28
ATOM     28  O13 IHP d   1       5.607 -16.938 -79.963  0.00  0.00    -0.272 OA
BRANCH  28  29
ATOM     29  P3  IHP d   1       6.468 -15.540 -79.916  0.00  0.00     0.422 P 
ATOM     30  O23 IHP d   1       5.876 -14.529 -80.869  0.00  0.00    -0.617 OA
ATOM     31  O33 IHP d   1       7.892 -15.842 -80.323  0.00  0.00    -0.617 OA
ATOM     32  O43 IHP d   1       6.449 -15.021 -78.496  0.00  0.00    -0.617 OA
ENDBRANCH  28  29
ENDBRANCH   3  28
BRANCH   5  33
ATOM     33  O15 IHP d   1       8.131 -20.997 -80.971  0.00  0.00    -0.272 OA
BRANCH  33  34
ATOM     34  P5  IHP d   1       9.687 -21.532 -80.710  0.00  0.00     0.422 P 
ATOM     35  O25 IHP d   1      10.632 -20.761 -81.601  0.00  0.00    -0.617 OA
ATOM     36  O35 IHP d   1      10.104 -21.305 -79.274  0.00  0.00    -0.617 OA
ATOM     37  O45 IHP d   1       9.823 -23.011 -81.001  0.00  0.00    -0.617 OA
ENDBRANCH  33  34
ENDBRANCH   5  33
BRANCH   4  38
ATOM     38  O14 IHP d   1       7.194 -18.348 -81.727  0.00  0.00    -0.272 OA
BRANCH  38  39
ATOM     39  P4  IHP d   1       6.540 -18.792 -83.166  0.00  0.00     0.422 P 
ATOM     40  O24 IHP d   1       6.730 -17.684 -84.171  0.00  0.00    -0.617 OA
ATOM     41  O34 IHP d   1       5.061 -19.051 -82.987  0.00  0.00    -0.617 OA
ATOM     42  O44 IHP d   1       7.214 -20.061 -83.637  0.00  0.00    -0.617 OA
ENDBRANCH  38  39
ENDBRANCH   4  38
TORSDOF 12
