REMARK  4 active torsions:
REMARK  status: ('A' for Active; 'I' for Inactive)
REMARK    1  A    between atoms: N_1  and  CA_2 
REMARK    2  A    between atoms: CA_2  and  C_3 
REMARK    3  A    between atoms: CA_2  and  CB_5 
REMARK    4  A    between atoms: CB_5  and  SG_6 
ROOT
ATOM      1  CA  CYS d   1      22.513 -19.900 -12.912  0.00  0.00     0.190 C 
ATOM      2  H4  CYS d   1      21.679 -19.322 -13.337  0.00  0.00     0.102 H 
ENDROOT
BRANCH   1   3
ATOM      3  N   CYS d   1      22.410 -21.270 -13.256  0.00  0.00    -0.065 N 
ATOM      4  H1  CYS d   1      21.519 -21.628 -12.948  0.00  0.00     0.275 HD
ATOM      5  H2  CYS d   1      23.152 -21.785 -12.809  0.00  0.00     0.275 HD
ATOM      6  H3  CYS d   1      22.485 -21.372 -14.256  0.00  0.00     0.275 HD
ENDBRANCH   1   3
BRANCH   1   7
ATOM      7  C   CYS d   1      23.791 -19.401 -13.358  0.00  0.00     0.205 C 
ATOM      8  O   CYS d   1      23.976 -18.257 -13.786  0.00  0.00    -0.646 OA
ATOM      9  OXT CYS d   1      24.632 -20.255 -13.061  0.00  0.00    -0.646 OA
ENDBRANCH   1   7
BRANCH   1  10
ATOM     10  CB  CYS d   1      22.561 -19.795 -11.394  0.00  0.00     0.010 C 
ATOM     11  H5  CYS d   1      21.772 -20.433 -10.969  0.00  0.00     0.052 H 
ATOM     12  H6  CYS d   1      22.383 -18.749 -11.105  0.00  0.00     0.052 H 
BRANCH  10  13
ATOM     13  SG  CYS d   1      24.157 -20.320 -10.727  0.00  0.00    -0.180 SA
ATOM     14  H7  CYS d   1      24.887 -19.737 -11.106  0.00  0.00     0.101 HD
ENDBRANCH  10  13
ENDBRANCH   1  10
TORSDOF 4
