REMARK  20 active torsions:
REMARK  status: ('A' for Active; 'I' for Inactive)
REMARK    1  A    between atoms: C_1  and  CH3_3 
REMARK       I    between atoms: C_1  and  N_4 
REMARK    2  A    between atoms: N_4  and  CA_5 
REMARK    3  A    between atoms: CA_18  and  CB_21 
REMARK    4  A    between atoms: CA_23  and  CB_26 
REMARK    5  A    between atoms: CB_26  and  CG_27 
REMARK    6  A    between atoms: CZ_32  and  OH_33 
REMARK    7  A    between atoms: CA_35  and  CB_38 
REMARK    8  A    between atoms: CB_38  and  OG_39 
REMARK    9  A    between atoms: CA_41  and  CB_44 
REMARK   10  A    between atoms: CB_44  and  CG_45 
REMARK   11  A    between atoms: CG_45  and  CD_46 
REMARK   12  A    between atoms: CD_46  and  NE_47 
REMARK       I    between atoms: NE_47  and  CZ_48 
REMARK       I    between atoms: CZ_48  and  NH1_49 
REMARK   13  A    between atoms: CA_52  and  CB_55 
REMARK   14  A    between atoms: CB_55  and  CG_56 
REMARK   15  A    between atoms: CZ_61  and  OH_62 
REMARK   16  A    between atoms: CA_64  and  CB_67 
REMARK   17  A    between atoms: CB_67  and  CG1_68 
REMARK   18  A    between atoms: CB_67  and  CG2_69 
REMARK   19  A    between atoms: CG1_68  and  CD1_70 
REMARK   20  A    between atoms: CA_76  and  C_77 
REMARK       I    between atoms: C_77  and  N_81 
ROOT
ATOM      1  CA  ACE d   1      55.804 -43.932  28.103  0.00  0.00     0.098 C 
ATOM      2  C   ACE d   1      55.083 -45.280  28.171  0.00  0.00     0.244 C 
ATOM      3  O   ACE d   1      55.659 -46.270  28.600  0.00  0.00    -0.271 OA
ATOM      4  CB  ACE d   1      57.153 -44.144  27.427  0.00  0.00     0.013 C 
ATOM      5  SG  ACE d   1      57.963 -42.593  27.056  0.00  0.00    -0.095 SA
ATOM      6  N   ACE d   1      53.836 -45.311  27.712  0.00  0.00    -0.337 N 
ATOM      7  CA  ACE d   1      53.096 -46.578  27.642  0.00  0.00     0.091 C 
ATOM      8  C   ACE d   1      53.131 -47.344  26.320  0.00  0.00     0.241 C 
ATOM      9  O   ACE d   1      52.130 -47.351  25.609  0.00  0.00    -0.271 OA
ATOM     10  CB  ACE d   1      51.659 -46.136  27.940  0.00  0.00    -0.036 C 
ATOM     11  CG  ACE d   1      51.606 -44.759  27.452  0.00  0.00    -0.048 C 
ATOM     12  CD  ACE d   1      52.933 -44.155  27.770  0.00  0.00    -0.001 C 
ATOM     13  N   ACE d   1      54.225 -48.007  25.979  0.00  0.00    -0.346 N 
ATOM     14  CA  ACE d   1      54.227 -49.100  24.996  0.00  0.00     0.086 C 
ATOM     15  C   ACE d   1      53.587 -48.820  23.631  0.00  0.00     0.240 C 
ATOM     16  O   ACE d   1      54.235 -49.058  22.611  0.00  0.00    -0.271 OA
ATOM     17  N   ACE d   1      52.331 -48.363  23.577  0.00  0.00    -0.346 N 
ATOM     18  CA  ACE d   1      51.690 -47.966  22.324  0.00  0.00     0.093 C 
ATOM     19  C   ACE d   1      51.766 -46.460  22.074  0.00  0.00     0.241 C 
ATOM     20  O   ACE d   1      50.905 -45.908  21.384  0.00  0.00    -0.271 OA
ATOM     21  N   ACE d   1      52.757 -45.785  22.644  0.00  0.00    -0.344 N 
ATOM     22  CA  ACE d   1      52.902 -44.351  22.463  0.00  0.00     0.109 C 
ATOM     23  C   ACE d   1      53.318 -44.041  21.024  0.00  0.00     0.243 C 
ATOM     24  O   ACE d   1      53.998 -44.836  20.377  0.00  0.00    -0.271 OA
ATOM     25  N   ACE d   1      52.906 -42.873  20.523  0.00  0.00    -0.346 N 
ATOM     26  CA  ACE d   1      53.414 -42.353  19.257  0.00  0.00     0.089 C 
ATOM     27  C   ACE d   1      54.177 -41.054  19.463  0.00  0.00     0.241 C 
ATOM     28  O   ACE d   1      54.309 -40.268  18.522  0.00  0.00    -0.271 OA
ATOM     29  N   ACE d   1      54.665 -40.832  20.690  0.00  0.00    -0.346 N 
ATOM     30  CA  ACE d   1      55.377 -39.625  21.087  0.00  0.00     0.093 C 
ATOM     31  C   ACE d   1      56.851 -39.724  20.699  0.00  0.00     0.241 C 
ATOM     32  O   ACE d   1      57.489 -40.764  20.881  0.00  0.00    -0.271 OA
ATOM     33  N   ACE d   1      57.396 -38.621  20.182  0.00  0.00    -0.346 N 
ATOM     34  CA  ACE d   1      58.803 -38.573  19.790  0.00  0.00     0.092 C 
ATOM     35  C   ACE d   1      59.722 -38.776  20.994  0.00  0.00     0.241 C 
ATOM     36  O   ACE d   1      60.841 -39.282  20.852  0.00  0.00    -0.271 OA
ATOM     37  N   ACE d   1      59.284 -38.375  22.189  0.00  0.00    -0.351 N 
ATOM     38  CA  ACE d   1      60.070 -38.561  23.386  0.00  0.00     0.069 C 
ATOM     39  C   ACE d   1      59.939 -39.909  24.073  0.00  0.00     0.236 C 
ATOM     40  O   ACE d   1      60.355 -40.047  25.229  0.00  0.00    -0.272 OA
ATOM     41  N   ACE d   1      59.352 -40.900  23.401  0.00  0.00    -0.346 N 
ATOM     42  CA  ACE d   1      59.312 -42.296  23.847  0.00  0.00     0.098 C 
ATOM     43  CB  ACE d   1      57.876 -42.768  24.059  0.00  0.00     0.013 C 
ATOM     44  SG  ACE d   1      56.998 -41.949  25.368  0.00  0.00    -0.095 SA
ATOM     45  H5  ACE d   1      55.194 -43.272  27.469  0.00  0.00     0.088 H 
ATOM     46  H6  ACE d   1      56.998 -44.698  26.489  0.00  0.00     0.053 H 
ATOM     47  H7  ACE d   1      57.798 -44.731  28.097  0.00  0.00     0.053 H 
ATOM     48  H8  ACE d   1      53.466 -47.253  28.428  0.00  0.00     0.087 H 
ATOM     49  H9  ACE d   1      51.453 -46.177  29.020  0.00  0.00     0.036 H 
ATOM     50  H10 ACE d   1      50.936 -46.769  27.405  0.00  0.00     0.036 H 
ATOM     51  H11 ACE d   1      50.803 -44.205  27.960  0.00  0.00     0.035 H 
ATOM     52  H12 ACE d   1      51.431 -44.745  26.366  0.00  0.00     0.035 H 
ATOM     53  H13 ACE d   1      53.212 -43.396  27.024  0.00  0.00     0.064 H 
ATOM     54  H14 ACE d   1      52.933 -43.702  28.772  0.00  0.00     0.064 H 
ATOM     55  H15 ACE d   1      55.090 -47.752  26.410  0.00  0.00     0.163 HD
ATOM     56  H16 ACE d   1      55.284 -49.334  24.803  0.00  0.00     0.086 H 
ATOM     57  H20 ACE d   1      51.810 -48.290  24.427  0.00  0.00     0.163 HD
ATOM     58  H21 ACE d   1      52.220 -48.472  21.503  0.00  0.00     0.088 H 
ATOM     59  H29 ACE d   1      53.419 -46.275  23.211  0.00  0.00     0.163 HD
ATOM     60  H30 ACE d   1      51.937 -43.863  22.664  0.00  0.00     0.090 H 
ATOM     61  H34 ACE d   1      52.230 -42.339  21.030  0.00  0.00     0.163 HD
ATOM     62  H35 ACE d   1      54.110 -43.097  18.841  0.00  0.00     0.087 H 
ATOM     63  H47 ACE d   1      54.532 -41.543  21.381  0.00  0.00     0.163 HD
ATOM     64  H48 ACE d   1      54.934 -38.763  20.568  0.00  0.00     0.088 H 
ATOM     65  H56 ACE d   1      56.828 -37.807  20.060  0.00  0.00     0.163 HD
ATOM     66  H57 ACE d   1      58.993 -39.391  19.079  0.00  0.00     0.088 H 
ATOM     67  H67 ACE d   1      58.389 -37.935  22.257  0.00  0.00     0.163 HD
ATOM     68  H68 ACE d   1      59.771 -37.786  24.108  0.00  0.00     0.078 H 
ATOM     69  H69 ACE d   1      61.128 -38.423  23.117  0.00  0.00     0.078 H 
ATOM     70  H70 ACE d   1      58.909 -40.675  22.533  0.00  0.00     0.163 HD
ATOM     71  H71 ACE d   1      59.856 -42.377  24.800  0.00  0.00     0.088 H 
ATOM     72  H72 ACE d   1      57.901 -43.844  24.287  0.00  0.00     0.053 H 
ATOM     73  H73 ACE d   1      57.322 -42.604  23.123  0.00  0.00     0.053 H 
ENDROOT
BRANCH  26  74
ATOM     74  CB  ACE d   1      52.282 -42.142  18.245  0.00  0.00    -0.036 C 
ATOM     75  H36 ACE d   1      52.677 -41.590  17.379  0.00  0.00     0.036 H 
ATOM     76  H37 ACE d   1      51.483 -41.555  18.721  0.00  0.00     0.036 H 
BRANCH  74  77
ATOM     77  CG  ACE d   1      51.703 -43.460  17.765  0.00  0.00    -0.048 C 
ATOM     78  H38 ACE d   1      51.468 -44.072  18.648  0.00  0.00     0.035 H 
ATOM     79  H39 ACE d   1      52.467 -43.968  17.159  0.00  0.00     0.035 H 
BRANCH  77  80
ATOM     80  CD  ACE d   1      50.433 -43.336  16.922  0.00  0.00     0.009 C 
ATOM     81  H40 ACE d   1      50.591 -42.615  16.106  0.00  0.00     0.064 H 
ATOM     82  H41 ACE d   1      49.594 -43.001  17.550  0.00  0.00     0.064 H 
BRANCH  80  83
ATOM     83  NE  ACE d   1      50.152 -44.650  16.377  0.00  0.00    -0.227 N 
ATOM     84  CZ  ACE d   1      49.223 -44.934  15.477  0.00  0.00     0.665 C 
ATOM     85  NH1 ACE d   1      48.430 -43.992  14.994  0.00  0.00    -0.235 N 
ATOM     86  NH2 ACE d   1      49.087 -46.184  15.071  0.00  0.00    -0.235 N 
ATOM     87  H43 ACE d   1      47.713 -44.231  14.294  0.00  0.00     0.174 HD
ATOM     88  H44 ACE d   1      48.530 -43.019  15.317  0.00  0.00     0.174 HD
ATOM     89  H45 ACE d   1      49.704 -46.918  15.447  0.00  0.00     0.174 HD
ATOM     90  H46 ACE d   1      48.364 -46.425  14.379  0.00  0.00     0.174 HD
ATOM     91  H42 ACE d   1      50.727 -45.433  16.721  0.00  0.00     0.177 HD
ENDBRANCH  80  83
ENDBRANCH  77  80
ENDBRANCH  74  77
ENDBRANCH  26  74
BRANCH  22  92
ATOM     92  CB  ACE d   1      53.941 -43.828  23.459  0.00  0.00     0.044 C 
ATOM     93  H31 ACE d   1      54.819 -44.490  23.420  0.00  0.00     0.077 H 
ATOM     94  H32 ACE d   1      53.500 -43.862  24.466  0.00  0.00     0.077 H 
BRANCH  92  95
ATOM     95  OG  ACE d   1      54.372 -42.508  23.210  0.00  0.00    -0.398 OA
ATOM     96  H33 ACE d   1      53.627 -41.920  23.250  0.00  0.00     0.209 HD
ENDBRANCH  92  95
ENDBRANCH  22  92
BRANCH  30  97
ATOM     97  CB  ACE d   1      55.229 -39.420  22.615  0.00  0.00    -0.014 C 
ATOM     98  H49 ACE d   1      55.637 -40.308  23.120  0.00  0.00     0.043 H 
ATOM     99  H50 ACE d   1      54.157 -39.328  22.845  0.00  0.00     0.043 H 
BRANCH  97 100
ATOM    100  CG  ACE d   1      55.941 -38.189  23.171  0.00  0.00    -0.056 A 
ATOM    101  CD1 ACE d   1      55.836 -36.962  22.526  0.00  0.00    -0.074 A 
ATOM    102  CE1 ACE d   1      56.483 -35.842  22.994  0.00  0.00    -0.051 A 
ATOM    103  H51 ACE d   1      55.229 -36.886  21.631  0.00  0.00     0.084 H 
ATOM    104  CZ  ACE d   1      57.259 -35.910  24.143  0.00  0.00     0.065 A 
ATOM    105  H53 ACE d   1      56.386 -34.902  22.463  0.00  0.00     0.087 H 
ATOM    106  CE2 ACE d   1      57.397 -37.123  24.815  0.00  0.00    -0.051 A 
ATOM    107  CD2 ACE d   1      56.732 -38.256  24.329  0.00  0.00    -0.074 A 
ATOM    108  H54 ACE d   1      58.013 -37.189  25.705  0.00  0.00     0.087 H 
ATOM    109  H52 ACE d   1      56.830 -39.199  24.855  0.00  0.00     0.084 H 
BRANCH 104 110
ATOM    110  OH  ACE d   1      57.901 -34.752  24.578  0.00  0.00    -0.361 OA
ATOM    111  H55 ACE d   1      57.686 -34.034  23.995  0.00  0.00     0.217 HD
ENDBRANCH 104 110
ENDBRANCH  97 100
ENDBRANCH  30  97
BRANCH  18 112
ATOM    112  CB  ACE d   1      50.229 -48.414  22.299  0.00  0.00    -0.014 C 
ATOM    113  H22 ACE d   1      49.761 -48.012  21.388  0.00  0.00     0.043 H 
ATOM    114  H23 ACE d   1      49.726 -47.998  23.184  0.00  0.00     0.043 H 
BRANCH 112 115
ATOM    115  CG  ACE d   1      50.040 -49.916  22.307  0.00  0.00    -0.056 A 
ATOM    116  CD1 ACE d   1      51.128 -50.789  22.181  0.00  0.00    -0.074 A 
ATOM    117  CE1 ACE d   1      50.950 -52.162  22.183  0.00  0.00    -0.051 A 
ATOM    118  H24 ACE d   1      52.128 -50.382  22.080  0.00  0.00     0.084 H 
ATOM    119  CZ  ACE d   1      49.679 -52.684  22.321  0.00  0.00     0.065 A 
ATOM    120  H26 ACE d   1      51.803 -52.823  22.077  0.00  0.00     0.087 H 
ATOM    121  CE2 ACE d   1      48.592 -51.857  22.442  0.00  0.00    -0.051 A 
ATOM    122  CD2 ACE d   1      48.772 -50.470  22.442  0.00  0.00    -0.074 A 
ATOM    123  H27 ACE d   1      47.597 -52.277  22.537  0.00  0.00     0.087 H 
ATOM    124  H25 ACE d   1      47.912 -49.819  22.549  0.00  0.00     0.084 H 
BRANCH 119 125
ATOM    125  OH  ACE d   1      49.486 -54.034  22.310  0.00  0.00    -0.361 OA
ATOM    126  H28 ACE d   1      50.324 -54.472  22.221  0.00  0.00     0.217 HD
ENDBRANCH 119 125
ENDBRANCH 112 115
ENDBRANCH  18 112
BRANCH  34 127
ATOM    127  CB  ACE d   1      59.081 -37.232  19.071  0.00  0.00    -0.030 C 
ATOM    128  H58 ACE d   1      58.118 -36.823  18.731  0.00  0.00     0.043 H 
BRANCH 127 129
ATOM    129  CG1 ACE d   1      60.002 -37.396  17.889  0.00  0.00    -0.063 C 
ATOM    130  H59 ACE d   1      59.635 -38.212  17.248  0.00  0.00     0.033 H 
ATOM    131  H60 ACE d   1      61.015 -37.636  18.244  0.00  0.00     0.033 H 
BRANCH 129 132
ATOM    132  CD1 ACE d   1      60.037 -36.139  17.114  0.00  0.00    -0.076 C 
ATOM    133  H64 ACE d   1      60.709 -36.259  16.252  0.00  0.00     0.027 H 
ATOM    134  H65 ACE d   1      60.404 -35.324  17.754  0.00  0.00     0.027 H 
ATOM    135  H66 ACE d   1      59.024 -35.899  16.759  0.00  0.00     0.027 H 
ENDBRANCH 129 132
ENDBRANCH 127 129
BRANCH 127 136
ATOM    136  CG2 ACE d   1      59.768 -36.223  19.966  0.00  0.00    -0.071 C 
ATOM    137  H61 ACE d   1      59.152 -36.047  20.860  0.00  0.00     0.028 H 
ATOM    138  H62 ACE d   1      59.899 -35.278  19.419  0.00  0.00     0.028 H 
ATOM    139  H63 ACE d   1      60.752 -36.611  20.269  0.00  0.00     0.028 H 
ENDBRANCH 127 136
ENDBRANCH  34 127
BRANCH  14 140
ATOM    140  CB  ACE d   1      53.573 -50.342  25.582  0.00  0.00    -0.049 C 
ATOM    141  H17 ACE d   1      53.583 -51.149  24.834  0.00  0.00     0.030 H 
ATOM    142  H18 ACE d   1      52.534 -50.113  25.860  0.00  0.00     0.030 H 
ATOM    143  H19 ACE d   1      54.129 -50.663  26.475  0.00  0.00     0.030 H 
ENDBRANCH  14 140
BRANCH  42 144
ATOM    144  C   ACE d   1      59.985 -43.188  22.811  0.00  0.00     0.239 C 
ATOM    145  O   ACE d   1      60.617 -42.692  21.885  0.00  0.00    -0.271 OA
ATOM    146  N   ACE d   1      59.819 -44.498  22.946  0.00  0.00    -0.368 N 
ATOM    147  H74 ACE d   1      60.241 -45.126  22.291  0.00  0.00     0.159 HD
ATOM    148  H75 ACE d   1      59.272 -44.857  23.702  0.00  0.00     0.159 HD
ENDBRANCH  42 144
BRANCH   1 149
ATOM    149  N   ACE d   1      56.014 -43.231  29.370  0.00  0.00    -0.347 N 
ATOM    150  C   ACE d   1      55.750 -41.925  29.529  0.00  0.00     0.214 C 
ATOM    151  O   ACE d   1      55.270 -41.228  28.630  0.00  0.00    -0.274 OA
ATOM    152  H4  ACE d   1      56.369 -43.747  30.150  0.00  0.00     0.163 HD
BRANCH 150 153
ATOM    153  CH3 ACE d   1      56.064 -41.351  30.887  0.00  0.00    -0.003 C 
ATOM    154  H1  ACE d   1      56.481 -42.139  31.531  0.00  0.00     0.040 H 
ATOM    155  H2  ACE d   1      55.143 -40.956  31.340  0.00  0.00     0.040 H 
ATOM    156  H3  ACE d   1      56.798 -40.538  30.781  0.00  0.00     0.040 H 
ENDBRANCH 150 153
ENDBRANCH   1 149
TORSDOF 20
