REMARK  19 active torsions:
REMARK  status: ('A' for Active; 'I' for Inactive)
REMARK    1  A    between atoms: N_1  and  CA_2 
REMARK    2  A    between atoms: CA_15  and  CB_18 
REMARK    3  A    between atoms: CA_20  and  CB_23 
REMARK    4  A    between atoms: CB_23  and  CG_24 
REMARK    5  A    between atoms: CZ_29  and  OH_30 
REMARK    6  A    between atoms: CA_32  and  CB_35 
REMARK    7  A    between atoms: CB_35  and  OG_36 
REMARK    8  A    between atoms: CA_38  and  CB_41 
REMARK    9  A    between atoms: CB_41  and  CG_42 
REMARK   10  A    between atoms: CG_42  and  CD_43 
REMARK   11  A    between atoms: CD_43  and  NE_44 
REMARK       I    between atoms: NE_44  and  CZ_45 
REMARK       I    between atoms: CZ_45  and  NH1_46 
REMARK   12  A    between atoms: CA_49  and  CB_52 
REMARK   13  A    between atoms: CB_52  and  CG_53 
REMARK   14  A    between atoms: CZ_58  and  OH_59 
REMARK   15  A    between atoms: CA_61  and  CB_64 
REMARK   16  A    between atoms: CB_64  and  CG1_65 
REMARK   17  A    between atoms: CB_64  and  CG2_66 
REMARK   18  A    between atoms: CG1_65  and  CD1_67 
REMARK   19  A    between atoms: CA_73  and  C_74 
ROOT
ATOM      1  CA  CYS d   1     -54.864  43.574 -22.787  0.00  0.00     0.184 C 
ATOM      2  C   CYS d   1     -54.010  44.810 -22.994  0.00  0.00     0.252 C 
ATOM      3  O   CYS d   1     -54.518  45.927 -22.953  0.00  0.00    -0.271 OA
ATOM      4  CB  CYS d   1     -55.993  43.597 -23.813  0.00  0.00     0.021 C 
ATOM      5  SG  CYS d   1     -56.722  41.998 -24.095  0.00  0.00    -0.095 SA
ATOM      6  N   CYS d   1     -52.715  44.602 -23.232  0.00  0.00    -0.337 N 
ATOM      7  CA  CYS d   1     -51.832  45.735 -23.526  0.00  0.00     0.091 C 
ATOM      8  C   CYS d   1     -52.220  46.387 -24.839  0.00  0.00     0.241 C 
ATOM      9  O   CYS d   1     -52.737  45.738 -25.753  0.00  0.00    -0.271 OA
ATOM     10  CB  CYS d   1     -50.435  45.105 -23.599  0.00  0.00    -0.036 C 
ATOM     11  CG  CYS d   1     -50.619  43.660 -23.522  0.00  0.00    -0.048 C 
ATOM     12  CD  CYS d   1     -51.986  43.328 -23.085  0.00  0.00    -0.001 C 
ATOM     13  N   CYS d   1     -51.966  47.695 -24.921  0.00  0.00    -0.346 N 
ATOM     14  CA  CYS d   1     -52.506  48.492 -26.018  0.00  0.00     0.086 C 
ATOM     15  C   CYS d   1     -52.100  47.961 -27.397  0.00  0.00     0.240 C 
ATOM     16  O   CYS d   1     -52.855  48.127 -28.352  0.00  0.00    -0.271 OA
ATOM     17  N   CYS d   1     -50.935  47.309 -27.519  0.00  0.00    -0.346 N 
ATOM     18  CA  CYS d   1     -50.383  46.898 -28.807  0.00  0.00     0.093 C 
ATOM     19  C   CYS d   1     -50.543  45.402 -29.059  0.00  0.00     0.241 C 
ATOM     20  O   CYS d   1     -49.822  44.827 -29.887  0.00  0.00    -0.271 OA
ATOM     21  N   CYS d   1     -51.475  44.759 -28.368  0.00  0.00    -0.344 N 
ATOM     22  CA  CYS d   1     -51.719  43.352 -28.619  0.00  0.00     0.109 C 
ATOM     23  C   CYS d   1     -52.094  43.145 -30.085  0.00  0.00     0.243 C 
ATOM     24  O   CYS d   1     -52.718  44.000 -30.704  0.00  0.00    -0.271 OA
ATOM     25  N   CYS d   1     -51.687  41.998 -30.635  0.00  0.00    -0.346 N 
ATOM     26  CA  CYS d   1     -52.210  41.450 -31.881  0.00  0.00     0.089 C 
ATOM     27  C   CYS d   1     -52.985  40.160 -31.632  0.00  0.00     0.241 C 
ATOM     28  O   CYS d   1     -53.086  39.312 -32.515  0.00  0.00    -0.271 OA
ATOM     29  N   CYS d   1     -53.550  40.012 -30.433  0.00  0.00    -0.346 N 
ATOM     30  CA  CYS d   1     -54.251  38.799 -30.033  0.00  0.00     0.093 C 
ATOM     31  C   CYS d   1     -55.724  38.894 -30.402  0.00  0.00     0.241 C 
ATOM     32  O   CYS d   1     -56.385  39.894 -30.090  0.00  0.00    -0.271 OA
ATOM     33  N   CYS d   1     -56.228  37.846 -31.066  0.00  0.00    -0.346 N 
ATOM     34  CA  CYS d   1     -57.639  37.761 -31.458  0.00  0.00     0.092 C 
ATOM     35  C   CYS d   1     -58.590  38.082 -30.298  0.00  0.00     0.241 C 
ATOM     36  O   CYS d   1     -59.689  38.611 -30.515  0.00  0.00    -0.271 OA
ATOM     37  N   CYS d   1     -58.203  37.761 -29.060  0.00  0.00    -0.351 N 
ATOM     38  CA  CYS d   1     -59.079  38.048 -27.947  0.00  0.00     0.069 C 
ATOM     39  C   CYS d   1     -58.853  39.380 -27.243  0.00  0.00     0.236 C 
ATOM     40  O   CYS d   1     -59.270  39.532 -26.094  0.00  0.00    -0.272 OA
ATOM     41  N   CYS d   1     -58.220  40.352 -27.897  0.00  0.00    -0.344 N 
ATOM     42  CA  CYS d   1     -57.920  41.635 -27.233  0.00  0.00     0.105 C 
ATOM     43  CB  CYS d   1     -56.410  41.851 -27.112  0.00  0.00     0.015 C 
ATOM     44  SG  CYS d   1     -55.702  41.150 -25.641  0.00  0.00    -0.095 SA
ATOM     45  H4  CYS d   1     -54.237  42.690 -22.977  0.00  0.00     0.100 H 
ATOM     46  H5  CYS d   1     -55.591  43.970 -24.766  0.00  0.00     0.054 H 
ATOM     47  H6  CYS d   1     -56.777  44.280 -23.454  0.00  0.00     0.054 H 
ATOM     48  H7  CYS d   1     -51.877  46.484 -22.722  0.00  0.00     0.087 H 
ATOM     49  H8  CYS d   1     -49.818  45.453 -22.758  0.00  0.00     0.036 H 
ATOM     50  H9  CYS d   1     -49.947  45.374 -24.547  0.00  0.00     0.036 H 
ATOM     51  H10 CYS d   1     -49.899  43.243 -22.802  0.00  0.00     0.035 H 
ATOM     52  H11 CYS d   1     -50.441  43.221 -24.515  0.00  0.00     0.035 H 
ATOM     53  H12 CYS d   1     -52.425  42.548 -23.725  0.00  0.00     0.064 H 
ATOM     54  H13 CYS d   1     -51.993  42.990 -22.038  0.00  0.00     0.064 H 
ATOM     55  H14 CYS d   1     -51.400  48.133 -24.223  0.00  0.00     0.163 HD
ATOM     56  H15 CYS d   1     -53.603  48.444 -25.954  0.00  0.00     0.086 H 
ATOM     57  H19 CYS d   1     -50.420  47.094 -26.689  0.00  0.00     0.163 HD
ATOM     58  H20 CYS d   1     -50.941  47.431 -29.591  0.00  0.00     0.088 H 
ATOM     59  H28 CYS d   1     -52.008  45.244 -27.675  0.00  0.00     0.163 HD
ATOM     60  H29 CYS d   1     -50.802  42.784 -28.404  0.00  0.00     0.090 H 
ATOM     61  H33 CYS d   1     -50.975  41.480 -30.160  0.00  0.00     0.163 HD
ATOM     62  H34 CYS d   1     -52.904  42.187 -32.312  0.00  0.00     0.087 H 
ATOM     63  H46 CYS d   1     -53.490  40.767 -29.780  0.00  0.00     0.163 HD
ATOM     64  H47 CYS d   1     -53.807  37.942 -30.561  0.00  0.00     0.088 H 
ATOM     65  H55 CYS d   1     -55.618  37.091 -31.304  0.00  0.00     0.163 HD
ATOM     66  H56 CYS d   1     -57.818  38.508 -32.245  0.00  0.00     0.088 H 
ATOM     67  H66 CYS d   1     -57.316  37.326 -28.905  0.00  0.00     0.163 HD
ATOM     68  H67 CYS d   1     -58.950  37.248 -27.203  0.00  0.00     0.078 H 
ATOM     69  H68 CYS d   1     -60.113  38.037 -28.322  0.00  0.00     0.078 H 
ATOM     70  H69 CYS d   1     -57.945  40.211 -28.848  0.00  0.00     0.163 HD
ATOM     71  H70 CYS d   1     -58.347  41.595 -26.220  0.00  0.00     0.090 H 
ATOM     72  H71 CYS d   1     -56.213  42.933 -27.110  0.00  0.00     0.054 H 
ATOM     73  H72 CYS d   1     -55.923  41.391 -27.985  0.00  0.00     0.054 H 
ENDROOT
BRANCH  26  74
ATOM     74  CB  CYS d   1     -51.080  41.214 -32.887  0.00  0.00    -0.036 C 
ATOM     75  H35 CYS d   1     -51.488  40.721 -33.782  0.00  0.00     0.036 H 
ATOM     76  H36 CYS d   1     -50.316  40.569 -32.429  0.00  0.00     0.036 H 
BRANCH  74  77
ATOM     77  CG  CYS d   1     -50.441  42.542 -33.291  0.00  0.00    -0.048 C 
ATOM     78  H37 CYS d   1     -50.077  43.042 -32.381  0.00  0.00     0.035 H 
ATOM     79  H38 CYS d   1     -51.211  43.165 -33.769  0.00  0.00     0.035 H 
BRANCH  77  80
ATOM     80  CD  CYS d   1     -49.281  42.399 -34.252  0.00  0.00     0.009 C 
ATOM     81  H39 CYS d   1     -49.577  41.737 -35.080  0.00  0.00     0.064 H 
ATOM     82  H40 CYS d   1     -48.423  41.961 -33.721  0.00  0.00     0.064 H 
BRANCH  80  83
ATOM     83  NE  CYS d   1     -48.897  43.701 -34.792  0.00  0.00    -0.227 N 
ATOM     84  CZ  CYS d   1     -48.028  43.866 -35.782  0.00  0.00     0.665 C 
ATOM     85  NH1 CYS d   1     -47.442  42.804 -36.343  0.00  0.00    -0.235 N 
ATOM     86  NH2 CYS d   1     -47.750  45.088 -36.219  0.00  0.00    -0.235 N 
ATOM     87  H42 CYS d   1     -46.768  42.934 -37.111  0.00  0.00     0.174 HD
ATOM     88  H43 CYS d   1     -47.664  41.856 -36.007  0.00  0.00     0.174 HD
ATOM     89  H44 CYS d   1     -48.203  45.905 -35.785  0.00  0.00     0.174 HD
ATOM     90  H45 CYS d   1     -47.082  45.219 -36.992  0.00  0.00     0.174 HD
ATOM     91  H41 CYS d   1     -49.326  44.542 -34.380  0.00  0.00     0.177 HD
ENDBRANCH  80  83
ENDBRANCH  77  80
ENDBRANCH  74  77
ENDBRANCH  26  74
BRANCH  22  92
ATOM     92  CB  CYS d   1     -52.834  42.859 -27.698  0.00  0.00     0.044 C 
ATOM     93  H30 CYS d   1     -53.715  43.503 -27.838  0.00  0.00     0.077 H 
ATOM     94  H31 CYS d   1     -52.487  42.933 -26.657  0.00  0.00     0.077 H 
BRANCH  92  95
ATOM     95  OG  CYS d   1     -53.211  41.510 -27.957  0.00  0.00    -0.398 OA
ATOM     96  H32 CYS d   1     -52.459  40.943 -27.832  0.00  0.00     0.209 HD
ENDBRANCH  92  95
ENDBRANCH  22  92
BRANCH  30  97
ATOM     97  CB  CYS d   1     -54.105  38.583 -28.530  0.00  0.00    -0.014 C 
ATOM     98  H48 CYS d   1     -54.449  39.495 -28.020  0.00  0.00     0.043 H 
ATOM     99  H49 CYS d   1     -53.039  38.421 -28.311  0.00  0.00     0.043 H 
BRANCH  97 100
ATOM    100  CG  CYS d   1     -54.884  37.408 -27.969  0.00  0.00    -0.056 A 
ATOM    101  CD1 CYS d   1     -54.974  36.220 -28.678  0.00  0.00    -0.074 A 
ATOM    102  CE1 CYS d   1     -55.656  35.147 -28.182  0.00  0.00    -0.051 A 
ATOM    103  H50 CYS d   1     -54.493  36.142 -29.646  0.00  0.00     0.084 H 
ATOM    104  CZ  CYS d   1     -56.269  35.234 -26.950  0.00  0.00     0.065 A 
ATOM    105  H52 CYS d   1     -55.716  34.229 -28.755  0.00  0.00     0.087 H 
ATOM    106  CE2 CYS d   1     -56.199  36.400 -26.214  0.00  0.00    -0.051 A 
ATOM    107  CD2 CYS d   1     -55.501  37.478 -26.713  0.00  0.00    -0.074 A 
ATOM    108  H53 CYS d   1     -56.690  36.467 -25.250  0.00  0.00     0.087 H 
ATOM    109  H51 CYS d   1     -55.429  38.388 -26.129  0.00  0.00     0.084 H 
BRANCH 104 110
ATOM    110  OH  CYS d   1     -56.954  34.131 -26.486  0.00  0.00    -0.361 OA
ATOM    111  H54 CYS d   1     -56.892  33.430 -27.124  0.00  0.00     0.217 HD
ENDBRANCH 104 110
ENDBRANCH  97 100
ENDBRANCH  30  97
BRANCH  18 112
ATOM    112  CB  CYS d   1     -48.904  47.297 -28.923  0.00  0.00    -0.014 C 
ATOM    113  H21 CYS d   1     -48.506  46.874 -29.857  0.00  0.00     0.043 H 
ATOM    114  H22 CYS d   1     -48.364  46.868 -28.067  0.00  0.00     0.043 H 
BRANCH 112 115
ATOM    115  CG  CYS d   1     -48.657  48.803 -28.937  0.00  0.00    -0.056 A 
ATOM    116  CD1 CYS d   1     -49.693  49.694 -29.161  0.00  0.00    -0.074 A 
ATOM    117  CE1 CYS d   1     -49.473  51.059 -29.181  0.00  0.00    -0.051 A 
ATOM    118  H23 CYS d   1     -50.695  49.314 -29.324  0.00  0.00     0.084 H 
ATOM    119  CZ  CYS d   1     -48.212  51.550 -28.977  0.00  0.00     0.065 A 
ATOM    120  H25 CYS d   1     -50.298  51.739 -29.358  0.00  0.00     0.087 H 
ATOM    121  CE2 CYS d   1     -47.163  50.692 -28.769  0.00  0.00    -0.051 A 
ATOM    122  CD2 CYS d   1     -47.389  49.321 -28.750  0.00  0.00    -0.074 A 
ATOM    123  H26 CYS d   1     -46.162  51.081 -28.620  0.00  0.00     0.087 H 
ATOM    124  H24 CYS d   1     -46.557  48.646 -28.586  0.00  0.00     0.084 H 
BRANCH 119 125
ATOM    125  OH  CYS d   1     -48.011  52.909 -28.984  0.00  0.00    -0.361 OA
ATOM    126  H27 CYS d   1     -48.838  53.349 -29.141  0.00  0.00     0.217 HD
ENDBRANCH 119 125
ENDBRANCH 112 115
ENDBRANCH  18 112
BRANCH  34 127
ATOM    127  CB  CYS d   1     -57.907  36.360 -32.056  0.00  0.00    -0.030 C 
ATOM    128  H57 CYS d   1     -57.194  35.665 -31.588  0.00  0.00     0.043 H 
BRANCH 127 129
ATOM    129  CG1 CYS d   1     -57.638  36.352 -33.554  0.00  0.00    -0.063 C 
ATOM    130  H58 CYS d   1     -56.580  36.599 -33.723  0.00  0.00     0.033 H 
ATOM    131  H59 CYS d   1     -58.273  37.114 -34.030  0.00  0.00     0.033 H 
BRANCH 129 132
ATOM    132  CD1 CYS d   1     -57.926  35.028 -34.185  0.00  0.00    -0.076 C 
ATOM    133  H63 CYS d   1     -57.714  35.082 -35.263  0.00  0.00     0.027 H 
ATOM    134  H64 CYS d   1     -58.984  34.771 -34.032  0.00  0.00     0.027 H 
ATOM    135  H65 CYS d   1     -57.291  34.257 -33.725  0.00  0.00     0.027 H 
ENDBRANCH 129 132
ENDBRANCH 127 129
BRANCH 127 136
ATOM    136  CG2 CYS d   1     -59.301  35.844 -31.745  0.00  0.00    -0.071 C 
ATOM    137  H60 CYS d   1     -59.465  35.862 -30.657  0.00  0.00     0.028 H 
ATOM    138  H61 CYS d   1     -59.401  34.812 -32.114  0.00  0.00     0.028 H 
ATOM    139  H62 CYS d   1     -60.047  36.484 -32.239  0.00  0.00     0.028 H 
ENDBRANCH 127 136
ENDBRANCH  34 127
BRANCH  14 140
ATOM    140  CB  CYS d   1     -52.087  49.947 -25.865  0.00  0.00    -0.049 C 
ATOM    141  H16 CYS d   1     -52.500  50.537 -26.697  0.00  0.00     0.030 H 
ATOM    142  H17 CYS d   1     -50.989  50.016 -25.876  0.00  0.00     0.030 H 
ATOM    143  H18 CYS d   1     -52.469  50.340 -24.912  0.00  0.00     0.030 H 
ENDBRANCH  14 140
BRANCH  42 144
ATOM    144  C   CYS d   1     -58.533  42.822 -27.956  0.00  0.00     0.197 C 
ATOM    145  O   CYS d   1     -59.061  42.655 -29.048  0.00  0.00    -0.646 OA
ATOM    146  OXT CYS d   1     -58.491  43.930 -27.437  0.00  0.00    -0.646 OA
ENDBRANCH  42 144
BRANCH   1 147
ATOM    147  N   CYS d   1     -55.390  43.458 -21.426  0.00  0.00    -0.066 N 
ATOM    148  H1  CYS d   1     -55.947  42.621 -21.351  0.00  0.00     0.275 HD
ATOM    149  H2  CYS d   1     -55.962  44.261 -21.217  0.00  0.00     0.275 HD
ATOM    150  H3  CYS d   1     -54.624  43.412 -20.773  0.00  0.00     0.275 HD
ENDBRANCH   1 147
TORSDOF 19
