REMARK  5 active torsions:
REMARK  status: ('A' for Active; 'I' for Inactive)
REMARK    1  A    between atoms: C02_2  and  C01_1 
REMARK    2  A    between atoms: C03_3  and  C04_4 
REMARK    3  A    between atoms: C04_4  and  C05_5 
REMARK    4  A    between atoms: C05_5  and  N06_25 
REMARK    5  A    between atoms: C09_8  and  C12_11 
ROOT
ATOM      1  C07 MOL d   1      15.146   0.265  61.467  0.00  0.00     0.084 C 
ATOM      2  C08 MOL d   1      16.322   0.413  60.488  0.00  0.00    -0.034 C 
ATOM      3  C09 MOL d   1      16.083  -0.311  59.137  0.00  0.00    -0.006 C 
ATOM      4  C10 MOL d   1      14.715   0.102  58.567  0.00  0.00    -0.034 C 
ATOM      5  C11 MOL d   1      13.560   0.020  59.563  0.00  0.00     0.084 C 
ATOM      6  N06 MOL d   1      13.833   0.656  60.893  0.00  0.00    -0.071 N 
ATOM      7  H8  MOL d   1      15.343   0.899  62.344  0.00  0.00     0.076 H 
ATOM      8  H9  MOL d   1      15.087  -0.787  61.781  0.00  0.00     0.076 H 
ATOM      9  H10 MOL d   1      17.223  -0.009  60.957  0.00  0.00     0.036 H 
ATOM     10  H11 MOL d   1      16.479   1.483  60.289  0.00  0.00     0.036 H 
ATOM     11  H12 MOL d   1      16.067  -1.391  59.348  0.00  0.00     0.050 H 
ATOM     12  H13 MOL d   1      14.483  -0.558  57.718  0.00  0.00     0.036 H 
ATOM     13  H14 MOL d   1      14.790   1.141  58.214  0.00  0.00     0.036 H 
ATOM     14  H15 MOL d   1      13.328  -1.042  59.732  0.00  0.00     0.076 H 
ATOM     15  H16 MOL d   1      12.687   0.519  59.117  0.00  0.00     0.076 H 
ATOM     16  H28 MOL d   1      13.755   1.659  60.826  0.00  0.00     0.279 HD
ENDROOT
BRANCH   6  17
ATOM     17  C05 MOL d   1      12.830   0.068  61.846  0.00  0.00     0.087 C 
ATOM     18  H6  MOL d   1      12.739  -1.012  61.656  0.00  0.00     0.076 H 
ATOM     19  H7  MOL d   1      13.172   0.231  62.879  0.00  0.00     0.076 H 
BRANCH  17  20
ATOM     20  C04 MOL d   1      11.470   0.727  61.658  0.00  0.00    -0.011 C 
ATOM     21  H4  MOL d   1      11.533   1.778  61.977  0.00  0.00     0.043 H 
ATOM     22  H5  MOL d   1      11.193   0.682  60.594  0.00  0.00     0.043 H 
BRANCH  20  23
ATOM     23  C03 MOL d   1      10.374   0.003  62.501  0.00  0.00     0.036 A 
ATOM     24  C02 MOL d   1      10.080   0.261  63.799  0.00  0.00     0.044 A 
ATOM     25  N30 MOL d   1       9.017  -0.518  64.459  0.00  0.00    -0.239 NA
ATOM     26  C29 MOL d   1       8.346  -1.460  63.819  0.00  0.00     0.109 A 
ATOM     27  C28 MOL d   1       7.148  -2.341  64.561  0.00  0.00    -0.010 C 
ATOM     28  N24 MOL d   1       8.535  -1.862  62.455  0.00  0.00    -0.302 N 
ATOM     29  C27 MOL d   1       6.258  -3.328  63.779  0.00  0.00    -0.057 C 
ATOM     30  H26 MOL d   1       7.641  -2.929  65.349  0.00  0.00     0.044 H 
ATOM     31  H27 MOL d   1       6.467  -1.609  65.020  0.00  0.00     0.044 H 
ATOM     32  C26 MOL d   1       7.073  -4.050  62.731  0.00  0.00    -0.049 C 
ATOM     33  H24 MOL d   1       5.831  -4.063  64.477  0.00  0.00     0.033 H 
ATOM     34  H25 MOL d   1       5.445  -2.773  63.288  0.00  0.00     0.033 H 
ATOM     35  C25 MOL d   1       7.681  -3.012  61.764  0.00  0.00     0.004 C 
ATOM     36  H22 MOL d   1       7.880  -4.617  63.218  0.00  0.00     0.035 H 
ATOM     37  H23 MOL d   1       6.425  -4.740  62.171  0.00  0.00     0.035 H 
ATOM     38  H20 MOL d   1       6.857  -2.538  61.211  0.00  0.00     0.065 H 
ATOM     39  H21 MOL d   1       8.336  -3.546  61.060  0.00  0.00     0.065 H 
ATOM     40  C22 MOL d   1       9.625  -1.097  61.699  0.00  0.00     0.257 A 
ATOM     41  O23 MOL d   1       9.841  -1.383  60.528  0.00  0.00    -0.267 OA
BRANCH  24  42
ATOM     42  C01 MOL d   1      10.875   1.419  64.653  0.00  0.00    -0.035 C 
ATOM     43  H1  MOL d   1      10.477   1.457  65.678  0.00  0.00     0.035 H 
ATOM     44  H2  MOL d   1      10.732   2.396  64.168  0.00  0.00     0.035 H 
ATOM     45  H3  MOL d   1      11.948   1.179  64.685  0.00  0.00     0.035 H 
ENDBRANCH  24  42
ENDBRANCH  20  23
ENDBRANCH  17  20
ENDBRANCH   6  17
BRANCH   3  46
ATOM     46  C12 MOL d   1      17.141  -0.071  58.039  0.00  0.00     0.079 A 
ATOM     47  C16 MOL d   1      18.510  -0.680  57.963  0.00  0.00     0.027 A 
ATOM     48  C15 MOL d   1      19.100  -0.151  56.794  0.00  0.00     0.116 A 
ATOM     49  C17 MOL d   1      19.285  -1.590  58.742  0.00  0.00    -0.065 A 
ATOM     50  C21 MOL d   1      20.431  -0.505  56.377  0.00  0.00    -0.010 A 
ATOM     51  O14 MOL d   1      18.146   0.709  56.222  0.00  0.00    -0.212 OA
ATOM     52  C19 MOL d   1      21.161  -1.415  57.177  0.00  0.00     0.119 A 
ATOM     53  H19 MOL d   1      20.862  -0.086  55.475  0.00  0.00     0.092 H 
ATOM     54  C18 MOL d   1      20.583  -1.964  58.373  0.00  0.00    -0.045 A 
ATOM     55  F20 MOL d   1      22.384  -1.780  56.847  0.00  0.00    -0.206 F 
ATOM     56  H18 MOL d   1      21.146  -2.661  58.983  0.00  0.00     0.088 H 
ATOM     57  N13 MOL d   1      17.018   0.735  56.974  0.00  0.00    -0.131 NA
ATOM     58  H17 MOL d   1      18.856  -2.005  59.647  0.00  0.00     0.085 H 
ENDBRANCH   3  46
TORSDOF 5
