REMARK  6 active torsions:
REMARK  status: ('A' for Active; 'I' for Inactive)
REMARK    1  A    between atoms: O1_20  and  C4_13 
REMARK    2  A    between atoms: C5_14  and  C6_15 
REMARK    3  A    between atoms: C5_14  and  O1_20 
REMARK    4  A    between atoms: C6_15  and  N1_19 
REMARK    5  A    between atoms: N1_19  and  C7_16 
REMARK    6  A    between atoms: N1_19  and  C8_17 
ROOT
ATOM      1  C1  ZOT d   1      14.011  -1.942  54.562  0.00  0.00     0.035 A 
ATOM      2  C10 ZOT d   1      18.413  -1.198  57.550  0.00  0.00    -0.016 A 
ATOM      3  C11 ZOT d   1      18.874  -0.783  56.307  0.00  0.00     0.016 A 
ATOM      4  C12 ZOT d   1      16.464  -0.729  55.027  0.00  0.00     0.018 A 
ATOM      5  C13 ZOT d   1      16.009  -0.908  53.724  0.00  0.00    -0.064 A 
ATOM      6  C14 ZOT d   1      14.787  -1.526  53.490  0.00  0.00    -0.061 A 
ATOM      7  C15 ZOT d   1      20.203  -0.997  55.951  0.00  0.00    -0.066 A 
ATOM      8  C16 ZOT d   1      21.060  -1.668  56.817  0.00  0.00    -0.082 A 
ATOM      9  C17 ZOT d   1      20.591  -2.112  58.050  0.00  0.00    -0.082 A 
ATOM     10  C18 ZOT d   1      19.268  -1.878  58.411  0.00  0.00    -0.072 A 
ATOM     11  C2  ZOT d   1      14.447  -1.737  55.858  0.00  0.00    -0.048 A 
ATOM     12  C3  ZOT d   1      15.665  -1.120  56.095  0.00  0.00     0.016 A 
ATOM     13  C4  ZOT d   1      15.904  -1.053  57.463  0.00  0.00     0.081 C 
ATOM     14  C9  ZOT d   1      17.141  -1.105  58.105  0.00  0.00    -0.039 C 
ATOM     15  S1  ZOT d   1      18.023   0.093  55.046  0.00  0.00    -0.089 SA
ATOM     16 CL1  ZOT d   1      12.507  -2.699  54.307  0.00  0.00    -0.084 Cl
ATOM     17  H1  ZOT d   1      16.610  -0.564  52.890  0.00  0.00     0.085 H 
ATOM     18  H2  ZOT d   1      14.441  -1.682  52.474  0.00  0.00     0.086 H 
ATOM     19  H3  ZOT d   1      20.571  -0.640  54.996  0.00  0.00     0.085 H 
ATOM     20  H4  ZOT d   1      22.091  -1.845  56.532  0.00  0.00     0.083 H 
ATOM     21  H5  ZOT d   1      21.254  -2.638  58.727  0.00  0.00     0.083 H 
ATOM     22  H6  ZOT d   1      18.901  -2.228  59.369  0.00  0.00     0.084 H 
ATOM     23  H7  ZOT d   1      13.834  -2.060  56.692  0.00  0.00     0.087 H 
ATOM     24  H18 ZOT d   1      17.106  -1.068  59.193  0.00  0.00     0.089 H 
ENDROOT
BRANCH  13  25
ATOM     25  O1  ZOT d   1      14.765  -1.024  58.210  0.00  0.00    -0.349 OA
BRANCH  25  26
ATOM     26  C5  ZOT d   1      14.860  -0.042  59.240  0.00  0.00     0.049 C 
ATOM     27  H8  ZOT d   1      14.940  -0.538  60.219  0.00  0.00     0.077 H 
ATOM     28  H9  ZOT d   1      15.748   0.586  59.073  0.00  0.00     0.077 H 
BRANCH  26  29
ATOM     29  C6  ZOT d   1      13.602   0.825  59.203  0.00  0.00     0.102 C 
ATOM     30  H10 ZOT d   1      12.836   0.324  58.593  0.00  0.00     0.079 H 
ATOM     31  H11 ZOT d   1      13.848   1.800  58.756  0.00  0.00     0.079 H 
BRANCH  29  32
ATOM     32  N1  ZOT d   1      13.079   1.034  60.557  0.00  0.00    -0.077 N 
ATOM     33  H19 ZOT d   1      13.766   1.518  61.114  0.00  0.00     0.279 HD
BRANCH  32  34
ATOM     34  C7  ZOT d   1      11.854   1.846  60.484  0.00  0.00     0.066 C 
ATOM     35  H12 ZOT d   1      11.459   2.005  61.498  0.00  0.00     0.068 H 
ATOM     36  H13 ZOT d   1      11.102   1.322  59.875  0.00  0.00     0.068 H 
ATOM     37  H14 ZOT d   1      12.085   2.818  60.024  0.00  0.00     0.068 H 
ENDBRANCH  32  34
BRANCH  32  38
ATOM     38  C8  ZOT d   1      12.796  -0.278  61.163  0.00  0.00     0.066 C 
ATOM     39  H15 ZOT d   1      13.723  -0.869  61.208  0.00  0.00     0.068 H 
ATOM     40  H16 ZOT d   1      12.051  -0.811  60.553  0.00  0.00     0.068 H 
ATOM     41  H17 ZOT d   1      12.402  -0.135  62.180  0.00  0.00     0.068 H 
ENDBRANCH  32  38
ENDBRANCH  29  32
ENDBRANCH  26  29
ENDBRANCH  25  26
ENDBRANCH  13  25
TORSDOF 6
