REMARK WARNING: 32 MAX_TORS EXCEEDED!!!
REMARK  34 active torsions:
REMARK  status: ('A' for Active; 'I' for Inactive)
REMARK    1  A    between atoms: N_1  and  CA_2 
REMARK    2  A    between atoms: CA_2  and  C_3 
REMARK    3  A    between atoms: CA_2  and  CB_5 
REMARK       I    between atoms: C_3  and  N_10 
REMARK    4  A    between atoms: CB_5  and  CG_6 
REMARK    5  A    between atoms: CG_6  and  CD_7 
REMARK    6  A    between atoms: CD_7  and  CE_8 
REMARK    7  A    between atoms: CE_8  and  NZ_9 
REMARK    8  A    between atoms: N_10  and  CA_11 
REMARK    9  A    between atoms: CA_11  and  C_12 
REMARK   10  A    between atoms: CA_11  and  CB_14 
REMARK       I    between atoms: C_12  and  N_17 
REMARK   11  A    between atoms: CB_14  and  CG1_15 
REMARK   12  A    between atoms: CB_14  and  CG2_16 
REMARK   13  A    between atoms: N_17  and  CA_18 
REMARK   14  A    between atoms: CA_18  and  C_19 
REMARK   15  A    between atoms: CA_18  and  CB_21 
REMARK       I    between atoms: C_19  and  N_22 
REMARK   16  A    between atoms: CA_23  and  C_24 
REMARK       I    between atoms: C_24  and  N_29 
REMARK   17  A    between atoms: CA_30  and  C_31 
REMARK       I    between atoms: C_31  and  N_36 
REMARK   18  A    between atoms: N_36  and  CA_37 
REMARK   19  A    between atoms: CA_37  and  C_38 
REMARK   20  A    between atoms: CA_37  and  CB_40 
REMARK       I    between atoms: C_38  and  N_44 
REMARK   21  A    between atoms: CB_40  and  CG1_41 
REMARK   22  A    between atoms: CB_40  and  CG2_42 
REMARK   23  A    between atoms: CG1_41  and  CD1_43 
REMARK   24  A    between atoms: CA_45  and  C_46 
REMARK       I    between atoms: C_46  and  N_51 
REMARK   25  A    between atoms: N_51  and  CA_52 
REMARK   26  A    between atoms: CA_52  and  C_53 
REMARK   27  A    between atoms: CA_52  and  CB_55 
REMARK       I    between atoms: C_53  and  N_61 
REMARK   28  A    between atoms: CB_55  and  CG_56 
REMARK   29  A    between atoms: N_61  and  CA_62 
REMARK   30  A    between atoms: CA_62  and  C_63 
REMARK   31  A    between atoms: CA_62  and  CB_65 
REMARK   32  A    between atoms: CB_65  and  CG_66 
REMARK   33  A    between atoms: CG_66  and  CD_67 
REMARK   34  A    between atoms: CD_67  and  NE_68 
REMARK       I    between atoms: NE_68  and  CZ_69 
REMARK       I    between atoms: CZ_69  and  NH1_70 
ROOT
ATOM      1  C   LYS d   1      17.286  -1.134 -21.241  0.00  0.00     0.241 C 
ATOM      2  O   LYS d   1      16.353  -0.362 -21.266  0.00  0.00    -0.271 OA
ATOM      3  N   LYS d   1      18.156  -1.151 -20.261  0.00  0.00    -0.346 N 
ATOM      4  H44 LYS d   1      18.924  -1.791 -20.272  0.00  0.00     0.163 HD
ENDROOT
BRANCH   1   5
ATOM      5  CA  LYS d   1      17.490  -2.130 -22.332  0.00  0.00     0.091 C 
ATOM      6  N   LYS d   1      16.211  -2.449 -22.927  0.00  0.00    -0.337 N 
ATOM      7  C   LYS d   1      15.379  -3.207 -22.251  0.00  0.00     0.243 C 
ATOM      8  CD  LYS d   1      16.179  -2.101 -24.346  0.00  0.00    -0.001 C 
ATOM      9  O   LYS d   1      15.714  -3.759 -21.240  0.00  0.00    -0.271 OA
ATOM     10  CG  LYS d   1      17.254  -1.071 -24.471  0.00  0.00    -0.048 C 
ATOM     11  H42 LYS d   1      15.200  -1.685 -24.628  0.00  0.00     0.064 H 
ATOM     12  H43 LYS d   1      16.399  -2.978 -24.972  0.00  0.00     0.064 H 
ATOM     13  CB  LYS d   1      18.278  -1.504 -23.504  0.00  0.00    -0.036 C 
ATOM     14  H40 LYS d   1      17.663  -1.055 -25.492  0.00  0.00     0.035 H 
ATOM     15  H41 LYS d   1      16.870  -0.073 -24.213  0.00  0.00     0.035 H 
ATOM     16  H38 LYS d   1      18.948  -2.248 -23.959  0.00  0.00     0.036 H 
ATOM     17  H39 LYS d   1      18.868  -0.643 -23.156  0.00  0.00     0.036 H 
ATOM     18  H37 LYS d   1      17.994  -3.026 -21.941  0.00  0.00     0.087 H 
BRANCH   7  19
ATOM     19  CA  LYS d   1      13.975  -3.445 -22.837  0.00  0.00     0.092 C 
ATOM     20  N   LYS d   1      13.299  -4.395 -21.957  0.00  0.00    -0.337 N 
ATOM     21  C   LYS d   1      13.662  -5.673 -22.265  0.00  0.00     0.243 C 
ATOM     22  CD  LYS d   1      12.029  -3.858 -21.495  0.00  0.00    -0.001 C 
ATOM     23  O   LYS d   1      14.334  -5.911 -23.262  0.00  0.00    -0.271 OA
ATOM     24  CG  LYS d   1      12.267  -2.368 -21.599  0.00  0.00    -0.048 C 
ATOM     25  H35 LYS d   1      11.820  -4.159 -20.458  0.00  0.00     0.064 H 
ATOM     26  H36 LYS d   1      11.200  -4.177 -22.143  0.00  0.00     0.064 H 
ATOM     27  CB  LYS d   1      13.086  -2.254 -22.825  0.00  0.00    -0.036 C 
ATOM     28  H33 LYS d   1      11.318  -1.821 -21.704  0.00  0.00     0.035 H 
ATOM     29  H34 LYS d   1      12.812  -1.991 -20.721  0.00  0.00     0.035 H 
ATOM     30  H31 LYS d   1      12.441  -2.250 -23.716  0.00  0.00     0.036 H 
ATOM     31  H32 LYS d   1      13.684  -1.331 -22.800  0.00  0.00     0.036 H 
ATOM     32  H30 LYS d   1      14.068  -3.836 -23.861  0.00  0.00     0.087 H 
BRANCH  21  33
ATOM     33  CA  LYS d   1      13.048  -6.818 -21.472  0.00  0.00     0.086 C 
ATOM     34  H26 LYS d   1      12.046  -6.505 -21.143  0.00  0.00     0.086 H 
BRANCH  33  35
ATOM     35  N   LYS d   1      12.904  -7.995 -22.344  0.00  0.00    -0.346 N 
ATOM     36  C   LYS d   1      12.024  -7.973 -23.332  0.00  0.00     0.241 C 
ATOM     37  O   LYS d   1      11.361  -6.959 -23.560  0.00  0.00    -0.271 OA
ATOM     38  H25 LYS d   1      13.468  -8.806 -22.191  0.00  0.00     0.163 HD
BRANCH  36  39
ATOM     39  CA  LYS d   1      11.955  -9.192 -24.285  0.00  0.00     0.092 C 
ATOM     40  H17 LYS d   1      12.580  -9.993 -23.864  0.00  0.00     0.088 H 
BRANCH  39  41
ATOM     41  N   LYS d   1      10.573  -9.645 -24.376  0.00  0.00    -0.346 N 
ATOM     42  C   LYS d   1      10.102 -10.645 -23.647  0.00  0.00     0.249 C 
ATOM     43  O   LYS d   1      10.764 -11.199 -22.777  0.00  0.00    -0.271 OA
ATOM     44  H16 LYS d   1       9.957  -9.183 -25.014  0.00  0.00     0.163 HD
BRANCH  42  45
ATOM     45  CA  LYS d   1       8.642 -11.052 -23.943  0.00  0.00     0.176 C 
ATOM     46  H4  LYS d   1       7.983 -10.385 -23.368  0.00  0.00     0.099 H 
BRANCH  45  47
ATOM     47  N   LYS d   1       8.334 -10.866 -25.410  0.00  0.00    -0.067 N 
ATOM     48  H1  LYS d   1       7.379 -11.135 -25.590  0.00  0.00     0.275 HD
ATOM     49  H2  LYS d   1       8.954 -11.441 -25.959  0.00  0.00     0.275 HD
ATOM     50  H3  LYS d   1       8.463  -9.898 -25.660  0.00  0.00     0.275 HD
ENDBRANCH  45  47
BRANCH  45  51
ATOM     51  CB  LYS d   1       8.346 -12.497 -23.506  0.00  0.00    -0.030 C 
ATOM     52  H5  LYS d   1       7.334 -12.527 -23.076  0.00  0.00     0.036 H 
ATOM     53  H6  LYS d   1       9.080 -12.782 -22.738  0.00  0.00     0.036 H 
BRANCH  51  54
ATOM     54  CG  LYS d   1       8.416 -13.526 -24.645  0.00  0.00    -0.061 C 
ATOM     55  H7  LYS d   1       9.457 -13.601 -24.992  0.00  0.00     0.033 H 
ATOM     56  H8  LYS d   1       7.777 -13.183 -25.473  0.00  0.00     0.033 H 
BRANCH  54  57
ATOM     57  CD  LYS d   1       7.947 -14.901 -24.201  0.00  0.00    -0.043 C 
ATOM     58  H9  LYS d   1       7.346 -14.808 -23.284  0.00  0.00     0.035 H 
ATOM     59  H10 LYS d   1       8.819 -15.543 -24.005  0.00  0.00     0.035 H 
BRANCH  57  60
ATOM     60  CE  LYS d   1       7.099 -15.515 -25.308  0.00  0.00     0.080 C 
ATOM     61  H11 LYS d   1       7.202 -14.905 -26.218  0.00  0.00     0.075 H 
ATOM     62  H12 LYS d   1       6.046 -15.523 -24.989  0.00  0.00     0.075 H 
BRANCH  60  63
ATOM     63  NZ  LYS d   1       7.520 -16.900 -25.608  0.00  0.00    -0.079 N 
ATOM     64  H13 LYS d   1       6.941 -17.276 -26.342  0.00  0.00     0.274 HD
ATOM     65  H14 LYS d   1       7.423 -17.467 -24.780  0.00  0.00     0.274 HD
ATOM     66  H15 LYS d   1       8.483 -16.901 -25.906  0.00  0.00     0.274 HD
ENDBRANCH  60  63
ENDBRANCH  57  60
ENDBRANCH  54  57
ENDBRANCH  51  54
ENDBRANCH  45  51
ENDBRANCH  42  45
ENDBRANCH  39  41
BRANCH  39  67
ATOM     67  CB  LYS d   1      12.430  -8.903 -25.713  0.00  0.00    -0.033 C 
ATOM     68  H18 LYS d   1      11.744  -8.179 -26.176  0.00  0.00     0.042 H 
BRANCH  67  69
ATOM     69  CG1 LYS d   1      13.837  -8.338 -25.721  0.00  0.00    -0.071 C 
ATOM     70  H19 LYS d   1      14.148  -8.142 -26.758  0.00  0.00     0.028 H 
ATOM     71  H20 LYS d   1      14.526  -9.063 -25.263  0.00  0.00     0.028 H 
ATOM     72  H21 LYS d   1      13.858  -7.399 -25.148  0.00  0.00     0.028 H 
ENDBRANCH  67  69
BRANCH  67  73
ATOM     73  CG2 LYS d   1      12.445 -10.207 -26.545  0.00  0.00    -0.071 C 
ATOM     74  H22 LYS d   1      11.436 -10.644 -26.560  0.00  0.00     0.028 H 
ATOM     75  H23 LYS d   1      13.148 -10.922 -26.093  0.00  0.00     0.028 H 
ATOM     76  H24 LYS d   1      12.762  -9.982 -27.574  0.00  0.00     0.028 H 
ENDBRANCH  67  73
ENDBRANCH  39  67
ENDBRANCH  36  39
ENDBRANCH  33  35
BRANCH  33  77
ATOM     77  CB  LYS d   1      13.849  -7.166 -20.242  0.00  0.00    -0.049 C 
ATOM     78  H27 LYS d   1      13.946  -6.276 -19.604  0.00  0.00     0.030 H 
ATOM     79  H28 LYS d   1      14.849  -7.513 -20.542  0.00  0.00     0.030 H 
ATOM     80  H29 LYS d   1      13.336  -7.963 -19.684  0.00  0.00     0.030 H 
ENDBRANCH  33  77
ENDBRANCH  21  33
ENDBRANCH   7  19
ENDBRANCH   1   5
BRANCH   3  81
ATOM     81  CA  LYS d   1      17.987  -0.251 -19.193  0.00  0.00     0.092 C 
ATOM     82  H45 LYS d   1      16.934  -0.280 -18.875  0.00  0.00     0.088 H 
BRANCH  81  83
ATOM     83  C   LYS d   1      18.294   1.156 -19.748  0.00  0.00     0.243 C 
ATOM     84  O   LYS d   1      18.983   1.330 -20.720  0.00  0.00    -0.271 OA
ATOM     85  N   LYS d   1      17.792   2.179 -19.075  0.00  0.00    -0.337 N 
ATOM     86  CA  LYS d   1      18.065   3.544 -19.484  0.00  0.00     0.091 C 
ATOM     87  CD  LYS d   1      16.575   2.092 -18.234  0.00  0.00    -0.001 C 
ATOM     88  CB  LYS d   1      17.258   4.371 -18.436  0.00  0.00    -0.036 C 
ATOM     89  H55 LYS d   1      17.720   3.743 -20.509  0.00  0.00     0.087 H 
ATOM     90  CG  LYS d   1      16.088   3.520 -18.113  0.00  0.00    -0.048 C 
ATOM     91  H56 LYS d   1      16.934   5.331 -18.864  0.00  0.00     0.036 H 
ATOM     92  H57 LYS d   1      17.864   4.556 -17.537  0.00  0.00     0.036 H 
ATOM     93  H58 LYS d   1      15.269   3.708 -18.823  0.00  0.00     0.035 H 
ATOM     94  H59 LYS d   1      15.739   3.721 -17.090  0.00  0.00     0.035 H 
ATOM     95  H60 LYS d   1      16.817   1.679 -17.243  0.00  0.00     0.064 H 
ATOM     96  H61 LYS d   1      15.814   1.462 -18.718  0.00  0.00     0.064 H 
BRANCH  86  97
ATOM     97  C   LYS d   1      19.564   3.823 -19.370  0.00  0.00     0.241 C 
ATOM     98  O   LYS d   1      20.131   3.625 -18.299  0.00  0.00    -0.271 OA
ATOM     99  N   LYS d   1      20.169   4.238 -20.485  0.00  0.00    -0.346 N 
ATOM    100  H62 LYS d   1      19.617   4.351 -21.311  0.00  0.00     0.163 HD
BRANCH  99 101
ATOM    101  CA  LYS d   1      21.615   4.539 -20.559  0.00  0.00     0.094 C 
ATOM    102  H63 LYS d   1      22.177   3.681 -20.161  0.00  0.00     0.088 H 
BRANCH 101 103
ATOM    103  C   LYS d   1      21.936   5.763 -19.787  0.00  0.00     0.241 C 
ATOM    104  O   LYS d   1      22.141   6.887 -20.384  0.00  0.00    -0.271 OA
ATOM    105  N   LYS d   1      22.002   5.583 -18.474  0.00  0.00    -0.345 N 
ATOM    106  H69 LYS d   1      22.037   4.659 -18.093  0.00  0.00     0.163 HD
BRANCH 105 107
ATOM    107  CA  LYS d   1      22.023   6.729 -17.604  0.00  0.00     0.096 C 
ATOM    108  H70 LYS d   1      22.684   7.501 -18.024  0.00  0.00     0.089 H 
BRANCH 107 109
ATOM    109  C   LYS d   1      22.537   6.323 -16.250  0.00  0.00     0.196 C 
ATOM    110  O   LYS d   1      23.296   5.355 -16.154  0.00  0.00    -0.646 OA
ATOM    111  OXT LYS d   1      22.193   6.963 -15.253  0.00  0.00    -0.646 OA
ENDBRANCH 107 109
BRANCH 107 112
ATOM    112  CB  LYS d   1      20.602   7.276 -17.506  0.00  0.00    -0.035 C 
ATOM    113  H71 LYS d   1      20.625   8.204 -16.917  0.00  0.00     0.036 H 
ATOM    114  H72 LYS d   1      19.976   6.531 -16.992  0.00  0.00     0.036 H 
BRANCH 112 115
ATOM    115  CG  LYS d   1      19.969   7.584 -18.880  0.00  0.00    -0.047 C 
ATOM    116  H73 LYS d   1      20.608   7.167 -19.672  0.00  0.00     0.035 H 
ATOM    117  H74 LYS d   1      19.894   8.674 -19.005  0.00  0.00     0.035 H 
BRANCH 115 118
ATOM    118  CD  LYS d   1      18.629   6.996 -18.985  0.00  0.00     0.009 C 
ATOM    119  H75 LYS d   1      18.428   6.430 -18.064  0.00  0.00     0.064 H 
ATOM    120  H76 LYS d   1      18.619   6.311 -19.846  0.00  0.00     0.064 H 
BRANCH 118 121
ATOM    121  NE  LYS d   1      17.570   7.961 -19.163  0.00  0.00    -0.227 N 
ATOM    122  CZ  LYS d   1      16.484   7.787 -19.934  0.00  0.00     0.665 C 
ATOM    123  NH1 LYS d   1      15.548   8.733 -19.965  0.00  0.00    -0.235 N 
ATOM    124  NH2 LYS d   1      16.306   6.688 -20.693  0.00  0.00    -0.235 N 
ATOM    125  H78 LYS d   1      14.711   8.610 -20.553  0.00  0.00     0.174 HD
ATOM    126  H79 LYS d   1      15.661   9.588 -19.401  0.00  0.00     0.174 HD
ATOM    127  H80 LYS d   1      17.014   5.939 -20.689  0.00  0.00     0.174 HD
ATOM    128  H81 LYS d   1      15.462   6.596 -21.277  0.00  0.00     0.174 HD
ATOM    129  H77 LYS d   1      17.654   8.855 -18.658  0.00  0.00     0.177 HD
ENDBRANCH 118 121
ENDBRANCH 115 118
ENDBRANCH 112 115
ENDBRANCH 107 112
ENDBRANCH 105 107
ENDBRANCH 101 103
BRANCH 101 130
ATOM    130  CB  LYS d   1      22.062   4.837 -21.985  0.00  0.00     0.002 C 
ATOM    131  H64 LYS d   1      22.924   5.520 -21.942  0.00  0.00     0.046 H 
ATOM    132  H65 LYS d   1      21.231   5.327 -22.513  0.00  0.00     0.046 H 
BRANCH 130 133
ATOM    133  CG  LYS d   1      22.457   3.636 -22.752  0.00  0.00     0.030 A 
ATOM    134  ND1 LYS d   1      22.804   2.439 -22.156  0.00  0.00    -0.353 N 
ATOM    135  CE1 LYS d   1      23.125   1.566 -23.091  0.00  0.00     0.063 A 
ATOM    136  H66 LYS d   1      22.811   2.257 -21.142  0.00  0.00     0.166 HD
ATOM    137  NE2 LYS d   1      23.016   2.161 -24.267  0.00  0.00    -0.254 NA
ATOM    138  H68 LYS d   1      23.428   0.533 -22.924  0.00  0.00     0.143 H 
ATOM    139  CD2 LYS d   1      22.605   3.458 -24.081  0.00  0.00     0.025 A 
ATOM    140  H67 LYS d   1      22.432   4.201 -24.858  0.00  0.00     0.117 H 
ENDBRANCH 130 133
ENDBRANCH 101 130
ENDBRANCH  99 101
ENDBRANCH  86  97
ENDBRANCH  81  83
BRANCH  81 141
ATOM    141  CB  LYS d   1      18.851  -0.608 -17.960  0.00  0.00    -0.030 C 
ATOM    142  H46 LYS d   1      18.665   0.146 -17.181  0.00  0.00     0.043 H 
BRANCH 141 143
ATOM    143  CG1 LYS d   1      20.368  -0.550 -18.316  0.00  0.00    -0.063 C 
ATOM    144  H47 LYS d   1      20.597   0.470 -18.657  0.00  0.00     0.033 H 
ATOM    145  H48 LYS d   1      20.551  -1.260 -19.136  0.00  0.00     0.033 H 
BRANCH 143 146
ATOM    146  CD1 LYS d   1      21.324  -0.890 -17.178  0.00  0.00    -0.076 C 
ATOM    147  H52 LYS d   1      22.361  -0.818 -17.537  0.00  0.00     0.027 H 
ATOM    148  H53 LYS d   1      21.127  -1.914 -16.827  0.00  0.00     0.027 H 
ATOM    149  H54 LYS d   1      21.173  -0.183 -16.349  0.00  0.00     0.027 H 
ENDBRANCH 143 146
ENDBRANCH 141 143
BRANCH 141 150
ATOM    150  CG2 LYS d   1      18.425  -1.956 -17.409  0.00  0.00    -0.071 C 
ATOM    151  H49 LYS d   1      17.350  -1.934 -17.178  0.00  0.00     0.028 H 
ATOM    152  H50 LYS d   1      18.993  -2.174 -16.492  0.00  0.00     0.028 H 
ATOM    153  H51 LYS d   1      18.623  -2.737 -18.157  0.00  0.00     0.028 H 
ENDBRANCH 141 150
ENDBRANCH  81 141
ENDBRANCH   3  81
TORSDOF 34
