REMARK  2 active torsions:
REMARK  status: ('A' for Active; 'I' for Inactive)
REMARK    1  A    between atoms: C13_3  and  C14_2 
REMARK       I    between atoms: N12_21  and  C13_3 
REMARK    2  A    between atoms: C2_9  and  N12_21 
ROOT
ATOM      1  C15 MOL d   1      25.523 221.887  53.016  0.00  0.00    -0.009 A 
ATOM      2  C17 MOL d   1      23.856 221.884  54.963  0.00  0.00     0.190 A 
ATOM      3  C7  MOL d   1      26.300 221.165  55.273  0.00  0.00    -0.068 A 
ATOM      4  C6  MOL d   1      24.749 222.658  50.707  0.00  0.00    -0.068 A 
ATOM      5  C5  MOL d   1      24.491 222.383  52.125  0.00  0.00     0.002 A 
ATOM      6  C2  MOL d   1      22.445 223.321  50.469  0.00  0.00     0.037 A 
ATOM      7  C4  MOL d   1      23.165 222.595  52.713  0.00  0.00     0.047 A 
ATOM      8  C3  MOL d   1      22.171 223.056  51.851  0.00  0.00    -0.030 A 
ATOM      9  C1  MOL d   1      23.733 223.140  49.861  0.00  0.00    -0.056 A 
ATOM     10  N9  MOL d   1      22.856 222.362  54.069  0.00  0.00    -0.333 N 
ATOM     11  C16 MOL d   1      25.226 221.641  54.434  0.00  0.00     0.029 A 
ATOM     12  C8  MOL d   1      27.576 220.947  54.726  0.00  0.00    -0.082 A 
ATOM     13  C10 MOL d   1      26.839 221.670  52.521  0.00  0.00    -0.071 A 
ATOM     14  C11 MOL d   1      27.837 221.203  53.367  0.00  0.00    -0.082 A 
ATOM     15  O9  MOL d   1      23.552 221.684  56.220  0.00  0.00    -0.171 OA
ATOM     16  H2  MOL d   1      26.122 220.976  56.325  0.00  0.00     0.085 H 
ATOM     17  H3  MOL d   1      25.741 222.487  50.304  0.00  0.00     0.085 H 
ATOM     18  H4  MOL d   1      21.170 223.218  52.234  0.00  0.00     0.090 H 
ATOM     19  H5  MOL d   1      23.912 223.361  48.815  0.00  0.00     0.086 H 
ATOM     20  H8  MOL d   1      21.930 222.533  54.405  0.00  0.00     0.168 HD
ATOM     21  H9  MOL d   1      28.372 220.576  55.361  0.00  0.00     0.083 H 
ATOM     22  H10 MOL d   1      27.064 221.870  51.480  0.00  0.00     0.084 H 
ATOM     23  H11 MOL d   1      28.833 221.033  52.974  0.00  0.00     0.083 H 
ENDROOT
BRANCH   6  24
ATOM     24  N12 MOL d   1      21.397 223.767  49.704  0.00  0.00    -0.323 N 
ATOM     25  C13 MOL d   1      20.216 224.225  50.213  0.00  0.00     0.256 C 
ATOM     26  O29 MOL d   1      19.866 224.261  51.441  0.00  0.00    -0.267 OA
ATOM     27  H12 MOL d   1      21.505 223.756  48.710  0.00  0.00     0.169 HD
BRANCH  25  28
ATOM     28  C14 MOL d   1      19.233 224.697  49.154  0.00  0.00     0.032 A 
ATOM     29  C18 MOL d   1      18.468 223.703  48.396  0.00  0.00    -0.068 A 
ATOM     30  C19 MOL d   1      17.545 224.092  47.426  0.00  0.00    -0.082 A 
ATOM     31  H1  MOL d   1      18.622 222.648  48.593  0.00  0.00     0.085 H 
ATOM     32  C20 MOL d   1      17.446 225.482  47.275  0.00  0.00    -0.083 A 
ATOM     33  H13 MOL d   1      16.961 223.388  46.845  0.00  0.00     0.083 H 
ATOM     34  C21 MOL d   1      18.202 226.444  48.012  0.00  0.00    -0.082 A 
ATOM     35  H14 MOL d   1      16.741 225.856  46.542  0.00  0.00     0.083 H 
ATOM     36  C22 MOL d   1      19.127 226.081  48.994  0.00  0.00    -0.068 A 
ATOM     37  H6  MOL d   1      18.052 227.497  47.801  0.00  0.00     0.083 H 
ATOM     38  H7  MOL d   1      19.701 226.797  49.571  0.00  0.00     0.085 H 
ENDBRANCH  25  28
ENDBRANCH   6  24
TORSDOF 2
