REMARK  16 active torsions:
REMARK  status: ('A' for Active; 'I' for Inactive)
REMARK    1  A    between atoms: CAD_1  and  CAS_2 
REMARK    2  A    between atoms: CAS_2  and  CAE_3 
REMARK    3  A    between atoms: CAS_2  and  CAK_4 
REMARK    4  A    between atoms: CAK_4  and  CAO_5 
REMARK    5  A    between atoms: CAO_5  and  CAX_6 
REMARK    6  A    between atoms: CAZ_8  and  OAF_9 
REMARK    7  A    between atoms: CAV_11  and  OAI_12 
REMARK    8  A    between atoms: CAW_13  and  CAN_14 
REMARK    9  A    between atoms: CAN_14  and  CAJ_15 
REMARK   10  A    between atoms: CAJ_15  and  CAR_16 
REMARK   11  A    between atoms: CAR_16  and  CAC_17 
REMARK   12  A    between atoms: CAR_16  and  CAB_18 
REMARK   13  A    between atoms: CAT_19  and  OAG_20 
REMARK   14  A    between atoms: CAU_26  and  OAH_27 
REMARK   15  A    between atoms: CAY_28  and  OAP_29 
REMARK   16  A    between atoms: OAP_29  and  CAA_30 
ROOT
ATOM      1  CAX MKS d   1      24.030 -12.098  17.712  0.00  0.00    -0.010 A 
ATOM      2  CBD MKS d   1      25.031 -11.115  17.253  0.00  0.00     0.018 A 
ATOM      3  CAZ MKS d   1      26.429 -11.451  16.824  0.00  0.00     0.095 C 
ATOM      4  CBC MKS d   1      27.297 -10.325  16.418  0.00  0.00     0.043 A 
ATOM      5  CAV MKS d   1      28.632 -10.578  16.007  0.00  0.00     0.086 A 
ATOM      6  CAW MKS d   1      29.517  -9.501  15.807  0.00  0.00     0.009 A 
ATOM      7  CAT MKS d   1      29.065  -8.156  16.022  0.00  0.00     0.077 A 
ATOM      8  CAL MKS d   1      27.749  -7.908  16.429  0.00  0.00    -0.017 A 
ATOM      9  CBA MKS d   1      26.855  -9.012  16.629  0.00  0.00     0.090 A 
ATOM     10  OAQ MKS d   1      25.545  -8.760  16.845  0.00  0.00    -0.309 OA
ATOM     11  CBB MKS d   1      24.640  -9.779  17.091  0.00  0.00     0.088 A 
ATOM     12  CAM MKS d   1      23.280  -9.357  17.365  0.00  0.00    -0.015 A 
ATOM     13  CAU MKS d   1      22.333 -10.304  17.807  0.00  0.00     0.102 A 
ATOM     14  CAY MKS d   1      22.710 -11.671  17.979  0.00  0.00     0.108 A 
ATOM     15  H12 MKS d   1      26.798 -11.470  17.860  0.00  0.00     0.098 H 
ATOM     16  H27 MKS d   1      27.409  -6.892  16.591  0.00  0.00     0.092 H 
ATOM     17  H28 MKS d   1      22.993  -8.320  17.231  0.00  0.00     0.092 H 
ENDROOT
BRANCH   1  18
ATOM     18  CAO MKS d   1      24.332 -13.582  17.981  0.00  0.00    -0.037 C 
ATOM     19  H10 MKS d   1      25.345 -13.636  18.407  0.00  0.00     0.040 H 
ATOM     20  H11 MKS d   1      23.602 -13.934  18.725  0.00  0.00     0.040 H 
BRANCH  18  21
ATOM     21  CAK MKS d   1      24.283 -14.569  16.787  0.00  0.00    -0.059 C 
ATOM     22  H8  MKS d   1      24.188 -13.964  15.873  0.00  0.00     0.034 H 
ATOM     23  H9  MKS d   1      25.243 -15.106  16.773  0.00  0.00     0.034 H 
BRANCH  21  24
ATOM     24  CAS MKS d   1      23.184 -15.621  16.741  0.00  0.00    -0.061 C 
ATOM     25  H4  MKS d   1      23.943 -16.417  16.728  0.00  0.00     0.038 H 
BRANCH  24  26
ATOM     26  CAD MKS d   1      22.595 -16.203  18.038  0.00  0.00    -0.073 C 
ATOM     27  H1  MKS d   1      21.820 -16.942  17.789  0.00  0.00     0.028 H 
ATOM     28  H2  MKS d   1      22.151 -15.393  18.635  0.00  0.00     0.028 H 
ATOM     29  H3  MKS d   1      23.393 -16.690  18.617  0.00  0.00     0.028 H 
ENDBRANCH  24  26
BRANCH  24  30
ATOM     30  CAE MKS d   1      22.662 -16.084  15.405  0.00  0.00    -0.073 C 
ATOM     31  H5  MKS d   1      23.199 -15.561  14.600  0.00  0.00     0.028 H 
ATOM     32  H6  MKS d   1      21.587 -15.861  15.334  0.00  0.00     0.028 H 
ATOM     33  H7  MKS d   1      22.818 -17.168  15.306  0.00  0.00     0.028 H 
ENDBRANCH  24  30
ENDBRANCH  21  24
ENDBRANCH  18  21
ENDBRANCH   1  18
BRANCH  14  34
ATOM     34  OAP MKS d   1      21.718 -12.624  18.170  0.00  0.00    -0.353 OA
BRANCH  34  35
ATOM     35  CAA MKS d   1      20.872 -12.997  17.112  0.00  0.00     0.011 C 
ATOM     36  H30 MKS d   1      20.160 -13.758  17.463  0.00  0.00     0.067 H 
ATOM     37  H31 MKS d   1      21.474 -13.410  16.289  0.00  0.00     0.067 H 
ATOM     38  H32 MKS d   1      20.320 -12.115  16.756  0.00  0.00     0.067 H 
ENDBRANCH  34  35
ENDBRANCH  14  34
BRANCH   3  39
ATOM     39  OAF MKS d   1      26.899 -12.738  16.563  0.00  0.00    -0.386 OA
ATOM     40  H13 MKS d   1      27.813 -12.694  16.309  0.00  0.00     0.210 HD
ENDBRANCH   3  39
BRANCH  13  41
ATOM     41  OAH MKS d   1      21.016  -9.907  18.039  0.00  0.00    -0.358 OA
ATOM     42  H29 MKS d   1      20.508 -10.655  18.330  0.00  0.00     0.217 HD
ENDBRANCH  13  41
BRANCH   5  43
ATOM     43  OAI MKS d   1      29.086 -11.885  15.964  0.00  0.00    -0.359 OA
ATOM     44  H14 MKS d   1      28.551 -12.385  15.358  0.00  0.00     0.217 HD
ENDBRANCH   5  43
BRANCH   6  45
ATOM     45  CAN MKS d   1      30.927  -9.741  15.368  0.00  0.00    -0.035 C 
ATOM     46  H15 MKS d   1      31.211  -8.912  14.703  0.00  0.00     0.040 H 
ATOM     47  H16 MKS d   1      30.941 -10.685  14.804  0.00  0.00     0.040 H 
BRANCH  45  48
ATOM     48  CAJ MKS d   1      31.987  -9.841  16.449  0.00  0.00    -0.059 C 
ATOM     49  H17 MKS d   1      32.364 -10.874  16.451  0.00  0.00     0.034 H 
ATOM     50  H18 MKS d   1      31.502  -9.626  17.412  0.00  0.00     0.034 H 
BRANCH  48  51
ATOM     51  CAR MKS d   1      33.212  -8.894  16.318  0.00  0.00    -0.061 C 
ATOM     52  H19 MKS d   1      33.886  -9.738  16.529  0.00  0.00     0.038 H 
BRANCH  51  53
ATOM     53  CAC MKS d   1      33.742  -8.164  17.533  0.00  0.00    -0.073 C 
ATOM     54  H20 MKS d   1      34.605  -7.547  17.242  0.00  0.00     0.028 H 
ATOM     55  H21 MKS d   1      34.054  -8.895  18.293  0.00  0.00     0.028 H 
ATOM     56  H22 MKS d   1      32.953  -7.519  17.947  0.00  0.00     0.028 H 
ENDBRANCH  51  53
BRANCH  51  57
ATOM     57  CAB MKS d   1      33.872  -8.697  14.993  0.00  0.00    -0.073 C 
ATOM     58  H23 MKS d   1      33.356  -9.302  14.233  0.00  0.00     0.028 H 
ATOM     59  H24 MKS d   1      34.925  -9.010  15.058  0.00  0.00     0.028 H 
ATOM     60  H25 MKS d   1      33.822  -7.635  14.713  0.00  0.00     0.028 H 
ENDBRANCH  51  57
ENDBRANCH  48  51
ENDBRANCH  45  48
ENDBRANCH   6  45
BRANCH   7  61
ATOM     61  OAG MKS d   1      29.937  -7.098  15.826  0.00  0.00    -0.360 OA
ATOM     62  H26 MKS d   1      29.488  -6.281  16.009  0.00  0.00     0.217 HD
ENDBRANCH   7  61
TORSDOF 16
