REMARK  12 active torsions:
REMARK  status: ('A' for Active; 'I' for Inactive)
REMARK    1  A    between atoms: C11_16  and  C10_1 
REMARK    2  A    between atoms: C13_2  and  O12_17 
REMARK       I    between atoms: NZ_19  and  C13_2 
REMARK    3  A    between atoms: CD_3  and  CE_20 
REMARK    4  A    between atoms: CG_21  and  CD_3 
REMARK    5  A    between atoms: CA_4  and  C_5 
REMARK    6  A    between atoms: CB_22  and  CA_4 
REMARK    7  A    between atoms: CA_4  and  N_23 
REMARK    8  A    between atoms: C3_9  and  C4_10 
REMARK    9  A    between atoms: C8_14  and  C3_9 
REMARK   10  A    between atoms: O12_17  and  C11_16 
REMARK   11  A    between atoms: CE_20  and  NZ_19 
REMARK   12  A    between atoms: CG_21  and  CB_22 
ROOT
ATOM      1  C13 MOL d   1      76.575  25.065  14.142  0.00  0.00     0.360 C 
ATOM      2  O14 MOL d   1      76.127  23.968  14.150  0.00  0.00    -0.239 OA
ATOM      3  NZ  MOL d   1      75.643  26.160  13.972  0.00  0.00    -0.337 N 
ATOM      4  H8  MOL d   1      75.946  27.104  13.845  0.00  0.00     0.164 HD
ENDROOT
BRANCH   1   5
ATOM      5  O12 MOL d   1      77.977  25.199  14.253  0.00  0.00    -0.299 OA
BRANCH   5   6
ATOM      6  C11 MOL d   1      78.657  24.848  13.028  0.00  0.00     0.054 C 
ATOM      7  H6  MOL d   1      79.705  24.633  13.283  0.00  0.00     0.082 H 
ATOM      8  H7  MOL d   1      78.180  23.938  12.636  0.00  0.00     0.082 H 
BRANCH   6   9
ATOM      9  C10 MOL d   1      78.663  25.900  11.884  0.00  0.00    -0.033 A 
ATOM     10  C9  MOL d   1      78.453  27.278  11.913  0.00  0.00    -0.064 A 
ATOM     11  C8  MOL d   1      78.588  28.010  10.703  0.00  0.00     0.007 A 
ATOM     12  H5  MOL d   1      78.193  27.780  12.838  0.00  0.00     0.085 H 
ATOM     13  C27 MOL d   1      78.894  27.383   9.540  0.00  0.00    -0.072 A 
ATOM     14  C26 MOL d   1      79.112  26.039   9.501  0.00  0.00    -0.082 A 
ATOM     15  H19 MOL d   1      78.966  27.961   8.626  0.00  0.00     0.084 H 
ATOM     16  C25 MOL d   1      78.996  25.341  10.678  0.00  0.00    -0.075 A 
ATOM     17  H4  MOL d   1      79.368  25.538   8.574  0.00  0.00     0.083 H 
ATOM     18  H18 MOL d   1      79.181  24.273  10.651  0.00  0.00     0.084 H 
BRANCH  11  19
ATOM     19  C3  MOL d   1      78.367  29.511  10.497  0.00  0.00     0.309 A 
ATOM     20  N1  MOL d   1      77.380  29.941   9.484  0.00  0.00    -0.143 NA
ATOM     21  N2  MOL d   1      78.616  30.030   9.160  0.00  0.00    -0.143 NA
BRANCH  19  22
ATOM     22  C4  MOL d   1      78.708  30.384  11.704  0.00  0.00     0.443 C 
ATOM     23  F5  MOL d   1      79.240  29.726  12.755  0.00  0.00    -0.166 F 
ATOM     24  F6  MOL d   1      77.598  31.008  12.107  0.00  0.00    -0.166 F 
ATOM     25  F7  MOL d   1      79.569  31.305  11.272  0.00  0.00    -0.166 F 
ENDBRANCH  19  22
ENDBRANCH  11  19
ENDBRANCH   6   9
ENDBRANCH   5   6
ENDBRANCH   1   5
BRANCH   3  26
ATOM     26  CE  MOL d   1      74.234  25.793  13.998  0.00  0.00    -0.003 C 
ATOM     27  H9  MOL d   1      73.618  26.622  13.618  0.00  0.00     0.064 H 
ATOM     28  H10 MOL d   1      74.063  24.897  13.383  0.00  0.00     0.064 H 
BRANCH  26  29
ATOM     29  CD  MOL d   1      73.893  25.508  15.443  0.00  0.00    -0.050 C 
ATOM     30  H1  MOL d   1      74.572  26.090  16.083  0.00  0.00     0.035 H 
ATOM     31  H2  MOL d   1      74.042  24.434  15.631  0.00  0.00     0.035 H 
BRANCH  29  32
ATOM     32  CG  MOL d   1      72.458  25.868  15.809  0.00  0.00    -0.061 C 
ATOM     33  H11 MOL d   1      71.825  24.969  15.767  0.00  0.00     0.033 H 
ATOM     34  H12 MOL d   1      72.072  26.622  15.107  0.00  0.00     0.033 H 
BRANCH  32  35
ATOM     35  CB  MOL d   1      72.460  26.435  17.231  0.00  0.00    -0.029 C 
ATOM     36  H13 MOL d   1      71.449  26.362  17.658  0.00  0.00     0.036 H 
ATOM     37  H14 MOL d   1      73.163  25.863  17.855  0.00  0.00     0.036 H 
BRANCH  35  38
ATOM     38  CA  MOL d   1      72.891  27.898  17.184  0.00  0.00     0.182 C 
ATOM     39  H3  MOL d   1      72.519  28.297  16.229  0.00  0.00     0.101 H 
BRANCH  38  40
ATOM     40  C   MOL d   1      72.355  28.819  18.288  0.00  0.00     0.204 C 
ATOM     41  OXT MOL d   1      72.754  28.624  19.577  0.00  0.00    -0.646 OA
ATOM     42  O   MOL d   1      71.527  29.855  17.939  0.00  0.00    -0.646 OA
ENDBRANCH  38  40
BRANCH  38  43
ATOM     43  N   MOL d   1      74.371  28.014  17.186  0.00  0.00    -0.065 N 
ATOM     44  H15 MOL d   1      74.632  28.987  17.155  0.00  0.00     0.275 HD
ATOM     45  H16 MOL d   1      74.746  27.540  16.380  0.00  0.00     0.275 HD
ATOM     46  H17 MOL d   1      74.740  27.594  18.025  0.00  0.00     0.275 HD
ENDBRANCH  38  43
ENDBRANCH  35  38
ENDBRANCH  32  35
ENDBRANCH  29  32
ENDBRANCH  26  29
ENDBRANCH   3  26
TORSDOF 12
