REMARK  4 active torsions:
REMARK  status: ('A' for Active; 'I' for Inactive)
REMARK    1  A    between atoms: C2_5  and  C10_8 
REMARK    2  A    between atoms: N13_22  and  C1_6 
REMARK       I    between atoms: C10_8  and  N12_21 
REMARK    3  A    between atoms: C18_17  and  N13_22 
REMARK    4  A    between atoms: C20_18  and  O24_24 
ROOT
ATOM      1  C19 9T6 d   1     -18.472   1.343 -17.292  0.00  0.00    -0.056 C 
ATOM      2  C23 9T6 d   1     -18.525  -0.626 -18.811  0.00  0.00    -0.056 C 
ATOM      3  C22 9T6 d   1     -18.154   1.617 -19.780  0.00  0.00    -0.033 C 
ATOM      4  C15 9T6 d   1     -16.254   2.060 -18.208  0.00  0.00    -0.031 C 
ATOM      5  C16 9T6 d   1     -16.249   0.035 -19.686  0.00  0.00    -0.031 C 
ATOM      6  C21 9T6 d   1     -18.902   0.854 -18.682  0.00  0.00    -0.051 C 
ATOM      7  C14 9T6 d   1     -16.960   1.231 -17.131  0.00  0.00    -0.031 C 
ATOM      8  C17 9T6 d   1     -16.997  -0.774 -18.606  0.00  0.00    -0.031 C 
ATOM      9  C18 9T6 d   1     -16.537  -0.249 -17.253  0.00  0.00     0.017 C 
ATOM     10  C20 9T6 d   1     -16.644   1.519 -19.591  0.00  0.00     0.059 C 
ATOM     11  H4  9T6 d   1     -18.964   0.729 -16.524  0.00  0.00     0.034 H 
ATOM     12  H5  9T6 d   1     -18.772   2.394 -17.169  0.00  0.00     0.034 H 
ATOM     13  H6  9T6 d   1     -18.800  -0.991 -19.811  0.00  0.00     0.034 H 
ATOM     14  H7  9T6 d   1     -19.058  -1.211 -18.047  0.00  0.00     0.034 H 
ATOM     15  H8  9T6 d   1     -18.451   2.675 -19.747  0.00  0.00     0.037 H 
ATOM     16  H9  9T6 d   1     -18.421   1.191 -20.758  0.00  0.00     0.037 H 
ATOM     17  H10 9T6 d   1     -15.165   1.985 -18.076  0.00  0.00     0.038 H 
ATOM     18  H11 9T6 d   1     -16.561   3.113 -18.124  0.00  0.00     0.038 H 
ATOM     19  H12 9T6 d   1     -16.515  -0.351 -20.681  0.00  0.00     0.038 H 
ATOM     20  H13 9T6 d   1     -15.165  -0.065 -19.532  0.00  0.00     0.038 H 
ATOM     21  H14 9T6 d   1     -19.987   0.987 -18.805  0.00  0.00     0.040 H 
ATOM     22  H15 9T6 d   1     -16.673   1.609 -16.139  0.00  0.00     0.043 H 
ATOM     23  H16 9T6 d   1     -16.732  -1.838 -18.689  0.00  0.00     0.043 H 
ATOM     24  H17 9T6 d   1     -15.441  -0.321 -17.194  0.00  0.00     0.073 H 
ENDROOT
BRANCH   9  25
ATOM     25  N13 9T6 d   1     -17.120  -1.020 -16.155  0.00  0.00    -0.383 N 
ATOM     26  H21 9T6 d   1     -17.864  -1.689 -16.398  0.00  0.00     0.160 HD
BRANCH  25  27
ATOM     27  C1  9T6 d   1     -16.770  -0.936 -14.837  0.00  0.00     0.059 A 
ATOM     28  C5  9T6 d   1     -15.571  -0.308 -14.403  0.00  0.00     0.039 A 
ATOM     29  C9  9T6 d   1     -14.483   0.381 -14.986  0.00  0.00    -0.052 A 
ATOM     30  C6  9T6 d   1     -15.257  -0.280 -13.048  0.00  0.00     0.139 A 
ATOM     31  C8  9T6 d   1     -13.650   0.739 -14.010  0.00  0.00    -0.020 A 
ATOM     32  H1  9T6 d   1     -14.349   0.584 -16.048  0.00  0.00     0.087 H 
ATOM     33  N7  9T6 d   1     -14.128   0.334 -12.855  0.00  0.00    -0.350 N 
ATOM     34  H3  9T6 d   1     -12.717   1.283 -14.148  0.00  0.00     0.111 H 
ATOM     35  H18 9T6 d   1     -13.678   0.480 -11.940  0.00  0.00     0.166 HD
ATOM     36  N4  9T6 d   1     -16.090  -0.873 -12.171  0.00  0.00    -0.241 NA
ATOM     37  C3  9T6 d   1     -17.218  -1.459 -12.537  0.00  0.00     0.022 A 
ATOM     38  C2  9T6 d   1     -17.615  -1.542 -13.851  0.00  0.00     0.076 A 
ATOM     39  H2  9T6 d   1     -17.854  -1.890 -11.772  0.00  0.00     0.116 H 
BRANCH  38  40
ATOM     40  C10 9T6 d   1     -18.876  -2.247 -14.171  0.00  0.00     0.253 C 
ATOM     41  N12 9T6 d   1     -19.644  -2.877 -13.240  0.00  0.00    -0.366 N 
ATOM     42  H19 9T6 d   1     -20.488  -3.337 -13.516  0.00  0.00     0.159 HD
ATOM     43  H20 9T6 d   1     -19.365  -2.879 -12.280  0.00  0.00     0.159 HD
ATOM     44  O11 9T6 d   1     -19.269  -2.289 -15.322  0.00  0.00    -0.268 OA
ENDBRANCH  38  40
ENDBRANCH  25  27
ENDBRANCH   9  25
BRANCH  10  45
ATOM     45  O24 9T6 d   1     -16.009   2.278 -20.612  0.00  0.00    -0.390 OA
ATOM     46  H22 9T6 d   1     -16.280   3.186 -20.545  0.00  0.00     0.210 HD
ENDBRANCH  10  45
TORSDOF 4
