REMARK  4 active torsions:
REMARK  status: ('A' for Active; 'I' for Inactive)
REMARK    1  A    between atoms: C2_5  and  C10_8 
REMARK    2  A    between atoms: N13_22  and  C1_6 
REMARK       I    between atoms: C10_8  and  N12_21 
REMARK    3  A    between atoms: C18_17  and  N13_22 
REMARK    4  A    between atoms: C20_18  and  O24_24 
ROOT
ATOM      1  C19 9T6 d   1      12.726   5.194  45.687  0.00  0.00    -0.056 C 
ATOM      2  C23 9T6 d   1      12.207   6.817  43.897  0.00  0.00    -0.056 C 
ATOM      3  C22 9T6 d   1      13.887   7.424  45.554  0.00  0.00    -0.033 C 
ATOM      4  C15 9T6 d   1      15.129   5.330  45.102  0.00  0.00    -0.031 C 
ATOM      5  C16 9T6 d   1      14.583   6.909  43.243  0.00  0.00    -0.031 C 
ATOM      6  C21 9T6 d   1      12.571   6.678  45.358  0.00  0.00    -0.051 C 
ATOM      7  C14 9T6 d   1      13.834   4.565  44.849  0.00  0.00    -0.031 C 
ATOM      8  C17 9T6 d   1      13.287   6.161  43.043  0.00  0.00    -0.031 C 
ATOM      9  C18 9T6 d   1      13.556   4.682  43.362  0.00  0.00     0.017 C 
ATOM     10  C20 9T6 d   1      14.961   6.795  44.690  0.00  0.00     0.059 C 
ATOM     11  H4  9T6 d   1      11.778   4.677  45.477  0.00  0.00     0.034 H 
ATOM     12  H5  9T6 d   1      12.975   5.085  46.753  0.00  0.00     0.034 H 
ATOM     13  H6  9T6 d   1      12.131   7.883  43.637  0.00  0.00     0.034 H 
ATOM     14  H7  9T6 d   1      11.242   6.324  43.711  0.00  0.00     0.034 H 
ATOM     15  H8  9T6 d   1      14.187   7.366  46.611  0.00  0.00     0.037 H 
ATOM     16  H9  9T6 d   1      13.757   8.478  45.267  0.00  0.00     0.037 H 
ATOM     17  H10 9T6 d   1      15.941   4.877  44.514  0.00  0.00     0.038 H 
ATOM     18  H11 9T6 d   1      15.379   5.279  46.172  0.00  0.00     0.038 H 
ATOM     19  H12 9T6 d   1      14.450   7.967  42.974  0.00  0.00     0.038 H 
ATOM     20  H13 9T6 d   1      15.371   6.467  42.615  0.00  0.00     0.038 H 
ATOM     21  H14 9T6 d   1      11.789   7.118  45.994  0.00  0.00     0.040 H 
ATOM     22  H15 9T6 d   1      13.948   3.507  45.127  0.00  0.00     0.043 H 
ATOM     23  H16 9T6 d   1      12.979   6.235  41.990  0.00  0.00     0.043 H 
ATOM     24  H17 9T6 d   1      14.449   4.338  42.820  0.00  0.00     0.073 H 
ENDROOT
BRANCH   9  25
ATOM     25  N13 9T6 d   1      12.400   3.933  42.866  0.00  0.00    -0.383 N 
ATOM     26  H21 9T6 d   1      11.559   3.746  43.430  0.00  0.00     0.160 HD
BRANCH  25  27
ATOM     27  C1  9T6 d   1      12.560   3.491  41.524  0.00  0.00     0.059 A 
ATOM     28  C5  9T6 d   1      13.699   3.672  40.740  0.00  0.00     0.039 A 
ATOM     29  C9  9T6 d   1      14.983   4.259  40.907  0.00  0.00    -0.052 A 
ATOM     30  C6  9T6 d   1      13.669   3.174  39.442  0.00  0.00     0.139 A 
ATOM     31  C8  9T6 d   1      15.685   4.105  39.726  0.00  0.00    -0.020 A 
ATOM     32  H1  9T6 d   1      15.350   4.746  41.809  0.00  0.00     0.087 H 
ATOM     33  N7  9T6 d   1      14.873   3.446  38.847  0.00  0.00    -0.350 N 
ATOM     34  H3  9T6 d   1      16.701   4.447  39.532  0.00  0.00     0.111 H 
ATOM     35  H18 9T6 d   1      15.128   3.192  37.882  0.00  0.00     0.166 HD
ATOM     36  N4  9T6 d   1      12.651   2.527  38.839  0.00  0.00    -0.241 NA
ATOM     37  C3  9T6 d   1      11.567   2.371  39.607  0.00  0.00     0.022 A 
ATOM     38  C2  9T6 d   1      11.516   2.823  40.910  0.00  0.00     0.076 A 
ATOM     39  H2  9T6 d   1      10.699   1.872  39.192  0.00  0.00     0.116 H 
BRANCH  38  40
ATOM     40  C10 9T6 d   1      10.276   2.591  41.614  0.00  0.00     0.253 C 
ATOM     41  N12 9T6 d   1       9.318   2.153  40.753  0.00  0.00    -0.366 N 
ATOM     42  H19 9T6 d   1       8.399   1.947  41.090  0.00  0.00     0.159 HD
ATOM     43  H20 9T6 d   1       9.533   2.037  39.783  0.00  0.00     0.159 HD
ATOM     44  O11 9T6 d   1      10.166   2.796  42.813  0.00  0.00    -0.268 OA
ENDBRANCH  38  40
ENDBRANCH  25  27
ENDBRANCH   9  25
BRANCH  10  45
ATOM     45  O24 9T6 d   1      16.157   7.537  44.776  0.00  0.00    -0.390 OA
ATOM     46  H22 9T6 d   1      15.992   8.434  44.510  0.00  0.00     0.210 HD
ENDBRANCH  10  45
TORSDOF 4
