REMARK  4 active torsions:
REMARK  status: ('A' for Active; 'I' for Inactive)
REMARK    1  A    between atoms: C2_5  and  C10_8 
REMARK    2  A    between atoms: N13_22  and  C1_6 
REMARK       I    between atoms: C10_8  and  N12_21 
REMARK    3  A    between atoms: C18_17  and  N13_22 
REMARK    4  A    between atoms: C20_18  and  O24_24 
ROOT
ATOM      1  C19 9T6 d   1      14.723 -35.839  48.053  0.00  0.00    -0.056 C 
ATOM      2  C23 9T6 d   1      12.219 -35.766  47.967  0.00  0.00    -0.056 C 
ATOM      3  C22 9T6 d   1      13.518 -35.515  45.870  0.00  0.00    -0.033 C 
ATOM      4  C15 9T6 d   1      14.745 -37.644  46.376  0.00  0.00    -0.031 C 
ATOM      5  C16 9T6 d   1      12.232 -37.600  46.226  0.00  0.00    -0.031 C 
ATOM      6  C21 9T6 d   1      13.502 -35.208  47.369  0.00  0.00    -0.051 C 
ATOM      7  C14 9T6 d   1      14.645 -37.359  47.878  0.00  0.00    -0.031 C 
ATOM      8  C17 9T6 d   1      12.144 -37.277  47.724  0.00  0.00    -0.031 C 
ATOM      9  C18 9T6 d   1      13.322 -37.957  48.412  0.00  0.00     0.017 C 
ATOM     10  C20 9T6 d   1      13.536 -37.037  45.655  0.00  0.00     0.059 C 
ATOM     11  H4  9T6 d   1      14.720 -35.588  49.124  0.00  0.00     0.034 H 
ATOM     12  H5  9T6 d   1      15.646 -35.459  47.590  0.00  0.00     0.034 H 
ATOM     13  H6  9T6 d   1      11.354 -35.277  47.495  0.00  0.00     0.034 H 
ATOM     14  H7  9T6 d   1      12.206 -35.570  49.049  0.00  0.00     0.034 H 
ATOM     15  H8  9T6 d   1      14.415 -35.071  45.415  0.00  0.00     0.037 H 
ATOM     16  H9  9T6 d   1      12.619 -35.090  45.400  0.00  0.00     0.037 H 
ATOM     17  H10 9T6 d   1      14.762 -38.731  46.210  0.00  0.00     0.038 H 
ATOM     18  H11 9T6 d   1      15.669 -37.198  45.980  0.00  0.00     0.038 H 
ATOM     19  H12 9T6 d   1      11.377 -37.146  45.703  0.00  0.00     0.038 H 
ATOM     20  H13 9T6 d   1      12.211 -38.691  46.085  0.00  0.00     0.038 H 
ATOM     21  H14 9T6 d   1      13.530 -34.118  47.518  0.00  0.00     0.040 H 
ATOM     22  H15 9T6 d   1      15.487 -37.828  48.408  0.00  0.00     0.043 H 
ATOM     23  H16 9T6 d   1      11.198 -37.664  48.130  0.00  0.00     0.043 H 
ATOM     24  H17 9T6 d   1      13.305 -39.025  48.148  0.00  0.00     0.073 H 
ENDROOT
BRANCH   9  25
ATOM     25  N13 9T6 d   1      13.199 -37.859  49.877  0.00  0.00    -0.383 N 
ATOM     26  H21 9T6 d   1      13.961 -37.378  50.377  0.00  0.00     0.160 HD
BRANCH  25  27
ATOM     27  C1  9T6 d   1      12.141 -38.359  50.660  0.00  0.00     0.059 A 
ATOM     28  C5  9T6 d   1      11.320 -39.454  50.246  0.00  0.00     0.039 A 
ATOM     29  C9  9T6 d   1      11.198 -40.310  49.118  0.00  0.00    -0.052 A 
ATOM     30  C6  9T6 d   1      10.287 -39.917  51.105  0.00  0.00     0.139 A 
ATOM     31  C8  9T6 d   1      10.174 -41.164  49.346  0.00  0.00    -0.020 A 
ATOM     32  H1  9T6 d   1      11.821 -40.283  48.225  0.00  0.00     0.087 H 
ATOM     33  N7  9T6 d   1       9.651 -40.920  50.525  0.00  0.00    -0.350 N 
ATOM     34  H3  9T6 d   1       9.835 -41.936  48.657  0.00  0.00     0.111 H 
ATOM     35  H18 9T6 d   1       8.860 -41.435  50.938  0.00  0.00     0.166 HD
ATOM     36  N4  9T6 d   1      10.092 -39.317  52.320  0.00  0.00    -0.241 NA
ATOM     37  C3  9T6 d   1      10.833 -38.295  52.739  0.00  0.00     0.022 A 
ATOM     38  C2  9T6 d   1      11.869 -37.794  51.967  0.00  0.00     0.076 A 
ATOM     39  H2  9T6 d   1      10.623 -37.846  53.703  0.00  0.00     0.116 H 
BRANCH  38  40
ATOM     40  C10 9T6 d   1      12.620 -36.629  52.494  0.00  0.00     0.253 C 
ATOM     41  N12 9T6 d   1      12.749 -36.347  53.805  0.00  0.00    -0.366 N 
ATOM     42  H19 9T6 d   1      13.270 -35.544  54.095  0.00  0.00     0.159 HD
ATOM     43  H20 9T6 d   1      12.324 -36.941  54.488  0.00  0.00     0.159 HD
ATOM     44  O11 9T6 d   1      13.091 -35.828  51.704  0.00  0.00    -0.268 OA
ENDBRANCH  38  40
ENDBRANCH  25  27
ENDBRANCH   9  25
BRANCH  10  45
ATOM     45  O24 9T6 d   1      13.614 -37.364  44.274  0.00  0.00    -0.390 OA
ATOM     46  H22 9T6 d   1      12.868 -36.992  43.819  0.00  0.00     0.210 HD
ENDBRANCH  10  45
TORSDOF 4
