REMARK  4 active torsions:
REMARK  status: ('A' for Active; 'I' for Inactive)
REMARK    1  A    between atoms: C2_5  and  C10_8 
REMARK    2  A    between atoms: N13_22  and  C1_6 
REMARK       I    between atoms: C10_8  and  N12_21 
REMARK    3  A    between atoms: C18_17  and  N13_22 
REMARK    4  A    between atoms: C20_18  and  O24_24 
ROOT
ATOM      1  C19 9T6 d   1      -5.171  21.872 -28.502  0.00  0.00    -0.056 C 
ATOM      2  C23 9T6 d   1      -2.880  21.993 -29.520  0.00  0.00    -0.056 C 
ATOM      3  C22 9T6 d   1      -3.364  20.312 -27.804  0.00  0.00    -0.033 C 
ATOM      4  C15 9T6 d   1      -5.300  19.476 -29.196  0.00  0.00    -0.031 C 
ATOM      5  C16 9T6 d   1      -3.001  19.603 -30.183  0.00  0.00    -0.031 C 
ATOM      6  C21 9T6 d   1      -3.664  21.752 -28.230  0.00  0.00    -0.051 C 
ATOM      7  C14 9T6 d   1      -5.639  20.914 -29.603  0.00  0.00    -0.031 C 
ATOM      8  C17 9T6 d   1      -3.316  21.018 -30.635  0.00  0.00    -0.031 C 
ATOM      9  C18 9T6 d   1      -4.827  21.085 -30.891  0.00  0.00     0.017 C 
ATOM     10  C20 9T6 d   1      -3.804  19.344 -28.897  0.00  0.00     0.059 C 
ATOM     11  H4  9T6 d   1      -5.394  22.904 -28.812  0.00  0.00     0.034 H 
ATOM     12  H5  9T6 d   1      -5.718  21.641 -27.576  0.00  0.00     0.034 H 
ATOM     13  H6  9T6 d   1      -1.808  21.851 -29.319  0.00  0.00     0.034 H 
ATOM     14  H7  9T6 d   1      -3.056  23.025 -29.858  0.00  0.00     0.034 H 
ATOM     15  H8  9T6 d   1      -3.909  20.085 -26.876  0.00  0.00     0.037 H 
ATOM     16  H9  9T6 d   1      -2.283  20.200 -27.632  0.00  0.00     0.037 H 
ATOM     17  H10 9T6 d   1      -5.567  18.794 -30.017  0.00  0.00     0.038 H 
ATOM     18  H11 9T6 d   1      -5.874  19.209 -28.297  0.00  0.00     0.038 H 
ATOM     19  H12 9T6 d   1      -1.924  19.503 -29.981  0.00  0.00     0.038 H 
ATOM     20  H13 9T6 d   1      -3.296  18.885 -30.962  0.00  0.00     0.038 H 
ATOM     21  H14 9T6 d   1      -3.359  22.466 -27.451  0.00  0.00     0.040 H 
ATOM     22  H15 9T6 d   1      -6.715  21.047 -29.786  0.00  0.00     0.043 H 
ATOM     23  H16 9T6 d   1      -2.772  21.254 -31.562  0.00  0.00     0.043 H 
ATOM     24  H17 9T6 d   1      -5.134  20.291 -31.588  0.00  0.00     0.073 H 
ENDROOT
BRANCH   9  25
ATOM     25  N13 9T6 d   1      -4.951  22.356 -31.523  0.00  0.00    -0.383 N 
ATOM     26  H21 9T6 d   1      -4.095  22.929 -31.538  0.00  0.00     0.160 HD
BRANCH  25  27
ATOM     27  C1  9T6 d   1      -6.064  22.929 -32.121  0.00  0.00     0.059 A 
ATOM     28  C5  9T6 d   1      -6.044  24.267 -31.795  0.00  0.00     0.039 A 
ATOM     29  C9  9T6 d   1      -5.158  25.040 -30.990  0.00  0.00    -0.052 A 
ATOM     30  C6  9T6 d   1      -7.012  25.097 -32.295  0.00  0.00     0.139 A 
ATOM     31  C8  9T6 d   1      -5.597  26.333 -30.998  0.00  0.00    -0.020 A 
ATOM     32  H1  9T6 d   1      -4.283  24.665 -30.461  0.00  0.00     0.087 H 
ATOM     33  N7  9T6 d   1      -6.709  26.332 -31.782  0.00  0.00    -0.350 N 
ATOM     34  H3  9T6 d   1      -5.152  27.184 -30.486  0.00  0.00     0.111 H 
ATOM     35  H18 9T6 d   1      -7.268  27.176 -31.971  0.00  0.00     0.166 HD
ATOM     36  N4  9T6 d   1      -8.033  24.754 -33.110  0.00  0.00    -0.241 NA
ATOM     37  C3  9T6 d   1      -8.010  23.441 -33.411  0.00  0.00     0.022 A 
ATOM     38  C2  9T6 d   1      -7.085  22.507 -32.959  0.00  0.00     0.076 A 
ATOM     39  H2  9T6 d   1      -8.790  23.077 -34.071  0.00  0.00     0.116 H 
BRANCH  38  40
ATOM     40  C10 9T6 d   1      -7.294  21.126 -33.439  0.00  0.00     0.253 C 
ATOM     41  N12 9T6 d   1      -8.401  21.015 -34.237  0.00  0.00    -0.366 N 
ATOM     42  H19 9T6 d   1      -8.650  20.128 -34.626  0.00  0.00     0.159 HD
ATOM     43  H20 9T6 d   1      -8.960  21.821 -34.431  0.00  0.00     0.159 HD
ATOM     44  O11 9T6 d   1      -6.582  20.170 -33.174  0.00  0.00    -0.268 OA
ENDBRANCH  38  40
ENDBRANCH  25  27
ENDBRANCH   9  25
BRANCH  10  45
ATOM     45  O24 9T6 d   1      -3.537  18.047 -28.418  0.00  0.00    -0.390 OA
ATOM     46  H22 9T6 d   1      -4.035  17.895 -27.623  0.00  0.00     0.210 HD
ENDBRANCH  10  45
TORSDOF 4
