REMARK  11 active torsions:
REMARK  status: ('A' for Active; 'I' for Inactive)
REMARK    1  A    between atoms: C14_19  and  C15_1 
REMARK    2  A    between atoms: C17_2  and  C18_21 
REMARK    3  A    between atoms: CA_9  and  C_7 
REMARK    4  A    between atoms: CA_9  and  N_10 
REMARK    5  A    between atoms: CB_11  and  CA_9 
REMARK    6  A    between atoms: CG_12  and  CB_11 
REMARK    7  A    between atoms: CD_13  and  CG_12 
REMARK    8  A    between atoms: CE_14  and  CD_13 
REMARK    9  A    between atoms: NZ_15  and  CE_14 
REMARK       I    between atoms: C11_16  and  NZ_15 
REMARK   10  A    between atoms: O13_18  and  C11_16 
REMARK   11  A    between atoms: O13_18  and  C14_19 
ROOT
ATOM      1  C18 MOL d   1     -22.354   6.780  11.640  0.00  0.00    -0.078 C 
ATOM      2  C19 MOL d   1     -22.481   7.935  11.813  0.00  0.00    -0.149 C 
ATOM      3  H20 MOL d   1     -22.595   8.973  11.969  0.00  0.00     0.166 H 
ENDROOT
BRANCH   1   4
ATOM      4  C17 MOL d   1     -22.200   5.390  11.333  0.00  0.00     0.017 A 
ATOM      5  C20 MOL d   1     -22.059   5.036  10.012  0.00  0.00    -0.065 A 
ATOM      6  C21 MOL d   1     -21.912   3.708   9.650  0.00  0.00    -0.081 A 
ATOM      7  H1  MOL d   1     -22.063   5.804   9.247  0.00  0.00     0.085 H 
ATOM      8  C22 MOL d   1     -21.905   2.727  10.627  0.00  0.00    -0.075 A 
ATOM      9  H2  MOL d   1     -21.803   3.437   8.606  0.00  0.00     0.083 H 
ATOM     10  C15 MOL d   1     -22.048   3.062  11.951  0.00  0.00    -0.033 A 
ATOM     11  H3  MOL d   1     -21.786   1.687  10.345  0.00  0.00     0.084 H 
ATOM     12  C16 MOL d   1     -22.189   4.403  12.308  0.00  0.00    -0.057 A 
ATOM     13  H19 MOL d   1     -22.291   4.675  13.352  0.00  0.00     0.086 H 
BRANCH  10  14
ATOM     14  C14 MOL d   1     -22.028   1.958  12.965  0.00  0.00     0.054 C 
ATOM     15  H17 MOL d   1     -20.986   1.690  13.193  0.00  0.00     0.082 H 
ATOM     16  H18 MOL d   1     -22.552   1.080  12.559  0.00  0.00     0.082 H 
BRANCH  14  17
ATOM     17  O13 MOL d   1     -22.675   2.385  14.153  0.00  0.00    -0.299 OA
BRANCH  17  18
ATOM     18  C11 MOL d   1     -23.967   1.873  14.273  0.00  0.00     0.360 C 
ATOM     19  NZ  MOL d   1     -25.125   2.728  14.136  0.00  0.00    -0.337 N 
ATOM     20  H16 MOL d   1     -25.019   3.656  13.779  0.00  0.00     0.164 HD
ATOM     21  O12 MOL d   1     -24.149   0.678  14.506  0.00  0.00    -0.239 OA
BRANCH  19  22
ATOM     22  CE  MOL d   1     -26.444   2.245  14.515  0.00  0.00    -0.003 C 
ATOM     23  H14 MOL d   1     -27.187   2.659  13.818  0.00  0.00     0.064 H 
ATOM     24  H15 MOL d   1     -26.451   1.147  14.449  0.00  0.00     0.064 H 
BRANCH  22  25
ATOM     25  CD  MOL d   1     -26.826   2.659  15.951  0.00  0.00    -0.050 C 
ATOM     26  H12 MOL d   1     -26.488   1.881  16.652  0.00  0.00     0.035 H 
ATOM     27  H13 MOL d   1     -26.332   3.611  16.195  0.00  0.00     0.035 H 
BRANCH  25  28
ATOM     28  CG  MOL d   1     -28.352   2.833  16.087  0.00  0.00    -0.061 C 
ATOM     29  H10 MOL d   1     -28.706   3.404  15.216  0.00  0.00     0.033 H 
ATOM     30  H11 MOL d   1     -28.808   1.832  16.079  0.00  0.00     0.033 H 
BRANCH  28  31
ATOM     31  CB  MOL d   1     -28.831   3.564  17.362  0.00  0.00    -0.029 C 
ATOM     32  H8  MOL d   1     -29.924   3.464  17.431  0.00  0.00     0.036 H 
ATOM     33  H9  MOL d   1     -28.363   3.085  18.235  0.00  0.00     0.036 H 
BRANCH  31  34
ATOM     34  CA  MOL d   1     -28.474   5.070  17.380  0.00  0.00     0.182 C 
ATOM     35  H4  MOL d   1     -27.716   5.236  16.600  0.00  0.00     0.101 H 
BRANCH  34  36
ATOM     36  C   MOL d   1     -29.657   6.032  17.105  0.00  0.00     0.204 C 
ATOM     37  O   MOL d   1     -30.817   5.603  16.520  0.00  0.00    -0.646 OA
ATOM     38  OXT MOL d   1     -29.539   7.345  17.448  0.00  0.00    -0.646 OA
ENDBRANCH  34  36
BRANCH  34  39
ATOM     39  N   MOL d   1     -27.911   5.433  18.664  0.00  0.00    -0.065 N 
ATOM     40  H5  MOL d   1     -27.136   4.824  18.875  0.00  0.00     0.275 HD
ATOM     41  H6  MOL d   1     -28.616   5.339  19.378  0.00  0.00     0.275 HD
ATOM     42  H7  MOL d   1     -27.590   6.388  18.632  0.00  0.00     0.275 HD
ENDBRANCH  34  39
ENDBRANCH  31  34
ENDBRANCH  28  31
ENDBRANCH  25  28
ENDBRANCH  22  25
ENDBRANCH  19  22
ENDBRANCH  17  18
ENDBRANCH  14  17
ENDBRANCH  10  14
ENDBRANCH   1   4
TORSDOF 11
