REMARK  10 active torsions:
REMARK  status: ('A' for Active; 'I' for Inactive)
REMARK    1  A    between atoms: C14_13  and  C15_1 
REMARK    2  A    between atoms: CA_7  and  C_6 
REMARK    3  A    between atoms: CB_8  and  CA_7 
REMARK    4  A    between atoms: CA_7  and  N_18 
REMARK    5  A    between atoms: CG_9  and  CB_8 
REMARK    6  A    between atoms: CD_10  and  CG_9 
REMARK    7  A    between atoms: CE_11  and  CD_10 
REMARK    8  A    between atoms: NZ_19  and  CE_11 
REMARK       I    between atoms: C11_12  and  NZ_19 
REMARK    9  A    between atoms: O13_23  and  C11_12 
REMARK   10  A    between atoms: C14_13  and  O13_23 
ROOT
ATOM      1  C11 MOL d   1      27.129  46.602  14.363  0.00  0.00     0.360 C 
ATOM      2  NZ  MOL d   1      26.213  47.702  14.434  0.00  0.00    -0.337 N 
ATOM      3  O12 MOL d   1      26.615  45.519  14.553  0.00  0.00    -0.239 OA
ATOM      4  H26 MOL d   1      26.557  48.633  14.557  0.00  0.00     0.164 HD
ENDROOT
BRANCH   1   5
ATOM      5  O13 MOL d   1      28.537  46.718  14.100  0.00  0.00    -0.304 OA
BRANCH   5   6
ATOM      6  C14 MOL d   1      29.003  47.354  12.899  0.00  0.00     0.035 C 
ATOM      7  H16 MOL d   1      29.484  48.283  13.238  0.00  0.00     0.075 H 
ATOM      8  H17 MOL d   1      29.766  46.672  12.494  0.00  0.00     0.075 H 
BRANCH   6   9
ATOM      9  C15 MOL d   1      28.160  47.764  11.692  0.00  0.00    -0.025 A 
ATOM     10  C22 MOL d   1      28.337  48.836  10.586  0.00  0.00    -0.044 A 
ATOM     11  C21 MOL d   1      29.595  49.609  10.206  0.00  0.00    -0.057 C 
ATOM     12  C16 MOL d   1      27.621  49.202  11.897  0.00  0.00    -0.044 A 
ATOM     13  H6  MOL d   1      27.751  48.696   9.666  0.00  0.00     0.041 H 
ATOM     14  C23 MOL d   1      29.224  50.858   9.374  0.00  0.00    -0.040 C 
ATOM     15  H4  MOL d   1      30.255  48.960   9.612  0.00  0.00     0.034 H 
ATOM     16  H5  MOL d   1      30.118  49.924  11.121  0.00  0.00     0.034 H 
ATOM     17  C20 MOL d   1      28.743  51.634  10.383  0.00  0.00    -0.044 C 
ATOM     18  H21 MOL d   1      30.102  51.308   8.887  0.00  0.00     0.040 H 
ATOM     19  H22 MOL d   1      28.457  50.639   8.617  0.00  0.00     0.040 H 
ATOM     20  C19 MOL d   1      28.379  51.875  11.480  0.00  0.00    -0.044 C 
ATOM     21  C18 MOL d   1      28.036  51.601  12.776  0.00  0.00    -0.040 C 
ATOM     22  C17 MOL d   1      28.367  50.105  12.918  0.00  0.00    -0.057 C 
ATOM     23  H19 MOL d   1      28.630  52.205  13.477  0.00  0.00     0.040 H 
ATOM     24  H20 MOL d   1      26.965  51.786  12.948  0.00  0.00     0.040 H 
ATOM     25  H2  MOL d   1      29.449  49.973  12.773  0.00  0.00     0.034 H 
ATOM     26  H3  MOL d   1      28.091  49.783  13.933  0.00  0.00     0.034 H 
ATOM     27  H18 MOL d   1      26.541  49.408  11.911  0.00  0.00     0.041 H 
ATOM     28  H1  MOL d   1      27.513  46.915  11.426  0.00  0.00     0.044 H 
ENDBRANCH   6   9
ENDBRANCH   5   6
ENDBRANCH   1   5
BRANCH   2  29
ATOM     29  CE  MOL d   1      24.789  47.464  14.327  0.00  0.00    -0.003 C 
ATOM     30  H14 MOL d   1      24.286  48.424  14.137  0.00  0.00     0.064 H 
ATOM     31  H15 MOL d   1      24.610  46.782  13.482  0.00  0.00     0.064 H 
BRANCH  29  32
ATOM     32  CD  MOL d   1      24.192  46.842  15.592  0.00  0.00    -0.050 C 
ATOM     33  H12 MOL d   1      24.009  45.773  15.408  0.00  0.00     0.035 H 
ATOM     34  H13 MOL d   1      24.913  46.954  16.415  0.00  0.00     0.035 H 
BRANCH  32  35
ATOM     35  CG  MOL d   1      22.880  47.500  15.998  0.00  0.00    -0.061 C 
ATOM     36  H10 MOL d   1      22.749  48.426  15.419  0.00  0.00     0.033 H 
ATOM     37  H11 MOL d   1      22.051  46.811  15.780  0.00  0.00     0.033 H 
BRANCH  35  38
ATOM     38  CB  MOL d   1      22.869  47.841  17.504  0.00  0.00    -0.029 C 
ATOM     39  H8  MOL d   1      21.911  47.506  17.927  0.00  0.00     0.036 H 
ATOM     40  H9  MOL d   1      23.694  47.297  17.988  0.00  0.00     0.036 H 
BRANCH  38  41
ATOM     41  CA  MOL d   1      23.035  49.348  17.810  0.00  0.00     0.182 C 
ATOM     42  H7  MOL d   1      23.683  49.765  17.025  0.00  0.00     0.101 H 
BRANCH  41  43
ATOM     43  C   MOL d   1      21.720  50.148  17.816  0.00  0.00     0.204 C 
ATOM     44  OXT MOL d   1      21.674  51.330  18.507  0.00  0.00    -0.646 OA
ATOM     45  O   MOL d   1      20.620  49.708  17.131  0.00  0.00    -0.646 OA
ENDBRANCH  41  43
BRANCH  41  46
ATOM     46  N   MOL d   1      23.663  49.573  19.089  0.00  0.00    -0.065 N 
ATOM     47  H23 MOL d   1      23.752  50.564  19.250  0.00  0.00     0.275 HD
ATOM     48  H24 MOL d   1      24.577  49.148  19.094  0.00  0.00     0.275 HD
ATOM     49  H25 MOL d   1      23.098  49.164  19.817  0.00  0.00     0.275 HD
ENDBRANCH  41  46
ENDBRANCH  38  41
ENDBRANCH  35  38
ENDBRANCH  32  35
ENDBRANCH  29  32
ENDBRANCH   2  29
TORSDOF 10
