REMARK  8 active torsions:
REMARK  status: ('A' for Active; 'I' for Inactive)
REMARK    1  A    between atoms: C2_2  and  N31_31 
REMARK    2  A    between atoms: C11_11  and  C16_16 
REMARK    3  A    between atoms: C13_13  and  C15_15 
REMARK    4  A    between atoms: C16_16  and  C17_17 
REMARK    5  A    between atoms: N31_31  and  C32_32 
REMARK    6  A    between atoms: C32_32  and  C33_33 
REMARK    7  A    between atoms: C33_33  and  N34_34 
REMARK    8  A    between atoms: N37_37  and  C40_40 
ROOT
ATOM      1  C1  9T9 d   1      30.292 -30.648 -40.568  0.00  0.00    -0.019 A 
ATOM      2  C2  9T9 d   1      30.528 -30.615 -41.948  0.00  0.00     0.033 A 
ATOM      3  C3  9T9 d   1      31.743 -30.124 -42.426  0.00  0.00    -0.024 A 
ATOM      4  C4  9T9 d   1      32.712 -29.701 -41.533  0.00  0.00     0.095 A 
ATOM      5  C5  9T9 d   1      32.508 -29.725 -40.144  0.00  0.00     0.087 A 
ATOM      6  C6  9T9 d   1      31.273 -30.188 -39.716  0.00  0.00     0.135 A 
ATOM      7  O7  9T9 d   1      33.893 -29.250 -42.082  0.00  0.00    -0.307 OA
ATOM      8  C8  9T9 d   1      34.961 -29.006 -41.280  0.00  0.00     0.115 A 
ATOM      9  C9  9T9 d   1      34.833 -28.808 -39.877  0.00  0.00     0.081 A 
ATOM     10  C10 9T9 d   1      33.572 -29.283 -39.224  0.00  0.00     0.203 C 
ATOM     11  C11 9T9 d   1      36.264 -28.905 -41.621  0.00  0.00     0.049 A 
ATOM     12  N12 9T9 d   1      36.980 -28.645 -40.494  0.00  0.00    -0.354 N 
ATOM     13  C13 9T9 d   1      36.141 -28.574 -39.415  0.00  0.00     0.086 A 
ATOM     14  O14 9T9 d   1      33.410 -29.313 -37.999  0.00  0.00    -0.286 OA
ATOM     15  F30 9T9 d   1      30.998 -30.120 -38.393  0.00  0.00    -0.205 F 
ATOM     16  H1  9T9 d   1      29.355 -31.028 -40.177  0.00  0.00     0.091 H 
ATOM     17  H2  9T9 d   1      31.927 -30.074 -43.493  0.00  0.00     0.091 H 
ATOM     18  H3  9T9 d   1      38.002 -28.520 -40.458  0.00  0.00     0.166 HD
ENDROOT
BRANCH   2  19
ATOM     19  N31 9T9 d   1      29.603 -31.109 -42.856  0.00  0.00    -0.388 N 
ATOM     20  H13 9T9 d   1      29.833 -31.040 -43.858  0.00  0.00     0.159 HD
BRANCH  19  21
ATOM     21  C32 9T9 d   1      28.333 -31.717 -42.496  0.00  0.00     0.015 C 
ATOM     22  H14 9T9 d   1      27.618 -31.555 -43.316  0.00  0.00     0.066 H 
ATOM     23  H15 9T9 d   1      27.957 -31.235 -41.582  0.00  0.00     0.066 H 
BRANCH  21  24
ATOM     24  C33 9T9 d   1      28.458 -33.214 -42.244  0.00  0.00     0.098 C 
ATOM     25  H16 9T9 d   1      29.518 -33.492 -42.340  0.00  0.00     0.078 H 
ATOM     26  H17 9T9 d   1      27.870 -33.742 -43.009  0.00  0.00     0.078 H 
BRANCH  24  27
ATOM     27  N34 9T9 d   1      27.986 -33.650 -40.917  0.00  0.00    -0.066 N 
ATOM     28  C35 9T9 d   1      28.180 -35.101 -40.688  0.00  0.00     0.106 C 
ATOM     29  C36 9T9 d   1      27.071 -35.933 -41.339  0.00  0.00     0.105 C 
ATOM     30  H19 9T9 d   1      28.180 -35.294 -39.605  0.00  0.00     0.078 H 
ATOM     31  H20 9T9 d   1      29.148 -35.403 -41.114  0.00  0.00     0.078 H 
ATOM     32  N37 9T9 d   1      25.756 -35.507 -40.864  0.00  0.00    -0.072 N 
ATOM     33  H21 9T9 d   1      27.220 -36.993 -41.086  0.00  0.00     0.078 H 
ATOM     34  H22 9T9 d   1      27.119 -35.806 -42.431  0.00  0.00     0.078 H 
ATOM     35  C38 9T9 d   1      25.558 -34.103 -41.210  0.00  0.00     0.105 C 
ATOM     36  H23 9T9 d   1      25.730 -35.599 -39.861  0.00  0.00     0.279 HD
ATOM     37  C39 9T9 d   1      26.610 -33.232 -40.541  0.00  0.00     0.106 C 
ATOM     38  H24 9T9 d   1      24.560 -33.786 -40.875  0.00  0.00     0.078 H 
ATOM     39  H25 9T9 d   1      25.633 -33.986 -42.301  0.00  0.00     0.078 H 
ATOM     40  H26 9T9 d   1      26.457 -32.187 -40.850  0.00  0.00     0.078 H 
ATOM     41  H27 9T9 d   1      26.498 -33.312 -39.450  0.00  0.00     0.078 H 
ATOM     42  H18 9T9 d   1      28.593 -33.184 -40.261  0.00  0.00     0.280 HD
BRANCH  32  43
ATOM     43  C40 9T9 d   1      24.688 -36.351 -41.433  0.00  0.00     0.066 C 
ATOM     44  H28 9T9 d   1      24.864 -37.401 -41.156  0.00  0.00     0.068 H 
ATOM     45  H29 9T9 d   1      24.690 -36.256 -42.529  0.00  0.00     0.068 H 
ATOM     46  H30 9T9 d   1      23.714 -36.026 -41.038  0.00  0.00     0.068 H 
ENDBRANCH  32  43
ENDBRANCH  24  27
ENDBRANCH  21  24
ENDBRANCH  19  21
ENDBRANCH   2  19
BRANCH  11  47
ATOM     47  C16 9T9 d   1      36.784 -29.085 -43.016  0.00  0.00    -0.000 C 
ATOM     48  H4  9T9 d   1      37.734 -28.535 -43.088  0.00  0.00     0.049 H 
ATOM     49  H5  9T9 d   1      36.049 -28.639 -43.702  0.00  0.00     0.049 H 
BRANCH  47  50
ATOM     50  C17 9T9 d   1      37.042 -30.496 -43.483  0.00  0.00    -0.050 A 
ATOM     51  C18 9T9 d   1      38.336 -31.006 -43.497  0.00  0.00    -0.042 A 
ATOM     52  C19 9T9 d   1      38.534 -32.302 -43.911  0.00  0.00     0.105 A 
ATOM     53  H6  9T9 d   1      39.174 -30.392 -43.187  0.00  0.00     0.088 H 
ATOM     54  C20 9T9 d   1      37.487 -33.091 -44.308  0.00  0.00     0.105 A 
ATOM     55  O23 9T9 d   1      39.695 -33.037 -43.888  0.00  0.00    -0.323 OA
ATOM     56  C21 9T9 d   1      36.194 -32.619 -44.301  0.00  0.00    -0.047 A 
ATOM     57  O25 9T9 d   1      37.943 -34.339 -44.666  0.00  0.00    -0.323 OA
ATOM     58  C22 9T9 d   1      35.985 -31.311 -43.889  0.00  0.00    -0.074 A 
ATOM     59  H7  9T9 d   1      35.366 -33.249 -44.607  0.00  0.00     0.087 H 
ATOM     60  H8  9T9 d   1      34.977 -30.913 -43.882  0.00  0.00     0.084 H 
ATOM     61  C24 9T9 d   1      39.358 -34.286 -44.494  0.00  0.00     0.115 C 
ATOM     62  H9  9T9 d   1      39.684 -35.113 -43.846  0.00  0.00     0.118 H 
ATOM     63  H10 9T9 d   1      39.854 -34.370 -45.472  0.00  0.00     0.118 H 
ENDBRANCH  47  50
ENDBRANCH  11  47
BRANCH  13  64
ATOM     64  C15 9T9 d   1      36.748 -28.253 -38.136  0.00  0.00     0.124 A 
ATOM     65  S26 9T9 d   1      35.815 -28.232 -36.684  0.00  0.00    -0.079 SA
ATOM     66  C27 9T9 d   1      37.203 -27.706 -35.829  0.00  0.00    -0.026 A 
ATOM     67  C28 9T9 d   1      38.243 -27.591 -36.663  0.00  0.00     0.010 A 
ATOM     68  H11 9T9 d   1      37.234 -27.496 -34.761  0.00  0.00     0.097 H 
ATOM     69  N29 9T9 d   1      38.001 -27.906 -37.979  0.00  0.00    -0.251 NA
ATOM     70  H12 9T9 d   1      39.224 -27.267 -36.319  0.00  0.00     0.115 H 
ENDBRANCH  13  64
TORSDOF 8
