REMARK  10 active torsions:
REMARK  status: ('A' for Active; 'I' for Inactive)
REMARK    1  A    between atoms: O3B_8  and  PG_1 
REMARK    2  A    between atoms: PB_5  and  O3B_8 
REMARK    3  A    between atoms: O3A_12  and  PB_5 
REMARK    4  A    between atoms: PA_9  and  O3A_12 
REMARK    5  A    between atoms: PA_9  and  O5'_13 
REMARK    6  A    between atoms: O5'_13  and  C5'_14 
REMARK    7  A    between atoms: C5'_14  and  C4'_15 
REMARK    8  A    between atoms: C3'_17  and  O3'_18 
REMARK    9  A    between atoms: C2'_19  and  O2'_20 
REMARK   10  A    between atoms: C1'_21  and  N9_22 
ROOT
ATOM      1  C4' ATP d   1      -0.316  92.379  49.540  0.00  0.00     0.089 C 
ATOM      2  O4' ATP d   1      -1.729  92.375  49.757  0.00  0.00    -0.353 OA
ATOM      3  C3' ATP d   1       0.348  92.917  50.803  0.00  0.00     0.091 C 
ATOM      4  C2' ATP d   1      -0.766  92.908  51.845  0.00  0.00     0.105 C 
ATOM      5  C1' ATP d   1      -2.050  92.465  51.141  0.00  0.00     0.139 C 
ATOM      6  H3  ATP d   1      -0.064  93.040  48.698  0.00  0.00     0.090 H 
ATOM      7  H4  ATP d   1       1.157  92.245  51.125  0.00  0.00     0.091 H 
ATOM      8  H6  ATP d   1      -0.516  92.200  52.649  0.00  0.00     0.093 H 
ATOM      9  H8  ATP d   1      -2.814  93.242  51.292  0.00  0.00     0.122 H 
ENDROOT
BRANCH   1  10
ATOM     10  C5' ATP d   1       0.088  90.956  49.187  0.00  0.00     0.058 C 
ATOM     11  H1  ATP d   1      -0.605  90.558  48.431  0.00  0.00     0.079 H 
ATOM     12  H2  ATP d   1       1.110  90.959  48.781  0.00  0.00     0.079 H 
BRANCH  10  13
ATOM     13  O5' ATP d   1       0.044  90.125  50.354  0.00  0.00    -0.287 OA
BRANCH  13  14
ATOM     14  PA  ATP d   1       0.355  88.541  50.351  0.00  0.00     0.417 P 
ATOM     15  O1A ATP d   1      -0.706  87.764  49.593  0.00  0.00    -0.624 OA
ATOM     16  O2A ATP d   1       0.584  88.105  51.761  0.00  0.00    -0.624 OA
BRANCH  14  17
ATOM     17  O3A ATP d   1       1.772  88.521  49.583  0.00  0.00    -0.180 OA
BRANCH  17  18
ATOM     18  PB  ATP d   1       2.034  88.442  47.987  0.00  0.00     0.428 P 
ATOM     19  O1B ATP d   1       0.714  88.224  47.293  0.00  0.00    -0.624 OA
ATOM     20  O2B ATP d   1       2.861  89.660  47.648  0.00  0.00    -0.624 OA
BRANCH  18  21
ATOM     21  O3B ATP d   1       3.037  87.177  47.814  0.00  0.00    -0.173 OA
BRANCH  21  22
ATOM     22  PG  ATP d   1       2.629  85.629  48.105  0.00  0.00     0.431 P 
ATOM     23  O1G ATP d   1       2.963  84.851  46.869  0.00  0.00    -0.616 OA
ATOM     24  O2G ATP d   1       1.149  85.671  48.440  0.00  0.00    -0.616 OA
ATOM     25  O3G ATP d   1       3.470  85.218  49.298  0.00  0.00    -0.616 OA
ENDBRANCH  21  22
ENDBRANCH  18  21
ENDBRANCH  17  18
ENDBRANCH  14  17
ENDBRANCH  13  14
ENDBRANCH  10  13
ENDBRANCH   1  10
BRANCH   3  26
ATOM     26  O3' ATP d   1       0.916  94.222  50.551  0.00  0.00    -0.390 OA
ATOM     27  H5  ATP d   1       0.228  94.819  50.282  0.00  0.00     0.210 HD
ENDBRANCH   3  26
BRANCH   5  28
ATOM     28  N9  ATP d   1      -2.625  91.164  51.612  0.00  0.00    -0.294 N 
ATOM     29  C8  ATP d   1      -2.722  90.005  50.902  0.00  0.00     0.071 A 
ATOM     30  N7  ATP d   1      -3.312  89.018  51.620  0.00  0.00    -0.236 NA
ATOM     31  H9  ATP d   1      -2.368  89.886  49.879  0.00  0.00     0.144 H 
ATOM     32  C5  ATP d   1      -3.613  89.544  52.825  0.00  0.00     0.149 A 
ATOM     33  C6  ATP d   1      -4.263  89.053  54.061  0.00  0.00     0.155 A 
ATOM     34  C4  ATP d   1      -3.169  90.955  52.817  0.00  0.00     0.167 A 
ATOM     35  N6  ATP d   1      -4.701  87.772  54.141  0.00  0.00    -0.382 N 
ATOM     36  N1  ATP d   1      -4.389  89.921  55.101  0.00  0.00    -0.222 NA
ATOM     37  H10 ATP d   1      -5.153  87.435  55.003  0.00  0.00     0.157 HD
ATOM     38  H11 ATP d   1      -4.582  87.136  53.340  0.00  0.00     0.157 HD
ATOM     39  C2  ATP d   1      -3.960  91.202  55.034  0.00  0.00     0.091 A 
ATOM     40  N3  ATP d   1      -3.368  91.720  53.936  0.00  0.00    -0.222 NA
ATOM     41  H12 ATP d   1      -4.097  91.841  55.899  0.00  0.00     0.146 H 
ENDBRANCH   5  28
BRANCH   4  42
ATOM     42  O2' ATP d   1      -0.946  94.212  52.404  0.00  0.00    -0.388 OA
ATOM     43  H7  ATP d   1      -1.176  94.822  51.713  0.00  0.00     0.210 HD
ENDBRANCH   4  42
TORSDOF 10
