REMARK WARNING: 32 MAX_TORS EXCEEDED!!!
REMARK  46 active torsions:
REMARK  status: ('A' for Active; 'I' for Inactive)
REMARK    1  A    between atoms: N_1  and  CA_2 
REMARK    2  A    between atoms: CA_2  and  C_3 
REMARK    3  A    between atoms: CA_2  and  CB_5 
REMARK       I    between atoms: C_3  and  N_12 
REMARK    4  A    between atoms: CB_5  and  CG_6 
REMARK    5  A    between atoms: CG_6  and  CD_7 
REMARK    6  A    between atoms: CD_7  and  NE_8 
REMARK       I    between atoms: NE_8  and  CZ_9 
REMARK       I    between atoms: CZ_9  and  NH1_10 
REMARK       I    between atoms: CZ_9  and  NH2_11 
REMARK    7  A    between atoms: N_12  and  CA_13 
REMARK    8  A    between atoms: CA_13  and  C_14 
REMARK    9  A    between atoms: CA_13  and  CB_16 
REMARK       I    between atoms: C_14  and  N_20 
REMARK   10  A    between atoms: CB_16  and  CG1_17 
REMARK   11  A    between atoms: CB_16  and  CG2_18 
REMARK   12  A    between atoms: CG1_17  and  CD1_19 
REMARK   13  A    between atoms: N_20  and  CA_21 
REMARK   14  A    between atoms: CA_21  and  C_22 
REMARK   15  A    between atoms: CA_21  and  CB_24 
REMARK       I    between atoms: C_22  and  N_28 
REMARK   16  A    between atoms: CB_24  and  CG1_25 
REMARK   17  A    between atoms: CB_24  and  CG2_26 
REMARK   18  A    between atoms: CG1_25  and  CD1_27 
REMARK   19  A    between atoms: CA_29  and  C_30 
REMARK       I    between atoms: C_30  and  N_35 
REMARK   20  A    between atoms: N_35  and  CA_36 
REMARK   21  A    between atoms: CA_36  and  C_37 
REMARK   22  A    between atoms: CA_36  and  CB_39 
REMARK       I    between atoms: C_37  and  N_46 
REMARK   23  A    between atoms: CB_39  and  CG_40 
REMARK   24  A    between atoms: CG_40  and  CD_41 
REMARK   25  A    between atoms: CD_41  and  NE_42 
REMARK       I    between atoms: NE_42  and  CZ_43 
REMARK       I    between atoms: CZ_43  and  NH1_44 
REMARK   26  A    between atoms: N_46  and  CA_47 
REMARK   27  A    between atoms: CA_47  and  C_48 
REMARK   28  A    between atoms: CA_47  and  CB_50 
REMARK       I    between atoms: C_48  and  N_56 
REMARK   29  A    between atoms: CB_50  and  CG_51 
REMARK   30  A    between atoms: N_56  and  CA_57 
REMARK   31  A    between atoms: CA_57  and  C_58 
REMARK   32  A    between atoms: CA_57  and  CB_60 
REMARK       I    between atoms: C_58  and  N_64 
REMARK   33  A    between atoms: CB_60  and  CG_61 
REMARK   34  A    between atoms: CG_61  and  CD1_62 
REMARK   35  A    between atoms: CG_61  and  CD2_63 
REMARK   36  A    between atoms: N_64  and  CA_65 
REMARK   37  A    between atoms: CA_65  and  C_66 
REMARK   38  A    between atoms: CA_65  and  CB_68 
REMARK       I    between atoms: C_66  and  N_73 
REMARK   39  A    between atoms: CB_68  and  CG_69 
REMARK   40  A    between atoms: CG_69  and  CD_70 
REMARK       I    between atoms: CD_70  and  NE2_72 
REMARK   41  A    between atoms: N_73  and  CA_74 
REMARK   42  A    between atoms: CA_74  and  C_75 
REMARK   43  A    between atoms: CA_74  and  CB_77 
REMARK   44  A    between atoms: CB_77  and  CG_78 
REMARK   45  A    between atoms: CG_78  and  CD1_79 
REMARK   46  A    between atoms: CG_78  and  CD2_80 
ROOT
ATOM      1  CA  ARG d   1      38.894 -19.730  75.136  0.00  0.00     0.089 C 
ATOM      2  H46 ARG d   1      38.599 -18.670  75.139  0.00  0.00     0.087 H 
ENDROOT
BRANCH   1   3
ATOM      3  N   ARG d   1      39.510 -20.020  73.847  0.00  0.00    -0.346 N 
ATOM      4  C   ARG d   1      39.992 -19.062  73.059  0.00  0.00     0.241 C 
ATOM      5  O   ARG d   1      40.073 -17.884  73.432  0.00  0.00    -0.271 OA
ATOM      6  H45 ARG d   1      39.572 -20.971  73.545  0.00  0.00     0.163 HD
BRANCH   4   7
ATOM      7  CA  ARG d   1      40.449 -19.445  71.659  0.00  0.00     0.091 C 
ATOM      8  N   ARG d   1      41.426 -20.552  71.604  0.00  0.00    -0.337 N 
ATOM      9  C   ARG d   1      42.613 -20.409  72.205  0.00  0.00     0.243 C 
ATOM     10  CD  ARG d   1      40.998 -21.623  70.688  0.00  0.00    -0.001 C 
ATOM     11  O   ARG d   1      42.885 -19.381  72.851  0.00  0.00    -0.271 OA
ATOM     12  CG  ARG d   1      39.900 -20.979  69.901  0.00  0.00    -0.048 C 
ATOM     13  H43 ARG d   1      40.625 -22.494  71.246  0.00  0.00     0.064 H 
ATOM     14  H44 ARG d   1      41.824 -21.934  70.031  0.00  0.00     0.064 H 
ATOM     15  CB  ARG d   1      39.286 -19.974  70.808  0.00  0.00    -0.036 C 
ATOM     16  H41 ARG d   1      40.308 -20.488  69.005  0.00  0.00     0.035 H 
ATOM     17  H42 ARG d   1      39.154 -21.729  69.600  0.00  0.00     0.035 H 
ATOM     18  H39 ARG d   1      38.829 -19.159  70.228  0.00  0.00     0.036 H 
ATOM     19  H40 ARG d   1      38.523 -20.444  71.446  0.00  0.00     0.036 H 
ATOM     20  H38 ARG d   1      40.884 -18.549  71.191  0.00  0.00     0.087 H 
BRANCH   9  21
ATOM     21  CA  ARG d   1      43.666 -21.501  72.052  0.00  0.00     0.092 C 
ATOM     22  H28 ARG d   1      43.421 -22.105  71.166  0.00  0.00     0.088 H 
BRANCH  21  23
ATOM     23  N   ARG d   1      44.980 -20.876  71.856  0.00  0.00    -0.346 N 
ATOM     24  C   ARG d   1      45.249 -20.186  70.754  0.00  0.00     0.241 C 
ATOM     25  O   ARG d   1      44.445 -20.084  69.820  0.00  0.00    -0.271 OA
ATOM     26  H27 ARG d   1      45.682 -20.971  72.562  0.00  0.00     0.163 HD
BRANCH  24  27
ATOM     27  CA  ARG d   1      46.625 -19.535  70.695  0.00  0.00     0.092 C 
ATOM     28  H17 ARG d   1      47.342 -20.196  71.204  0.00  0.00     0.088 H 
BRANCH  27  29
ATOM     29  N   ARG d   1      47.037 -19.387  69.304  0.00  0.00    -0.346 N 
ATOM     30  C   ARG d   1      47.525 -20.405  68.601  0.00  0.00     0.249 C 
ATOM     31  O   ARG d   1      47.644 -21.542  69.057  0.00  0.00    -0.271 OA
ATOM     32  H16 ARG d   1      46.950 -18.493  68.865  0.00  0.00     0.163 HD
BRANCH  30  33
ATOM     33  CA  ARG d   1      47.943 -20.087  67.168  0.00  0.00     0.176 C 
ATOM     34  H4  ARG d   1      47.631 -19.058  66.938  0.00  0.00     0.099 H 
BRANCH  33  35
ATOM     35  N   ARG d   1      49.391 -20.171  67.016  0.00  0.00    -0.067 N 
ATOM     36  H1  ARG d   1      49.642 -19.957  66.063  0.00  0.00     0.275 HD
ATOM     37  H2  ARG d   1      49.699 -21.103  67.243  0.00  0.00     0.275 HD
ATOM     38  H3  ARG d   1      49.833 -19.510  67.636  0.00  0.00     0.275 HD
ENDBRANCH  33  35
BRANCH  33  39
ATOM     39  CB  ARG d   1      47.246 -21.034  66.188  0.00  0.00    -0.029 C 
ATOM     40  H5  ARG d   1      47.666 -22.041  66.324  0.00  0.00     0.036 H 
ATOM     41  H6  ARG d   1      47.452 -20.685  65.165  0.00  0.00     0.036 H 
BRANCH  39  42
ATOM     42  CG  ARG d   1      45.739 -21.118  66.368  0.00  0.00    -0.047 C 
ATOM     43  H7  ARG d   1      45.521 -21.536  67.362  0.00  0.00     0.035 H 
ATOM     44  H8  ARG d   1      45.324 -21.779  65.593  0.00  0.00     0.035 H 
BRANCH  42  45
ATOM     45  CD  ARG d   1      45.084 -19.753  66.254  0.00  0.00     0.009 C 
ATOM     46  H9  ARG d   1      45.567 -19.068  66.966  0.00  0.00     0.064 H 
ATOM     47  H10 ARG d   1      44.017 -19.850  66.505  0.00  0.00     0.064 H 
BRANCH  45  48
ATOM     48  NE  ARG d   1      45.202 -19.195  64.911  0.00  0.00    -0.227 N 
ATOM     49  CZ  ARG d   1      44.263 -19.297  63.977  0.00  0.00     0.665 C 
ATOM     50  NH1 ARG d   1      43.131 -19.936  64.241  0.00  0.00    -0.235 N 
ATOM     51  NH2 ARG d   1      44.452 -18.759  62.780  0.00  0.00    -0.235 N 
ATOM     52  H12 ARG d   1      42.403 -20.015  63.517  0.00  0.00     0.174 HD
ATOM     53  H13 ARG d   1      42.980 -20.353  65.171  0.00  0.00     0.174 HD
ATOM     54  H14 ARG d   1      45.330 -18.262  62.572  0.00  0.00     0.174 HD
ATOM     55  H15 ARG d   1      43.721 -18.838  62.059  0.00  0.00     0.174 HD
ATOM     56  H11 ARG d   1      46.068 -18.690  64.672  0.00  0.00     0.177 HD
ENDBRANCH  45  48
ENDBRANCH  42  45
ENDBRANCH  39  42
ENDBRANCH  33  39
ENDBRANCH  30  33
ENDBRANCH  27  29
BRANCH  27  57
ATOM     57  CB  ARG d   1      46.642 -18.167  71.408  0.00  0.00    -0.030 C 
ATOM     58  H18 ARG d   1      47.580 -17.656  71.145  0.00  0.00     0.043 H 
BRANCH  57  59
ATOM     59  CG1 ARG d   1      46.609 -18.346  72.928  0.00  0.00    -0.063 C 
ATOM     60  H19 ARG d   1      47.463 -18.974  73.222  0.00  0.00     0.033 H 
ATOM     61  H20 ARG d   1      45.671 -18.853  73.197  0.00  0.00     0.033 H 
BRANCH  59  62
ATOM     62  CD1 ARG d   1      46.686 -17.046  73.697  0.00  0.00    -0.076 C 
ATOM     63  H24 ARG d   1      46.657 -17.256  74.776  0.00  0.00     0.027 H 
ATOM     64  H25 ARG d   1      45.833 -16.408  73.425  0.00  0.00     0.027 H 
ATOM     65  H26 ARG d   1      47.625 -16.529  73.449  0.00  0.00     0.027 H 
ENDBRANCH  59  62
ENDBRANCH  57  59
BRANCH  57  66
ATOM     66  CG2 ARG d   1      45.482 -17.298  70.939  0.00  0.00    -0.071 C 
ATOM     67  H21 ARG d   1      45.528 -17.184  69.846  0.00  0.00     0.028 H 
ATOM     68  H22 ARG d   1      45.550 -16.308  71.414  0.00  0.00     0.028 H 
ATOM     69  H23 ARG d   1      44.531 -17.774  71.219  0.00  0.00     0.028 H 
ENDBRANCH  57  66
ENDBRANCH  27  57
ENDBRANCH  24  27
ENDBRANCH  21  23
BRANCH  21  70
ATOM     70  CB  ARG d   1      43.704 -22.425  73.274  0.00  0.00    -0.030 C 
ATOM     71  H29 ARG d   1      44.452 -23.207  73.078  0.00  0.00     0.043 H 
BRANCH  70  72
ATOM     72  CG1 ARG d   1      42.358 -23.116  73.489  0.00  0.00    -0.063 C 
ATOM     73  H30 ARG d   1      41.947 -23.396  72.508  0.00  0.00     0.033 H 
ATOM     74  H31 ARG d   1      41.676 -22.408  73.983  0.00  0.00     0.033 H 
BRANCH  72  75
ATOM     75  CD1 ARG d   1      42.459 -24.349  74.333  0.00  0.00    -0.076 C 
ATOM     76  H35 ARG d   1      41.461 -24.797  74.449  0.00  0.00     0.027 H 
ATOM     77  H36 ARG d   1      42.859 -24.084  75.323  0.00  0.00     0.027 H 
ATOM     78  H37 ARG d   1      43.131 -25.072  73.847  0.00  0.00     0.027 H 
ENDBRANCH  72  75
ENDBRANCH  70  72
BRANCH  70  79
ATOM     79  CG2 ARG d   1      44.145 -21.666  74.523  0.00  0.00    -0.071 C 
ATOM     80  H32 ARG d   1      45.115 -21.182  74.335  0.00  0.00     0.028 H 
ATOM     81  H33 ARG d   1      44.243 -22.369  75.364  0.00  0.00     0.028 H 
ATOM     82  H34 ARG d   1      43.395 -20.901  74.771  0.00  0.00     0.028 H 
ENDBRANCH  70  79
ENDBRANCH  21  70
ENDBRANCH   9  21
ENDBRANCH   4   7
ENDBRANCH   1   3
BRANCH   1  83
ATOM     83  C   ARG d   1      39.865 -19.956  76.287  0.00  0.00     0.241 C 
ATOM     84  O   ARG d   1      40.623 -20.930  76.294  0.00  0.00    -0.271 OA
ATOM     85  N   ARG d   1      39.833 -19.050  77.258  0.00  0.00    -0.346 N 
ATOM     86  H58 ARG d   1      39.337 -18.195  77.106  0.00  0.00     0.163 HD
BRANCH  85  87
ATOM     87  CA  ARG d   1      40.495 -19.261  78.535  0.00  0.00     0.094 C 
ATOM     88  H59 ARG d   1      41.372 -19.905  78.377  0.00  0.00     0.088 H 
BRANCH  87  89
ATOM     89  C   ARG d   1      39.540 -19.957  79.501  0.00  0.00     0.241 C 
ATOM     90  O   ARG d   1      38.317 -19.888  79.359  0.00  0.00    -0.271 OA
ATOM     91  N   ARG d   1      40.112 -20.629  80.496  0.00  0.00    -0.346 N 
ATOM     92  H65 ARG d   1      41.109 -20.682  80.551  0.00  0.00     0.163 HD
BRANCH  91  93
ATOM     93  CA  ARG d   1      39.296 -21.288  81.505  0.00  0.00     0.089 C 
ATOM     94  H66 ARG d   1      38.468 -21.802  80.995  0.00  0.00     0.087 H 
BRANCH  93  95
ATOM     95  C   ARG d   1      38.707 -20.271  82.476  0.00  0.00     0.241 C 
ATOM     96  O   ARG d   1      39.268 -19.195  82.702  0.00  0.00    -0.271 OA
ATOM     97  N   ARG d   1      37.562 -20.627  83.053  0.00  0.00    -0.346 N 
ATOM     98  H76 ARG d   1      37.131 -21.483  82.769  0.00  0.00     0.163 HD
BRANCH  97  99
ATOM     99  CA  ARG d   1      36.906 -19.826  84.081  0.00  0.00     0.090 C 
ATOM    100  H77 ARG d   1      37.412 -18.852  84.154  0.00  0.00     0.087 H 
BRANCH  99 101
ATOM    101  C   ARG d   1      37.047 -20.560  85.408  0.00  0.00     0.241 C 
ATOM    102  O   ARG d   1      36.385 -21.579  85.635  0.00  0.00    -0.271 OA
ATOM    103  N   ARG d   1      37.905 -20.043  86.279  0.00  0.00    -0.345 N 
ATOM    104  H84 ARG d   1      38.397 -19.206  86.041  0.00  0.00     0.163 HD
BRANCH 103 105
ATOM    105  CA  ARG d   1      38.147 -20.666  87.573  0.00  0.00     0.096 C 
ATOM    106  H85 ARG d   1      38.023 -21.753  87.463  0.00  0.00     0.089 H 
BRANCH 105 107
ATOM    107  C   ARG d   1      37.142 -20.169  88.604  0.00  0.00     0.196 C 
ATOM    108  O   ARG d   1      36.978 -20.761  89.670  0.00  0.00    -0.646 OA
ATOM    109  OXT ARG d   1      36.467 -19.163  88.388  0.00  0.00    -0.646 OA
ENDBRANCH 105 107
BRANCH 105 110
ATOM    110  CB  ARG d   1      39.576 -20.387  88.042  0.00  0.00    -0.034 C 
ATOM    111  H86 ARG d   1      39.780 -21.033  88.909  0.00  0.00     0.037 H 
ATOM    112  H87 ARG d   1      39.632 -19.332  88.350  0.00  0.00     0.037 H 
BRANCH 110 113
ATOM    113  CG  ARG d   1      40.672 -20.633  87.002  0.00  0.00    -0.059 C 
ATOM    114  H88 ARG d   1      40.505 -19.946  86.160  0.00  0.00     0.038 H 
BRANCH 113 115
ATOM    115  CD1 ARG d   1      42.047 -20.341  87.585  0.00  0.00    -0.073 C 
ATOM    116  H89 ARG d   1      42.816 -20.525  86.820  0.00  0.00     0.028 H 
ATOM    117  H90 ARG d   1      42.226 -20.997  88.450  0.00  0.00     0.028 H 
ATOM    118  H91 ARG d   1      42.093 -19.290  87.906  0.00  0.00     0.028 H 
ENDBRANCH 113 115
BRANCH 113 119
ATOM    119  CD2 ARG d   1      40.602 -22.057  86.472  0.00  0.00    -0.073 C 
ATOM    120  H92 ARG d   1      39.601 -22.245  86.056  0.00  0.00     0.028 H 
ATOM    121  H93 ARG d   1      40.797 -22.764  87.292  0.00  0.00     0.028 H 
ATOM    122  H94 ARG d   1      41.358 -22.192  85.684  0.00  0.00     0.028 H 
ENDBRANCH 113 119
ENDBRANCH 110 113
ENDBRANCH 105 110
ENDBRANCH 103 105
ENDBRANCH  99 101
BRANCH  99 123
ATOM    123  CB  ARG d   1      35.439 -19.582  83.736  0.00  0.00    -0.030 C 
ATOM    124  H78 ARG d   1      34.936 -19.181  84.628  0.00  0.00     0.037 H 
ATOM    125  H79 ARG d   1      34.984 -20.545  83.460  0.00  0.00     0.037 H 
BRANCH 123 126
ATOM    126  CG  ARG d   1      35.227 -18.607  82.590  0.00  0.00     0.011 C 
ATOM    127  H80 ARG d   1      35.722 -19.005  81.692  0.00  0.00     0.047 H 
ATOM    128  H81 ARG d   1      35.679 -17.641  82.860  0.00  0.00     0.047 H 
BRANCH 126 129
ATOM    129  CD  ARG d   1      33.760 -18.386  82.278  0.00  0.00     0.215 C 
ATOM    130  OE1 ARG d   1      33.327 -18.536  81.135  0.00  0.00    -0.274 OA
ATOM    131  NE2 ARG d   1      32.986 -18.024  83.295  0.00  0.00    -0.370 N 
ATOM    132  H82 ARG d   1      32.010 -17.864  83.148  0.00  0.00     0.159 HD
ATOM    133  H83 ARG d   1      33.380 -17.911  84.207  0.00  0.00     0.159 HD
ENDBRANCH 126 129
ENDBRANCH 123 126
ENDBRANCH  99 123
ENDBRANCH  97  99
ENDBRANCH  93  95
BRANCH  93 134
ATOM    134  CB  ARG d   1      40.108 -22.329  82.276  0.00  0.00    -0.035 C 
ATOM    135  H67 ARG d   1      39.561 -22.559  83.202  0.00  0.00     0.037 H 
ATOM    136  H68 ARG d   1      41.079 -21.876  82.526  0.00  0.00     0.037 H 
BRANCH 134 137
ATOM    137  CG  ARG d   1      40.384 -23.652  81.559  0.00  0.00    -0.059 C 
ATOM    138  H69 ARG d   1      41.126 -23.465  80.769  0.00  0.00     0.038 H 
BRANCH 137 139
ATOM    139  CD1 ARG d   1      40.964 -24.678  82.519  0.00  0.00    -0.073 C 
ATOM    140  H70 ARG d   1      41.153 -25.618  81.980  0.00  0.00     0.028 H 
ATOM    141  H71 ARG d   1      40.250 -24.861  83.336  0.00  0.00     0.028 H 
ATOM    142  H72 ARG d   1      41.908 -24.298  82.936  0.00  0.00     0.028 H 
ENDBRANCH 137 139
BRANCH 137 143
ATOM    143  CD2 ARG d   1      39.117 -24.184  80.905  0.00  0.00    -0.073 C 
ATOM    144  H73 ARG d   1      38.715 -23.427  80.216  0.00  0.00     0.028 H 
ATOM    145  H74 ARG d   1      38.370 -24.407  81.681  0.00  0.00     0.028 H 
ATOM    146  H75 ARG d   1      39.351 -25.102  80.346  0.00  0.00     0.028 H 
ENDBRANCH 137 143
ENDBRANCH 134 137
ENDBRANCH  93 134
ENDBRANCH  91  93
ENDBRANCH  87  89
BRANCH  87 147
ATOM    147  CB  ARG d   1      40.965 -17.929  79.124  0.00  0.00     0.004 C 
ATOM    148  H60 ARG d   1      40.235 -17.609  79.882  0.00  0.00     0.046 H 
ATOM    149  H61 ARG d   1      41.002 -17.186  78.314  0.00  0.00     0.046 H 
BRANCH 147 150
ATOM    150  CG  ARG d   1      42.315 -17.992  79.768  0.00  0.00     0.053 A 
ATOM    151  ND1 ARG d   1      43.437 -18.437  79.103  0.00  0.00    -0.247 NA
ATOM    152  CE1 ARG d   1      44.479 -18.380  79.914  0.00  0.00     0.064 A 
ATOM    153  NE2 ARG d   1      44.073 -17.913  81.081  0.00  0.00    -0.359 N 
ATOM    154  H63 ARG d   1      45.498 -18.669  79.663  0.00  0.00     0.143 H 
ATOM    155  CD2 ARG d   1      42.724 -17.661  81.016  0.00  0.00     0.002 A 
ATOM    156  H64 ARG d   1      44.671 -17.762  81.906  0.00  0.00     0.166 HD
ATOM    157  H62 ARG d   1      42.100 -17.269  81.818  0.00  0.00     0.114 H 
ENDBRANCH 147 150
ENDBRANCH  87 147
ENDBRANCH  85  87
ENDBRANCH   1  83
BRANCH   1 158
ATOM    158  CB  ARG d   1      37.638 -20.579  75.348  0.00  0.00    -0.036 C 
ATOM    159  H47 ARG d   1      37.715 -21.075  76.327  0.00  0.00     0.036 H 
ATOM    160  H48 ARG d   1      37.594 -21.339  74.554  0.00  0.00     0.036 H 
BRANCH 158 161
ATOM    161  CG  ARG d   1      36.346 -19.776  75.316  0.00  0.00    -0.048 C 
ATOM    162  H49 ARG d   1      36.529 -18.789  75.766  0.00  0.00     0.035 H 
ATOM    163  H50 ARG d   1      35.581 -20.309  75.899  0.00  0.00     0.035 H 
BRANCH 161 164
ATOM    164  CD  ARG d   1      35.838 -19.583  73.897  0.00  0.00     0.009 C 
ATOM    165  H51 ARG d   1      36.583 -19.007  73.328  0.00  0.00     0.064 H 
ATOM    166  H52 ARG d   1      34.891 -19.024  73.931  0.00  0.00     0.064 H 
BRANCH 164 167
ATOM    167  NE  ARG d   1      35.610 -20.856  73.221  0.00  0.00    -0.227 N 
ATOM    168  CZ  ARG d   1      34.512 -21.591  73.365  0.00  0.00     0.665 C 
ATOM    169  NH1 ARG d   1      33.535 -21.178  74.161  0.00  0.00    -0.235 N 
ATOM    170  NH2 ARG d   1      34.389 -22.738  72.711  0.00  0.00    -0.235 N 
ATOM    171  H54 ARG d   1      32.685 -21.749  74.272  0.00  0.00     0.174 HD
ATOM    172  H55 ARG d   1      33.627 -20.287  74.669  0.00  0.00     0.174 HD
ATOM    173  H56 ARG d   1      35.146 -23.062  72.092  0.00  0.00     0.174 HD
ATOM    174  H57 ARG d   1      33.536 -23.305  72.822  0.00  0.00     0.174 HD
ATOM    175  H53 ARG d   1      36.347 -21.207  72.593  0.00  0.00     0.177 HD
ENDBRANCH 164 167
ENDBRANCH 161 164
ENDBRANCH 158 161
ENDBRANCH   1 158
TORSDOF 46
