REMARK  6 active torsions:
REMARK  status: ('A' for Active; 'I' for Inactive)
REMARK       I    between atoms: C09_19  and  N12_2 
REMARK    1  A    between atoms: C03_8  and  N14_6 
REMARK    2  A    between atoms: C02_10  and  O17_11 
REMARK    3  A    between atoms: C01_12  and  O18_13 
REMARK    4  A    between atoms: C07_16  and  C05_15 
REMARK    5  A    between atoms: C08_17  and  C07_16 
REMARK    6  A    between atoms: C08_17  and  C09_19 
ROOT
ATOM      1  C10 MOL d   1      31.086   6.579  26.188  0.00  0.00     0.073 C 
ATOM      2  C08 MOL d   1      30.715   7.668  26.149  0.00  0.00     0.111 C 
ATOM      3  N11 MOL d   1      31.372   5.659  26.240  0.00  0.00    -0.196 NA
ATOM      4  H11 MOL d   1      31.371   7.949  26.986  0.00  0.00     0.078 H 
ENDROOT
BRANCH   2   5
ATOM      5  C07 MOL d   1      29.484   8.221  26.932  0.00  0.00    -0.018 C 
ATOM      6  H9  MOL d   1      29.846   9.110  27.470  0.00  0.00     0.042 H 
ATOM      7  H10 MOL d   1      28.756   8.527  26.167  0.00  0.00     0.042 H 
BRANCH   5   8
ATOM      8  C05 MOL d   1      28.760   7.477  27.871  0.00  0.00    -0.051 A 
ATOM      9  C04 MOL d   1      29.417   7.059  29.032  0.00  0.00    -0.042 A 
ATOM     10  C03 MOL d   1      28.729   6.333  30.030  0.00  0.00     0.139 A 
ATOM     11  H5  MOL d   1      30.466   7.295  29.168  0.00  0.00     0.088 H 
ATOM     12  C02 MOL d   1      27.352   6.038  29.846  0.00  0.00     0.132 A 
ATOM     13  C01 MOL d   1      26.685   6.473  28.686  0.00  0.00     0.101 A 
ATOM     14  C06 MOL d   1      27.390   7.198  27.725  0.00  0.00    -0.042 A 
ATOM     15  H8  MOL d   1      26.869   7.555  26.844  0.00  0.00     0.088 H 
BRANCH  10  16
ATOM     16  N14 MOL d   1      29.364   5.889  31.146  0.00  0.00    -0.113 N 
ATOM     17  O15 MOL d   1      28.623   4.832  32.158  0.00  0.00    -0.532 OA
ATOM     18  O16 MOL d   1      30.914   6.372  31.371  0.00  0.00    -0.532 OA
ENDBRANCH  10  16
BRANCH  12  19
ATOM     19  O17 MOL d   1      26.640   5.328  30.790  0.00  0.00    -0.356 OA
ATOM     20  H6  MOL d   1      27.035   4.471  30.904  0.00  0.00     0.218 HD
ENDBRANCH  12  19
BRANCH  13  21
ATOM     21  O18 MOL d   1      25.356   6.178  28.551  0.00  0.00    -0.358 OA
ATOM     22  H7  MOL d   1      25.037   6.529  27.728  0.00  0.00     0.217 HD
ENDBRANCH  13  21
ENDBRANCH   5   8
ENDBRANCH   2   5
BRANCH   2  23
ATOM     23  C09 MOL d   1      31.474   8.528  25.191  0.00  0.00     0.239 C 
ATOM     24  N12 MOL d   1      32.507   8.002  24.472  0.00  0.00    -0.330 N 
ATOM     25  C23 MOL d   1      33.068   6.654  24.542  0.00  0.00     0.002 C 
ATOM     26  C19 MOL d   1      33.273   8.858  23.587  0.00  0.00     0.082 C 
ATOM     27  C22 MOL d   1      33.446   6.061  23.262  0.00  0.00    -0.030 C 
ATOM     28  H12 MOL d   1      32.318   5.999  25.010  0.00  0.00     0.064 H 
ATOM     29  H13 MOL d   1      33.967   6.694  25.175  0.00  0.00     0.064 H 
ATOM     30  C21 MOL d   1      33.891   6.952  22.145  0.00  0.00     0.023 C 
ATOM     31  H3  MOL d   1      34.271   5.362  23.463  0.00  0.00     0.038 H 
ATOM     32  H4  MOL d   1      32.572   5.501  22.897  0.00  0.00     0.038 H 
ATOM     33  O20 MOL d   1      33.542   8.351  22.293  0.00  0.00    -0.372 OA
ATOM     34  H1  MOL d   1      33.434   6.584  21.214  0.00  0.00     0.074 H 
ATOM     35  H2  MOL d   1      34.986   6.881  22.069  0.00  0.00     0.074 H 
ATOM     36  H14 MOL d   1      34.238   9.062  24.073  0.00  0.00     0.107 H 
ATOM     37  H15 MOL d   1      32.716   9.799  23.468  0.00  0.00     0.107 H 
ATOM     38  O13 MOL d   1      31.089   9.673  25.086  0.00  0.00    -0.272 OA
ENDBRANCH   2  23
TORSDOF 6
