REMARK  1 active torsions:
REMARK  status: ('A' for Active; 'I' for Inactive)
REMARK    1  A    between atoms: C7_8  and  O8_10 
ROOT
ATOM      1  C1  ISN d   1     -36.323  12.961 -12.628  0.00  0.00     0.006 A 
ATOM      2  C2  ISN d   1     -35.620  12.228 -13.611  0.00  0.00    -0.072 A 
ATOM      3  C3  ISN d   1     -35.063  12.929 -14.690  0.00  0.00    -0.082 A 
ATOM      4  C4  ISN d   1     -35.257  14.305 -14.692  0.00  0.00    -0.081 A 
ATOM      5  C5  ISN d   1     -35.964  15.045 -13.734  0.00  0.00    -0.057 A 
ATOM      6  N1  ISN d   1     -37.352  14.802 -11.650  0.00  0.00    -0.324 N 
ATOM      7  C6  ISN d   1     -36.581  14.387 -12.694  0.00  0.00     0.044 A 
ATOM      8  C7  ISN d   1     -37.035  12.497 -11.406  0.00  0.00     0.140 A 
ATOM      9  C10 ISN d   1     -37.689  13.743 -10.920  0.00  0.00     0.255 A 
ATOM     10  O11 ISN d   1     -38.427  13.699  -9.897  0.00  0.00    -0.270 OA
ATOM     11  H1  ISN d   1     -35.514  11.152 -13.533  0.00  0.00     0.084 H 
ATOM     12  H2  ISN d   1     -34.513  12.427 -15.477  0.00  0.00     0.083 H 
ATOM     13  H3  ISN d   1     -34.819  14.860 -15.514  0.00  0.00     0.083 H 
ATOM     14  H4  ISN d   1     -36.024  16.125 -13.811  0.00  0.00     0.086 H 
ATOM     15  H5  ISN d   1     -37.620  15.747 -11.464  0.00  0.00     0.169 HD
ATOM     16  H6  ISN d   1     -36.257  12.232 -10.674  0.00  0.00     0.105 H 
ENDROOT
BRANCH   8  17
ATOM     17  O8  ISN d   1     -37.819  11.388 -11.463  0.00  0.00    -0.381 OA
ATOM     18  H7  ISN d   1     -37.306  10.655 -11.784  0.00  0.00     0.211 HD
ENDBRANCH   8  17
TORSDOF 1
