REMARK  1 active torsions:
REMARK  status: ('A' for Active; 'I' for Inactive)
REMARK    1  A    between atoms: C7_8  and  O8_10 
ROOT
ATOM      1  C1  ISN d   1      36.796 -12.675 -12.765  0.00  0.00     0.006 A 
ATOM      2  C2  ISN d   1      36.184 -11.894 -13.747  0.00  0.00    -0.072 A 
ATOM      3  C3  ISN d   1      35.547 -12.548 -14.800  0.00  0.00    -0.082 A 
ATOM      4  C4  ISN d   1      35.553 -13.951 -14.836  0.00  0.00    -0.081 A 
ATOM      5  C5  ISN d   1      36.174 -14.747 -13.852  0.00  0.00    -0.057 A 
ATOM      6  N1  ISN d   1      37.493 -14.666 -11.708  0.00  0.00    -0.324 N 
ATOM      7  C6  ISN d   1      36.816 -14.171 -12.783  0.00  0.00     0.044 A 
ATOM      8  C7  ISN d   1      37.495 -12.278 -11.535  0.00  0.00     0.140 A 
ATOM      9  C10 ISN d   1      37.894 -13.599 -10.997  0.00  0.00     0.255 A 
ATOM     10  O11 ISN d   1      38.570 -13.649  -9.923  0.00  0.00    -0.270 OA
ATOM     11  H1  ISN d   1      36.204 -10.812 -13.692  0.00  0.00     0.084 H 
ATOM     12  H2  ISN d   1      35.053 -11.981 -15.581  0.00  0.00     0.083 H 
ATOM     13  H3  ISN d   1      35.055 -14.447 -15.661  0.00  0.00     0.083 H 
ATOM     14  H4  ISN d   1      36.145 -15.827 -13.940  0.00  0.00     0.086 H 
ATOM     15  H5  ISN d   1      37.658 -15.629 -11.492  0.00  0.00     0.169 HD
ATOM     16  H6  ISN d   1      36.714 -11.908 -10.855  0.00  0.00     0.105 H 
ENDROOT
BRANCH   8  17
ATOM     17  O8  ISN d   1      38.402 -11.195 -11.556  0.00  0.00    -0.381 OA
ATOM     18  H7  ISN d   1      37.976 -10.434 -11.933  0.00  0.00     0.211 HD
ENDBRANCH   8  17
TORSDOF 1
