REMARK  1 active torsions:
REMARK  status: ('A' for Active; 'I' for Inactive)
REMARK    1  A    between atoms: C9_11  and  O12_12 
ROOT
ATOM      1  O11 72R d   1      30.275 -24.833 -22.514  0.00  0.00    -0.270 OA
ATOM      2  C8  72R d   1      30.547 -25.471 -23.519  0.00  0.00     0.255 C 
ATOM      3  N7  72R d   1      31.720 -25.466 -24.166  0.00  0.00    -0.324 N 
ATOM      4  C6  72R d   1      31.579 -26.288 -25.233  0.00  0.00     0.044 A 
ATOM      5  C5  72R d   1      32.382 -26.456 -26.264  0.00  0.00    -0.054 A 
ATOM      6  C4  72R d   1      31.996 -27.296 -27.280  0.00  0.00    -0.043 A 
ATOM      7  C3  72R d   1      30.778 -27.977 -27.240  0.00  0.00     0.117 A 
ATOM      8  F10 72R d   1      30.482 -28.753 -28.260  0.00  0.00    -0.206 F 
ATOM      9  C2  72R d   1      29.919 -27.760 -26.185  0.00  0.00    -0.035 A 
ATOM     10  C1  72R d   1      30.361 -26.914 -25.211  0.00  0.00     0.009 A 
ATOM     11  C9  72R d   1      29.784 -26.549 -23.974  0.00  0.00     0.140 C 
ATOM     12  H1  72R d   1      32.541 -24.955 -23.911  0.00  0.00     0.169 HD
ATOM     13  H2  72R d   1      33.334 -25.939 -26.310  0.00  0.00     0.087 H 
ATOM     14  H3  72R d   1      32.652 -27.433 -28.132  0.00  0.00     0.088 H 
ATOM     15  H4  72R d   1      28.946 -28.235 -26.132  0.00  0.00     0.089 H 
ATOM     16  H5  72R d   1      29.968 -27.380 -23.277  0.00  0.00     0.106 H 
ENDROOT
BRANCH  11  17
ATOM     17  O12 72R d   1      28.411 -26.395 -23.979  0.00  0.00    -0.381 OA
ATOM     18  H6  72R d   1      28.003 -27.214 -24.234  0.00  0.00     0.211 HD
ENDBRANCH  11  17
TORSDOF 1
