REMARK  2 active torsions:
REMARK  status: ('A' for Active; 'I' for Inactive)
REMARK    1  A    between atoms: C10_1  and  C5_2 
REMARK    2  A    between atoms: C9_11  and  O12_12 
ROOT
ATOM      1  C5  72S d   1      32.725 -26.104 -26.298  0.00  0.00    -0.035 A 
ATOM      2  C4  72S d   1      32.557 -27.070 -27.257  0.00  0.00    -0.075 A 
ATOM      3  C3  72S d   1      31.534 -28.013 -27.190  0.00  0.00    -0.082 A 
ATOM      4  C2  72S d   1      30.675 -27.990 -26.096  0.00  0.00    -0.072 A 
ATOM      5  C1  72S d   1      30.863 -27.028 -25.159  0.00  0.00     0.007 A 
ATOM      6  C6  72S d   1      31.853 -26.099 -25.254  0.00  0.00     0.050 A 
ATOM      7  N7  72S d   1      31.769 -25.228 -24.202  0.00  0.00    -0.324 N 
ATOM      8  C8  72S d   1      30.731 -25.514 -23.463  0.00  0.00     0.255 A 
ATOM      9  O11 72S d   1      30.345 -24.923 -22.466  0.00  0.00    -0.270 OA
ATOM     10  C9  72S d   1      30.134 -26.715 -23.959  0.00  0.00     0.140 A 
ATOM     11  H4  72S d   1      33.243 -27.101 -28.095  0.00  0.00     0.084 H 
ATOM     12  H5  72S d   1      31.410 -28.750 -27.975  0.00  0.00     0.083 H 
ATOM     13  H6  72S d   1      29.879 -28.719 -25.996  0.00  0.00     0.084 H 
ATOM     14  H7  72S d   1      32.410 -24.481 -24.025  0.00  0.00     0.169 HD
ATOM     15  H8  72S d   1      30.338 -27.516 -23.233  0.00  0.00     0.105 H 
ENDROOT
BRANCH   1  16
ATOM     16  C10 72S d   1      33.829 -25.115 -26.469  0.00  0.00    -0.049 C 
ATOM     17  H1  72S d   1      34.384 -25.341 -27.391  0.00  0.00     0.033 H 
ATOM     18  H2  72S d   1      34.510 -25.173 -25.607  0.00  0.00     0.033 H 
ATOM     19  H3  72S d   1      33.407 -24.102 -26.535  0.00  0.00     0.033 H 
ENDBRANCH   1  16
BRANCH  10  20
ATOM     20  O12 72S d   1      28.738 -26.658 -24.075  0.00  0.00    -0.381 OA
ATOM     21  H9  72S d   1      28.415 -27.487 -24.409  0.00  0.00     0.211 HD
ENDBRANCH  10  20
TORSDOF 2
