REMARK  2 active torsions:
REMARK  status: ('A' for Active; 'I' for Inactive)
REMARK    1  A    between atoms: C10_2  and  C5_5 
REMARK    2  A    between atoms: C9_14  and  O12_15 
ROOT
ATOM      1  C5  72T d   1     -32.692  26.217 -26.222  0.00  0.00     0.075 A 
ATOM      2  C4  72T d   1     -32.477  27.193 -27.195  0.00  0.00    -0.066 A 
ATOM      3  C3  72T d   1     -31.409  28.054 -27.122  0.00  0.00    -0.081 A 
ATOM      4  C2  72T d   1     -30.585  27.964 -26.026  0.00  0.00    -0.072 A 
ATOM      5  C1  72T d   1     -30.805  27.006 -25.113  0.00  0.00     0.007 A 
ATOM      6  C6  72T d   1     -31.861  26.162 -25.203  0.00  0.00     0.059 A 
ATOM      7  N7  72T d   1     -31.815  25.302 -24.151  0.00  0.00    -0.323 N 
ATOM      8  C8  72T d   1     -30.751  25.573 -23.434  0.00  0.00     0.255 C 
ATOM      9  O11 72T d   1     -30.396  24.915 -22.465  0.00  0.00    -0.270 OA
ATOM     10  C9  72T d   1     -30.126  26.715 -23.914  0.00  0.00     0.140 C 
ATOM     11  H1  72T d   1     -33.167  27.274 -28.027  0.00  0.00     0.084 H 
ATOM     12  H2  72T d   1     -31.222  28.781 -27.904  0.00  0.00     0.083 H 
ATOM     13  H3  72T d   1     -29.764  28.661 -25.900  0.00  0.00     0.084 H 
ATOM     14  H4  72T d   1     -32.482  24.582 -23.956  0.00  0.00     0.169 HD
ATOM     15  H5  72T d   1     -30.358  27.526 -23.207  0.00  0.00     0.105 H 
ENDROOT
BRANCH   1  16
ATOM     16  C10 72T d   1     -33.813  25.322 -26.319  0.00  0.00     0.419 C 
ATOM     17  F13 72T d   1     -33.475  24.119 -26.549  0.00  0.00    -0.166 F 
ATOM     18  F14 72T d   1     -34.406  25.330 -25.265  0.00  0.00    -0.166 F 
ATOM     19  F15 72T d   1     -34.647  25.677 -27.252  0.00  0.00    -0.166 F 
ENDBRANCH   1  16
BRANCH  10  20
ATOM     20  O12 72T d   1     -28.691  26.697 -23.986  0.00  0.00    -0.381 OA
ATOM     21  H6  72T d   1     -28.382  27.528 -24.327  0.00  0.00     0.211 HD
ENDBRANCH  10  20
TORSDOF 2
