REMARK  4 active torsions:
REMARK  status: ('A' for Active; 'I' for Inactive)
REMARK    1  A    between atoms: C14_1  and  O13_2 
REMARK    2  A    between atoms: O13_2  and  C10_3 
REMARK    3  A    between atoms: C10_3  and  C5_5 
REMARK    4  A    between atoms: C9_14  and  O12_15 
ROOT
ATOM      1  C5  72U d   1      36.014 -15.602 -13.315  0.00  0.00     0.066 A 
ATOM      2  C4  72U d   1      35.296 -15.075 -14.359  0.00  0.00    -0.065 A 
ATOM      3  C3  72U d   1      35.128 -13.710 -14.488  0.00  0.00    -0.081 A 
ATOM      4  C2  72U d   1      35.665 -12.829 -13.533  0.00  0.00    -0.072 A 
ATOM      5  C1  72U d   1      36.406 -13.393 -12.551  0.00  0.00     0.007 A 
ATOM      6  C6  72U d   1      36.583 -14.723 -12.452  0.00  0.00     0.060 A 
ATOM      7  N7  72U d   1      37.342 -15.026 -11.406  0.00  0.00    -0.323 N 
ATOM      8  C8  72U d   1      37.769 -13.901 -10.844  0.00  0.00     0.255 C 
ATOM      9  O11 72U d   1      38.509 -13.814  -9.889  0.00  0.00    -0.270 OA
ATOM     10  C9  72U d   1      37.071 -12.794 -11.451  0.00  0.00     0.140 C 
ATOM     11  H4  72U d   1      34.854 -15.739 -15.093  0.00  0.00     0.085 H 
ATOM     12  H5  72U d   1      34.577 -13.314 -15.334  0.00  0.00     0.083 H 
ATOM     13  H6  72U d   1      35.495 -11.759 -13.581  0.00  0.00     0.084 H 
ATOM     14  H7  72U d   1      37.557 -15.951 -11.092  0.00  0.00     0.169 HD
ATOM     15  H8  72U d   1      36.277 -12.516 -10.742  0.00  0.00     0.105 H 
ENDROOT
BRANCH   1  16
ATOM     16  C10 72U d   1      36.221 -16.974 -13.160  0.00  0.00     0.295 C 
ATOM     17  O15 72U d   1      36.201 -17.795 -14.080  0.00  0.00    -0.259 OA
BRANCH  16  18
ATOM     18  O13 72U d   1      36.332 -17.348 -11.859  0.00  0.00    -0.322 OA
BRANCH  18  19
ATOM     19  C14 72U d   1      36.499 -18.778 -11.637  0.00  0.00     0.013 C 
ATOM     20  H1  72U d   1      36.579 -18.975 -10.558  0.00  0.00     0.067 H 
ATOM     21  H2  72U d   1      37.414 -19.123 -12.141  0.00  0.00     0.067 H 
ATOM     22  H3  72U d   1      35.630 -19.316 -12.044  0.00  0.00     0.067 H 
ENDBRANCH  18  19
ENDBRANCH  16  18
ENDBRANCH   1  16
BRANCH  10  23
ATOM     23  O12 72U d   1      37.792 -11.531 -11.638  0.00  0.00    -0.381 OA
ATOM     24  H9  72U d   1      38.080 -11.204 -10.794  0.00  0.00     0.211 HD
ENDBRANCH  10  23
TORSDOF 4
