REMARK  2 active torsions:
REMARK  status: ('A' for Active; 'I' for Inactive)
REMARK    1  A    between atoms: C9_3  and  O12_4 
REMARK    2  A    between atoms: N7_11  and  C10_12 
ROOT
ATOM      1  O11 72V d   1     -38.466  13.963  -9.991  0.00  0.00    -0.270 OA
ATOM      2  C8  72V d   1     -37.712  13.762 -10.955  0.00  0.00     0.257 C 
ATOM      3  C9  72V d   1     -37.252  12.509 -11.364  0.00  0.00     0.140 C 
ATOM      4  C1  72V d   1     -36.576  12.742 -12.589  0.00  0.00     0.006 A 
ATOM      5  C2  72V d   1     -36.099  11.888 -13.535  0.00  0.00    -0.072 A 
ATOM      6  C3  72V d   1     -35.473  12.397 -14.689  0.00  0.00    -0.082 A 
ATOM      7  C4  72V d   1     -35.345  13.777 -14.793  0.00  0.00    -0.081 A 
ATOM      8  C5  72V d   1     -35.878  14.616 -13.803  0.00  0.00    -0.056 A 
ATOM      9  C6  72V d   1     -36.459  14.093 -12.711  0.00  0.00     0.046 A 
ATOM     10  N7  72V d   1     -37.065  14.685 -11.687  0.00  0.00    -0.319 N 
ATOM     11  H1  72V d   1     -36.476  12.215 -10.642  0.00  0.00     0.106 H 
ATOM     12  H3  72V d   1     -36.201  10.817 -13.400  0.00  0.00     0.084 H 
ATOM     13  H4  72V d   1     -35.105  11.738 -15.467  0.00  0.00     0.083 H 
ATOM     14  H5  72V d   1     -34.830  14.208 -15.644  0.00  0.00     0.083 H 
ATOM     15  H6  72V d   1     -35.821  15.692 -13.920  0.00  0.00     0.086 H 
ENDROOT
BRANCH  10  16
ATOM     16  C10 72V d   1     -37.178  16.185 -11.563  0.00  0.00    -0.011 C 
ATOM     17  H7  72V d   1     -37.718  16.437 -10.638  0.00  0.00     0.057 H 
ATOM     18  H8  72V d   1     -37.728  16.584 -12.428  0.00  0.00     0.057 H 
ATOM     19  H9  72V d   1     -36.171  16.627 -11.532  0.00  0.00     0.057 H 
ENDBRANCH  10  16
BRANCH   3  20
ATOM     20  O12 72V d   1     -38.175  11.455 -11.311  0.00  0.00    -0.381 OA
ATOM     21  H2  72V d   1     -37.758  10.655 -11.609  0.00  0.00     0.211 HD
ENDBRANCH   3  20
TORSDOF 2
