REMARK  4 active torsions:
REMARK  status: ('A' for Active; 'I' for Inactive)
REMARK    1  A    between atoms: C9_3  and  O11_4 
REMARK    2  A    between atoms: N7_11  and  C12_12 
REMARK    3  A    between atoms: C12_12  and  C13_13 
REMARK    4  A    between atoms: C13_13  and  C14_14 
ROOT
ATOM      1  O10 73F d   1     -38.745  13.901 -10.120  0.00  0.00    -0.270 OA
ATOM      2  C8  73F d   1     -38.034  13.708 -11.114  0.00  0.00     0.258 C 
ATOM      3  C9  73F d   1     -37.455  12.465 -11.472  0.00  0.00     0.140 C 
ATOM      4  C1  73F d   1     -36.892  12.701 -12.749  0.00  0.00     0.006 A 
ATOM      5  C2  73F d   1     -36.313  11.869 -13.643  0.00  0.00    -0.072 A 
ATOM      6  C3  73F d   1     -35.758  12.349 -14.828  0.00  0.00    -0.082 A 
ATOM      7  C4  73F d   1     -35.838  13.716 -15.034  0.00  0.00    -0.081 A 
ATOM      8  C5  73F d   1     -36.441  14.560 -14.087  0.00  0.00    -0.056 A 
ATOM      9  C6  73F d   1     -36.927  14.056 -12.940  0.00  0.00     0.046 A 
ATOM     10  N7  73F d   1     -37.583  14.664 -11.929  0.00  0.00    -0.315 N 
ATOM     11  H1  73F d   1     -36.639  12.240 -10.769  0.00  0.00     0.106 H 
ATOM     12  H3  73F d   1     -36.280  10.806 -13.434  0.00  0.00     0.084 H 
ATOM     13  H4  73F d   1     -35.289  11.689 -15.549  0.00  0.00     0.083 H 
ATOM     14  H5  73F d   1     -35.428  14.142 -15.942  0.00  0.00     0.083 H 
ATOM     15  H6  73F d   1     -36.515  15.624 -14.282  0.00  0.00     0.086 H 
ENDROOT
BRANCH  10  16
ATOM     16  C12 73F d   1     -38.020  16.087 -11.834  0.00  0.00     0.007 C 
ATOM     17  H7  73F d   1     -38.760  16.200 -11.028  0.00  0.00     0.065 H 
ATOM     18  H8  73F d   1     -38.465  16.408 -12.788  0.00  0.00     0.065 H 
BRANCH  16  19
ATOM     19  C13 73F d   1     -36.808  16.910 -11.533  0.00  0.00    -0.026 C 
ATOM     20  H9  73F d   1     -36.021  16.695 -12.271  0.00  0.00     0.042 H 
ATOM     21  H10 73F d   1     -36.439  16.672 -10.524  0.00  0.00     0.042 H 
BRANCH  19  22
ATOM     22  C14 73F d   1     -37.174  18.315 -11.602  0.00  0.00    -0.057 A 
ATOM     23  C15 73F d   1     -37.533  19.043 -10.463  0.00  0.00    -0.077 A 
ATOM     24  C16 73F d   1     -37.869  20.401 -10.568  0.00  0.00    -0.082 A 
ATOM     25  H11 73F d   1     -37.552  18.556  -9.495  0.00  0.00     0.084 H 
ATOM     26  C17 73F d   1     -37.845  21.044 -11.812  0.00  0.00    -0.083 A 
ATOM     27  H12 73F d   1     -38.149  20.956  -9.680  0.00  0.00     0.083 H 
ATOM     28  C18 73F d   1     -37.490  20.318 -12.970  0.00  0.00    -0.082 A 
ATOM     29  H13 73F d   1     -38.098  22.096 -11.886  0.00  0.00     0.083 H 
ATOM     30  C19 73F d   1     -37.154  18.969 -12.851  0.00  0.00    -0.077 A 
ATOM     31  H14 73F d   1     -37.479  20.803 -13.940  0.00  0.00     0.083 H 
ATOM     32  H15 73F d   1     -36.872  18.412 -13.737  0.00  0.00     0.084 H 
ENDBRANCH  19  22
ENDBRANCH  16  19
ENDBRANCH  10  16
BRANCH   3  33
ATOM     33  O11 73F d   1     -38.349  11.388 -11.403  0.00  0.00    -0.381 OA
ATOM     34  H2  73F d   1     -37.901  10.589 -11.654  0.00  0.00     0.211 HD
ENDBRANCH   3  33
TORSDOF 4
