REMARK  3 active torsions:
REMARK  status: ('A' for Active; 'I' for Inactive)
REMARK    1  A    between atoms: C9_3  and  O12_4 
REMARK    2  A    between atoms: N7_11  and  C10_12 
REMARK    3  A    between atoms: C10_12  and  C11_13 
ROOT
ATOM      1  O11 73D d   1     -38.691  13.858 -10.124  0.00  0.00    -0.270 OA
ATOM      2  C8  73D d   1     -38.001  13.664 -11.137  0.00  0.00     0.257 C 
ATOM      3  C9  73D d   1     -37.437  12.426 -11.520  0.00  0.00     0.140 C 
ATOM      4  C1  73D d   1     -36.797  12.681 -12.757  0.00  0.00     0.006 A 
ATOM      5  C2  73D d   1     -36.214  11.864 -13.663  0.00  0.00    -0.072 A 
ATOM      6  C3  73D d   1     -35.582  12.384 -14.799  0.00  0.00    -0.082 A 
ATOM      7  C4  73D d   1     -35.589  13.767 -14.949  0.00  0.00    -0.081 A 
ATOM      8  C5  73D d   1     -36.204  14.577 -13.977  0.00  0.00    -0.056 A 
ATOM      9  C6  73D d   1     -36.768  14.041 -12.896  0.00  0.00     0.046 A 
ATOM     10  N7  73D d   1     -37.447  14.620 -11.891  0.00  0.00    -0.315 N 
ATOM     11  H1  73D d   1     -36.643  12.202 -10.792  0.00  0.00     0.106 H 
ATOM     12  H3  73D d   1     -36.236  10.791 -13.508  0.00  0.00     0.084 H 
ATOM     13  H4  73D d   1     -35.108  11.738 -15.529  0.00  0.00     0.083 H 
ATOM     14  H5  73D d   1     -35.120  14.221 -15.815  0.00  0.00     0.083 H 
ATOM     15  H6  73D d   1     -36.219  15.653 -14.110  0.00  0.00     0.086 H 
ENDROOT
BRANCH  10  16
ATOM     16  C10 73D d   1     -37.777  16.019 -11.769  0.00  0.00    -0.000 C 
ATOM     17  H7  73D d   1     -38.618  16.153 -11.073  0.00  0.00     0.064 H 
ATOM     18  H8  73D d   1     -38.044  16.434 -12.752  0.00  0.00     0.064 H 
BRANCH  16  19
ATOM     19  C11 73D d   1     -36.528  16.708 -11.226  0.00  0.00    -0.061 C 
ATOM     20  H9  73D d   1     -36.723  17.785 -11.112  0.00  0.00     0.029 H 
ATOM     21  H10 73D d   1     -35.693  16.559 -11.927  0.00  0.00     0.029 H 
ATOM     22  H11 73D d   1     -36.267  16.277 -10.248  0.00  0.00     0.029 H 
ENDBRANCH  16  19
ENDBRANCH  10  16
BRANCH   3  23
ATOM     23  O12 73D d   1     -38.293  11.291 -11.474  0.00  0.00    -0.381 OA
ATOM     24  H2  73D d   1     -37.811  10.521 -11.750  0.00  0.00     0.211 HD
ENDBRANCH   3  23
TORSDOF 3
