REMARK  8 active torsions:
REMARK  status: ('A' for Active; 'I' for Inactive)
REMARK    1  A    between atoms: C9_3  and  O11_4 
REMARK    2  A    between atoms: N7_11  and  CA_12 
REMARK    3  A    between atoms: CA_12  and  C_13 
REMARK    4  A    between atoms: C_13  and  O12_15 
REMARK    5  A    between atoms: O12_15  and  C13_16 
REMARK    6  A    between atoms: C13_16  and  C14_17 
REMARK    7  A    between atoms: C14_17  and  C15_18 
REMARK    8  A    between atoms: C15_18  and  C16_19 
ROOT
ATOM      1  CA  73G d   1     -38.271  15.992 -11.680  0.00  0.00     0.083 C 
ATOM      2  H7  73G d   1     -38.969  15.897 -10.835  0.00  0.00     0.080 H 
ATOM      3  H8  73G d   1     -38.835  16.206 -12.600  0.00  0.00     0.080 H 
ENDROOT
BRANCH   1   4
ATOM      4  N7  73G d   1     -37.552  14.727 -11.847  0.00  0.00    -0.306 N 
ATOM      5  C8  73G d   1     -37.896  13.698 -11.097  0.00  0.00     0.258 C 
ATOM      6  O10 73G d   1     -38.616  13.785 -10.102  0.00  0.00    -0.270 OA
ATOM      7  C9  73G d   1     -37.214  12.551 -11.538  0.00  0.00     0.140 C 
ATOM      8  C1  73G d   1     -36.620  12.925 -12.764  0.00  0.00     0.006 A 
ATOM      9  H1  73G d   1     -36.399  12.341 -10.829  0.00  0.00     0.106 H 
ATOM     10  C2  73G d   1     -35.913  12.222 -13.702  0.00  0.00    -0.072 A 
ATOM     11  C6  73G d   1     -36.815  14.265 -12.877  0.00  0.00     0.047 A 
ATOM     12  C3  73G d   1     -35.403  12.880 -14.838  0.00  0.00    -0.082 A 
ATOM     13  H3  73G d   1     -35.746  11.159 -13.570  0.00  0.00     0.084 H 
ATOM     14  C4  73G d   1     -35.643  14.263 -14.908  0.00  0.00    -0.081 A 
ATOM     15  H4  73G d   1     -34.858  12.351 -15.612  0.00  0.00     0.083 H 
ATOM     16  C5  73G d   1     -36.353  14.927 -13.927  0.00  0.00    -0.056 A 
ATOM     17  H5  73G d   1     -35.261  14.823 -15.754  0.00  0.00     0.083 H 
ATOM     18  H6  73G d   1     -36.532  15.992 -14.017  0.00  0.00     0.086 H 
BRANCH   7  19
ATOM     19  O11 73G d   1     -38.032  11.390 -11.544  0.00  0.00    -0.381 OA
ATOM     20  H2  73G d   1     -37.524  10.648 -11.849  0.00  0.00     0.211 HD
ENDBRANCH   7  19
ENDBRANCH   1   4
BRANCH   1  21
ATOM     21  C   73G d   1     -37.326  17.139 -11.407  0.00  0.00     0.277 C 
ATOM     22  O   73G d   1     -36.204  16.966 -10.972  0.00  0.00    -0.263 OA
BRANCH  21  23
ATOM     23  O12 73G d   1     -37.834  18.371 -11.751  0.00  0.00    -0.320 OA
BRANCH  23  24
ATOM     24  C13 73G d   1     -37.085  19.424 -11.166  0.00  0.00     0.029 C 
ATOM     25  H9  73G d   1     -36.296  19.775 -11.847  0.00  0.00     0.075 H 
ATOM     26  H10 73G d   1     -36.634  19.108 -10.214  0.00  0.00     0.075 H 
BRANCH  24  27
ATOM     27  C14 73G d   1     -38.127  20.495 -10.944  0.00  0.00    -0.045 C 
ATOM     28  H11 73G d   1     -39.132  20.095 -11.141  0.00  0.00     0.036 H 
ATOM     29  H12 73G d   1     -37.938  21.353 -11.606  0.00  0.00     0.036 H 
BRANCH  27  30
ATOM     30  C15 73G d   1     -38.004  20.916  -9.488  0.00  0.00    -0.067 C 
ATOM     31  H13 73G d   1     -38.391  21.937  -9.355  0.00  0.00     0.032 H 
ATOM     32  H14 73G d   1     -36.951  20.878  -9.171  0.00  0.00     0.032 H 
BRANCH  30  33
ATOM     33  C16 73G d   1     -38.846  19.916  -8.659  0.00  0.00    -0.076 C 
ATOM     34  H15 73G d   1     -38.787  20.182  -7.593  0.00  0.00     0.027 H 
ATOM     35  H16 73G d   1     -38.455  18.898  -8.805  0.00  0.00     0.027 H 
ATOM     36  H17 73G d   1     -39.894  19.957  -8.989  0.00  0.00     0.027 H 
ENDBRANCH  30  33
ENDBRANCH  27  30
ENDBRANCH  24  27
ENDBRANCH  23  24
ENDBRANCH  21  23
ENDBRANCH   1  21
TORSDOF 8
