REMARK  4 active torsions:
REMARK  status: ('A' for Active; 'I' for Inactive)
REMARK    1  A    between atoms: CAX_9  and  CAU_10 
REMARK       I    between atoms: CAU_10  and  NAR_12 
REMARK    2  A    between atoms: NAR_12  and  CBB_13 
REMARK    3  A    between atoms: NBC_18  and  CAY_19 
REMARK    4  A    between atoms: CAW_23  and  CAV_24 
ROOT
ATOM      1  CBB MOL d   1      37.222 -25.335  -5.626  0.00  0.00     0.028 C 
ATOM      2  CAO MOL d   1      37.456 -23.922  -6.094  0.00  0.00     0.015 C 
ATOM      3  CAM MOL d   1      36.309 -25.279  -4.489  0.00  0.00    -0.043 C 
ATOM      4  CAL MOL d   1      34.998 -24.740  -4.834  0.00  0.00    -0.048 C 
ATOM      5  CAN MOL d   1      35.012 -23.510  -5.745  0.00  0.00    -0.003 C 
ATOM      6  NBC MOL d   1      36.186 -23.450  -6.741  0.00  0.00    -0.362 N 
ATOM      7  H8  MOL d   1      36.764 -25.932  -6.429  0.00  0.00     0.075 H 
ATOM      8  H9  MOL d   1      38.281 -23.898  -6.822  0.00  0.00     0.067 H 
ATOM      9  H10 MOL d   1      37.704 -23.278  -5.237  0.00  0.00     0.067 H 
ATOM     10  H11 MOL d   1      36.756 -24.642  -3.712  0.00  0.00     0.036 H 
ATOM     11  H12 MOL d   1      36.176 -26.298  -4.096  0.00  0.00     0.036 H 
ATOM     12  H13 MOL d   1      34.488 -24.464  -3.899  0.00  0.00     0.035 H 
ATOM     13  H14 MOL d   1      34.429 -25.532  -5.342  0.00  0.00     0.035 H 
ATOM     14  H15 MOL d   1      35.059 -22.614  -5.108  0.00  0.00     0.064 H 
ATOM     15  H16 MOL d   1      34.075 -23.502  -6.321  0.00  0.00     0.064 H 
ENDROOT
BRANCH   1  16
ATOM     16  NAR MOL d   1      38.546 -25.917  -5.277  0.00  0.00    -0.349 N 
ATOM     17  CAU MOL d   1      38.989 -27.205  -5.806  0.00  0.00     0.268 C 
ATOM     18  OAA MOL d   1      38.301 -27.863  -6.513  0.00  0.00    -0.266 OA
ATOM     19  H7  MOL d   1      39.151 -25.412  -4.662  0.00  0.00     0.163 HD
BRANCH  17  20
ATOM     20  CAX MOL d   1      40.366 -27.700  -5.371  0.00  0.00     0.102 A 
ATOM     21  CAK MOL d   1      41.421 -26.851  -5.042  0.00  0.00    -0.040 A 
ATOM     22  CAZ MOL d   1      42.498 -27.686  -4.664  0.00  0.00    -0.007 A 
ATOM     23  H1  MOL d   1      41.417 -25.762  -5.070  0.00  0.00     0.088 H 
ATOM     24  CAH MOL d   1      43.827 -27.429  -4.230  0.00  0.00    -0.071 A 
ATOM     25  CBA MOL d   1      42.036 -28.979  -4.788  0.00  0.00     0.043 A 
ATOM     26  CAB MOL d   1      44.679 -28.491  -3.929  0.00  0.00    -0.082 A 
ATOM     27  H2  MOL d   1      44.178 -26.408  -4.133  0.00  0.00     0.084 H 
ATOM     28  CAC MOL d   1      44.222 -29.809  -4.054  0.00  0.00    -0.081 A 
ATOM     29  H3  MOL d   1      45.693 -28.297  -3.599  0.00  0.00     0.083 H 
ATOM     30  CAI MOL d   1      42.913 -30.061  -4.476  0.00  0.00    -0.056 A 
ATOM     31  H4  MOL d   1      44.884 -30.635  -3.823  0.00  0.00     0.083 H 
ATOM     32  H5  MOL d   1      42.563 -31.083  -4.567  0.00  0.00     0.086 H 
ATOM     33  NAT MOL d   1      40.739 -28.960  -5.213  0.00  0.00    -0.351 N 
ATOM     34  H6  MOL d   1      40.150 -29.788  -5.382  0.00  0.00     0.166 HD
ENDBRANCH  17  20
ENDBRANCH   1  16
BRANCH   6  35
ATOM     35  CAY MOL d   1      35.993 -23.841  -8.094  0.00  0.00     0.147 A 
ATOM     36  CAJ MOL d   1      34.857 -23.550  -8.828  0.00  0.00    -0.009 A 
ATOM     37  CAW MOL d   1      35.155 -24.128 -10.056  0.00  0.00     0.064 A 
ATOM     38  H17 MOL d   1      33.962 -23.009  -8.523  0.00  0.00     0.093 H 
ATOM     39  NAQ MOL d   1      36.332 -24.703 -10.028  0.00  0.00    -0.276 N 
ATOM     40  NAS MOL d   1      36.838 -24.526  -8.835  0.00  0.00    -0.156 NA
ATOM     41  H18 MOL d   1      36.780 -25.206 -10.808  0.00  0.00     0.189 HD
BRANCH  37  42
ATOM     42  CAV MOL d   1      34.248 -24.108 -11.203  0.00  0.00    -0.005 A 
ATOM     43  CAF MOL d   1      34.656 -24.717 -12.347  0.00  0.00    -0.054 A 
ATOM     44  CAD MOL d   1      33.793 -24.699 -13.388  0.00  0.00     0.003 A 
ATOM     45  H19 MOL d   1      35.626 -25.194 -12.422  0.00  0.00     0.087 H 
ATOM     46  NAP MOL d   1      32.621 -24.110 -13.269  0.00  0.00    -0.273 NA
ATOM     47  H20 MOL d   1      34.067 -25.171 -14.324  0.00  0.00     0.114 H 
ATOM     48  CAE MOL d   1      32.230 -23.511 -12.182  0.00  0.00     0.003 A 
ATOM     49  CAG MOL d   1      33.032 -23.502 -11.089  0.00  0.00    -0.054 A 
ATOM     50  H21 MOL d   1      31.264 -23.020 -12.150  0.00  0.00     0.114 H 
ATOM     51  H22 MOL d   1      32.719 -23.033 -10.163  0.00  0.00     0.087 H 
ENDBRANCH  37  42
ENDBRANCH   6  35
TORSDOF 4
