REMARK  4 active torsions:
REMARK  status: ('A' for Active; 'I' for Inactive)
REMARK    1  A    between atoms: C9_3  and  O12_4 
REMARK    2  A    between atoms: N7_12  and  C13_13 
REMARK    3  A    between atoms: C13_13  and  C14_14 
REMARK    4  A    between atoms: C14_14  and  C15_15 
ROOT
ATOM      1  O11 73H d   1      38.417 -13.897 -10.203  0.00  0.00    -0.270 OA
ATOM      2  C8  73H d   1      37.755 -13.639 -11.195  0.00  0.00     0.258 C 
ATOM      3  C9  73H d   1      37.219 -12.376 -11.513  0.00  0.00     0.140 C 
ATOM      4  C1  73H d   1      36.641 -12.561 -12.791  0.00  0.00     0.009 A 
ATOM      5  C2  73H d   1      36.082 -11.711 -13.683  0.00  0.00    -0.035 A 
ATOM      6  C3  73H d   1      35.522 -12.259 -14.851  0.00  0.00     0.117 A 
ATOM      7  F10 73H d   1      35.020 -11.624 -15.662  0.00  0.00    -0.206 F 
ATOM      8  C4  73H d   1      35.542 -13.594 -15.055  0.00  0.00    -0.043 A 
ATOM      9  C5  73H d   1      36.127 -14.421 -14.104  0.00  0.00    -0.053 A 
ATOM     10  C6  73H d   1      36.639 -13.912 -12.998  0.00  0.00     0.046 A 
ATOM     11  N7  73H d   1      37.272 -14.558 -12.022  0.00  0.00    -0.315 N 
ATOM     12  H1  73H d   1      36.392 -12.186 -10.814  0.00  0.00     0.106 H 
ATOM     13  H3  73H d   1      36.066 -10.642 -13.503  0.00  0.00     0.089 H 
ATOM     14  H4  73H d   1      35.105 -14.017 -15.953  0.00  0.00     0.088 H 
ATOM     15  H5  73H d   1      36.163 -15.492 -14.271  0.00  0.00     0.087 H 
ENDROOT
BRANCH  11  16
ATOM     16  C13 73H d   1      37.633 -15.961 -11.973  0.00  0.00     0.007 C 
ATOM     17  H6  73H d   1      38.400 -16.118 -11.200  0.00  0.00     0.065 H 
ATOM     18  H7  73H d   1      38.028 -16.275 -12.950  0.00  0.00     0.065 H 
BRANCH  16  19
ATOM     19  C14 73H d   1      36.434 -16.753 -11.648  0.00  0.00    -0.026 C 
ATOM     20  H8  73H d   1      35.611 -16.479 -12.325  0.00  0.00     0.042 H 
ATOM     21  H9  73H d   1      36.132 -16.562 -10.608  0.00  0.00     0.042 H 
BRANCH  19  22
ATOM     22  C15 73H d   1      36.763 -18.165 -11.816  0.00  0.00    -0.057 A 
ATOM     23  C16 73H d   1      37.050 -18.992 -10.723  0.00  0.00    -0.077 A 
ATOM     24  C17 73H d   1      37.332 -20.345 -10.934  0.00  0.00    -0.082 A 
ATOM     25  H10 73H d   1      37.053 -18.585  -9.718  0.00  0.00     0.084 H 
ATOM     26  C18 73H d   1      37.347 -20.884 -12.220  0.00  0.00    -0.083 A 
ATOM     27  H11 73H d   1      37.542 -20.985 -10.085  0.00  0.00     0.083 H 
ATOM     28  C19 73H d   1      37.080 -20.066 -13.338  0.00  0.00    -0.082 A 
ATOM     29  H12 73H d   1      37.565 -21.936 -12.361  0.00  0.00     0.083 H 
ATOM     30  C20 73H d   1      36.785 -18.722 -13.118  0.00  0.00    -0.077 A 
ATOM     31  H13 73H d   1      37.104 -20.473 -14.343  0.00  0.00     0.083 H 
ATOM     32  H14 73H d   1      36.566 -18.085 -13.967  0.00  0.00     0.084 H 
ENDBRANCH  19  22
ENDBRANCH  16  19
ENDBRANCH  11  16
BRANCH   3  33
ATOM     33  O12 73H d   1      38.084 -11.294 -11.339  0.00  0.00    -0.381 OA
ATOM     34  H2  73H d   1      37.636 -10.491 -11.577  0.00  0.00     0.211 HD
ENDBRANCH   3  33
TORSDOF 4
