REMARK  3 active torsions:
REMARK  status: ('A' for Active; 'I' for Inactive)
REMARK    1  A    between atoms: C03_6  and  O11_18 
REMARK    2  A    between atoms: C12_12  and  C06_9 
REMARK    3  A    between atoms: C12_12  and  N13_16 
ROOT
ATOM      1  C10 9E3 d   1     -20.650  -7.404  77.783  0.00  0.00    -0.069 A 
ATOM      2  C01 9E3 d   1     -23.954  -6.845  79.553  0.00  0.00    -0.072 A 
ATOM      3  C02 9E3 d   1     -23.590  -5.807  80.413  0.00  0.00    -0.048 A 
ATOM      4  C03 9E3 d   1     -22.289  -5.318  80.381  0.00  0.00     0.095 A 
ATOM      5  C04 9E3 d   1     -21.311  -5.859  79.499  0.00  0.00     0.100 A 
ATOM      6  C05 9E3 d   1     -21.660  -6.884  78.660  0.00  0.00     0.003 A 
ATOM      7  C06 9E3 d   1     -23.003  -7.400  78.693  0.00  0.00    -0.027 A 
ATOM      8  C08 9E3 d   1     -19.111  -5.789  78.740  0.00  0.00     0.003 A 
ATOM      9  C09 9E3 d   1     -19.367  -6.841  77.831  0.00  0.00    -0.065 A 
ATOM     10  N07 9E3 d   1     -20.057  -5.311  79.528  0.00  0.00    -0.257 NA
ATOM     11  H1  9E3 d   1     -20.874  -8.214  77.099  0.00  0.00     0.085 H 
ATOM     12  H3  9E3 d   1     -24.971  -7.219  79.553  0.00  0.00     0.084 H 
ATOM     13  H4  9E3 d   1     -24.316  -5.386  81.100  0.00  0.00     0.087 H 
ATOM     14  H5  9E3 d   1     -18.115  -5.365  78.791  0.00  0.00     0.114 H 
ATOM     15  H6  9E3 d   1     -18.582  -7.207  77.180  0.00  0.00     0.085 H 
ENDROOT
BRANCH   7  16
ATOM     16  C12 9E3 d   1     -23.444  -8.524  77.752  0.00  0.00     0.025 C 
ATOM     17  H7  9E3 d   1     -24.196  -9.170  78.228  0.00  0.00     0.072 H 
ATOM     18  H8  9E3 d   1     -22.587  -9.134  77.430  0.00  0.00     0.072 H 
BRANCH  16  19
ATOM     19  N13 9E3 d   1     -24.014  -7.787  76.636  0.00  0.00    -0.343 N 
ATOM     20  C17 9E3 d   1     -25.227  -7.262  76.620  0.00  0.00     0.069 A 
ATOM     21  N16 9E3 d   1     -25.397  -6.634  75.468  0.00  0.00    -0.214 NA
ATOM     22  H2  9E3 d   1     -25.962  -7.334  77.420  0.00  0.00     0.143 H 
ATOM     23  C15 9E3 d   1     -24.294  -6.740  74.741  0.00  0.00     0.226 A 
ATOM     24  C14 9E3 d   1     -23.392  -7.482  75.507  0.00  0.00     0.037 A 
ATOM     25  F18 9E3 d   1     -24.084  -6.223  73.485  0.00  0.00    -0.183 F 
ATOM     26  H9  9E3 d   1     -22.375  -7.756  75.230  0.00  0.00     0.118 H 
ENDBRANCH  16  19
ENDBRANCH   7  16
BRANCH   4  27
ATOM     27  O11 9E3 d   1     -21.915  -4.275  81.220  0.00  0.00    -0.358 OA
ATOM     28  H10 9E3 d   1     -22.659  -4.014  81.750  0.00  0.00     0.217 HD
ENDBRANCH   4  27
TORSDOF 3
