REMARK  5 active torsions:
REMARK  status: ('A' for Active; 'I' for Inactive)
REMARK    1  A    between atoms: N_1  and  CA_2 
REMARK    2  A    between atoms: CA_2  and  CB_3 
REMARK    3  A    between atoms: CB_3  and  CG_4 
REMARK    4  A    between atoms: CG_4  and  CD_5 
REMARK    5  A    between atoms: CD_5  and  NE_6 
REMARK       I    between atoms: NE_6  and  CZ_7 
REMARK       I    between atoms: CZ_7  and  NH1_8 
ROOT
ATOM      1  CG  AG2 d   1      26.117  13.997  47.054  0.00  0.00    -0.048 C 
ATOM      2  H8  AG2 d   1      26.782  14.635  47.654  0.00  0.00     0.035 H 
ATOM      3  H9  AG2 d   1      25.554  13.325  47.719  0.00  0.00     0.035 H 
ENDROOT
BRANCH   1   4
ATOM      4  CB  AG2 d   1      26.981  13.144  46.186  0.00  0.00    -0.041 C 
ATOM      5  H6  AG2 d   1      26.340  12.351  45.773  0.00  0.00     0.035 H 
ATOM      6  H7  AG2 d   1      27.348  13.783  45.369  0.00  0.00     0.035 H 
BRANCH   4   7
ATOM      7  CA  AG2 d   1      28.172  12.475  46.786  0.00  0.00     0.080 C 
ATOM      8  H4  AG2 d   1      28.907  13.259  47.021  0.00  0.00     0.075 H 
ATOM      9  H5  AG2 d   1      27.844  11.989  47.717  0.00  0.00     0.075 H 
BRANCH   7  10
ATOM     10  N   AG2 d   1      28.842  11.477  45.990  0.00  0.00    -0.079 N 
ATOM     11  H1  AG2 d   1      29.624  11.105  46.506  0.00  0.00     0.274 HD
ATOM     12  H2  AG2 d   1      29.173  11.896  45.135  0.00  0.00     0.274 HD
ATOM     13  H3  AG2 d   1      28.198  10.733  45.773  0.00  0.00     0.274 HD
ENDBRANCH   7  10
ENDBRANCH   4   7
ENDBRANCH   1   4
BRANCH   1  14
ATOM     14  CD  AG2 d   1      25.127  14.892  46.382  0.00  0.00     0.009 C 
ATOM     15  H10 AG2 d   1      24.163  14.362  46.383  0.00  0.00     0.064 H 
ATOM     16  H11 AG2 d   1      25.469  15.028  45.346  0.00  0.00     0.064 H 
BRANCH  14  17
ATOM     17  NE  AG2 d   1      24.887  16.197  46.917  0.00  0.00    -0.227 N 
ATOM     18  CZ  AG2 d   1      23.921  17.062  46.299  0.00  0.00     0.665 C 
ATOM     19  NH1 AG2 d   1      23.254  16.671  45.242  0.00  0.00    -0.235 N 
ATOM     20  NH2 AG2 d   1      23.714  18.247  46.798  0.00  0.00    -0.235 N 
ATOM     21  H13 AG2 d   1      22.564  17.300  44.807  0.00  0.00     0.174 HD
ATOM     22  H14 AG2 d   1      23.420  15.735  44.846  0.00  0.00     0.174 HD
ATOM     23  H15 AG2 d   1      24.239  18.555  47.629  0.00  0.00     0.174 HD
ATOM     24  H16 AG2 d   1      23.026  18.877  46.361  0.00  0.00     0.174 HD
ATOM     25  H12 AG2 d   1      25.407  16.517  47.746  0.00  0.00     0.177 HD
ENDBRANCH  14  17
ENDBRANCH   1  14
TORSDOF 5
