REMARK  11 active torsions:
REMARK  status: ('A' for Active; 'I' for Inactive)
REMARK    1  A    between atoms: C01_1  and  O02_2 
REMARK    2  A    between atoms: O02_2  and  C03_3 
REMARK    3  A    between atoms: C05_5  and  C06_6 
REMARK    4  A    between atoms: C06_6  and  C08_8 
REMARK    5  A    between atoms: C12_12  and  C13_13 
REMARK    6  A    between atoms: C16_16  and  C17_17 
REMARK    7  A    between atoms: C18_18  and  O19_19 
REMARK    8  A    between atoms: C23_23  and  O24_24 
REMARK    9  A    between atoms: O24_24  and  C25_25 
REMARK   10  A    between atoms: C26_26  and  O27_27 
REMARK   11  A    between atoms: O27_27  and  C28_28 
ROOT
ATOM      1  C06 MOL d   1     -19.095 -68.593  40.715  0.00  0.00     0.210 C 
ATOM      2  O07 MOL d   1     -19.933 -69.214  40.133  0.00  0.00    -0.285 OA
ENDROOT
BRANCH   1   3
ATOM      3  C05 MOL d   1     -17.957 -67.944  39.921  0.00  0.00     0.022 A 
ATOM      4  C04 MOL d   1     -16.808 -67.496  40.551  0.00  0.00    -0.034 A 
ATOM      5  C03 MOL d   1     -15.779 -66.924  39.829  0.00  0.00     0.105 A 
ATOM      6  H4  MOL d   1     -16.715 -67.596  41.626  0.00  0.00     0.089 H 
ATOM      7  C26 MOL d   1     -15.892 -66.777  38.452  0.00  0.00     0.135 A 
ATOM      8  C23 MOL d   1     -17.051 -67.214  37.810  0.00  0.00     0.105 A 
ATOM      9  C22 MOL d   1     -18.077 -67.804  38.547  0.00  0.00    -0.034 A 
ATOM     10  H15 MOL d   1     -18.971 -68.154  38.044  0.00  0.00     0.089 H 
BRANCH   5  11
ATOM     11  O02 MOL d   1     -14.656 -66.467  40.512  0.00  0.00    -0.353 OA
BRANCH  11  12
ATOM     12  C01 MOL d   1     -13.945 -67.381  41.302  0.00  0.00     0.010 C 
ATOM     13  H1  MOL d   1     -13.091 -66.872  41.773  0.00  0.00     0.066 H 
ATOM     14  H2  MOL d   1     -13.578 -68.204  40.671  0.00  0.00     0.066 H 
ATOM     15  H3  MOL d   1     -14.607 -67.784  42.082  0.00  0.00     0.066 H 
ENDBRANCH  11  12
ENDBRANCH   5  11
BRANCH   7  16
ATOM     16  O27 MOL d   1     -14.866 -66.151  37.733  0.00  0.00    -0.351 OA
BRANCH  16  17
ATOM     17  C28 MOL d   1     -14.130 -66.907  36.807  0.00  0.00     0.011 C 
ATOM     18  H19 MOL d   1     -13.370 -66.268  36.334  0.00  0.00     0.067 H 
ATOM     19  H20 MOL d   1     -14.807 -67.303  36.036  0.00  0.00     0.067 H 
ATOM     20  H21 MOL d   1     -13.636 -67.742  37.325  0.00  0.00     0.067 H 
ENDBRANCH  16  17
ENDBRANCH   7  16
BRANCH   8  21
ATOM     21  O24 MOL d   1     -17.160 -67.057  36.415  0.00  0.00    -0.353 OA
BRANCH  21  22
ATOM     22  C25 MOL d   1     -18.417 -66.741  35.874  0.00  0.00     0.010 C 
ATOM     23  H16 MOL d   1     -18.334 -66.653  34.781  0.00  0.00     0.066 H 
ATOM     24  H17 MOL d   1     -18.767 -65.786  36.293  0.00  0.00     0.066 H 
ATOM     25  H18 MOL d   1     -19.134 -67.536  36.125  0.00  0.00     0.066 H 
ENDBRANCH  21  22
ENDBRANCH   8  21
ENDBRANCH   1   3
BRANCH   1  26
ATOM     26  C08 MOL d   1     -19.200 -68.435  42.237  0.00  0.00     0.108 A 
ATOM     27  C09 MOL d   1     -19.819 -69.428  42.988  0.00  0.00    -0.051 A 
ATOM     28  C10 MOL d   1     -19.931 -69.293  44.357  0.00  0.00    -0.078 A 
ATOM     29  H5  MOL d   1     -20.214 -70.310  42.497  0.00  0.00     0.087 H 
ATOM     30  C11 MOL d   1     -19.399 -68.153  44.936  0.00  0.00    -0.054 A 
ATOM     31  H6  MOL d   1     -20.418 -70.052  44.958  0.00  0.00     0.083 H 
ATOM     32  C12 MOL d   1     -18.781 -67.167  44.142  0.00  0.00     0.068 A 
ATOM     33  H7  MOL d   1     -19.459 -68.018  46.010  0.00  0.00     0.087 H 
ATOM     34  N21 MOL d   1     -18.719 -67.356  42.829  0.00  0.00    -0.244 NA
BRANCH  32  35
ATOM     35  C13 MOL d   1     -18.244 -65.976  44.672  0.00  0.00    -0.005 A 
ATOM     36  C14 MOL d   1     -17.789 -64.972  43.816  0.00  0.00    -0.070 A 
ATOM     37  C15 MOL d   1     -17.251 -63.785  44.320  0.00  0.00    -0.074 A 
ATOM     38  H8  MOL d   1     -17.854 -65.115  42.743  0.00  0.00     0.084 H 
ATOM     39  C16 MOL d   1     -17.157 -63.556  45.687  0.00  0.00    -0.029 A 
ATOM     40  H9  MOL d   1     -16.899 -63.027  43.630  0.00  0.00     0.084 H 
ATOM     41  C18 MOL d   1     -17.609 -64.544  46.553  0.00  0.00     0.072 A 
ATOM     42  C20 MOL d   1     -18.142 -65.724  46.050  0.00  0.00    -0.038 A 
ATOM     43  H14 MOL d   1     -18.492 -66.478  46.746  0.00  0.00     0.089 H 
BRANCH  39  44
ATOM     44  C17 MOL d   1     -16.565 -62.253  46.212  0.00  0.00    -0.049 C 
ATOM     45  H10 MOL d   1     -16.273 -61.615  45.365  0.00  0.00     0.033 H 
ATOM     46  H11 MOL d   1     -15.680 -62.474  46.827  0.00  0.00     0.033 H 
ATOM     47  H12 MOL d   1     -17.315 -61.729  46.823  0.00  0.00     0.033 H 
ENDBRANCH  39  44
BRANCH  41  48
ATOM     48  O19 MOL d   1     -17.528 -64.385  47.940  0.00  0.00    -0.360 OA
ATOM     49  H13 MOL d   1     -17.882 -65.156  48.367  0.00  0.00     0.217 HD
ENDBRANCH  41  48
ENDBRANCH  32  35
ENDBRANCH   1  26
TORSDOF 11
