REMARK  3 active torsions:
REMARK  status: ('A' for Active; 'I' for Inactive)
REMARK    1  A    between atoms: C15_3  and  C16_2 
REMARK    2  A    between atoms: N14_9  and  C15_3 
REMARK       I    between atoms: C01_10  and  N14_9 
REMARK    3  A    between atoms: C02_12  and  C01_10 
ROOT
ATOM      1  C15 MOL d   1      -4.900   0.053  27.571  0.00  0.00    -0.001 C 
ATOM      2  H2  MOL d   1      -5.161  -0.473  26.641  0.00  0.00     0.064 H 
ATOM      3  H3  MOL d   1      -5.447   1.006  27.619  0.00  0.00     0.064 H 
ENDROOT
BRANCH   1   4
ATOM      4  C16 MOL d   1      -3.398   0.296  27.643  0.00  0.00    -0.039 C 
ATOM      5  C21 MOL d   1      -2.650  -1.007  27.748  0.00  0.00    -0.060 C 
ATOM      6  C20 MOL d   1      -1.204  -0.752  27.936  0.00  0.00    -0.065 C 
ATOM      7  H4  MOL d   1      -2.800  -1.587  26.826  0.00  0.00     0.033 H 
ATOM      8  H5  MOL d   1      -3.033  -1.578  28.607  0.00  0.00     0.033 H 
ATOM      9  C19 MOL d   1      -0.701   0.029  26.768  0.00  0.00    -0.065 C 
ATOM     10  H6  MOL d   1      -0.665  -1.708  28.002  0.00  0.00     0.033 H 
ATOM     11  H7  MOL d   1      -1.046  -0.178  28.861  0.00  0.00     0.033 H 
ATOM     12  C18 MOL d   1      -1.524   1.311  26.694  0.00  0.00    -0.065 C 
ATOM     13  H8  MOL d   1      -0.827  -0.553  25.843  0.00  0.00     0.033 H 
ATOM     14  H9  MOL d   1       0.363   0.272  26.907  0.00  0.00     0.033 H 
ATOM     15  C17 MOL d   1      -2.935   0.993  26.462  0.00  0.00    -0.060 C 
ATOM     16  H10 MOL d   1      -1.151   1.935  25.868  0.00  0.00     0.033 H 
ATOM     17  H11 MOL d   1      -1.427   1.861  27.642  0.00  0.00     0.033 H 
ATOM     18  H12 MOL d   1      -3.514   1.917  26.314  0.00  0.00     0.033 H 
ATOM     19  H13 MOL d   1      -3.039   0.350  25.576  0.00  0.00     0.033 H 
ATOM     20  H1  MOL d   1      -3.183   0.908  28.531  0.00  0.00     0.042 H 
ENDBRANCH   1   4
BRANCH   1  21
ATOM     21  N14 MOL d   1      -5.204  -0.748  28.693  0.00  0.00    -0.355 N 
ATOM     22  C01 MOL d   1      -5.734  -1.935  28.680  0.00  0.00     0.275 C 
ATOM     23  O13 MOL d   1      -6.027  -2.463  27.651  0.00  0.00    -0.265 OA
ATOM     24  H14 MOL d   1      -4.989  -0.362  29.590  0.00  0.00     0.162 HD
BRANCH  22  25
ATOM     25  C02 MOL d   1      -5.966  -2.576  29.907  0.00  0.00     0.147 A 
ATOM     26  O11 MOL d   1      -5.570  -1.983  31.034  0.00  0.00    -0.304 OA
ATOM     27  C10 MOL d   1      -5.665  -2.551  32.206  0.00  0.00     0.090 A 
ATOM     28  C09 MOL d   1      -5.227  -1.874  33.312  0.00  0.00    -0.049 A 
ATOM     29  C05 MOL d   1      -6.242  -3.780  32.301  0.00  0.00     0.048 A 
ATOM     30  C08 MOL d   1      -5.320  -2.443  34.541  0.00  0.00    -0.080 A 
ATOM     31  H15 MOL d   1      -4.805  -0.881  33.206  0.00  0.00     0.087 H 
ATOM     32  C07 MOL d   1      -5.889  -3.684  34.644  0.00  0.00    -0.082 A 
ATOM     33  H16 MOL d   1      -4.952  -1.927  35.420  0.00  0.00     0.083 H 
ATOM     34  C06 MOL d   1      -6.341  -4.340  33.533  0.00  0.00    -0.066 A 
ATOM     35  H17 MOL d   1      -5.982  -4.152  35.617  0.00  0.00     0.083 H 
ATOM     36  H18 MOL d   1      -6.785  -5.323  33.638  0.00  0.00     0.085 H 
ATOM     37  C04 MOL d   1      -6.663  -4.445  31.184  0.00  0.00     0.187 A 
ATOM     38  O12 MOL d   1      -7.134  -5.552  31.257  0.00  0.00    -0.287 OA
ATOM     39  C03 MOL d   1      -6.518  -3.829  29.970  0.00  0.00     0.004 A 
ATOM     40  H19 MOL d   1      -6.840  -4.332  29.059  0.00  0.00     0.094 H 
ENDBRANCH  22  25
ENDBRANCH   1  21
TORSDOF 3
