REMARK  6 active torsions:
REMARK  status: ('A' for Active; 'I' for Inactive)
REMARK    1  A    between atoms: N_1  and  CA_2 
REMARK    2  A    between atoms: CA_2  and  C_3 
REMARK    3  A    between atoms: CA_2  and  CB_5 
REMARK    4  A    between atoms: CB_5  and  CG_6 
REMARK    5  A    between atoms: CG_6  and  SD_7 
REMARK    6  A    between atoms: SD_7  and  CE_8 
ROOT
ATOM      1  CB  MET d   1       3.233 -16.816   1.424  0.00  0.00    -0.021 C 
ATOM      2  H5  MET d   1       3.403 -17.489   0.571  0.00  0.00     0.037 H 
ATOM      3  H6  MET d   1       3.306 -15.771   1.087  0.00  0.00     0.037 H 
ENDROOT
BRANCH   1   4
ATOM      4  CA  MET d   1       4.328 -17.067   2.465  0.00  0.00     0.183 C 
ATOM      5  H4  MET d   1       4.787 -18.048   2.272  0.00  0.00     0.101 H 
BRANCH   4   6
ATOM      6  N   MET d   1       3.764 -17.058   3.842  0.00  0.00    -0.065 N 
ATOM      7  H1  MET d   1       3.060 -17.775   3.921  0.00  0.00     0.275 HD
ATOM      8  H2  MET d   1       3.350 -16.158   4.030  0.00  0.00     0.275 HD
ATOM      9  H3  MET d   1       4.500 -17.235   4.508  0.00  0.00     0.275 HD
ENDBRANCH   4   6
BRANCH   4  10
ATOM     10  C   MET d   1       5.398 -15.976   2.350  0.00  0.00     0.204 C 
ATOM     11  O   MET d   1       5.626 -15.515   1.222  0.00  0.00    -0.646 OA
ATOM     12  OXT MET d   1       5.980 -15.606   3.370  0.00  0.00    -0.646 OA
ENDBRANCH   4  10
ENDBRANCH   1   4
BRANCH   1  13
ATOM     13  CG  MET d   1       1.831 -17.054   1.952  0.00  0.00    -0.021 C 
ATOM     14  H7  MET d   1       1.655 -18.138   2.007  0.00  0.00     0.049 H 
ATOM     15  H8  MET d   1       1.110 -16.600   1.256  0.00  0.00     0.049 H 
BRANCH  13  16
ATOM     16  SD  MET d   1       1.577 -16.340   3.597  0.00  0.00    -0.173 SA
BRANCH  16  17
ATOM     17  CE  MET d   1       1.086 -17.798   4.517  0.00  0.00    -0.035 C 
ATOM     18  H9  MET d   1       0.891 -17.522   5.564  0.00  0.00     0.041 H 
ATOM     19  H10 MET d   1       1.893 -18.545   4.479  0.00  0.00     0.041 H 
ATOM     20  H11 MET d   1       0.173 -18.222   4.073  0.00  0.00     0.041 H 
ENDBRANCH  16  17
ENDBRANCH  13  16
ENDBRANCH   1  13
TORSDOF 6
