REMARK  5 active torsions:
REMARK  status: ('A' for Active; 'I' for Inactive)
REMARK    1  A    between atoms: S19_7  and  C1_1 
REMARK    2  A    between atoms: C11_22  and  C3_3 
REMARK    3  A    between atoms: C4_4  and  C22_26 
REMARK    4  A    between atoms: C16_20  and  C5_5 
REMARK    5  A    between atoms: N14_14  and  S19_7 
ROOT
ATOM      1  N14 MOL d   1     -11.783  24.264  54.521  0.00  0.00    -0.245 N 
ATOM      2  C24 MOL d   1     -11.770  25.352  53.705  0.00  0.00     0.006 C 
ATOM      3  C15 MOL d   1     -12.557  24.462  55.640  0.00  0.00     0.060 A 
ATOM      4  C7  MOL d   1     -12.985  23.685  56.707  0.00  0.00    -0.055 A 
ATOM      5  C25 MOL d   1     -13.005  25.784  55.568  0.00  0.00     0.002 A 
ATOM      6  C23 MOL d   1     -13.749  26.375  56.581  0.00  0.00    -0.065 A 
ATOM      7  C16 MOL d   1     -14.145  25.595  57.661  0.00  0.00    -0.061 A 
ATOM      8  C13 MOL d   1     -13.776  24.250  57.713  0.00  0.00    -0.075 A 
ATOM      9  C11 MOL d   1     -12.343  26.342  54.503  0.00  0.00    -0.003 C 
ATOM     10  H9  MOL d   1     -11.403  25.431  52.683  0.00  0.00     0.114 H 
ATOM     11  H10 MOL d   1     -12.706  22.639  56.761  0.00  0.00     0.087 H 
ATOM     12  H11 MOL d   1     -14.016  27.424  56.530  0.00  0.00     0.085 H 
ATOM     13  H12 MOL d   1     -14.106  23.636  58.543  0.00  0.00     0.084 H 
ENDROOT
BRANCH   1  14
ATOM     14  S19 MOL d   1     -11.178  22.772  54.031  0.00  0.00     0.270 S 
ATOM     15  O18 MOL d   1     -10.514  22.107  55.122  0.00  0.00    -0.200 OA
ATOM     16  O8  MOL d   1     -10.204  22.940  53.000  0.00  0.00    -0.200 OA
BRANCH  14  17
ATOM     17  C1  MOL d   1     -12.377  21.808  53.501  0.00  0.00     0.102 A 
ATOM     18  C12 MOL d   1     -12.744  20.693  54.257  0.00  0.00    -0.059 A 
ATOM     19  C2  MOL d   1     -13.799  19.883  53.847  0.00  0.00    -0.081 A 
ATOM     20  H6  MOL d   1     -12.205  20.457  55.167  0.00  0.00     0.086 H 
ATOM     21  C17 MOL d   1     -14.489  20.176  52.679  0.00  0.00    -0.081 A 
ATOM     22  H1  MOL d   1     -14.082  19.022  54.441  0.00  0.00     0.083 H 
ATOM     23  C20 MOL d   1     -14.130  21.276  51.916  0.00  0.00    -0.060 A 
ATOM     24  H8  MOL d   1     -15.310  19.543  52.363  0.00  0.00     0.083 H 
ATOM     25  C26 MOL d   1     -13.067  22.072  52.307  0.00  0.00     0.057 A 
ATOM     26  H7  MOL d   1     -14.681  21.513  51.013  0.00  0.00     0.086 H 
ATOM     27 CL9  MOL d   1     -12.622  23.448  51.258  0.00  0.00    -0.083 Cl
ENDBRANCH  14  17
ENDBRANCH   1  14
BRANCH   9  28
ATOM     28  C3  MOL d   1     -12.714  27.687  53.973  0.00  0.00     0.077 C 
ATOM     29  N6  MOL d   1     -14.174  27.864  53.861  0.00  0.00    -0.266 NA
ATOM     30  C4  MOL d   1     -14.579  28.938  54.400  0.00  0.00     0.091 C 
ATOM     31  N21 MOL d   1     -13.618  29.603  54.994  0.00  0.00    -0.376 N 
ATOM     32  C10 MOL d   1     -12.360  28.880  54.912  0.00  0.00     0.018 C 
ATOM     33  H15 MOL d   1     -13.738  30.515  55.457  0.00  0.00     0.160 HD
ATOM     34  H13 MOL d   1     -11.569  29.508  54.476  0.00  0.00     0.067 H 
ATOM     35  H14 MOL d   1     -12.041  28.524  55.903  0.00  0.00     0.067 H 
ATOM     36  H2  MOL d   1     -12.228  27.813  52.994  0.00  0.00     0.086 H 
BRANCH  30  37
ATOM     37  C22 MOL d   1     -16.021  29.340  54.452  0.00  0.00    -0.022 C 
ATOM     38  H16 MOL d   1     -16.623  28.621  53.876  0.00  0.00     0.037 H 
ATOM     39  H17 MOL d   1     -16.137  30.345  54.020  0.00  0.00     0.037 H 
ATOM     40  H18 MOL d   1     -16.362  29.349  55.498  0.00  0.00     0.037 H 
ENDBRANCH  30  37
ENDBRANCH   9  28
BRANCH   7  41
ATOM     41  C5  MOL d   1     -15.000  26.190  58.744  0.00  0.00    -0.051 C 
ATOM     42  H3  MOL d   1     -15.181  27.253  58.526  0.00  0.00     0.033 H 
ATOM     43  H4  MOL d   1     -14.484  26.097  59.711  0.00  0.00     0.033 H 
ATOM     44  H5  MOL d   1     -15.961  25.656  58.788  0.00  0.00     0.033 H 
ENDBRANCH   7  41
TORSDOF 5
