REMARK  12 active torsions:
REMARK  status: ('A' for Active; 'I' for Inactive)
REMARK    1  A    between atoms: CAR_18  and  CAA_1 
REMARK    2  A    between atoms: CAR_18  and  CAB_2 
REMARK    3  A    between atoms: CAS_19  and  CAC_3 
REMARK    4  A    between atoms: CAF_6  and  CAD_4 
REMARK    5  A    between atoms: CAG_7  and  CAE_5 
REMARK    6  A    between atoms: CAJ_10  and  CAF_6 
REMARK    7  A    between atoms: NAP_16  and  CAG_7 
REMARK    8  A    between atoms: CAI_9  and  CAH_8 
REMARK    9  A    between atoms: CAH_8  and  NAP_16 
REMARK   10  A    between atoms: NAQ_17  and  CAI_9 
REMARK   11  A    between atoms: CAS_19  and  CAJ_10 
REMARK   12  A    between atoms: CAX_24  and  NAQ_17 
ROOT
ATOM      1  CAH MOL d   1     101.614  17.091  33.579  0.00  0.00     0.104 C 
ATOM      2  H16 MOL d   1     102.689  16.939  33.756  0.00  0.00     0.078 H 
ATOM      3  H17 MOL d   1     101.194  17.713  34.383  0.00  0.00     0.078 H 
ENDROOT
BRANCH   1   4
ATOM      4  CAI MOL d   1     100.899  15.750  33.532  0.00  0.00     0.104 C 
ATOM      5  H18 MOL d   1      99.931  15.823  34.050  0.00  0.00     0.078 H 
ATOM      6  H19 MOL d   1     101.517  14.979  34.015  0.00  0.00     0.078 H 
BRANCH   4   7
ATOM      7  NAQ MOL d   1     100.686  15.408  32.117  0.00  0.00    -0.069 N 
ATOM      8  H34 MOL d   1     101.571  15.419  31.634  0.00  0.00     0.277 HD
ATOM      9  H35 MOL d   1     100.067  16.085  31.700  0.00  0.00     0.277 HD
BRANCH   7  10
ATOM     10  CAX MOL d   1     100.088  14.067  32.008  0.00  0.00     0.109 C 
ATOM     11  CAV MOL d   1      99.544  13.863  30.601  0.00  0.00    -0.026 C 
ATOM     12  CAL MOL d   1     100.672  13.984  29.582  0.00  0.00    -0.056 C 
ATOM     13  CAM MOL d   1      98.917  12.479  30.483  0.00  0.00    -0.056 C 
ATOM     14  H38 MOL d   1      98.782  14.628  30.394  0.00  0.00     0.043 H 
ATOM     15  CAT MOL d   1     101.736  12.926  29.862  0.00  0.00    -0.053 C 
ATOM     16  H24 MOL d   1     100.267  13.836  28.570  0.00  0.00     0.034 H 
ATOM     17  H25 MOL d   1     101.124  14.984  29.654  0.00  0.00     0.034 H 
ATOM     18  CAK MOL d   1     101.102  11.541  29.760  0.00  0.00    -0.058 C 
ATOM     19  CAN MOL d   1     102.280  13.121  31.275  0.00  0.00    -0.056 C 
ATOM     20  H36 MOL d   1     102.554  13.017  29.132  0.00  0.00     0.040 H 
ATOM     21  CAU MOL d   1      99.967  11.410  30.772  0.00  0.00    -0.053 C 
ATOM     22  H22 MOL d   1     101.864  10.775  29.967  0.00  0.00     0.034 H 
ATOM     23  H23 MOL d   1     100.703  11.397  28.745  0.00  0.00     0.034 H 
ATOM     24  CAO MOL d   1     100.527  11.618  32.177  0.00  0.00    -0.056 C 
ATOM     25  H37 MOL d   1      99.512  10.411  30.696  0.00  0.00     0.040 H 
ATOM     26  CAW MOL d   1     101.144  13.007  32.287  0.00  0.00    -0.026 C 
ATOM     27  H30 MOL d   1     101.297  10.859  32.379  0.00  0.00     0.034 H 
ATOM     28  H31 MOL d   1      99.715  11.520  32.912  0.00  0.00     0.034 H 
ATOM     29  H39 MOL d   1     101.542  13.152  33.302  0.00  0.00     0.043 H 
ATOM     30  H28 MOL d   1     102.741  14.117  31.355  0.00  0.00     0.034 H 
ATOM     31  H29 MOL d   1     103.035  12.349  31.485  0.00  0.00     0.034 H 
ATOM     32  H26 MOL d   1      98.094  12.388  31.207  0.00  0.00     0.034 H 
ATOM     33  H27 MOL d   1      98.526  12.341  29.464  0.00  0.00     0.034 H 
ATOM     34  H40 MOL d   1      99.270  13.972  32.737  0.00  0.00     0.085 H 
ENDBRANCH   7  10
ENDBRANCH   4   7
ENDBRANCH   1   4
BRANCH   1  35
ATOM     35  NAP MOL d   1     101.406  17.743  32.277  0.00  0.00    -0.070 N 
ATOM     36  H32 MOL d   1     102.273  17.752  31.764  0.00  0.00     0.277 HD
ATOM     37  H33 MOL d   1     100.711  17.234  31.754  0.00  0.00     0.277 HD
BRANCH  35  38
ATOM     38  CAG MOL d   1     100.947  19.123  32.486  0.00  0.00     0.097 C 
ATOM     39  H14 MOL d   1     100.545  19.524  31.544  0.00  0.00     0.081 H 
ATOM     40  H15 MOL d   1     100.161  19.137  33.255  0.00  0.00     0.081 H 
BRANCH  38  41
ATOM     41  CAE MOL d   1     102.111  19.967  32.938  0.00  0.00    -0.077 C 
ATOM     42  CAS MOL d   1     102.106  20.589  34.124  0.00  0.00    -0.086 C 
ATOM     43  H11 MOL d   1     102.976  20.073  32.285  0.00  0.00     0.079 H 
BRANCH  42  44
ATOM     44  CAC MOL d   1     100.933  20.468  35.052  0.00  0.00    -0.055 C 
ATOM     45  H7  MOL d   1     100.166  19.827  34.592  0.00  0.00     0.033 H 
ATOM     46  H8  MOL d   1     100.511  21.466  35.241  0.00  0.00     0.033 H 
ATOM     47  H9  MOL d   1     101.262  20.023  36.002  0.00  0.00     0.033 H 
ENDBRANCH  42  44
BRANCH  42  48
ATOM     48  CAJ MOL d   1     103.304  21.418  34.514  0.00  0.00    -0.042 C 
ATOM     49  H20 MOL d   1     103.650  21.109  35.511  0.00  0.00     0.040 H 
ATOM     50  H21 MOL d   1     104.109  21.259  33.781  0.00  0.00     0.040 H 
BRANCH  48  51
ATOM     51  CAF MOL d   1     102.937  22.897  34.545  0.00  0.00    -0.046 C 
ATOM     52  H12 MOL d   1     102.127  23.091  33.827  0.00  0.00     0.039 H 
ATOM     53  H13 MOL d   1     102.605  23.174  35.556  0.00  0.00     0.039 H 
BRANCH  51  54
ATOM     54  CAD MOL d   1     104.153  23.712  34.170  0.00  0.00    -0.101 C 
ATOM     55  CAR MOL d   1     105.051  24.126  35.077  0.00  0.00    -0.091 C 
ATOM     56  H10 MOL d   1     104.306  23.973  33.124  0.00  0.00     0.077 H 
BRANCH  55  57
ATOM     57  CAA MOL d   1     106.234  24.930  34.628  0.00  0.00    -0.055 C 
ATOM     58  H1  MOL d   1     106.859  25.180  35.498  0.00  0.00     0.033 H 
ATOM     59  H2  MOL d   1     105.887  25.856  34.147  0.00  0.00     0.033 H 
ATOM     60  H3  MOL d   1     106.825  24.343  33.909  0.00  0.00     0.033 H 
ENDBRANCH  55  57
BRANCH  55  61
ATOM     61  CAB MOL d   1     104.887  23.804  36.534  0.00  0.00    -0.055 C 
ATOM     62  H4  MOL d   1     103.971  23.212  36.678  0.00  0.00     0.033 H 
ATOM     63  H5  MOL d   1     104.814  24.738  37.110  0.00  0.00     0.033 H 
ATOM     64  H6  MOL d   1     105.756  23.226  36.882  0.00  0.00     0.033 H 
ENDBRANCH  55  61
ENDBRANCH  51  54
ENDBRANCH  48  51
ENDBRANCH  42  48
ENDBRANCH  38  41
ENDBRANCH  35  38
ENDBRANCH   1  35
TORSDOF 12
