REMARK  2 active torsions:
REMARK  status: ('A' for Active; 'I' for Inactive)
REMARK    1  A    between atoms: C10_1  and  N11_18 
REMARK    2  A    between atoms: N14_20  and  C15_4 
REMARK       I    between atoms: N11_18  and  C12_5 
REMARK       I    between atoms: C12_5  and  N14_20 
ROOT
ATOM      1  C10 MOL d   1      34.402   3.866 -21.554  0.00  0.00     0.021 C 
ATOM      2  C01 MOL d   1      34.999   5.674 -24.370  0.00  0.00    -0.058 C 
ATOM      3  C02 MOL d   1      35.798   5.774 -23.038  0.00  0.00    -0.053 C 
ATOM      4  C03 MOL d   1      36.339   4.415 -22.550  0.00  0.00    -0.056 C 
ATOM      5  C04 MOL d   1      35.282   3.290 -22.638  0.00  0.00    -0.033 C 
ATOM      6  C05 MOL d   1      34.637   3.214 -23.972  0.00  0.00    -0.056 C 
ATOM      7  C06 MOL d   1      34.007   4.485 -24.372  0.00  0.00    -0.053 C 
ATOM      8  C07 MOL d   1      33.101   5.101 -23.326  0.00  0.00    -0.056 C 
ATOM      9  C08 MOL d   1      33.776   5.208 -21.985  0.00  0.00    -0.033 C 
ATOM     10  C09 MOL d   1      34.807   6.160 -21.993  0.00  0.00    -0.056 C 
ATOM     11  H1  MOL d   1      33.585   3.154 -21.364  0.00  0.00     0.073 H 
ATOM     12  H4  MOL d   1      35.709   5.543 -25.200  0.00  0.00     0.034 H 
ATOM     13  H5  MOL d   1      34.434   6.606 -24.514  0.00  0.00     0.034 H 
ATOM     14  H6  MOL d   1      36.612   6.508 -23.133  0.00  0.00     0.040 H 
ATOM     15  H7  MOL d   1      36.658   4.518 -21.502  0.00  0.00     0.034 H 
ATOM     16  H8  MOL d   1      37.203   4.136 -23.171  0.00  0.00     0.034 H 
ATOM     17  H9  MOL d   1      35.685   2.301 -22.375  0.00  0.00     0.043 H 
ATOM     18  H10 MOL d   1      33.864   2.431 -23.945  0.00  0.00     0.034 H 
ATOM     19  H11 MOL d   1      35.401   2.950 -24.718  0.00  0.00     0.034 H 
ATOM     20  H12 MOL d   1      33.503   4.346 -25.340  0.00  0.00     0.040 H 
ATOM     21  H13 MOL d   1      32.203   4.475 -23.222  0.00  0.00     0.034 H 
ATOM     22  H14 MOL d   1      32.810   6.109 -23.658  0.00  0.00     0.034 H 
ATOM     23  H15 MOL d   1      33.019   5.506 -21.244  0.00  0.00     0.043 H 
ATOM     24  H16 MOL d   1      34.393   7.153 -22.222  0.00  0.00     0.034 H 
ATOM     25  H17 MOL d   1      35.297   6.185 -21.008  0.00  0.00     0.034 H 
ENDROOT
BRANCH   1  26
ATOM     26  N11 MOL d   1      35.158   4.033 -20.321  0.00  0.00    -0.338 N 
ATOM     27  C12 MOL d   1      35.062   3.028 -19.288  0.00  0.00     0.321 C 
ATOM     28  O13 MOL d   1      34.342   2.063 -19.486  0.00  0.00    -0.247 OA
ATOM     29  N14 MOL d   1      35.820   3.204 -18.057  0.00  0.00    -0.306 N 
ATOM     30  H19 MOL d   1      36.381   4.029 -17.987  0.00  0.00     0.171 HD
ATOM     31  H18 MOL d   1      35.739   4.837 -20.190  0.00  0.00     0.164 HD
BRANCH  29  32
ATOM     32  C15 MOL d   1      35.842   2.306 -16.929  0.00  0.00     0.078 A 
ATOM     33  C16 MOL d   1      36.606   2.657 -15.817  0.00  0.00     0.184 A 
ATOM     34  C17 MOL d   1      36.659   1.821 -14.702  0.00  0.00     0.195 A 
ATOM     35  F23 MOL d   1      37.296   3.809 -15.817  0.00  0.00    -0.200 F 
ATOM     36  C18 MOL d   1      35.948   0.627 -14.692  0.00  0.00     0.158 A 
ATOM     37  F22 MOL d   1      37.399   2.171 -13.636  0.00  0.00    -0.199 F 
ATOM     38  C19 MOL d   1      35.182   0.268 -15.798  0.00  0.00    -0.040 A 
ATOM     39  F21 MOL d   1      36.000  -0.179 -13.616  0.00  0.00    -0.203 F 
ATOM     40  C20 MOL d   1      35.132   1.104 -16.909  0.00  0.00    -0.051 A 
ATOM     41  H3  MOL d   1      34.625  -0.662 -15.793  0.00  0.00     0.088 H 
ATOM     42  H2  MOL d   1      34.535   0.819 -17.768  0.00  0.00     0.087 H 
ENDBRANCH  29  32
ENDBRANCH   1  26
TORSDOF 2
