REMARK  5 active torsions:
REMARK  status: ('A' for Active; 'I' for Inactive)
REMARK    1  A    between atoms: N_1  and  C10_5 
REMARK    2  A    between atoms: C1_4  and  C_2 
REMARK    3  A    between atoms: C2_15  and  C16_11 
REMARK    4  A    between atoms: C4_19  and  C3_18 
REMARK       I    between atoms: N2_26  and  C4_19 
REMARK    5  A    between atoms: N2_26  and  N3_27 
ROOT
ATOM      1  N   AY6 d   1      35.742   1.054 -14.528  0.00  0.00    -0.230 N 
ATOM      2  C1  AY6 d   1      37.398   2.488 -14.047  0.00  0.00     0.004 A 
ATOM      3  C2  AY6 d   1      36.739   1.206 -13.710  0.00  0.00     0.077 A 
ATOM      4  C3  AY6 d   1      36.607   2.987 -15.110  0.00  0.00     0.154 A 
ATOM      5  N1  AY6 d   1      35.658   2.102 -15.355  0.00  0.00    -0.161 NA
ENDROOT
BRANCH   4   6
ATOM      6  C4  AY6 d   1      36.781   4.296 -15.940  0.00  0.00     0.296 C 
ATOM      7  O   AY6 d   1      37.471   5.228 -15.551  0.00  0.00    -0.264 OA
ATOM      8  N2  AY6 d   1      36.100   4.307 -17.235  0.00  0.00    -0.181 N 
ATOM      9  H21 AY6 d   1      35.560   3.503 -17.484  0.00  0.00     0.197 HD
BRANCH   8  10
ATOM     10  N3  AY6 d   1      36.145   5.218 -18.021  0.00  0.00     0.011 N 
ATOM     11  C5  AY6 d   1      36.502   4.644 -19.259  0.00  0.00     0.104 C 
ATOM     12  C6  AY6 d   1      36.393   5.611 -20.439  0.00  0.00    -0.040 C 
ATOM     13  H11 AY6 d   1      37.542   4.293 -19.192  0.00  0.00     0.079 H 
ATOM     14  H12 AY6 d   1      35.838   3.788 -19.449  0.00  0.00     0.079 H 
ATOM     15  C7  AY6 d   1      35.146   6.280 -20.481  0.00  0.00    -0.062 C 
ATOM     16  H13 AY6 d   1      36.520   5.043 -21.373  0.00  0.00     0.035 H 
ATOM     17  H14 AY6 d   1      37.193   6.362 -20.355  0.00  0.00     0.035 H 
ATOM     18  C8  AY6 d   1      34.825   6.879 -19.223  0.00  0.00    -0.040 C 
ATOM     19  H15 AY6 d   1      34.361   5.555 -20.741  0.00  0.00     0.033 H 
ATOM     20  H16 AY6 d   1      35.189   7.066 -21.250  0.00  0.00     0.033 H 
ATOM     21  C9  AY6 d   1      34.873   5.870 -18.097  0.00  0.00     0.104 C 
ATOM     22  H17 AY6 d   1      33.812   7.304 -19.278  0.00  0.00     0.035 H 
ATOM     23  H18 AY6 d   1      35.548   7.681 -19.015  0.00  0.00     0.035 H 
ATOM     24  H19 AY6 d   1      34.094   5.112 -18.265  0.00  0.00     0.079 H 
ATOM     25  H20 AY6 d   1      34.681   6.388 -17.146  0.00  0.00     0.079 H 
ATOM     26  H22 AY6 d   1      36.843   5.888 -17.738  0.00  0.00     0.309 HD
ENDBRANCH   8  10
ENDBRANCH   4   6
BRANCH   2  27
ATOM     27  C   AY6 d   1      38.623   3.127 -13.405  0.00  0.00    -0.046 C 
ATOM     28  H1  AY6 d   1      38.999   2.474 -12.604  0.00  0.00     0.033 H 
ATOM     29  H2  AY6 d   1      38.348   4.105 -12.983  0.00  0.00     0.033 H 
ATOM     30  H3  AY6 d   1      39.406   3.263 -14.165  0.00  0.00     0.033 H 
ENDBRANCH   2  27
BRANCH   3  31
ATOM     31  C16 AY6 d   1      37.184   0.221 -12.647  0.00  0.00    -0.007 A 
ATOM     32  C17 AY6 d   1      36.289  -0.418 -11.773  0.00  0.00    -0.069 A 
ATOM     33  C18 AY6 d   1      36.757  -1.313 -10.838  0.00  0.00    -0.061 A 
ATOM     34  H7  AY6 d   1      35.228  -0.206 -11.835  0.00  0.00     0.085 H 
ATOM     35  C19 AY6 d   1      38.147  -1.607 -10.766  0.00  0.00     0.034 A 
ATOM     36  H8  AY6 d   1      36.066  -1.794 -10.156  0.00  0.00     0.086 H 
ATOM     37  C20 AY6 d   1      39.020  -0.996 -11.625  0.00  0.00    -0.061 A 
ATOM     38 CL2  AY6 d   1      38.758  -2.730  -9.618  0.00  0.00    -0.084 Cl
ATOM     39  C21 AY6 d   1      38.541  -0.086 -12.572  0.00  0.00    -0.069 A 
ATOM     40  H9  AY6 d   1      40.080  -1.217 -11.571  0.00  0.00     0.086 H 
ATOM     41  H10 AY6 d   1      39.235   0.387 -13.257  0.00  0.00     0.085 H 
ENDBRANCH   3  31
BRANCH   1  42
ATOM     42  C10 AY6 d   1      34.831  -0.038 -14.559  0.00  0.00     0.080 A 
ATOM     43  C11 AY6 d   1      33.578   0.100 -14.031  0.00  0.00     0.064 A 
ATOM     44  C12 AY6 d   1      32.675  -0.955 -14.049  0.00  0.00    -0.039 A 
ATOM     45 CL1  AY6 d   1      33.073   1.602 -13.307  0.00  0.00    -0.082 Cl
ATOM     46  C13 AY6 d   1      33.051  -2.158 -14.613  0.00  0.00     0.035 A 
ATOM     47  H4  AY6 d   1      31.685  -0.835 -13.624  0.00  0.00     0.088 H 
ATOM     48  C14 AY6 d   1      34.303  -2.304 -15.146  0.00  0.00    -0.060 A 
ATOM     49 CL   AY6 d   1      31.917  -3.467 -14.626  0.00  0.00    -0.084 Cl
ATOM     50  C15 AY6 d   1      35.213  -1.252 -15.133  0.00  0.00    -0.052 A 
ATOM     51  H5  AY6 d   1      34.590  -3.253 -15.585  0.00  0.00     0.086 H 
ATOM     52  H6  AY6 d   1      36.202  -1.373 -15.561  0.00  0.00     0.087 H 
ENDBRANCH   1  42
TORSDOF 5
