REMARK  2 active torsions:
REMARK  status: ('A' for Active; 'I' for Inactive)
REMARK    1  A    between atoms: C02_1  and  C15_13 
REMARK       I    between atoms: N03_23  and  C02_1 
REMARK    2  A    between atoms: C04_2  and  N03_23 
ROOT
ATOM      1  C04 J9E d   1       8.078   6.432  19.309  0.00  0.00     0.012 C 
ATOM      2  C05 J9E d   1       7.673   7.830  19.695  0.00  0.00    -0.045 C 
ATOM      3  C06 J9E d   1       8.311   8.100  21.027  0.00  0.00    -0.056 C 
ATOM      4  C07 J9E d   1       7.494   7.345  22.026  0.00  0.00    -0.040 C 
ATOM      5  C08 J9E d   1       6.233   8.118  22.287  0.00  0.00    -0.058 C 
ATOM      6  C09 J9E d   1       5.700   7.699  23.642  0.00  0.00    -0.064 C 
ATOM      7  C10 J9E d   1       6.755   7.909  24.712  0.00  0.00    -0.065 C 
ATOM      8  C11 J9E d   1       8.062   7.224  24.370  0.00  0.00    -0.064 C 
ATOM      9  C12 J9E d   1       8.559   7.698  23.027  0.00  0.00    -0.058 C 
ATOM     10  C13 J9E d   1       7.292   5.887  21.679  0.00  0.00    -0.056 C 
ATOM     11  C14 J9E d   1       7.970   5.408  20.411  0.00  0.00    -0.045 C 
ATOM     12  H1  J9E d   1       9.137   6.472  19.015  0.00  0.00     0.072 H 
ATOM     13  H2  J9E d   1       6.578   7.901  19.776  0.00  0.00     0.036 H 
ATOM     14  H3  J9E d   1       8.033   8.551  18.947  0.00  0.00     0.036 H 
ATOM     15  H4  J9E d   1       8.291   9.177  21.251  0.00  0.00     0.034 H 
ATOM     16  H5  J9E d   1       9.351   7.743  21.034  0.00  0.00     0.034 H 
ATOM     17  H6  J9E d   1       5.490   7.894  21.508  0.00  0.00     0.034 H 
ATOM     18  H7  J9E d   1       6.449   9.197  22.288  0.00  0.00     0.034 H 
ATOM     19  H8  J9E d   1       5.423   6.635  23.610  0.00  0.00     0.033 H 
ATOM     20  H9  J9E d   1       4.812   8.302  23.885  0.00  0.00     0.033 H 
ATOM     21  H10 J9E d   1       6.381   7.503  25.663  0.00  0.00     0.033 H 
ATOM     22  H11 J9E d   1       6.939   8.988  24.821  0.00  0.00     0.033 H 
ATOM     23  H12 J9E d   1       7.905   6.136  24.336  0.00  0.00     0.033 H 
ATOM     24  H13 J9E d   1       8.810   7.463  25.140  0.00  0.00     0.033 H 
ATOM     25  H14 J9E d   1       8.718   8.786  23.044  0.00  0.00     0.034 H 
ATOM     26  H15 J9E d   1       9.502   7.193  22.772  0.00  0.00     0.034 H 
ATOM     27  H16 J9E d   1       6.211   5.713  21.570  0.00  0.00     0.034 H 
ATOM     28  H17 J9E d   1       7.677   5.285  22.515  0.00  0.00     0.034 H 
ATOM     29  H18 J9E d   1       8.988   5.082  20.672  0.00  0.00     0.036 H 
ATOM     30  H19 J9E d   1       7.399   4.551  20.024  0.00  0.00     0.036 H 
ENDROOT
BRANCH   1  31
ATOM     31  N03 J9E d   1       7.314   6.024  18.160  0.00  0.00    -0.351 N 
ATOM     32  C02 J9E d   1       8.003   5.120  17.278  0.00  0.00     0.268 C 
ATOM     33  O01 J9E d   1       9.082   4.758  17.536  0.00  0.00    -0.266 OA
ATOM     34  H23 J9E d   1       6.382   6.342  17.989  0.00  0.00     0.163 HD
BRANCH  32  35
ATOM     35  C15 J9E d   1       7.337   4.641  16.006  0.00  0.00     0.102 A 
ATOM     36  C16 J9E d   1       6.268   5.216  15.370  0.00  0.00    -0.037 A 
ATOM     37  C17 J9E d   1       5.999   4.457  14.231  0.00  0.00     0.032 A 
ATOM     38  H20 J9E d   1       5.727   6.104  15.695  0.00  0.00     0.088 H 
ATOM     39  C18 J9E d   1       5.044   4.520  13.205  0.00  0.00     0.131 A 
ATOM     40  C24 J9E d   1       6.916   3.481  14.230  0.00  0.00     0.049 A 
ATOM     41  C20 J9E d   1       5.041   3.599  12.202  0.00  0.00    -0.007 A 
ATOM     42  F19 J9E d   1       4.108   5.473  13.151  0.00  0.00    -0.205 F 
ATOM     43  C21 J9E d   1       5.991   2.610  12.218  0.00  0.00     0.121 A 
ATOM     44  H21 J9E d   1       4.304   3.647  11.409  0.00  0.00     0.093 H 
ATOM     45  C23 J9E d   1       6.936   2.524  13.210  0.00  0.00    -0.019 A 
ATOM     46  F22 J9E d   1       5.980   1.702  11.227  0.00  0.00    -0.206 F 
ATOM     47  H22 J9E d   1       7.679   1.734  13.203  0.00  0.00     0.091 H 
ATOM     48  N25 J9E d   1       7.721   3.608  15.305  0.00  0.00    -0.351 N 
ATOM     49  H24 J9E d   1       8.512   2.990  15.536  0.00  0.00     0.166 HD
ENDBRANCH  32  35
ENDBRANCH   1  31
TORSDOF 2
