REMARK  7 active torsions:
REMARK  status: ('A' for Active; 'I' for Inactive)
REMARK    1  A    between atoms: C1_1  and  O19_19 
REMARK    2  A    between atoms: C4_4  and  C7_7 
REMARK    3  A    between atoms: C5_5  and  O10_10 
REMARK    4  A    between atoms: C7_7  and  C8_8 
REMARK    5  A    between atoms: C8_8  and  C9_9 
REMARK    6  A    between atoms: C9_9  and  C11_11 
REMARK    7  A    between atoms: C14_14  and  O18_18 
ROOT
ATOM      1  C8  HCC d   1     -10.689   7.468  -0.728  0.00  0.00    -0.001 C 
ATOM      2  H4  HCC d   1     -11.328   7.097  -1.543  0.00  0.00     0.045 H 
ATOM      3  H5  HCC d   1     -11.245   8.208  -0.134  0.00  0.00     0.045 H 
ENDROOT
BRANCH   1   4
ATOM      4  C7  HCC d   1      -9.459   8.154  -1.341  0.00  0.00     0.162 C 
ATOM      5  O17 HCC d   1      -8.321   7.752  -1.094  0.00  0.00    -0.292 OA
BRANCH   4   6
ATOM      6  C4  HCC d   1      -9.700   9.249  -2.174  0.00  0.00     0.043 A 
ATOM      7  C3  HCC d   1     -11.005   9.667  -2.405  0.00  0.00    -0.064 A 
ATOM      8  C2  HCC d   1     -11.251  10.761  -3.232  0.00  0.00    -0.050 A 
ATOM      9  H2  HCC d   1     -11.832   9.142  -1.942  0.00  0.00     0.085 H 
ATOM     10  C1  HCC d   1     -10.202  11.455  -3.833  0.00  0.00     0.068 A 
ATOM     11  H1  HCC d   1     -12.273  11.077  -3.411  0.00  0.00     0.087 H 
ATOM     12  C6  HCC d   1      -8.892  11.038  -3.603  0.00  0.00    -0.018 A 
ATOM     13  C5  HCC d   1      -8.651   9.946  -2.775  0.00  0.00     0.082 A 
ATOM     14  H3  HCC d   1      -8.065  11.562  -4.067  0.00  0.00     0.092 H 
BRANCH  10  15
ATOM     15  O19 HCC d   1     -10.461  12.528  -4.638  0.00  0.00    -0.361 OA
ATOM     16  H14 HCC d   1     -10.040  13.300  -4.280  0.00  0.00     0.217 HD
ENDBRANCH  10  15
BRANCH  13  17
ATOM     17  O10 HCC d   1      -7.388   9.507  -2.519  0.00  0.00    -0.360 OA
ATOM     18  H8  HCC d   1      -7.426   8.757  -1.937  0.00  0.00     0.217 HD
ENDBRANCH  13  17
ENDBRANCH   4   6
ENDBRANCH   1   4
BRANCH   1  19
ATOM     19  C9  HCC d   1     -10.320   6.297   0.174  0.00  0.00    -0.035 C 
ATOM     20  H6  HCC d   1      -9.672   6.691   0.971  0.00  0.00     0.040 H 
ATOM     21  H7  HCC d   1      -9.754   5.579  -0.438  0.00  0.00     0.040 H 
BRANCH  19  22
ATOM     22  C11 HCC d   1     -11.354   5.590   0.791  0.00  0.00    -0.058 A 
ATOM     23  C12 HCC d   1     -11.021   4.622   1.728  0.00  0.00    -0.074 A 
ATOM     24  C13 HCC d   1     -12.009   3.876   2.382  0.00  0.00    -0.051 A 
ATOM     25  H9  HCC d   1      -9.977   4.440   1.958  0.00  0.00     0.084 H 
ATOM     26  C14 HCC d   1     -13.350   4.122   2.083  0.00  0.00     0.065 A 
ATOM     27  H10 HCC d   1     -11.737   3.119   3.109  0.00  0.00     0.087 H 
ATOM     28  C15 HCC d   1     -13.687   5.093   1.138  0.00  0.00    -0.051 A 
ATOM     29  C16 HCC d   1     -12.694   5.838   0.492  0.00  0.00    -0.074 A 
ATOM     30  H11 HCC d   1     -14.730   5.272   0.902  0.00  0.00     0.087 H 
ATOM     31  H12 HCC d   1     -12.963   6.599  -0.232  0.00  0.00     0.084 H 
BRANCH  26  32
ATOM     32  O18 HCC d   1     -14.333   3.426   2.729  0.00  0.00    -0.361 OA
ATOM     33  H13 HCC d   1     -13.938   2.809   3.334  0.00  0.00     0.217 HD
ENDBRANCH  26  32
ENDBRANCH  19  22
ENDBRANCH   1  19
TORSDOF 7
