REMARK  9 active torsions:
REMARK  status: ('A' for Active; 'I' for Inactive)
REMARK    1  A    between atoms: C4_1  and  N20_15 
REMARK    2  A    between atoms: C6_3  and  O7_17 
REMARK    3  A    between atoms: C12_6  and  C11_5 
REMARK    4  A    between atoms: C16_9  and  C13_20 
REMARK       I    between atoms: N18_21  and  C16_9 
REMARK    5  A    between atoms: C19_11  and  C21_13 
REMARK    6  A    between atoms: C19_11  and  N18_21 
REMARK    7  A    between atoms: N18_21  and  C20_12 
REMARK    8  A    between atoms: C20_12  and  C22_22 
REMARK    9  A    between atoms: C8_18  and  O9_19 
ROOT
ATOM      1  C12 PD9 d   1      30.597   8.248 -30.296  0.00  0.00    -0.047 C 
ATOM      2  C14 PD9 d   1      30.318   6.638 -31.780  0.00  0.00     0.105 C 
ATOM      3  N15 PD9 d   1      29.793   5.863 -31.990  0.00  0.00    -0.191 NA
ATOM      4  C13 PD9 d   1      30.923   7.655 -31.480  0.00  0.00     0.113 C 
ATOM      5  H3  PD9 d   1      31.163   9.136 -30.017  0.00  0.00     0.087 H 
ENDROOT
BRANCH   4   6
ATOM      6  C16 PD9 d   1      32.020   8.168 -32.440  0.00  0.00     0.264 C 
ATOM      7  O17 PD9 d   1      32.607   9.198 -32.062  0.00  0.00    -0.267 OA
ATOM      8  N18 PD9 d   1      32.376   7.596 -33.648  0.00  0.00    -0.348 N 
BRANCH   8   9
ATOM      9  C19 PD9 d   1      31.782   6.350 -34.230  0.00  0.00    -0.005 C 
ATOM     10  H4  PD9 d   1      32.434   6.018 -35.051  0.00  0.00     0.063 H 
ATOM     11  H5  PD9 d   1      31.767   5.584 -33.441  0.00  0.00     0.063 H 
BRANCH   9  12
ATOM     12  C21 PD9 d   1      30.366   6.479 -34.782  0.00  0.00    -0.061 C 
ATOM     13  H8  PD9 d   1      30.038   5.508 -35.180  0.00  0.00     0.029 H 
ATOM     14  H9  PD9 d   1      30.353   7.228 -35.587  0.00  0.00     0.029 H 
ATOM     15  H10 PD9 d   1      29.686   6.794 -33.977  0.00  0.00     0.029 H 
ENDBRANCH   9  12
ENDBRANCH   8   9
BRANCH   8  16
ATOM     16  C20 PD9 d   1      33.441   8.139 -34.514  0.00  0.00    -0.005 C 
ATOM     17  H6  PD9 d   1      33.869   9.035 -34.040  0.00  0.00     0.063 H 
ATOM     18  H7  PD9 d   1      33.009   8.411 -35.488  0.00  0.00     0.063 H 
BRANCH  16  19
ATOM     19  C22 PD9 d   1      34.548   7.112 -34.729  0.00  0.00    -0.061 C 
ATOM     20  H13 PD9 d   1      35.327   7.542 -35.376  0.00  0.00     0.029 H 
ATOM     21  H14 PD9 d   1      34.128   6.215 -35.207  0.00  0.00     0.029 H 
ATOM     22  H15 PD9 d   1      34.988   6.838 -33.759  0.00  0.00     0.029 H 
ENDBRANCH  16  19
ENDBRANCH   8  16
ENDBRANCH   4   6
BRANCH   1  23
ATOM     23  C11 PD9 d   1      29.552   7.801 -29.360  0.00  0.00    -0.029 A 
ATOM     24  C5  PD9 d   1      29.915   7.280 -28.120  0.00  0.00    -0.038 A 
ATOM     25  C4  PD9 d   1      28.937   6.810 -27.229  0.00  0.00     0.139 A 
ATOM     26  H1  PD9 d   1      30.962   7.237 -27.841  0.00  0.00     0.088 H 
ATOM     27  C6  PD9 d   1      27.569   6.831 -27.565  0.00  0.00     0.132 A 
ATOM     28  C8  PD9 d   1      27.209   7.349 -28.832  0.00  0.00     0.102 A 
ATOM     29  C10 PD9 d   1      28.169   7.806 -29.688  0.00  0.00    -0.038 A 
ATOM     30  H2  PD9 d   1      27.865   8.188 -30.656  0.00  0.00     0.089 H 
BRANCH  25  31
ATOM     31  N20 PD9 d   1      29.371   6.274 -25.931  0.00  0.00    -0.113 N 
ATOM     32  O21 PD9 d   1      28.719   5.219 -25.421  0.00  0.00    -0.532 OA
ATOM     33  O22 PD9 d   1      30.351   6.815 -25.323  0.00  0.00    -0.532 OA
ENDBRANCH  25  31
BRANCH  27  34
ATOM     34  O7  PD9 d   1      26.615   6.384 -26.740  0.00  0.00    -0.356 OA
ATOM     35  H11 PD9 d   1      25.766   6.487 -27.154  0.00  0.00     0.218 HD
ENDBRANCH  27  34
BRANCH  28  36
ATOM     36  O9  PD9 d   1      25.888   7.378 -29.166  0.00  0.00    -0.358 OA
ATOM     37  H12 PD9 d   1      25.374   7.022 -28.451  0.00  0.00     0.217 HD
ENDBRANCH  28  36
ENDBRANCH   1  23
TORSDOF 9
