REMARK  11 active torsions:
REMARK  status: ('A' for Active; 'I' for Inactive)
REMARK    1  A    between atoms: PG_1  and  O3B_5 
REMARK    2  A    between atoms: O3B_5  and  PB_6 
REMARK    3  A    between atoms: PB_6  and  O3A_9 
REMARK    4  A    between atoms: O3A_9  and  PA_10 
REMARK    5  A    between atoms: PA_10  and  O5'_13 
REMARK    6  A    between atoms: O5'_13  and  C5'_14 
REMARK    7  A    between atoms: C5'_14  and  C4'_15 
REMARK    8  A    between atoms: C3'_17  and  O3'_18 
REMARK    9  A    between atoms: C2'_19  and  O2'_20 
REMARK   10  A    between atoms: C1'_21  and  N9_22 
REMARK   11  A    between atoms: C2_29  and  N2_30 
ROOT
ATOM      1  C4' GTP d   1     124.653  92.246  49.261  0.00  0.00     0.089 C 
ATOM      2  O4' GTP d   1     123.479  92.416  50.052  0.00  0.00    -0.353 OA
ATOM      3  C3' GTP d   1     125.830  92.742  50.094  0.00  0.00     0.091 C 
ATOM      4  C2' GTP d   1     125.308  92.745  51.507  0.00  0.00     0.105 C 
ATOM      5  C1' GTP d   1     123.840  93.059  51.272  0.00  0.00     0.139 C 
ATOM      6  H3  GTP d   1     124.592  92.848  48.342  0.00  0.00     0.090 H 
ATOM      7  H4  GTP d   1     126.697  92.073  49.987  0.00  0.00     0.091 H 
ATOM      8  H6  GTP d   1     125.432  91.758  51.977  0.00  0.00     0.093 H 
ATOM      9  H8  GTP d   1     123.717  94.147  51.170  0.00  0.00     0.122 H 
ENDROOT
BRANCH   1  10
ATOM     10  C5' GTP d   1     124.696  90.775  48.884  0.00  0.00     0.058 C 
ATOM     11  H1  GTP d   1     123.740  90.486  48.422  0.00  0.00     0.079 H 
ATOM     12  H2  GTP d   1     125.515  90.602  48.171  0.00  0.00     0.079 H 
BRANCH  10  13
ATOM     13  O5' GTP d   1     124.914  89.992  50.061  0.00  0.00    -0.287 OA
BRANCH  13  14
ATOM     14  PA  GTP d   1     125.385  88.456  49.993  0.00  0.00     0.417 P 
ATOM     15  O1A GTP d   1     124.380  87.601  49.230  0.00  0.00    -0.624 OA
ATOM     16  O2A GTP d   1     125.737  88.056  51.404  0.00  0.00    -0.624 OA
BRANCH  14  17
ATOM     17  O3A GTP d   1     126.794  88.571  49.232  0.00  0.00    -0.180 OA
BRANCH  17  18
ATOM     18  PB  GTP d   1     127.107  88.369  47.674  0.00  0.00     0.428 P 
ATOM     19  O1B GTP d   1     125.817  88.128  46.920  0.00  0.00    -0.624 OA
ATOM     20  O2B GTP d   1     128.001  89.513  47.278  0.00  0.00    -0.624 OA
BRANCH  18  21
ATOM     21  O3B GTP d   1     128.044  87.061  47.700  0.00  0.00    -0.173 OA
BRANCH  21  22
ATOM     22  PG  GTP d   1     127.529  85.574  47.369  0.00  0.00     0.431 P 
ATOM     23  O1G GTP d   1     127.620  85.545  45.863  0.00  0.00    -0.616 OA
ATOM     24  O2G GTP d   1     128.405  84.655  48.144  0.00  0.00    -0.616 OA
ATOM     25  O3G GTP d   1     126.103  85.512  47.866  0.00  0.00    -0.616 OA
ENDBRANCH  21  22
ENDBRANCH  18  21
ENDBRANCH  17  18
ENDBRANCH  14  17
ENDBRANCH  13  14
ENDBRANCH  10  13
ENDBRANCH   1  10
BRANCH   3  26
ATOM     26  O3' GTP d   1     126.196  94.085  49.733  0.00  0.00    -0.390 OA
ATOM     27  H5  GTP d   1     125.457  94.663  49.879  0.00  0.00     0.210 HD
ENDBRANCH   3  26
BRANCH   5  28
ATOM     28  N9  GTP d   1     122.963  92.590  52.366  0.00  0.00    -0.295 N 
ATOM     29  C8  GTP d   1     122.886  91.347  52.892  0.00  0.00     0.071 A 
ATOM     30  N7  GTP d   1     121.958  91.314  53.887  0.00  0.00    -0.234 NA
ATOM     31  H9  GTP d   1     123.481  90.495  52.566  0.00  0.00     0.144 H 
ATOM     32  C5  GTP d   1     121.430  92.547  53.986  0.00  0.00     0.171 A 
ATOM     33  C6  GTP d   1     120.408  93.223  54.818  0.00  0.00     0.292 A 
ATOM     34  C4  GTP d   1     122.099  93.382  52.979  0.00  0.00     0.161 A 
ATOM     35  O6  GTP d   1     119.793  92.583  55.695  0.00  0.00    -0.265 OA
ATOM     36  N1  GTP d   1     120.163  94.534  54.598  0.00  0.00    -0.154 N 
ATOM     37  C2  GTP d   1     120.815  95.245  53.649  0.00  0.00     0.680 A 
ATOM     38  H10 GTP d   1     119.474  94.996  55.157  0.00  0.00     0.187 HD
ATOM     39  N3  GTP d   1     121.769  94.693  52.853  0.00  0.00    -0.174 N 
ATOM     40  H13 GTP d   1     122.245  95.274  52.148  0.00  0.00     0.186 HD
BRANCH  37  41
ATOM     41  N2  GTP d   1     120.533  96.557  53.475  0.00  0.00    -0.234 N 
ATOM     42  H11 GTP d   1     121.029  97.099  52.753  0.00  0.00     0.174 HD
ATOM     43  H12 GTP d   1     119.823  97.014  54.065  0.00  0.00     0.174 HD
ENDBRANCH  37  41
ENDBRANCH   5  28
BRANCH   4  44
ATOM     44  O2' GTP d   1     125.949  93.728  52.319  0.00  0.00    -0.388 OA
ATOM     45  H7  GTP d   1     125.800  94.590  51.948  0.00  0.00     0.210 HD
ENDBRANCH   4  44
TORSDOF 11
