REMARK  11 active torsions:
REMARK  status: ('A' for Active; 'I' for Inactive)
REMARK    1  A    between atoms: N1_1  and  C1'_9 
REMARK    2  A    between atoms: C4_4  and  N4_8 
REMARK    3  A    between atoms: C2'_10  and  O2'_11 
REMARK    4  A    between atoms: C3'_12  and  O3'_15 
REMARK    5  A    between atoms: C4'_13  and  C5'_16 
REMARK    6  A    between atoms: C5'_16  and  O5'_17 
REMARK    7  A    between atoms: O5'_17  and  PA_18 
REMARK    8  A    between atoms: PA_18  and  O3A_21 
REMARK    9  A    between atoms: O3A_21  and  PB_22 
REMARK   10  A    between atoms: PB_22  and  O3B_25 
REMARK   11  A    between atoms: O3B_25  and  PG_26 
ROOT
ATOM      1  C1' CTP d   1     123.773  93.118  51.671  0.00  0.00     0.141 C 
ATOM      2  C2' CTP d   1     125.267  92.861  51.816  0.00  0.00     0.105 C 
ATOM      3  C3' CTP d   1     125.693  92.730  50.366  0.00  0.00     0.091 C 
ATOM      4  C4' CTP d   1     124.471  92.183  49.632  0.00  0.00     0.089 C 
ATOM      5  O4' CTP d   1     123.366  92.437  50.486  0.00  0.00    -0.353 OA
ATOM      6  H5  CTP d   1     123.610  94.201  51.571  0.00  0.00     0.123 H 
ATOM      7  H6  CTP d   1     125.452  91.925  52.363  0.00  0.00     0.093 H 
ATOM      8  H8  CTP d   1     126.554  92.053  50.263  0.00  0.00     0.091 H 
ATOM      9  H9  CTP d   1     124.363  92.745  48.692  0.00  0.00     0.090 H 
ENDROOT
BRANCH   4  10
ATOM     10  C5' CTP d   1     124.430  90.696  49.289  0.00  0.00     0.058 C 
ATOM     11  H11 CTP d   1     125.158  90.488  48.491  0.00  0.00     0.079 H 
ATOM     12  H12 CTP d   1     123.420  90.432  48.942  0.00  0.00     0.079 H 
BRANCH  10  13
ATOM     13  O5' CTP d   1     124.754  89.908  50.439  0.00  0.00    -0.287 OA
BRANCH  13  14
ATOM     14  PA  CTP d   1     125.403  88.451  50.283  0.00  0.00     0.417 P 
ATOM     15  O1A CTP d   1     124.506  87.548  49.443  0.00  0.00    -0.624 OA
ATOM     16  O2A CTP d   1     125.875  88.017  51.641  0.00  0.00    -0.624 OA
BRANCH  14  17
ATOM     17  O3A CTP d   1     126.700  88.846  49.430  0.00  0.00    -0.180 OA
BRANCH  17  18
ATOM     18  PB  CTP d   1     127.163  88.370  47.965  0.00  0.00     0.428 P 
ATOM     19  O1B CTP d   1     125.945  88.084  47.122  0.00  0.00    -0.624 OA
ATOM     20  O2B CTP d   1     128.122  89.445  47.522  0.00  0.00    -0.624 OA
BRANCH  18  21
ATOM     21  O3B CTP d   1     128.070  87.076  48.281  0.00  0.00    -0.173 OA
BRANCH  21  22
ATOM     22  PG  CTP d   1     127.839  85.535  47.874  0.00  0.00     0.431 P 
ATOM     23  O1G CTP d   1     128.446  85.380  46.514  0.00  0.00    -0.616 OA
ATOM     24  O2G CTP d   1     126.347  85.286  47.982  0.00  0.00    -0.616 OA
ATOM     25  O3G CTP d   1     128.620  84.838  48.965  0.00  0.00    -0.616 OA
ENDBRANCH  21  22
ENDBRANCH  18  21
ENDBRANCH  17  18
ENDBRANCH  14  17
ENDBRANCH  13  14
ENDBRANCH  10  13
ENDBRANCH   4  10
BRANCH   3  26
ATOM     26  O3' CTP d   1     126.015  94.037  49.852  0.00  0.00    -0.390 OA
ATOM     27  H10 CTP d   1     125.277  94.620  49.986  0.00  0.00     0.210 HD
ENDBRANCH   3  26
BRANCH   2  28
ATOM     28  O2' CTP d   1     125.940  93.931  52.495  0.00  0.00    -0.388 OA
ATOM     29  H7  CTP d   1     125.826  94.737  52.005  0.00  0.00     0.210 HD
ENDBRANCH   2  28
BRANCH   1  30
ATOM     30  N1  CTP d   1     122.920  92.613  52.762  0.00  0.00    -0.280 N 
ATOM     31  C2  CTP d   1     122.108  93.498  53.524  0.00  0.00     0.330 A 
ATOM     32  N3  CTP d   1     121.320  92.994  54.510  0.00  0.00    -0.293 N 
ATOM     33  O2  CTP d   1     122.115  94.735  53.308  0.00  0.00    -0.246 OA
ATOM     34  C4  CTP d   1     121.284  91.659  54.775  0.00  0.00     0.125 A 
ATOM     35  H1  CTP d   1     120.755  93.616  55.052  0.00  0.00     0.172 HD
ATOM     36  C5  CTP d   1     122.065  90.777  54.031  0.00  0.00    -0.024 A 
ATOM     37  C6  CTP d   1     122.877  91.283  53.018  0.00  0.00    -0.009 A 
ATOM     38  H2  CTP d   1     122.041  89.708  54.238  0.00  0.00     0.091 H 
ATOM     39  H3  CTP d   1     123.484  90.601  52.425  0.00  0.00     0.112 H 
BRANCH  34  40
ATOM     40  N4  CTP d   1     120.491  91.176  55.763  0.00  0.00    -0.284 NA
ATOM     41  H4  CTP d   1     120.469  90.186  55.954  0.00  0.00     0.188 HD
ENDBRANCH  34  40
ENDBRANCH   1  30
TORSDOF 11
