REMARK  6 active torsions:
REMARK  status: ('A' for Active; 'I' for Inactive)
REMARK    1  A    between atoms: N14_13  and  C13_3 
REMARK    2  A    between atoms: C15_4  and  N14_13 
REMARK    3  A    between atoms: C20_9  and  C21_10 
REMARK    4  A    between atoms: C04_17  and  C05_19 
REMARK    5  A    between atoms: C09_20  and  C24_21 
REMARK    6  A    between atoms: C06_24  and  C25_25 
ROOT
ATOM      1  C10 MOL d   1      29.468  -8.257 -29.392  0.00  0.00    -0.049 A 
ATOM      2  C11 MOL d   1      30.646  -8.467 -30.103  0.00  0.00     0.063 A 
ATOM      3  C13 MOL d   1      31.275  -7.408 -30.746  0.00  0.00     0.076 A 
ATOM      4  C02 MOL d   1      30.728  -6.139 -30.658  0.00  0.00     0.063 A 
ATOM      5 CL1  MOL d   1      31.524  -4.749 -31.467  0.00  0.00    -0.082 Cl
ATOM      6 CL2  MOL d   1      31.331 -10.126 -30.186  0.00  0.00    -0.082 Cl
ATOM      7  C04 MOL d   1      28.909  -6.986 -29.313  0.00  0.00    -0.018 A 
ATOM      8  C03 MOL d   1      29.557  -5.931 -29.944  0.00  0.00    -0.049 A 
ATOM      9  H1  MOL d   1      28.983  -9.090 -28.896  0.00  0.00     0.087 H 
ATOM     10  H7  MOL d   1      29.142  -4.932 -29.877  0.00  0.00     0.087 H 
ENDROOT
BRANCH   3  11
ATOM     11  N14 MOL d   1      32.428  -7.580 -31.436  0.00  0.00    -0.353 N 
ATOM     12  H6  MOL d   1      33.297  -7.238 -31.002  0.00  0.00     0.166 HD
BRANCH  11  13
ATOM     13  C15 MOL d   1      32.527  -8.167 -32.653  0.00  0.00     0.049 A 
ATOM     14  C16 MOL d   1      31.507  -8.961 -33.169  0.00  0.00    -0.056 A 
ATOM     15  C17 MOL d   1      31.645  -9.557 -34.417  0.00  0.00    -0.081 A 
ATOM     16  H2  MOL d   1      30.601  -9.115 -32.595  0.00  0.00     0.086 H 
ATOM     17  C18 MOL d   1      32.804  -9.358 -35.157  0.00  0.00    -0.082 A 
ATOM     18  H3  MOL d   1      30.849 -10.177 -34.813  0.00  0.00     0.083 H 
ATOM     19  C19 MOL d   1      33.824  -8.566 -34.644  0.00  0.00    -0.064 A 
ATOM     20  H4  MOL d   1      32.912  -9.819 -36.132  0.00  0.00     0.083 H 
ATOM     21  C20 MOL d   1      33.683  -7.976 -33.394  0.00  0.00     0.067 A 
ATOM     22  H5  MOL d   1      34.729  -8.409 -35.219  0.00  0.00     0.085 H 
BRANCH  21  23
ATOM     23  C21 MOL d   1      34.789  -7.120 -32.851  0.00  0.00     0.211 C 
ATOM     24  O23 MOL d   1      34.525  -6.291 -31.954  0.00  0.00    -0.644 OA
ATOM     25  O22 MOL d   1      35.944  -7.257 -33.309  0.00  0.00    -0.644 OA
ENDBRANCH  21  23
ENDBRANCH  11  13
ENDBRANCH   3  11
BRANCH   7  26
ATOM     26  C05 MOL d   1      27.646  -6.765 -28.536  0.00  0.00     0.032 A 
ATOM     27  C09 MOL d   1      27.255  -7.431 -27.269  0.00  0.00     0.088 A 
ATOM     28  O08 MOL d   1      26.046  -6.922 -26.934  0.00  0.00    -0.217 OA
ATOM     29  N07 MOL d   1      25.623  -6.023 -27.828  0.00  0.00    -0.133 NA
ATOM     30  C06 MOL d   1      26.567  -5.905 -28.809  0.00  0.00     0.071 A 
BRANCH  27  31
ATOM     31  C24 MOL d   1      27.852  -8.458 -26.343  0.00  0.00    -0.028 C 
ATOM     32  H8  MOL d   1      27.165  -8.638 -25.503  0.00  0.00     0.036 H 
ATOM     33  H9  MOL d   1      28.814  -8.089 -25.957  0.00  0.00     0.036 H 
ATOM     34  H10 MOL d   1      28.013  -9.397 -26.892  0.00  0.00     0.036 H 
ENDBRANCH  27  31
BRANCH  30  35
ATOM     35  C25 MOL d   1      26.424  -4.976 -29.988  0.00  0.00    -0.033 C 
ATOM     36  H11 MOL d   1      25.468  -4.437 -29.916  0.00  0.00     0.035 H 
ATOM     37  H12 MOL d   1      26.447  -5.560 -30.920  0.00  0.00     0.035 H 
ATOM     38  H13 MOL d   1      27.253  -4.253 -29.988  0.00  0.00     0.035 H 
ENDBRANCH  30  35
ENDBRANCH   7  26
TORSDOF 6
