REMARK  4 active torsions:
REMARK  status: ('A' for Active; 'I' for Inactive)
REMARK    1  A    between atoms: C9_6  and  C16_11 
REMARK    2  A    between atoms: C12_7  and  C13_8 
REMARK    3  A    between atoms: N11_22  and  C12_7 
REMARK    4  A    between atoms: C2_15  and  C1_9 
REMARK       I    between atoms: C2_15  and  N4_24 
ROOT
ATOM      1  C5  BKD d   1      -4.937  15.787  17.365  0.00  0.00     0.003 C 
ATOM      2  C6  BKD d   1      -5.313  16.950  16.434  0.00  0.00    -0.009 C 
ATOM      3  C7  BKD d   1      -6.374  17.758  17.138  0.00  0.00     0.042 A 
ATOM      4  C8  BKD d   1      -6.718  17.633  18.451  0.00  0.00     0.015 A 
ATOM      5  C9  BKD d   1      -7.728  18.578  18.649  0.00  0.00     0.098 A 
ATOM      6  C2  BKD d   1      -3.574  16.441  19.286  0.00  0.00     0.216 C 
ATOM      7  C26 BKD d   1      -6.059  16.646  19.397  0.00  0.00     0.025 C 
ATOM      8  N10 BKD d   1      -7.965  19.237  17.544  0.00  0.00    -0.171 NA
ATOM      9  N11 BKD d   1      -7.161  18.712  16.584  0.00  0.00    -0.272 N 
ATOM     10  N4  BKD d   1      -4.781  16.250  18.748  0.00  0.00    -0.348 N 
ATOM     11  O3  BKD d   1      -2.583  16.151  18.604  0.00  0.00    -0.274 OA
ATOM     12  H3  BKD d   1      -3.989  15.346  17.024  0.00  0.00     0.065 H 
ATOM     13  H4  BKD d   1      -5.730  15.026  17.328  0.00  0.00     0.065 H 
ATOM     14  H5  BKD d   1      -5.705  16.560  15.483  0.00  0.00     0.044 H 
ATOM     15  H6  BKD d   1      -4.430  17.576  16.238  0.00  0.00     0.044 H 
ATOM     16  H20 BKD d   1      -6.703  15.766  19.542  0.00  0.00     0.071 H 
ATOM     17  H21 BKD d   1      -5.863  17.121  20.370  0.00  0.00     0.071 H 
ENDROOT
BRANCH   5  18
ATOM     18  C16 BKD d   1      -8.507  18.864  19.882  0.00  0.00     0.007 A 
ATOM     19  C17 BKD d   1      -9.009  17.832  20.664  0.00  0.00    -0.070 A 
ATOM     20  C18 BKD d   1      -9.818  18.042  21.805  0.00  0.00    -0.080 A 
ATOM     21  H15 BKD d   1      -8.768  16.812  20.385  0.00  0.00     0.084 H 
ATOM     22  C19 BKD d   1     -10.193  19.342  22.156  0.00  0.00    -0.056 A 
ATOM     23  H16 BKD d   1     -10.145  17.200  22.404  0.00  0.00     0.083 H 
ATOM     24  C20 BKD d   1      -9.739  20.397  21.345  0.00  0.00     0.043 A 
ATOM     25  H17 BKD d   1     -10.813  19.530  23.025  0.00  0.00     0.086 H 
ATOM     26  C21 BKD d   1      -8.899  20.186  20.192  0.00  0.00     0.004 A 
ATOM     27  N24 BKD d   1      -9.920  21.771  21.398  0.00  0.00    -0.365 N 
ATOM     28  C22 BKD d   1      -8.628  21.493  19.611  0.00  0.00    -0.055 A 
ATOM     29  C23 BKD d   1      -9.282  22.425  20.383  0.00  0.00    -0.022 A 
ATOM     30  H18 BKD d   1      -8.021  21.695  18.730  0.00  0.00     0.087 H 
ATOM     31  H19 BKD d   1      -9.290  23.501  20.214  0.00  0.00     0.111 H 
ATOM     32  H22 BKD d   1     -10.475  22.246  22.124  0.00  0.00     0.165 HD
ENDBRANCH   5  18
BRANCH   9  33
ATOM     33  C12 BKD d   1      -7.149  19.208  15.218  0.00  0.00     0.020 C 
ATOM     34  H7  BKD d   1      -7.154  20.308  15.221  0.00  0.00     0.068 H 
ATOM     35  H8  BKD d   1      -6.249  18.847  14.699  0.00  0.00     0.068 H 
BRANCH  33  36
ATOM     36  C13 BKD d   1      -8.403  18.685  14.506  0.00  0.00    -0.037 A 
ATOM     37  C14 BKD d   1      -8.309  17.321  13.849  0.00  0.00    -0.060 A 
ATOM     38  C15 BKD d   1      -8.354  18.583  12.975  0.00  0.00    -0.060 A 
ATOM     39  H1  BKD d   1      -9.172  16.639  13.873  0.00  0.00     0.033 H 
ATOM     40  H2  BKD d   1      -7.379  16.738  13.924  0.00  0.00     0.033 H 
ATOM     41  H13 BKD d   1      -9.249  18.809  12.378  0.00  0.00     0.033 H 
ATOM     42  H14 BKD d   1      -7.457  18.908  12.428  0.00  0.00     0.033 H 
ATOM     43  H9  BKD d   1      -9.317  19.006  15.027  0.00  0.00     0.042 H 
ENDBRANCH  33  36
ENDBRANCH   9  33
BRANCH   6  44
ATOM     44  C1  BKD d   1      -3.402  16.869  20.742  0.00  0.00    -0.003 C 
ATOM     45  H10 BKD d   1      -2.331  16.966  20.971  0.00  0.00     0.040 H 
ATOM     46  H11 BKD d   1      -3.851  16.112  21.402  0.00  0.00     0.040 H 
ATOM     47  H12 BKD d   1      -3.901  17.837  20.901  0.00  0.00     0.040 H 
ENDBRANCH   6  44
TORSDOF 4
