REMARK WARNING: 32 MAX_TORS EXCEEDED!!!
REMARK  33 active torsions:
REMARK  status: ('A' for Active; 'I' for Inactive)
REMARK    1  A    between atoms: C03_3  and  C02_2 
REMARK    2  A    between atoms: C03_3  and  C43_32 
REMARK    3  A    between atoms: C05_5  and  C04_4 
REMARK    4  A    between atoms: C07_6  and  C05_5 
REMARK    5  A    between atoms: C08_7  and  C07_6 
REMARK    6  A    between atoms: C08_7  and  C09_8 
REMARK    7  A    between atoms: C10_9  and  C08_7 
REMARK    8  A    between atoms: C11_10  and  C10_9 
REMARK    9  A    between atoms: C11_10  and  C12_11 
REMARK   10  A    between atoms: C13_12  and  C11_10 
REMARK   11  A    between atoms: C14_13  and  C13_12 
REMARK   12  A    between atoms: C15_14  and  C14_13 
REMARK   13  A    between atoms: C17_15  and  C15_14 
REMARK   14  A    between atoms: C15_14  and  O16_35 
REMARK   15  A    between atoms: C17_15  and  C18_16 
REMARK   16  A    between atoms: C19_17  and  C17_15 
REMARK   17  A    between atoms: C21_18  and  C19_17 
REMARK   18  A    between atoms: C22_19  and  C21_18 
REMARK   19  A    between atoms: C24_20  and  C22_19 
REMARK   20  A    between atoms: C22_19  and  O23_37 
REMARK   21  A    between atoms: C24_20  and  C25_21 
REMARK   22  A    between atoms: C26_22  and  C24_20 
REMARK   23  A    between atoms: C26_22  and  C27_23 
REMARK   24  A    between atoms: O28_38  and  C26_22 
REMARK   25  A    between atoms: C29_24  and  C31_25 
REMARK   26  A    between atoms: C29_24  and  O28_38 
REMARK   27  A    between atoms: C31_25  and  C32_26 
REMARK   28  A    between atoms: C32_26  and  C34_27 
REMARK   29  A    between atoms: C32_26  and  O33_40 
REMARK   30  A    between atoms: C34_27  and  C35_28 
REMARK   31  A    between atoms: C38_29  and  C39_30 
REMARK   32  A    between atoms: C38_29  and  C40_31 
REMARK   33  A    between atoms: C43_32  and  C44_33 
ROOT
ATOM      1  C17 BKM d   1      11.865  33.487 -13.111  0.00  0.00     0.025 C 
ATOM      2  H22 BKM d   1      12.471  34.082 -12.412  0.00  0.00     0.055 H 
ENDROOT
BRANCH   1   3
ATOM      3  C15 BKM d   1      12.790  32.699 -14.038  0.00  0.00     0.045 C 
ATOM      4  H21 BKM d   1      12.184  32.130 -14.758  0.00  0.00     0.084 H 
BRANCH   3   5
ATOM      5  C14 BKM d   1      13.668  31.717 -13.221  0.00  0.00    -0.040 C 
ATOM      6  H19 BKM d   1      14.342  32.301 -12.577  0.00  0.00     0.036 H 
ATOM      7  H20 BKM d   1      13.011  31.096 -12.595  0.00  0.00     0.036 H 
BRANCH   5   8
ATOM      8  C13 BKM d   1      14.530  30.778 -14.126  0.00  0.00    -0.060 C 
ATOM      9  H17 BKM d   1      13.894  29.961 -14.497  0.00  0.00     0.033 H 
ATOM     10  H18 BKM d   1      14.913  31.360 -14.977  0.00  0.00     0.033 H 
BRANCH   8  11
ATOM     11  C11 BKM d   1      15.721  30.173 -13.362  0.00  0.00    -0.057 C 
ATOM     12  H13 BKM d   1      15.354  29.646 -12.469  0.00  0.00     0.039 H 
BRANCH  11  13
ATOM     13  C10 BKM d   1      16.493  29.193 -14.261  0.00  0.00    -0.059 C 
ATOM     14  H11 BKM d   1      16.766  29.716 -15.190  0.00  0.00     0.034 H 
ATOM     15  H12 BKM d   1      17.407  28.884 -13.732  0.00  0.00     0.034 H 
BRANCH  13  16
ATOM     16  C08 BKM d   1      15.698  27.930 -14.632  0.00  0.00    -0.051 C 
ATOM     17  H7  BKM d   1      14.806  28.210 -15.212  0.00  0.00     0.040 H 
BRANCH  16  18
ATOM     18  C07 BKM d   1      15.260  27.193 -13.356  0.00  0.00    -0.003 C 
ATOM     19  H5  BKM d   1      16.135  26.684 -12.926  0.00  0.00     0.045 H 
ATOM     20  H6  BKM d   1      14.876  27.932 -12.637  0.00  0.00     0.045 H 
BRANCH  18  21
ATOM     21  C05 BKM d   1      14.150  26.135 -13.623  0.00  0.00     0.150 C 
ATOM     22  O06 BKM d   1      13.951  25.734 -14.722  0.00  0.00    -0.293 OA
BRANCH  21  23
ATOM     23  C04 BKM d   1      13.282  25.569 -12.481  0.00  0.00    -0.033 C 
ATOM     24  C03 BKM d   1      13.554  24.368 -11.955  0.00  0.00    -0.056 C 
ATOM     25  H4  BKM d   1      12.443  26.149 -12.100  0.00  0.00     0.089 H 
BRANCH  24  26
ATOM     26  C02 BKM d   1      12.642  23.831 -10.836  0.00  0.00    -0.086 C 
ATOM     27  C01 BKM d   1      11.422  23.416 -11.162  0.00  0.00    -0.121 C 
ATOM     28  H1  BKM d   1      10.754  23.031 -10.393  0.00  0.00     0.066 H 
ATOM     29  H2  BKM d   1      11.090  23.461 -12.198  0.00  0.00     0.066 H 
ATOM     30  H3  BKM d   1      12.988  23.792  -9.804  0.00  0.00     0.083 H 
ENDBRANCH  24  26
BRANCH  24  31
ATOM     31  C43 BKM d   1      14.746  23.522 -12.464  0.00  0.00    -0.044 C 
ATOM     32  H43 BKM d   1      14.846  23.682 -13.548  0.00  0.00     0.039 H 
ATOM     33  H44 BKM d   1      14.527  22.462 -12.268  0.00  0.00     0.039 H 
BRANCH  31  34
ATOM     34  C44 BKM d   1      16.095  23.871 -11.795  0.00  0.00    -0.073 C 
ATOM     35  H45 BKM d   1      16.887  23.229 -12.209  0.00  0.00     0.028 H 
ATOM     36  H46 BKM d   1      16.020  23.706 -10.710  0.00  0.00     0.028 H 
ATOM     37  H47 BKM d   1      16.339  24.926 -11.990  0.00  0.00     0.028 H 
ENDBRANCH  31  34
ENDBRANCH  24  31
ENDBRANCH  21  23
ENDBRANCH  18  21
ENDBRANCH  16  18
BRANCH  16  38
ATOM     38  C09 BKM d   1      16.604  27.041 -15.482  0.00  0.00    -0.072 C 
ATOM     39  H8  BKM d   1      16.906  27.586 -16.389  0.00  0.00     0.028 H 
ATOM     40  H9  BKM d   1      16.060  26.128 -15.767  0.00  0.00     0.028 H 
ATOM     41  H10 BKM d   1      17.499  26.769 -14.903  0.00  0.00     0.028 H 
ENDBRANCH  16  38
ENDBRANCH  13  16
ENDBRANCH  11  13
BRANCH  11  42
ATOM     42  C12 BKM d   1      16.670  31.290 -12.953  0.00  0.00    -0.073 C 
ATOM     43  H14 BKM d   1      16.138  32.005 -12.308  0.00  0.00     0.028 H 
ATOM     44  H15 BKM d   1      17.035  31.808 -13.852  0.00  0.00     0.028 H 
ATOM     45  H16 BKM d   1      17.523  30.864 -12.404  0.00  0.00     0.028 H 
ENDBRANCH  11  42
ENDBRANCH   8  11
ENDBRANCH   5   8
ENDBRANCH   3   5
BRANCH   3  46
ATOM     46  O16 BKM d   1      13.609  33.592 -14.722  0.00  0.00    -0.395 OA
ATOM     47  H48 BKM d   1      14.188  33.110 -15.301  0.00  0.00     0.210 HD
ENDBRANCH   3  46
ENDBRANCH   1   3
BRANCH   1  48
ATOM     48  C18 BKM d   1      10.968  32.531 -12.320  0.00  0.00    -0.064 C 
ATOM     49  H23 BKM d   1      10.308  33.111 -11.658  0.00  0.00     0.028 H 
ATOM     50  H24 BKM d   1      11.593  31.857 -11.716  0.00  0.00     0.028 H 
ATOM     51  H25 BKM d   1      10.358  31.939 -13.018  0.00  0.00     0.028 H 
ENDBRANCH   1  48
BRANCH   1  52
ATOM     52  C19 BKM d   1      10.976  34.422 -13.948  0.00  0.00     0.135 C 
ATOM     53  O20 BKM d   1      10.273  33.973 -14.795  0.00  0.00    -0.297 OA
BRANCH  52  54
ATOM     54  C21 BKM d   1      10.999  35.957 -13.679  0.00  0.00     0.015 C 
ATOM     55  H26 BKM d   1      12.040  36.307 -13.743  0.00  0.00     0.048 H 
ATOM     56  H27 BKM d   1      10.613  36.139 -12.665  0.00  0.00     0.048 H 
BRANCH  54  57
ATOM     57  C22 BKM d   1      10.147  36.769 -14.681  0.00  0.00     0.047 C 
ATOM     58  H28 BKM d   1       9.175  36.272 -14.817  0.00  0.00     0.084 H 
BRANCH  57  59
ATOM     59  C24 BKM d   1      10.857  36.867 -16.037  0.00  0.00    -0.007 C 
ATOM     60  H29 BKM d   1      10.845  35.880 -16.523  0.00  0.00     0.047 H 
BRANCH  59  61
ATOM     61  C25 BKM d   1      12.315  37.308 -15.834  0.00  0.00    -0.068 C 
ATOM     62  H30 BKM d   1      12.817  37.376 -16.811  0.00  0.00     0.028 H 
ATOM     63  H31 BKM d   1      12.836  36.572 -15.204  0.00  0.00     0.028 H 
ATOM     64  H32 BKM d   1      12.335  38.292 -15.342  0.00  0.00     0.028 H 
ENDBRANCH  59  61
BRANCH  59  65
ATOM     65  C26 BKM d   1      10.120  37.873 -16.925  0.00  0.00     0.050 C 
ATOM     66  H33 BKM d   1       9.908  38.784 -16.346  0.00  0.00     0.084 H 
BRANCH  65  67
ATOM     67  C27 BKM d   1      10.977  38.232 -18.147  0.00  0.00    -0.051 C 
ATOM     68  H34 BKM d   1      10.435  38.955 -18.775  0.00  0.00     0.030 H 
ATOM     69  H35 BKM d   1      11.184  37.322 -18.730  0.00  0.00     0.030 H 
ATOM     70  H36 BKM d   1      11.926  38.676 -17.812  0.00  0.00     0.030 H 
ENDBRANCH  65  67
BRANCH  65  71
ATOM     71  O28 BKM d   1       8.916  37.303 -17.365  0.00  0.00    -0.316 OA
BRANCH  71  72
ATOM     72  C29 BKM d   1       7.762  38.068 -17.056  0.00  0.00     0.261 C 
ATOM     73  O30 BKM d   1       7.836  39.251 -16.971  0.00  0.00    -0.265 OA
BRANCH  72  74
ATOM     74  C31 BKM d   1       6.404  37.355 -16.830  0.00  0.00     0.044 C 
ATOM     75  H37 BKM d   1       6.593  36.305 -16.561  0.00  0.00     0.052 H 
ATOM     76  H38 BKM d   1       5.820  37.395 -17.762  0.00  0.00     0.052 H 
BRANCH  74  77
ATOM     77  C32 BKM d   1       5.596  38.020 -15.707  0.00  0.00     0.076 C 
ATOM     78  H39 BKM d   1       5.664  39.114 -15.805  0.00  0.00     0.091 H 
BRANCH  77  79
ATOM     79  C34 BKM d   1       6.160  37.591 -14.344  0.00  0.00     0.060 C 
ATOM     80  C38 BKM d   1       6.554  38.522 -13.461  0.00  0.00     0.030 C 
BRANCH  79  81
ATOM     81  C35 BKM d   1       6.245  36.092 -14.011  0.00  0.00     0.208 C 
ATOM     82  O36 BKM d   1       7.323  35.566 -13.620  0.00  0.00    -0.644 OA
ATOM     83  O37 BKM d   1       5.212  35.378 -14.142  0.00  0.00    -0.644 OA
ENDBRANCH  79  81
BRANCH  80  84
ATOM     84  C39 BKM d   1       6.454  40.017 -13.825  0.00  0.00    -0.044 C 
ATOM     85  H40 BKM d   1       6.027  40.121 -14.833  0.00  0.00     0.033 H 
ATOM     86  H41 BKM d   1       7.457  40.468 -13.804  0.00  0.00     0.033 H 
ATOM     87  H42 BKM d   1       5.807  40.529 -13.098  0.00  0.00     0.033 H 
ENDBRANCH  80  84
BRANCH  80  88
ATOM     88  C40 BKM d   1       7.123  38.118 -12.095  0.00  0.00     0.205 C 
ATOM     89  O41 BKM d   1       6.361  37.746 -11.160  0.00  0.00    -0.644 OA
ATOM     90  O42 BKM d   1       8.372  38.164 -11.917  0.00  0.00    -0.644 OA
ENDBRANCH  80  88
ENDBRANCH  77  79
BRANCH  77  91
ATOM     91  O33 BKM d   1       4.264  37.627 -15.794  0.00  0.00    -0.390 OA
ATOM     92  H50 BKM d   1       4.207  36.683 -15.707  0.00  0.00     0.210 HD
ENDBRANCH  77  91
ENDBRANCH  74  77
ENDBRANCH  72  74
ENDBRANCH  71  72
ENDBRANCH  65  71
ENDBRANCH  59  65
ENDBRANCH  57  59
BRANCH  57  93
ATOM     93  O23 BKM d   1       9.947  38.049 -14.171  0.00  0.00    -0.395 OA
ATOM     94  H49 BKM d   1       9.507  37.989 -13.331  0.00  0.00     0.210 HD
ENDBRANCH  57  93
ENDBRANCH  54  57
ENDBRANCH  52  54
ENDBRANCH   1  52
TORSDOF 33
