REMARK  4 active torsions:
REMARK  status: ('A' for Active; 'I' for Inactive)
REMARK    1  A    between atoms: N_1  and  CA_2 
REMARK    2  A    between atoms: CA_2  and  C_3 
REMARK    3  A    between atoms: CA_2  and  CB_5 
REMARK    4  A    between atoms: CB_5  and  CG_6 
ROOT
ATOM      1  CG  TRP d   1       4.925 -39.831  11.448  0.00  0.00    -0.028 A 
ATOM      2  CD1 TRP d   1       4.752 -41.179  11.448  0.00  0.00    -0.015 A 
ATOM      3  CD2 TRP d   1       4.874 -39.413  10.085  0.00  0.00    -0.002 A 
ATOM      4  NE1 TRP d   1       4.610 -41.633  10.162  0.00  0.00    -0.365 N 
ATOM      5  CE2 TRP d   1       4.678 -40.567   9.304  0.00  0.00     0.042 A 
ATOM      6  CE3 TRP d   1       4.983 -38.172   9.446  0.00  0.00    -0.070 A 
ATOM      7  CZ2 TRP d   1       4.587 -40.522   7.912  0.00  0.00    -0.056 A 
ATOM      8  CZ3 TRP d   1       4.893 -38.126   8.061  0.00  0.00    -0.082 A 
ATOM      9  CH2 TRP d   1       4.697 -39.295   7.310  0.00  0.00    -0.081 A 
ATOM     10  H7  TRP d   1       4.729 -41.806  12.338  0.00  0.00     0.112 H 
ATOM     11  H8  TRP d   1       4.474 -42.616   9.886  0.00  0.00     0.165 HD
ATOM     12  H9  TRP d   1       5.135 -37.266  10.021  0.00  0.00     0.084 H 
ATOM     13  H10 TRP d   1       4.435 -41.423   7.329  0.00  0.00     0.086 H 
ATOM     14  H11 TRP d   1       4.975 -37.172   7.552  0.00  0.00     0.083 H 
ATOM     15  H12 TRP d   1       4.631 -39.227   6.230  0.00  0.00     0.083 H 
ENDROOT
BRANCH   1  16
ATOM     16  CB  TRP d   1       5.098 -38.960  12.619  0.00  0.00    -0.003 C 
ATOM     17  H5  TRP d   1       5.021 -37.916  12.280  0.00  0.00     0.044 H 
ATOM     18  H6  TRP d   1       4.284 -39.177  13.327  0.00  0.00     0.044 H 
BRANCH  16  19
ATOM     19  CA  TRP d   1       6.421 -39.118  13.360  0.00  0.00     0.186 C 
ATOM     20  H4  TRP d   1       6.545 -38.256  14.031  0.00  0.00     0.101 H 
BRANCH  19  21
ATOM     21  N   TRP d   1       7.571 -39.094  12.393  0.00  0.00    -0.065 N 
ATOM     22  H1  TRP d   1       7.544 -38.239  11.860  0.00  0.00     0.275 HD
ATOM     23  H2  TRP d   1       7.501 -39.882  11.768  0.00  0.00     0.275 HD
ATOM     24  H3  TRP d   1       8.439 -39.145  12.902  0.00  0.00     0.275 HD
ENDBRANCH  19  21
BRANCH  19  25
ATOM     25  C   TRP d   1       6.350 -40.369  14.231  0.00  0.00     0.204 C 
ATOM     26  O   TRP d   1       6.932 -41.396  13.904  0.00  0.00    -0.646 OA
ATOM     27  OXT TRP d   1       5.692 -40.382  15.272  0.00  0.00    -0.646 OA
ENDBRANCH  19  25
ENDBRANCH  16  19
ENDBRANCH   1  16
TORSDOF 4
