REMARK  4 active torsions:
REMARK  status: ('A' for Active; 'I' for Inactive)
REMARK    1  A    between atoms: N_1  and  CA_2 
REMARK    2  A    between atoms: CA_2  and  C_3 
REMARK    3  A    between atoms: CA_2  and  CB_5 
REMARK    4  A    between atoms: CB_5  and  CG_6 
ROOT
ATOM      1  CG  TRP d   1      80.405  18.552 192.414  0.00  0.00    -0.028 A 
ATOM      2  CD1 TRP d   1      80.454  19.914 192.481  0.00  0.00    -0.015 A 
ATOM      3  CD2 TRP d   1      80.495  18.212 191.032  0.00  0.00    -0.002 A 
ATOM      4  NE1 TRP d   1      80.559  20.445 191.218  0.00  0.00    -0.365 N 
ATOM      5  CE2 TRP d   1      80.590  19.421 190.308  0.00  0.00     0.042 A 
ATOM      6  CE3 TRP d   1      80.506  16.998 190.333  0.00  0.00    -0.070 A 
ATOM      7  CZ2 TRP d   1      80.692  19.453 188.910  0.00  0.00    -0.056 A 
ATOM      8  CZ3 TRP d   1      80.607  17.026 188.948  0.00  0.00    -0.082 A 
ATOM      9  CH2 TRP d   1      80.699  18.248 188.250  0.00  0.00    -0.081 A 
ATOM     10  H7  TRP d   1      80.415  20.495 193.401  0.00  0.00     0.112 H 
ATOM     11  H8  TRP d   1      80.607  21.449 190.992  0.00  0.00     0.165 HD
ATOM     12  H9  TRP d   1      80.437  16.055 190.863  0.00  0.00     0.084 H 
ATOM     13  H10 TRP d   1      80.763  20.391 188.371  0.00  0.00     0.086 H 
ATOM     14  H11 TRP d   1      80.615  16.094 188.395  0.00  0.00     0.083 H 
ATOM     15  H12 TRP d   1      80.777  18.236 187.169  0.00  0.00     0.083 H 
ENDROOT
BRANCH   1  16
ATOM     16  CB  TRP d   1      80.292  17.590 193.547  0.00  0.00    -0.003 C 
ATOM     17  H5  TRP d   1      80.467  16.577 193.155  0.00  0.00     0.044 H 
ATOM     18  H6  TRP d   1      81.069  17.837 194.285  0.00  0.00     0.044 H 
BRANCH  16  19
ATOM     19  CA  TRP d   1      78.935  17.597 194.262  0.00  0.00     0.186 C 
ATOM     20  H4  TRP d   1      78.912  16.738 194.949  0.00  0.00     0.101 H 
BRANCH  19  21
ATOM     21  N   TRP d   1      77.820  17.401 193.273  0.00  0.00    -0.065 N 
ATOM     22  H1  TRP d   1      77.979  16.554 192.751  0.00  0.00     0.275 HD
ATOM     23  H2  TRP d   1      77.790  18.185 192.640  0.00  0.00     0.275 HD
ATOM     24  H3  TRP d   1      76.943  17.333 193.765  0.00  0.00     0.275 HD
ENDBRANCH  19  21
BRANCH  19  25
ATOM     25  C   TRP d   1      78.795  18.862 195.115  0.00  0.00     0.204 C 
ATOM     26  O   TRP d   1      78.122  19.825 194.750  0.00  0.00    -0.646 OA
ATOM     27  OXT TRP d   1      79.366  18.959 196.203  0.00  0.00    -0.646 OA
ENDBRANCH  19  25
ENDBRANCH  16  19
ENDBRANCH   1  16
TORSDOF 4
