REMARK  6 active torsions:
REMARK  status: ('A' for Active; 'I' for Inactive)
REMARK    1  A    between atoms: C1_1  and  C_14 
REMARK    2  A    between atoms: C7_7  and  C4_4 
REMARK    3  A    between atoms: O2_27  and  C7_7 
REMARK    4  A    between atoms: C8_8  and  O2_27 
REMARK    5  A    between atoms: C13_13  and  C14_16 
REMARK    6  A    between atoms: C14_16  and  C15_17 
ROOT
ATOM      1  C8  BKY d   1      15.545  21.054   9.267  0.00  0.00     0.079 A 
ATOM      2  C9  BKY d   1      15.656  22.176   8.460  0.00  0.00    -0.050 A 
ATOM      3  C10 BKY d   1      16.910  22.681   8.162  0.00  0.00    -0.080 A 
ATOM      4  C11 BKY d   1      18.043  22.074   8.660  0.00  0.00    -0.082 A 
ATOM      5  C12 BKY d   1      17.938  20.957   9.469  0.00  0.00    -0.070 A 
ATOM      6  C13 BKY d   1      16.683  20.432   9.797  0.00  0.00    -0.002 A 
ATOM      7  H7  BKY d   1      14.767  22.654   8.065  0.00  0.00     0.087 H 
ATOM      8  H8  BKY d   1      17.002  23.559   7.533  0.00  0.00     0.083 H 
ATOM      9  H9  BKY d   1      19.021  22.474   8.416  0.00  0.00     0.083 H 
ATOM     10  H10 BKY d   1      18.835  20.484   9.852  0.00  0.00     0.084 H 
ENDROOT
BRANCH   1  11
ATOM     11  O2  BKY d   1      14.349  20.464   9.577  0.00  0.00    -0.346 OA
BRANCH  11  12
ATOM     12  C7  BKY d   1      13.164  21.269   9.514  0.00  0.00     0.050 C 
ATOM     13  H5  BKY d   1      13.163  21.998  10.338  0.00  0.00     0.082 H 
ATOM     14  H6  BKY d   1      13.125  21.802   8.553  0.00  0.00     0.082 H 
BRANCH  12  15
ATOM     15  C4  BKY d   1      11.983  20.360   9.639  0.00  0.00    -0.034 A 
ATOM     16  C3  BKY d   1      12.126  18.987   9.488  0.00  0.00    -0.074 A 
ATOM     17  C2  BKY d   1      11.049  18.131   9.613  0.00  0.00    -0.066 A 
ATOM     18  H2  BKY d   1      13.105  18.578   9.267  0.00  0.00     0.084 H 
ATOM     19  C1  BKY d   1       9.784  18.634   9.900  0.00  0.00     0.040 A 
ATOM     20  H1  BKY d   1      11.190  17.064   9.487  0.00  0.00     0.085 H 
ATOM     21  C6  BKY d   1       9.626  20.008  10.042  0.00  0.00    -0.066 A 
ATOM     22  C5  BKY d   1      10.713  20.852   9.913  0.00  0.00    -0.074 A 
ATOM     23  H4  BKY d   1       8.646  20.419  10.255  0.00  0.00     0.085 H 
ATOM     24  H3  BKY d   1      10.572  21.921  10.028  0.00  0.00     0.084 H 
BRANCH  19  25
ATOM     25  C   BKY d   1       8.627  17.712  10.081  0.00  0.00     0.209 C 
ATOM     26  O   BKY d   1       8.910  16.446   9.944  0.00  0.00    -0.644 OA
ATOM     27  O1  BKY d   1       7.507  18.127  10.349  0.00  0.00    -0.644 OA
ENDBRANCH  19  25
ENDBRANCH  12  15
ENDBRANCH  11  12
ENDBRANCH   1  11
BRANCH   6  28
ATOM     28  C14 BKY d   1      16.501  19.313  10.724  0.00  0.00    -0.053 C 
ATOM     29  H11 BKY d   1      15.454  19.034  10.834  0.00  0.00     0.086 H 
BRANCH  28  30
ATOM     30  C15 BKY d   1      17.316  18.545  11.474  0.00  0.00     0.067 A 
ATOM     31  C16 BKY d   1      18.750  18.416  11.809  0.00  0.00     0.197 A 
ATOM     32  C17 BKY d   1      18.850  17.372  12.857  0.00  0.00     0.029 A 
ATOM     33  O3  BKY d   1      19.696  19.031  11.320  0.00  0.00    -0.286 OA
ATOM     34  C18 BKY d   1      17.588  16.876  13.139  0.00  0.00     0.029 A 
ATOM     35  C23 BKY d   1      19.961  16.910  13.555  0.00  0.00    -0.068 A 
ATOM     36  C19 BKY d   1      16.584  17.557  12.292  0.00  0.00     0.197 A 
ATOM     37  C20 BKY d   1      17.413  15.913  14.129  0.00  0.00    -0.068 A 
ATOM     38  O4  BKY d   1      15.380  17.317  12.281  0.00  0.00    -0.286 OA
ATOM     39  C21 BKY d   1      18.520  15.462  14.830  0.00  0.00    -0.082 A 
ATOM     40  H12 BKY d   1      16.426  15.522  14.348  0.00  0.00     0.085 H 
ATOM     41  C22 BKY d   1      19.785  15.955  14.545  0.00  0.00    -0.082 A 
ATOM     42  H13 BKY d   1      18.396  14.717  15.608  0.00  0.00     0.083 H 
ATOM     43  H14 BKY d   1      20.642  15.591  15.100  0.00  0.00     0.083 H 
ATOM     44  H15 BKY d   1      20.950  17.291  13.328  0.00  0.00     0.085 H 
ENDBRANCH  28  30
ENDBRANCH   6  28
TORSDOF 6
