REMARK  7 active torsions:
REMARK  status: ('A' for Active; 'I' for Inactive)
REMARK    1  A    between atoms: C22_2  and  C23_3 
REMARK       I    between atoms: C22_2  and  N19_9 
REMARK    2  A    between atoms: N19_9  and  C8_10 
REMARK    3  A    between atoms: C6_15  and  C5_16 
REMARK    4  A    between atoms: C3_18  and  C20_19 
REMARK    5  A    between atoms: C20_19  and  C21_20 
REMARK    6  A    between atoms: C1_22  and  C12_23 
REMARK    7  A    between atoms: C14_27  and  C18_28 
ROOT
ATOM      1  C5  T75 d   1      17.195   5.246  -2.327  0.00  0.00     0.046 A 
ATOM      2  S4  T75 d   1      16.018   4.581  -1.200  0.00  0.00    -0.072 SA
ATOM      3  C3  T75 d   1      17.006   4.976   0.134  0.00  0.00     0.076 A 
ATOM      4  N2  T75 d   1      18.088   5.538  -0.271  0.00  0.00    -0.244 NA
ATOM      5  C1  T75 d   1      18.263   5.710  -1.574  0.00  0.00     0.086 A 
ENDROOT
BRANCH   1   6
ATOM      6  C6  T75 d   1      16.951   5.200  -3.786  0.00  0.00    -0.012 A 
ATOM      7  C7  T75 d   1      15.626   5.214  -4.264  0.00  0.00    -0.027 A 
ATOM      8  C8  T75 d   1      15.377   5.136  -5.638  0.00  0.00     0.130 A 
ATOM      9  H7  T75 d   1      14.799   5.285  -3.567  0.00  0.00     0.090 H 
ATOM     10  N9  T75 d   1      16.401   5.038  -6.486  0.00  0.00    -0.243 NA
ATOM     11  C10 T75 d   1      17.666   5.012  -6.082  0.00  0.00     0.005 A 
ATOM     12  C11 T75 d   1      17.989   5.075  -4.735  0.00  0.00    -0.055 A 
ATOM     13  H8  T75 d   1      18.459   4.940  -6.817  0.00  0.00     0.114 H 
ATOM     14  H9  T75 d   1      19.024   5.029  -4.415  0.00  0.00     0.087 H 
BRANCH   8  15
ATOM     15  N19 T75 d   1      14.089   5.146  -6.191  0.00  0.00    -0.307 N 
ATOM     16  C22 T75 d   1      12.886   5.004  -5.566  0.00  0.00     0.257 C 
ATOM     17  O24 T75 d   1      12.799   4.852  -4.354  0.00  0.00    -0.267 OA
ATOM     18  H6  T75 d   1      14.047   5.275  -7.182  0.00  0.00     0.170 HD
BRANCH  16  19
ATOM     19  C23 T75 d   1      11.644   5.033  -6.387  0.00  0.00     0.032 A 
ATOM     20  C29 T75 d   1      11.605   5.729  -7.613  0.00  0.00    -0.068 A 
ATOM     21  C28 T75 d   1      10.442   5.748  -8.377  0.00  0.00    -0.082 A 
ATOM     22  H1  T75 d   1      12.487   6.253  -7.963  0.00  0.00     0.085 H 
ATOM     23  C27 T75 d   1       9.305   5.080  -7.928  0.00  0.00    -0.083 A 
ATOM     24  H2  T75 d   1      10.421   6.282  -9.320  0.00  0.00     0.083 H 
ATOM     25  C26 T75 d   1       9.327   4.385  -6.719  0.00  0.00    -0.082 A 
ATOM     26  H3  T75 d   1       8.398   5.101  -8.521  0.00  0.00     0.083 H 
ATOM     27  C25 T75 d   1      10.485   4.357  -5.949  0.00  0.00    -0.068 A 
ATOM     28  H4  T75 d   1       8.439   3.865  -6.378  0.00  0.00     0.083 H 
ATOM     29  H5  T75 d   1      10.497   3.815  -5.010  0.00  0.00     0.085 H 
ENDBRANCH  16  19
ENDBRANCH   8  15
ENDBRANCH   1   6
BRANCH   5  30
ATOM     30  C12 T75 d   1      19.485   6.392  -2.065  0.00  0.00    -0.005 A 
ATOM     31  C17 T75 d   1      19.349   7.582  -2.806  0.00  0.00    -0.071 A 
ATOM     32  C16 T75 d   1      20.469   8.262  -3.265  0.00  0.00    -0.082 A 
ATOM     33  H15 T75 d   1      18.360   7.971  -3.020  0.00  0.00     0.084 H 
ATOM     34  C15 T75 d   1      21.733   7.762  -2.978  0.00  0.00    -0.077 A 
ATOM     35  H16 T75 d   1      20.358   9.174  -3.841  0.00  0.00     0.083 H 
ATOM     36  C14 T75 d   1      21.874   6.586  -2.242  0.00  0.00    -0.061 A 
ATOM     37  H17 T75 d   1      22.614   8.288  -3.328  0.00  0.00     0.084 H 
ATOM     38  C13 T75 d   1      20.767   5.897  -1.775  0.00  0.00    -0.065 A 
ATOM     39  H21 T75 d   1      20.888   4.990  -1.194  0.00  0.00     0.085 H 
BRANCH  36  40
ATOM     40  C18 T75 d   1      23.253   6.069  -1.948  0.00  0.00    -0.051 C 
ATOM     41  H18 T75 d   1      23.179   5.141  -1.363  0.00  0.00     0.033 H 
ATOM     42  H19 T75 d   1      23.812   6.822  -1.373  0.00  0.00     0.033 H 
ATOM     43  H20 T75 d   1      23.778   5.866  -2.893  0.00  0.00     0.033 H 
ENDBRANCH  36  40
ENDBRANCH   5  30
BRANCH   3  44
ATOM     44  C20 T75 d   1      16.674   4.712   1.587  0.00  0.00    -0.022 C 
ATOM     45  H10 T75 d   1      16.652   5.669   2.130  0.00  0.00     0.042 H 
ATOM     46  H11 T75 d   1      17.449   4.062   2.020  0.00  0.00     0.042 H 
BRANCH  44  47
ATOM     47  C21 T75 d   1      15.311   4.026   1.729  0.00  0.00    -0.071 C 
ATOM     48  H12 T75 d   1      15.099   3.848   2.794  0.00  0.00     0.028 H 
ATOM     49  H13 T75 d   1      15.326   3.066   1.193  0.00  0.00     0.028 H 
ATOM     50  H14 T75 d   1      14.529   4.672   1.303  0.00  0.00     0.028 H 
ENDBRANCH  44  47
ENDBRANCH   3  44
TORSDOF 7
