REMARK  10 active torsions:
REMARK  status: ('A' for Active; 'I' for Inactive)
REMARK    1  A    between atoms: O01_1  and  C02_2 
REMARK    2  A    between atoms: C04_4  and  O05_5 
REMARK    3  A    between atoms: C08_8  and  C09_9 
REMARK    4  A    between atoms: C09_9  and  C10_10 
REMARK    5  A    between atoms: C10_10  and  C11_11 
REMARK    6  A    between atoms: C12_12  and  C13_13 
REMARK    7  A    between atoms: C13_13  and  C14_14 
REMARK    8  A    between atoms: C25_25  and  C26_26 
REMARK    9  A    between atoms: C26_26  and  O27_27 
REMARK   10  A    between atoms: O27_27  and  C28_28 
ROOT
ATOM      1  C10 VC1 d   1    -119.412 128.657  60.405  0.00  0.00    -0.037 C 
ATOM      2  H6  VC1 d   1    -119.595 129.228  59.483  0.00  0.00     0.040 H 
ATOM      3  H7  VC1 d   1    -118.644 127.893  60.217  0.00  0.00     0.040 H 
ENDROOT
BRANCH   1   4
ATOM      4  C09 VC1 d   1    -120.718 127.905  60.731  0.00  0.00    -0.035 C 
ATOM      5  H4  VC1 d   1    -120.721 127.666  61.805  0.00  0.00     0.040 H 
ATOM      6  H5  VC1 d   1    -121.566 128.567  60.500  0.00  0.00     0.040 H 
BRANCH   4   7
ATOM      7  C08 VC1 d   1    -120.894 126.619  59.957  0.00  0.00    -0.014 A 
ATOM      8  C06 VC1 d   1    -121.254 126.732  58.613  0.00  0.00     0.074 A 
ATOM      9  C04 VC1 d   1    -121.442 125.641  57.739  0.00  0.00     0.090 A 
ATOM     10 CL7  VC1 d   1    -121.521 128.356  57.979  0.00  0.00    -0.081 Cl
ATOM     11  C03 VC1 d   1    -121.230 124.360  58.267  0.00  0.00    -0.016 A 
ATOM     12  C02 VC1 d   1    -120.846 124.211  59.615  0.00  0.00     0.085 A 
ATOM     13  H2  VC1 d   1    -121.361 123.486  57.640  0.00  0.00     0.092 H 
ATOM     14  C25 VC1 d   1    -120.663 125.308  60.483  0.00  0.00     0.080 A 
BRANCH   9  15
ATOM     15  O05 VC1 d   1    -121.817 125.814  56.412  0.00  0.00    -0.359 OA
ATOM     16  H3  VC1 d   1    -122.643 125.371  56.257  0.00  0.00     0.217 HD
ENDBRANCH   9  15
BRANCH  12  17
ATOM     17  O01 VC1 d   1    -120.645 122.965  60.123  0.00  0.00    -0.360 OA
ATOM     18  H1  VC1 d   1    -120.393 123.034  61.036  0.00  0.00     0.217 HD
ENDBRANCH  12  17
BRANCH  14  19
ATOM     19  C26 VC1 d   1    -120.248 125.098  61.954  0.00  0.00     0.296 C 
ATOM     20  O29 VC1 d   1    -120.616 124.163  62.631  0.00  0.00    -0.259 OA
BRANCH  19  21
ATOM     21  O27 VC1 d   1    -119.403 126.003  62.602  0.00  0.00    -0.322 OA
BRANCH  21  22
ATOM     22  C28 VC1 d   1    -118.306 125.497  63.369  0.00  0.00     0.013 C 
ATOM     23  H18 VC1 d   1    -117.747 126.337  63.808  0.00  0.00     0.067 H 
ATOM     24  H19 VC1 d   1    -117.639 124.915  62.716  0.00  0.00     0.067 H 
ATOM     25  H20 VC1 d   1    -118.688 124.850  64.173  0.00  0.00     0.067 H 
ENDBRANCH  21  22
ENDBRANCH  19  21
ENDBRANCH  14  19
ENDBRANCH   4   7
ENDBRANCH   1   4
BRANCH   1  26
ATOM     26  C11 VC1 d   1    -118.842 129.603  61.386  0.00  0.00    -0.051 A 
ATOM     27  C12 VC1 d   1    -118.660 130.978  61.122  0.00  0.00    -0.048 A 
ATOM     28  C21 VC1 d   1    -118.088 131.767  62.162  0.00  0.00    -0.076 A 
ATOM     29  C22 VC1 d   1    -117.686 131.231  63.397  0.00  0.00    -0.082 A 
ATOM     30  H14 VC1 d   1    -117.957 132.830  61.992  0.00  0.00     0.084 H 
ATOM     31  C23 VC1 d   1    -117.859 129.867  63.634  0.00  0.00    -0.082 A 
ATOM     32  H15 VC1 d   1    -117.247 131.869  64.156  0.00  0.00     0.083 H 
ATOM     33  C24 VC1 d   1    -118.431 129.070  62.629  0.00  0.00    -0.076 A 
ATOM     34  H16 VC1 d   1    -117.557 129.429  64.579  0.00  0.00     0.083 H 
ATOM     35  H17 VC1 d   1    -118.562 128.010  62.813  0.00  0.00     0.084 H 
BRANCH  27  36
ATOM     36  C13 VC1 d   1    -119.078 131.669  59.778  0.00  0.00    -0.017 C 
ATOM     37  H8  VC1 d   1    -120.051 131.264  59.464  0.00  0.00     0.047 H 
ATOM     38  H9  VC1 d   1    -118.321 131.437  59.015  0.00  0.00     0.047 H 
BRANCH  36  39
ATOM     39  C14 VC1 d   1    -119.196 133.145  59.892  0.00  0.00    -0.054 A 
ATOM     40  C15 VC1 d   1    -118.056 133.949  59.836  0.00  0.00    -0.074 A 
ATOM     41  C16 VC1 d   1    -118.071 135.316  59.985  0.00  0.00    -0.045 A 
ATOM     42  H10 VC1 d   1    -117.101 133.466  59.665  0.00  0.00     0.084 H 
ATOM     43  C17 VC1 d   1    -119.307 135.939  60.222  0.00  0.00     0.116 A 
ATOM     44  H11 VC1 d   1    -117.157 135.895  59.922  0.00  0.00     0.088 H 
ATOM     45  F18 VC1 d   1    -119.354 137.204  60.363  0.00  0.00    -0.206 F 
ATOM     46  C19 VC1 d   1    -120.480 135.164  60.311  0.00  0.00    -0.045 A 
ATOM     47  C20 VC1 d   1    -120.401 133.797  60.153  0.00  0.00    -0.074 A 
ATOM     48  H12 VC1 d   1    -121.436 135.638  60.502  0.00  0.00     0.088 H 
ATOM     49  H13 VC1 d   1    -121.307 133.208  60.234  0.00  0.00     0.084 H 
ENDBRANCH  36  39
ENDBRANCH  27  36
ENDBRANCH   1  26
TORSDOF 10
