REMARK  10 active torsions:
REMARK  status: ('A' for Active; 'I' for Inactive)
REMARK    1  A    between atoms: O01_1  and  C02_2 
REMARK    2  A    between atoms: C04_4  and  O05_5 
REMARK    3  A    between atoms: C08_8  and  C09_9 
REMARK    4  A    between atoms: C09_9  and  C10_10 
REMARK    5  A    between atoms: C10_10  and  C11_11 
REMARK    6  A    between atoms: C12_12  and  C13_13 
REMARK    7  A    between atoms: C13_13  and  C14_14 
REMARK    8  A    between atoms: C24_24  and  C25_25 
REMARK    9  A    between atoms: C25_25  and  O26_26 
REMARK   10  A    between atoms: O26_26  and  C27_27 
ROOT
ATOM      1  C10 VC5 d   1    -119.014   3.424 100.741  0.00  0.00    -0.037 C 
ATOM      2  H6  VC5 d   1    -118.372   4.200 100.299  0.00  0.00     0.040 H 
ATOM      3  H7  VC5 d   1    -118.789   2.453 100.276  0.00  0.00     0.040 H 
ENDROOT
BRANCH   1   4
ATOM      4  C09 VC5 d   1    -120.464   3.776 100.332  0.00  0.00    -0.035 C 
ATOM      5  H4  VC5 d   1    -121.007   2.835 100.158  0.00  0.00     0.040 H 
ATOM      6  H5  VC5 d   1    -120.931   4.320 101.166  0.00  0.00     0.040 H 
BRANCH   4   7
ATOM      7  C08 VC5 d   1    -120.590   4.631  99.082  0.00  0.00    -0.014 A 
ATOM      8  C06 VC5 d   1    -120.945   5.963  99.211  0.00  0.00     0.074 A 
ATOM      9  C04 VC5 d   1    -121.075   6.843  98.138  0.00  0.00     0.090 A 
ATOM     10 CL7  VC5 d   1    -121.255   6.620 100.750  0.00  0.00    -0.081 Cl
ATOM     11  C03 VC5 d   1    -120.840   6.378  96.854  0.00  0.00    -0.016 A 
ATOM     12  C02 VC5 d   1    -120.477   5.041  96.678  0.00  0.00     0.085 A 
ATOM     13  H2  VC5 d   1    -120.936   7.040  96.001  0.00  0.00     0.092 H 
ATOM     14  C24 VC5 d   1    -120.348   4.164  97.787  0.00  0.00     0.080 A 
BRANCH   9  15
ATOM     15  O05 VC5 d   1    -121.428   8.120  98.328  0.00  0.00    -0.359 OA
ATOM     16  H3  VC5 d   1    -121.551   8.278  99.257  0.00  0.00     0.217 HD
ENDBRANCH   9  15
BRANCH  12  17
ATOM     17  O01 VC5 d   1    -120.251   4.583  95.451  0.00  0.00    -0.360 OA
ATOM     18  H1  VC5 d   1    -120.016   3.664  95.496  0.00  0.00     0.217 HD
ENDBRANCH  12  17
BRANCH  14  19
ATOM     19  C25 VC5 d   1    -119.940   2.748  97.399  0.00  0.00     0.296 C 
ATOM     20  O28 VC5 d   1    -120.592   2.031  96.742  0.00  0.00    -0.259 OA
BRANCH  19  21
ATOM     21  O26 VC5 d   1    -118.657   2.334  97.872  0.00  0.00    -0.322 OA
BRANCH  21  22
ATOM     22  C27 VC5 d   1    -118.293   0.981  97.627  0.00  0.00     0.013 C 
ATOM     23  H19 VC5 d   1    -117.290   0.791  98.038  0.00  0.00     0.067 H 
ATOM     24  H20 VC5 d   1    -118.287   0.793  96.543  0.00  0.00     0.067 H 
ATOM     25  H21 VC5 d   1    -119.020   0.312  98.111  0.00  0.00     0.067 H 
ENDBRANCH  21  22
ENDBRANCH  19  21
ENDBRANCH  14  19
ENDBRANCH   4   7
ENDBRANCH   1   4
BRANCH   1  26
ATOM     26  C11 VC5 d   1    -118.596   3.305 102.203  0.00  0.00    -0.051 A 
ATOM     27  C12 VC5 d   1    -117.498   2.479 102.619  0.00  0.00    -0.048 A 
ATOM     28  C20 VC5 d   1    -117.199   2.437 104.000  0.00  0.00    -0.076 A 
ATOM     29  C21 VC5 d   1    -117.900   3.185 104.952  0.00  0.00    -0.082 A 
ATOM     30  H15 VC5 d   1    -116.391   1.797 104.336  0.00  0.00     0.084 H 
ATOM     31  C22 VC5 d   1    -118.950   4.003 104.538  0.00  0.00    -0.082 A 
ATOM     32  H16 VC5 d   1    -117.629   3.129 106.000  0.00  0.00     0.083 H 
ATOM     33  C23 VC5 d   1    -119.282   4.055 103.176  0.00  0.00    -0.076 A 
ATOM     34  H17 VC5 d   1    -119.504   4.592 105.260  0.00  0.00     0.083 H 
ATOM     35  H18 VC5 d   1    -120.097   4.697 102.862  0.00  0.00     0.084 H 
BRANCH  27  36
ATOM     36  C13 VC5 d   1    -116.668   1.586 101.638  0.00  0.00    -0.017 C 
ATOM     37  H8  VC5 d   1    -117.403   0.991 101.075  0.00  0.00     0.047 H 
ATOM     38  H9  VC5 d   1    -116.065   0.920 102.272  0.00  0.00     0.047 H 
BRANCH  36  39
ATOM     39  C14 VC5 d   1    -115.679   2.177 100.568  0.00  0.00    -0.054 A 
ATOM     40  C15 VC5 d   1    -116.012   3.116  99.561  0.00  0.00    -0.077 A 
ATOM     41  C16 VC5 d   1    -115.083   3.580  98.623  0.00  0.00    -0.082 A 
ATOM     42  H10 VC5 d   1    -117.028   3.490  99.515  0.00  0.00     0.084 H 
ATOM     43  C17 VC5 d   1    -113.777   3.112  98.641  0.00  0.00    -0.083 A 
ATOM     44  H11 VC5 d   1    -115.385   4.308  97.879  0.00  0.00     0.083 H 
ATOM     45  C18 VC5 d   1    -113.420   2.182  99.608  0.00  0.00    -0.082 A 
ATOM     46  H12 VC5 d   1    -113.052   3.465  97.916  0.00  0.00     0.083 H 
ATOM     47  C19 VC5 d   1    -114.354   1.726 100.535  0.00  0.00    -0.077 A 
ATOM     48  H13 VC5 d   1    -112.404   1.807  99.642  0.00  0.00     0.083 H 
ATOM     49  H14 VC5 d   1    -114.041   0.988 101.264  0.00  0.00     0.084 H 
ENDBRANCH  36  39
ENDBRANCH  27  36
ENDBRANCH   1  26
TORSDOF 10
