REMARK  8 active torsions:
REMARK  status: ('A' for Active; 'I' for Inactive)
REMARK    1  A    between atoms: C1_1  and  O1'_12 
REMARK    2  A    between atoms: C2_2  and  O2_3 
REMARK    3  A    between atoms: C3_4  and  O3_5 
REMARK    4  A    between atoms: C4_6  and  O4_7 
REMARK    5  A    between atoms: C5_8  and  C6_9 
REMARK    6  A    between atoms: C6_9  and  O6_10 
REMARK    7  A    between atoms: O1'_12  and  C1'_13 
REMARK    8  A    between atoms: C2'_14  and  N1'_19 
ROOT
ATOM      1  C1  MOL d   1      32.690 -35.819  12.169  0.00  0.00     0.164 C 
ATOM      2  C2  MOL d   1      32.040 -34.478  11.990  0.00  0.00     0.110 C 
ATOM      3  C3  MOL d   1      31.904 -34.216  10.552  0.00  0.00     0.092 C 
ATOM      4  C4  MOL d   1      33.231 -34.233   9.879  0.00  0.00     0.090 C 
ATOM      5  C5  MOL d   1      33.875 -35.567  10.137  0.00  0.00     0.089 C 
ATOM      6  O5  MOL d   1      33.939 -35.810  11.525  0.00  0.00    -0.348 OA
ATOM      7  H1  MOL d   1      32.090 -36.630  11.731  0.00  0.00     0.134 H 
ATOM      8  H2  MOL d   1      32.577 -33.669  12.507  0.00  0.00     0.094 H 
ATOM      9  H4  MOL d   1      31.293 -35.011  10.101  0.00  0.00     0.091 H 
ATOM     10  H6  MOL d   1      33.122 -34.051   8.800  0.00  0.00     0.091 H 
ATOM     11  H8  MOL d   1      33.272 -36.352   9.658  0.00  0.00     0.090 H 
ENDROOT
BRANCH   1  12
ATOM     12  O1' MOL d   1      32.640 -35.893  13.549  0.00  0.00    -0.315 OA
BRANCH  12  13
ATOM     13  C1' MOL d   1      33.394 -36.730  14.353  0.00  0.00     0.105 A 
ATOM     14  C2' MOL d   1      33.841 -36.213  15.564  0.00  0.00     0.136 A 
ATOM     15  C3' MOL d   1      34.572 -36.984  16.400  0.00  0.00    -0.048 A 
ATOM     16  C4' MOL d   1      34.811 -38.286  16.044  0.00  0.00    -0.080 A 
ATOM     17  H12 MOL d   1      34.960 -36.582  17.329  0.00  0.00     0.087 H 
ATOM     18  C5' MOL d   1      34.341 -38.797  14.866  0.00  0.00    -0.080 A 
ATOM     19  H13 MOL d   1      35.383 -38.923  16.709  0.00  0.00     0.083 H 
ATOM     20  C6' MOL d   1      33.612 -38.023  14.013  0.00  0.00    -0.048 A 
ATOM     21  H14 MOL d   1      34.550 -39.829  14.608  0.00  0.00     0.083 H 
ATOM     22  H15 MOL d   1      33.218 -38.431  13.089  0.00  0.00     0.087 H 
BRANCH  14  23
ATOM     23  N1' MOL d   1      33.629 -34.867  15.919  0.00  0.00    -0.113 N 
ATOM     24  O2' MOL d   1      33.351 -33.930  14.999  0.00  0.00    -0.532 OA
ATOM     25  O3' MOL d   1      33.742 -34.480  17.040  0.00  0.00    -0.532 OA
ENDBRANCH  14  23
ENDBRANCH  12  13
ENDBRANCH   1  12
BRANCH   2  26
ATOM     26  O2  MOL d   1      30.778 -34.692  12.486  0.00  0.00    -0.388 OA
ATOM     27  H3  MOL d   1      30.837 -34.955  13.397  0.00  0.00     0.210 HD
ENDBRANCH   2  26
BRANCH   3  28
ATOM     28  O3  MOL d   1      31.223 -33.014  10.420  0.00  0.00    -0.390 OA
ATOM     29  H5  MOL d   1      31.116 -32.811   9.498  0.00  0.00     0.210 HD
ENDBRANCH   3  28
BRANCH   5  30
ATOM     30  C6  MOL d   1      35.273 -35.607   9.576  0.00  0.00     0.043 C 
ATOM     31  H9  MOL d   1      35.368 -34.813   8.820  0.00  0.00     0.078 H 
ATOM     32  H10 MOL d   1      35.430 -36.587   9.101  0.00  0.00     0.078 H 
BRANCH  30  33
ATOM     33  O6  MOL d   1      36.248 -35.423  10.525  0.00  0.00    -0.398 OA
ATOM     34  H11 MOL d   1      36.184 -36.108  11.180  0.00  0.00     0.209 HD
ENDBRANCH  30  33
ENDBRANCH   5  30
BRANCH   4  35
ATOM     35  O4  MOL d   1      34.031 -33.275  10.461  0.00  0.00    -0.390 OA
ATOM     36  H7  MOL d   1      34.882 -33.276  10.039  0.00  0.00     0.210 HD
ENDBRANCH   4  35
TORSDOF 8
