REMARK  4 active torsions:
REMARK  status: ('A' for Active; 'I' for Inactive)
REMARK    1  A    between atoms: N7_13  and  C6_3 
REMARK    2  A    between atoms: C8_4  and  N7_13 
REMARK    3  A    between atoms: C13_9  and  C14_10 
REMARK    4  A    between atoms: C1_14  and  C17_15 
ROOT
ATOM      1  N7  TLF d   1     -17.865  49.808 -12.839  0.00  0.00    -0.355 N 
ATOM      2  H7  TLF d   1     -17.133  49.504 -13.497  0.00  0.00     0.166 HD
ENDROOT
BRANCH   1   3
ATOM      3  C6  TLF d   1     -17.935  49.092 -11.682  0.00  0.00     0.040 A 
ATOM      4  C5  TLF d   1     -18.357  49.642 -10.453  0.00  0.00    -0.057 A 
ATOM      5  C4  TLF d   1     -18.538  48.831  -9.325  0.00  0.00    -0.079 A 
ATOM      6  H2  TLF d   1     -18.544  50.707 -10.381  0.00  0.00     0.086 H 
ATOM      7  C3  TLF d   1     -18.310  47.477  -9.355  0.00  0.00    -0.061 A 
ATOM      8  H1  TLF d   1     -18.869  49.287  -8.399  0.00  0.00     0.083 H 
ATOM      9  C2  TLF d   1     -17.884  46.861 -10.522  0.00  0.00     0.042 A 
ATOM     10  H11 TLF d   1     -18.464  46.886  -8.460  0.00  0.00     0.086 H 
ATOM     11  C1  TLF d   1     -17.683  47.655 -11.749  0.00  0.00    -0.014 A 
ATOM     12 CL   TLF d   1     -17.564  45.128 -10.588  0.00  0.00    -0.084 Cl
BRANCH  11  13
ATOM     13  C17 TLF d   1     -17.204  46.914 -12.994  0.00  0.00    -0.048 C 
ATOM     14  H8  TLF d   1     -17.098  47.626 -13.826  0.00  0.00     0.033 H 
ATOM     15  H9  TLF d   1     -17.937  46.140 -13.264  0.00  0.00     0.033 H 
ATOM     16  H10 TLF d   1     -16.231  46.443 -12.789  0.00  0.00     0.033 H 
ENDBRANCH  11  13
ENDBRANCH   1   3
BRANCH   1  17
ATOM     17  C8  TLF d   1     -18.607  50.854 -13.255  0.00  0.00     0.049 A 
ATOM     18  C9  TLF d   1     -19.723  51.419 -12.600  0.00  0.00    -0.056 A 
ATOM     19  C10 TLF d   1     -20.354  52.542 -13.077  0.00  0.00    -0.081 A 
ATOM     20  H3  TLF d   1     -20.093  50.953 -11.694  0.00  0.00     0.086 H 
ATOM     21  C11 TLF d   1     -19.950  53.135 -14.258  0.00  0.00    -0.082 A 
ATOM     22  H4  TLF d   1     -21.180  52.969 -12.520  0.00  0.00     0.083 H 
ATOM     23  C12 TLF d   1     -18.881  52.602 -14.980  0.00  0.00    -0.064 A 
ATOM     24  H5  TLF d   1     -20.464  54.016 -14.624  0.00  0.00     0.083 H 
ATOM     25  C13 TLF d   1     -18.185  51.488 -14.534  0.00  0.00     0.067 A 
ATOM     26  H6  TLF d   1     -18.587  53.070 -15.912  0.00  0.00     0.085 H 
BRANCH  25  27
ATOM     27  C14 TLF d   1     -16.997  50.964 -15.328  0.00  0.00     0.211 C 
ATOM     28  O16 TLF d   1     -16.401  49.948 -14.980  0.00  0.00    -0.644 OA
ATOM     29  O15 TLF d   1     -16.619  51.676 -16.385  0.00  0.00    -0.644 OA
ENDBRANCH  25  27
ENDBRANCH   1  17
TORSDOF 4
