REMARK  5 active torsions:
REMARK  status: ('A' for Active; 'I' for Inactive)
REMARK    1  A    between atoms: N_16  and  C2_2 
REMARK    2  A    between atoms: C13_8  and  N1_10 
REMARK    3  A    between atoms: C1_12  and  C_13 
REMARK    4  A    between atoms: C3_17  and  N_16 
REMARK    5  A    between atoms: C8_18  and  C9_19 
ROOT
ATOM      1  C2  BNY d   1     -13.646 -39.929 -32.145  0.00  0.00     0.041 A 
ATOM      2  C11 BNY d   1     -14.307 -37.843 -33.210  0.00  0.00    -0.078 A 
ATOM      3  C13 BNY d   1     -13.526 -37.833 -30.914  0.00  0.00     0.111 A 
ATOM      4  C1  BNY d   1     -13.373 -39.227 -30.945  0.00  0.00    -0.002 A 
ATOM      5  C12 BNY d   1     -14.000 -37.157 -32.035  0.00  0.00    -0.050 A 
ATOM      6  C10 BNY d   1     -14.136 -39.225 -33.244  0.00  0.00    -0.057 A 
ATOM      7  H5  BNY d   1     -14.672 -37.310 -34.081  0.00  0.00     0.083 H 
ATOM      8  H9  BNY d   1     -14.132 -36.082 -31.994  0.00  0.00     0.087 H 
ATOM      9  H10 BNY d   1     -14.390 -39.767 -34.148  0.00  0.00     0.086 H 
ENDROOT
BRANCH   1  10
ATOM     10  N   BNY d   1     -13.567 -41.290 -32.103  0.00  0.00    -0.355 N 
ATOM     11  H11 BNY d   1     -12.808 -41.653 -31.509  0.00  0.00     0.166 HD
BRANCH  10  12
ATOM     12  C3  BNY d   1     -14.307 -42.244 -32.702  0.00  0.00     0.049 A 
ATOM     13  C4  BNY d   1     -15.461 -41.964 -33.462  0.00  0.00    -0.056 A 
ATOM     14  C5  BNY d   1     -16.094 -42.974 -34.114  0.00  0.00    -0.081 A 
ATOM     15  H1  BNY d   1     -15.840 -40.950 -33.526  0.00  0.00     0.086 H 
ATOM     16  C6  BNY d   1     -15.727 -44.285 -33.979  0.00  0.00    -0.082 A 
ATOM     17  H2  BNY d   1     -16.924 -42.731 -34.768  0.00  0.00     0.083 H 
ATOM     18  C7  BNY d   1     -14.604 -44.585 -33.199  0.00  0.00    -0.064 A 
ATOM     19  H3  BNY d   1     -16.292 -45.072 -34.464  0.00  0.00     0.083 H 
ATOM     20  C8  BNY d   1     -13.892 -43.583 -32.560  0.00  0.00     0.067 A 
ATOM     21  H4  BNY d   1     -14.287 -45.616 -33.093  0.00  0.00     0.085 H 
BRANCH  20  22
ATOM     22  C9  BNY d   1     -12.711 -44.052 -31.717  0.00  0.00     0.211 C 
ATOM     23  O1  BNY d   1     -12.423 -45.336 -31.655  0.00  0.00    -0.644 OA
ATOM     24  O   BNY d   1     -12.082 -43.187 -31.126  0.00  0.00    -0.644 OA
ENDBRANCH  20  22
ENDBRANCH  10  12
ENDBRANCH   1  10
BRANCH   4  25
ATOM     25  C   BNY d   1     -12.855 -40.051 -29.764  0.00  0.00    -0.047 C 
ATOM     26  H6  BNY d   1     -12.829 -41.115 -30.043  0.00  0.00     0.033 H 
ATOM     27  H7  BNY d   1     -13.523 -39.914 -28.901  0.00  0.00     0.033 H 
ATOM     28  H8  BNY d   1     -11.841 -39.716 -29.500  0.00  0.00     0.033 H 
ENDBRANCH   4  25
BRANCH   3  29
ATOM     29  N1  BNY d   1     -13.239 -37.026 -29.781  0.00  0.00    -0.115 N 
ATOM     30  O3  BNY d   1     -12.235 -37.351 -28.890  0.00  0.00    -0.532 OA
ATOM     31  O2  BNY d   1     -13.915 -35.846 -29.548  0.00  0.00    -0.532 OA
ENDBRANCH   3  29
TORSDOF 5
