REMARK  5 active torsions:
REMARK  status: ('A' for Active; 'I' for Inactive)
REMARK    1  A    between atoms: N_16  and  C2_2 
REMARK    2  A    between atoms: C13_8  and  N1_10 
REMARK    3  A    between atoms: C1_12  and  C_13 
REMARK    4  A    between atoms: C3_17  and  N_16 
REMARK    5  A    between atoms: C8_18  and  C9_19 
ROOT
ATOM      1  C2  BNY d   1     -30.064  14.741 -18.796  0.00  0.00     0.041 A 
ATOM      2  C11 BNY d   1     -31.780  13.712 -17.463  0.00  0.00    -0.078 A 
ATOM      3  C13 BNY d   1     -32.284  14.777 -19.609  0.00  0.00     0.111 A 
ATOM      4  C1  BNY d   1     -30.981  15.128 -19.742  0.00  0.00    -0.002 A 
ATOM      5  C12 BNY d   1     -32.668  14.086 -18.467  0.00  0.00    -0.050 A 
ATOM      6  C10 BNY d   1     -30.449  14.017 -17.690  0.00  0.00    -0.057 A 
ATOM      7  H5  BNY d   1     -32.110  13.213 -16.559  0.00  0.00     0.083 H 
ATOM      8  H9  BNY d   1     -33.714  13.825 -18.352  0.00  0.00     0.087 H 
ATOM      9  H10 BNY d   1     -29.697  13.680 -16.985  0.00  0.00     0.086 H 
ENDROOT
BRANCH   1  10
ATOM     10  N   BNY d   1     -28.765  15.094 -18.986  0.00  0.00    -0.355 N 
ATOM     11  H11 BNY d   1     -28.479  15.108 -19.976  0.00  0.00     0.166 HD
BRANCH  10  12
ATOM     12  C3  BNY d   1     -27.768  15.433 -18.123  0.00  0.00     0.049 A 
ATOM     13  C4  BNY d   1     -28.043  15.765 -16.807  0.00  0.00    -0.056 A 
ATOM     14  C5  BNY d   1     -27.014  16.051 -15.945  0.00  0.00    -0.081 A 
ATOM     15  H1  BNY d   1     -29.069  15.799 -16.458  0.00  0.00     0.086 H 
ATOM     16  C6  BNY d   1     -25.710  16.057 -16.396  0.00  0.00    -0.082 A 
ATOM     17  H2  BNY d   1     -27.227  16.273 -14.905  0.00  0.00     0.083 H 
ATOM     18  C7  BNY d   1     -25.441  15.805 -17.716  0.00  0.00    -0.064 A 
ATOM     19  H3  BNY d   1     -24.899  16.261 -15.707  0.00  0.00     0.083 H 
ATOM     20  C8  BNY d   1     -26.457  15.468 -18.602  0.00  0.00     0.067 A 
ATOM     21  H4  BNY d   1     -24.420  15.870 -18.074  0.00  0.00     0.085 H 
BRANCH  20  22
ATOM     22  C9  BNY d   1     -26.087  15.108 -19.982  0.00  0.00     0.211 C 
ATOM     23  O1  BNY d   1     -26.928  14.903 -20.848  0.00  0.00    -0.644 OA
ATOM     24  O   BNY d   1     -24.828  14.908 -20.251  0.00  0.00    -0.644 OA
ENDBRANCH  20  22
ENDBRANCH  10  12
ENDBRANCH   1  10
BRANCH   4  25
ATOM     25  C   BNY d   1     -30.456  15.880 -20.948  0.00  0.00    -0.047 C 
ATOM     26  H6  BNY d   1     -29.376  16.051 -20.832  0.00  0.00     0.033 H 
ATOM     27  H7  BNY d   1     -30.973  16.847 -21.031  0.00  0.00     0.033 H 
ATOM     28  H8  BNY d   1     -30.638  15.288 -21.857  0.00  0.00     0.033 H 
ENDBRANCH   4  25
BRANCH   3  29
ATOM     29  N1  BNY d   1     -33.233  15.129 -20.613  0.00  0.00    -0.115 N 
ATOM     30  O3  BNY d   1     -34.515  15.506 -20.378  0.00  0.00    -0.532 OA
ATOM     31  O2  BNY d   1     -32.884  14.893 -21.929  0.00  0.00    -0.532 OA
ENDBRANCH   3  29
TORSDOF 5
