REMARK WARNING: 32 MAX_TORS EXCEEDED!!!
REMARK  35 active torsions:
REMARK  status: ('A' for Active; 'I' for Inactive)
REMARK    1  A    between atoms: CA_64  and  CB_65 
REMARK    2  A    between atoms: C_68  and  CA_64 
REMARK    3  A    between atoms: CB_65  and  CG1_66 
REMARK    4  A    between atoms: CB_65  and  CG2_67 
REMARK       I    between atoms: N_70  and  C_68 
REMARK    5  A    between atoms: CA_71  and  N_70 
REMARK    6  A    between atoms: CA_71  and  CB_74 
REMARK    7  A    between atoms: C_72  and  CA_71 
REMARK       I    between atoms: N_77  and  C_72 
REMARK    8  A    between atoms: CB_74  and  CG2_76 
REMARK    9  A    between atoms: CB_74  and  CG1_75 
REMARK   10  A    between atoms: CA_78  and  N_77 
REMARK   11  A    between atoms: CA_78  and  CB_81 
REMARK   12  A    between atoms: C_79  and  CA_78 
REMARK       I    between atoms: N_84  and  C_79 
REMARK   13  A    between atoms: CB_81  and  CG2_83 
REMARK   14  A    between atoms: CB_81  and  CG1_82 
REMARK   15  A    between atoms: CA_85  and  N_84 
REMARK   16  A    between atoms: CA_85  and  CB_86 
REMARK   17  A    between atoms: CH_90  and  CA_85 
REMARK   18  A    between atoms: CB_86  and  CG_87 
REMARK   19  A    between atoms: CG_87  and  CD1_88 
REMARK   20  A    between atoms: CG_87  and  CD2_89 
REMARK   21  A    between atoms: CH_90  and  OH_91 
REMARK   22  A    between atoms: CM_92  and  CH_90 
REMARK   23  A    between atoms: C_93  and  CM_92 
REMARK       I    between atoms: N_95  and  C_93 
REMARK   24  A    between atoms: CA_96  and  N_95 
REMARK   25  A    between atoms: CA_96  and  CB_99 
REMARK   26  A    between atoms: C_97  and  CA_96 
REMARK       I    between atoms: N_100  and  C_97 
REMARK   27  A    between atoms: CA_101  and  N_100 
REMARK   28  A    between atoms: CA_101  and  CB_102 
REMARK   29  A    between atoms: CH_106  and  CA_101 
REMARK   30  A    between atoms: CB_102  and  CG_103 
REMARK   31  A    between atoms: CG_103  and  CD1_104 
REMARK   32  A    between atoms: CG_103  and  CD2_105 
REMARK   33  A    between atoms: CH_106  and  OH_107 
REMARK   34  A    between atoms: CM_108  and  CH_106 
REMARK   35  A    between atoms: CM_108  and  C_109 
ROOT
ATOM      1  H29 STA d   1      44.673  63.885 103.873  0.00  0.00     0.076 H 
ATOM      2  CA  STA d   1      43.732  63.482 103.471  0.00  0.00     0.037 C 
ENDROOT
BRANCH   2   3
ATOM      3  N   STA d   1      43.111  64.503 102.626  0.00  0.00    -0.352 N 
ATOM      4  H28 STA d   1      42.202  64.285 102.271  0.00  0.00     0.163 HD
ATOM      5  C   VAL d   1      43.601  65.668 102.277  0.00  0.00     0.241 C 
ATOM      6  O   VAL d   1      44.698  66.127 102.580  0.00  0.00    -0.271 OA
BRANCH   5   7
ATOM      7  CA  VAL d   1      42.616  66.433 101.401  0.00  0.00     0.092 C 
ATOM      8  H20 VAL d   1      41.868  65.690 101.087  0.00  0.00     0.088 H 
BRANCH   7   9
ATOM      9  N   VAL d   1      41.899  67.366 102.323  0.00  0.00    -0.346 N 
ATOM     10  H19 VAL d   1      42.363  67.738 103.127  0.00  0.00     0.163 HD
ATOM     11  C   VAL d   1      40.650  67.693 102.064  0.00  0.00     0.241 C 
ATOM     12  O   VAL d   1      40.014  67.351 101.041  0.00  0.00    -0.271 OA
BRANCH  11  13
ATOM     13  CA  VAL d   1      39.969  68.648 103.043  0.00  0.00     0.092 C 
ATOM     14  H11 VAL d   1      40.750  69.224 103.561  0.00  0.00     0.088 H 
BRANCH  13  15
ATOM     15  N   VAL d   1      39.207  69.525 102.103  0.00  0.00    -0.347 N 
ATOM     16  H10 VAL d   1      38.475  69.120 101.555  0.00  0.00     0.163 HD
ATOM     17  C   IVA d   1      39.462  70.818 101.967  0.00  0.00     0.218 C 
ATOM     18  O   IVA d   1      40.359  71.393 102.639  0.00  0.00    -0.274 OA
BRANCH  17  19
ATOM     19  CA  IVA d   1      38.645  71.504 100.917  0.00  0.00     0.012 C 
ATOM     20  H1  IVA d   1      39.276  72.353 100.617  0.00  0.00     0.047 H 
ATOM     21  H2  IVA d   1      38.608  70.768 100.101  0.00  0.00     0.047 H 
BRANCH  19  22
ATOM     22  CB  IVA d   1      37.265  72.083 100.925  0.00  0.00    -0.053 C 
ATOM     23  H3  IVA d   1      36.566  71.237 100.996  0.00  0.00     0.039 H 
BRANCH  22  24
ATOM     24  CG1 IVA d   1      37.018  72.810  99.587  0.00  0.00    -0.073 C 
ATOM     25  H4  IVA d   1      36.005  73.239  99.584  0.00  0.00     0.028 H 
ATOM     26  H5  IVA d   1      37.115  72.094  98.757  0.00  0.00     0.028 H 
ATOM     27  H6  IVA d   1      37.758  73.615  99.465  0.00  0.00     0.028 H 
ENDBRANCH  22  24
BRANCH  22  28
ATOM     28  CG2 IVA d   1      36.924  73.031 102.057  0.00  0.00    -0.073 C 
ATOM     29  H7  IVA d   1      37.095  72.528 103.020  0.00  0.00     0.028 H 
ATOM     30  H8  IVA d   1      35.868  73.328 101.981  0.00  0.00     0.028 H 
ATOM     31  H9  IVA d   1      37.562  73.925 101.992  0.00  0.00     0.028 H 
ENDBRANCH  22  28
ENDBRANCH  19  22
ENDBRANCH  17  19
ENDBRANCH  13  15
BRANCH  13  32
ATOM     32  CB  VAL d   1      39.031  68.118 104.120  0.00  0.00    -0.033 C 
ATOM     33  H12 VAL d   1      38.076  68.642 103.971  0.00  0.00     0.042 H 
BRANCH  32  34
ATOM     34  CG2 VAL d   1      39.541  68.506 105.501  0.00  0.00    -0.071 C 
ATOM     35  H16 VAL d   1      39.773  69.581 105.517  0.00  0.00     0.028 H 
ATOM     36  H17 VAL d   1      40.450  67.931 105.731  0.00  0.00     0.028 H 
ATOM     37  H18 VAL d   1      38.768  68.286 106.252  0.00  0.00     0.028 H 
ENDBRANCH  32  34
BRANCH  32  38
ATOM     38  CG1 VAL d   1      38.702  66.641 104.064  0.00  0.00    -0.071 C 
ATOM     39  H13 VAL d   1      38.021  66.385 104.889  0.00  0.00     0.028 H 
ATOM     40  H14 VAL d   1      39.628  66.055 104.158  0.00  0.00     0.028 H 
ATOM     41  H15 VAL d   1      38.218  66.409 103.104  0.00  0.00     0.028 H 
ENDBRANCH  32  38
ENDBRANCH  13  32
ENDBRANCH  11  13
ENDBRANCH   7   9
BRANCH   7  42
ATOM     42  CB  VAL d   1      43.107  67.017 100.075  0.00  0.00    -0.033 C 
ATOM     43  H21 VAL d   1      42.336  66.719  99.350  0.00  0.00     0.042 H 
BRANCH  42  44
ATOM     44  CG2 VAL d   1      44.410  66.424  99.560  0.00  0.00    -0.071 C 
ATOM     45  H25 VAL d   1      44.367  65.327  99.630  0.00  0.00     0.028 H 
ATOM     46  H26 VAL d   1      45.248  66.797 100.167  0.00  0.00     0.028 H 
ATOM     47  H27 VAL d   1      44.558  66.719  98.511  0.00  0.00     0.028 H 
ENDBRANCH  42  44
BRANCH  42  48
ATOM     48  CG1 VAL d   1      43.193  68.528  99.968  0.00  0.00    -0.071 C 
ATOM     49  H22 VAL d   1      43.558  68.805  98.968  0.00  0.00     0.028 H 
ATOM     50  H23 VAL d   1      43.887  68.911 100.731  0.00  0.00     0.028 H 
ATOM     51  H24 VAL d   1      42.196  68.964 100.128  0.00  0.00     0.028 H 
ENDBRANCH  42  48
ENDBRANCH   7  42
ENDBRANCH   5   7
ENDBRANCH   2   3
BRANCH   2  52
ATOM     52  CB  STA d   1      42.799  63.223 104.648  0.00  0.00    -0.041 C 
ATOM     53  H30 STA d   1      43.354  62.659 105.412  0.00  0.00     0.036 H 
ATOM     54  H31 STA d   1      41.950  62.621 104.291  0.00  0.00     0.036 H 
BRANCH  52  55
ATOM     55  CG  STA d   1      42.243  64.509 105.300  0.00  0.00    -0.059 C 
ATOM     56  H32 STA d   1      41.867  65.177 104.511  0.00  0.00     0.038 H 
BRANCH  55  57
ATOM     57  CD1 STA d   1      41.076  64.133 106.245  0.00  0.00    -0.073 C 
ATOM     58  H33 STA d   1      40.675  65.044 106.713  0.00  0.00     0.028 H 
ATOM     59  H34 STA d   1      41.442  63.450 107.026  0.00  0.00     0.028 H 
ATOM     60  H35 STA d   1      40.282  63.637 105.668  0.00  0.00     0.028 H 
ENDBRANCH  55  57
BRANCH  55  61
ATOM     61  CD2 STA d   1      43.349  65.242 106.085  0.00  0.00    -0.073 C 
ATOM     62  H36 STA d   1      44.171  65.503 105.403  0.00  0.00     0.028 H 
ATOM     63  H37 STA d   1      43.729  64.586 106.882  0.00  0.00     0.028 H 
ATOM     64  H38 STA d   1      42.936  66.159 106.530  0.00  0.00     0.028 H 
ENDBRANCH  55  61
ENDBRANCH  52  55
ENDBRANCH   2  52
BRANCH   2  65
ATOM     65  CH  STA d   1      44.090  62.232 102.641  0.00  0.00     0.063 C 
ATOM     66  H39 STA d   1      44.422  61.488 103.380  0.00  0.00     0.086 H 
BRANCH  65  67
ATOM     67  OH  STA d   1      42.905  61.710 102.037  0.00  0.00    -0.393 OA
ATOM     68  H40 STA d   1      43.124  60.940 101.526  0.00  0.00     0.210 HD
ENDBRANCH  65  67
BRANCH  65  69
ATOM     69  CM  STA d   1      45.209  62.300 101.640  0.00  0.00     0.035 C 
ATOM     70  H41 STA d   1      45.021  63.114 100.925  0.00  0.00     0.051 H 
ATOM     71  H42 STA d   1      45.283  61.346 101.098  0.00  0.00     0.051 H 
BRANCH  69  72
ATOM     72  C   STA d   1      46.514  62.568 102.403  0.00  0.00     0.220 C 
ATOM     73  O   STA d   1      46.806  63.731 102.566  0.00  0.00    -0.274 OA
ATOM     74  N   ALA d   1      47.190  61.493 102.775  0.00  0.00    -0.348 N 
ATOM     75  H43 ALA d   1      46.674  60.640 102.853  0.00  0.00     0.163 HD
BRANCH  74  76
ATOM     76  CA  ALA d   1      48.631  61.429 103.086  0.00  0.00     0.086 C 
ATOM     77  H44 ALA d   1      48.900  62.348 103.627  0.00  0.00     0.086 H 
BRANCH  76  78
ATOM     78  CB  ALA d   1      48.984  60.268 103.987  0.00  0.00    -0.049 C 
ATOM     79  H45 ALA d   1      50.066  60.272 104.183  0.00  0.00     0.030 H 
ATOM     80  H46 ALA d   1      48.704  59.324 103.496  0.00  0.00     0.030 H 
ATOM     81  H47 ALA d   1      48.439  60.363 104.938  0.00  0.00     0.030 H 
ENDBRANCH  76  78
BRANCH  76  82
ATOM     82  C   ALA d   1      49.408  61.418 101.770  0.00  0.00     0.240 C 
ATOM     83  N   STA d   1      49.457  62.624 101.234  0.00  0.00    -0.352 N 
ATOM     84  H48 STA d   1      49.003  63.364 101.730  0.00  0.00     0.163 HD
ATOM     85  O   ALA d   1      49.891  60.423 101.235  0.00  0.00    -0.271 OA
BRANCH  83  86
ATOM     86  CA  STA d   1      50.124  62.970  99.968  0.00  0.00     0.038 C 
ATOM     87  H49 STA d   1      50.329  62.050  99.401  0.00  0.00     0.076 H 
BRANCH  86  88
ATOM     88  CB  STA d   1      49.316  63.834  99.064  0.00  0.00    -0.041 C 
ATOM     89  H50 STA d   1      50.051  64.302  98.393  0.00  0.00     0.036 H 
ATOM     90  H51 STA d   1      48.881  64.600  99.723  0.00  0.00     0.036 H 
BRANCH  88  91
ATOM     91  CG  STA d   1      48.178  63.416  98.156  0.00  0.00    -0.059 C 
ATOM     92  H52 STA d   1      48.510  63.520  97.112  0.00  0.00     0.038 H 
BRANCH  91  93
ATOM     93  CD1 STA d   1      47.609  61.996  98.364  0.00  0.00    -0.073 C 
ATOM     94  H53 STA d   1      46.794  61.819  97.647  0.00  0.00     0.028 H 
ATOM     95  H54 STA d   1      47.222  61.903  99.389  0.00  0.00     0.028 H 
ATOM     96  H55 STA d   1      48.406  61.255  98.204  0.00  0.00     0.028 H 
ENDBRANCH  91  93
BRANCH  91  97
ATOM     97  CD2 STA d   1      46.969  64.363  98.455  0.00  0.00    -0.073 C 
ATOM     98  H56 STA d   1      47.284  65.410  98.331  0.00  0.00     0.028 H 
ATOM     99  H57 STA d   1      46.625  64.204  99.488  0.00  0.00     0.028 H 
ATOM    100  H58 STA d   1      46.148  64.141  97.757  0.00  0.00     0.028 H 
ENDBRANCH  91  97
ENDBRANCH  88  91
ENDBRANCH  86  88
BRANCH  86 101
ATOM    101  CH  STA d   1      51.478  63.532 100.510  0.00  0.00     0.064 C 
ATOM    102  H59 STA d   1      51.863  62.759 101.191  0.00  0.00     0.086 H 
BRANCH 101 103
ATOM    103  OH  STA d   1      52.374  63.550  99.398  0.00  0.00    -0.393 OA
ATOM    104  H60 STA d   1      53.217  63.886  99.678  0.00  0.00     0.210 HD
ENDBRANCH 101 103
BRANCH 101 105
ATOM    105  CM  STA d   1      51.445  64.773 101.370  0.00  0.00     0.041 C 
ATOM    106  H61 STA d   1      50.448  64.873 101.824  0.00  0.00     0.053 H 
ATOM    107  H62 STA d   1      51.653  65.653 100.744  0.00  0.00     0.053 H 
BRANCH 105 108
ATOM    108  C   STA d   1      52.489  64.684 102.470  0.00  0.00     0.175 C 
ATOM    109  O1  STA d   1      52.194  64.011 103.493  0.00  0.00    -0.648 OA
ATOM    110  O   STA d   1      53.589  65.210 102.445  0.00  0.00    -0.648 OA
ENDBRANCH 105 108
ENDBRANCH 101 105
ENDBRANCH  86 101
ENDBRANCH  83  86
ENDBRANCH  76  82
ENDBRANCH  74  76
ENDBRANCH  69  72
ENDBRANCH  65  69
ENDBRANCH   2  65
TORSDOF 35
