REMARK  11 active torsions:
REMARK  status: ('A' for Active; 'I' for Inactive)
REMARK    1  A    between atoms: PAZ_2  and  CAL_5 
REMARK    2  A    between atoms: CAL_5  and  OAR_6 
REMARK    3  A    between atoms: OAR_6  and  CAJ_7 
REMARK    4  A    between atoms: CAJ_7  and  CAX_8 
REMARK    5  A    between atoms: CAX_8  and  CAK_9 
REMARK    6  A    between atoms: CAX_8  and  CAN_16 
REMARK    7  A    between atoms: CAK_9  and  OAS_10 
REMARK    8  A    between atoms: OAS_10  and  CAM_11 
REMARK    9  A    between atoms: CAM_11  and  PBA_12 
REMARK   10  A    between atoms: CAN_16  and  N9_17 
REMARK   11  A    between atoms: C2_23  and  N2_24 
ROOT
ATOM      1  CAX SV2 d   1     126.651 -38.463  48.739  0.00  0.00     0.003 C 
ATOM      2  H5  SV2 d   1     126.864 -38.044  47.744  0.00  0.00     0.049 H 
ENDROOT
BRANCH   1   3
ATOM      3  CAJ SV2 d   1     127.795 -39.387  49.176  0.00  0.00     0.027 C 
ATOM      4  H3  SV2 d   1     127.729 -39.563  50.260  0.00  0.00     0.075 H 
ATOM      5  H4  SV2 d   1     127.715 -40.346  48.643  0.00  0.00     0.075 H 
BRANCH   3   6
ATOM      6  OAR SV2 d   1     129.011 -38.795  48.879  0.00  0.00    -0.377 OA
BRANCH   6   7
ATOM      7  CAL SV2 d   1     130.006 -39.221  49.800  0.00  0.00     0.122 C 
ATOM      8  H1  SV2 d   1     130.677 -38.380  50.027  0.00  0.00     0.095 H 
ATOM      9  H2  SV2 d   1     129.522 -39.564  50.726  0.00  0.00     0.095 H 
BRANCH   7  10
ATOM     10  PAZ SV2 d   1     130.990 -40.613  49.067  0.00  0.00     0.283 P 
ATOM     11  OAE SV2 d   1     131.941 -40.991  50.158  0.00  0.00    -0.638 OA
ATOM     12  OAF SV2 d   1     130.062 -41.800  48.707  0.00  0.00    -0.638 OA
ATOM     13  OAC SV2 d   1     131.825 -40.153  47.871  0.00  0.00    -0.638 OA
ENDBRANCH   7  10
ENDBRANCH   6   7
ENDBRANCH   3   6
ENDBRANCH   1   3
BRANCH   1  14
ATOM     14  CAK SV2 d   1     126.433 -37.372  49.737  0.00  0.00     0.027 C 
ATOM     15  H6  SV2 d   1     127.404 -37.046  50.138  0.00  0.00     0.075 H 
ATOM     16  H7  SV2 d   1     125.805 -37.749  50.558  0.00  0.00     0.075 H 
BRANCH  14  17
ATOM     17  OAS SV2 d   1     125.786 -36.270  49.120  0.00  0.00    -0.377 OA
BRANCH  17  18
ATOM     18  CAM SV2 d   1     125.984 -35.210  50.008  0.00  0.00     0.122 C 
ATOM     19  H8  SV2 d   1     127.066 -35.098  50.172  0.00  0.00     0.095 H 
ATOM     20  H9  SV2 d   1     125.493 -35.464  50.959  0.00  0.00     0.095 H 
BRANCH  18  21
ATOM     21  PBA SV2 d   1     125.308 -33.562  49.423  0.00  0.00     0.283 P 
ATOM     22  OAG SV2 d   1     125.723 -32.725  50.619  0.00  0.00    -0.638 OA
ATOM     23  OAH SV2 d   1     123.831 -33.522  49.138  0.00  0.00    -0.638 OA
ATOM     24  OAD SV2 d   1     125.888 -33.140  48.086  0.00  0.00    -0.638 OA
ENDBRANCH  18  21
ENDBRANCH  17  18
ENDBRANCH  14  17
ENDBRANCH   1  14
BRANCH   1  25
ATOM     25  CAN SV2 d   1     125.358 -39.261  48.735  0.00  0.00     0.009 C 
ATOM     26  H10 SV2 d   1     125.393 -39.933  47.865  0.00  0.00     0.065 H 
ATOM     27  H11 SV2 d   1     124.533 -38.544  48.612  0.00  0.00     0.065 H 
BRANCH  25  28
ATOM     28  N9  SV2 d   1     125.048 -40.080  49.901  0.00  0.00    -0.325 N 
ATOM     29  C8  SV2 d   1     125.508 -41.293  50.308  0.00  0.00     0.068 A 
ATOM     30  N7  SV2 d   1     124.849 -41.674  51.412  0.00  0.00    -0.234 NA
ATOM     31  H12 SV2 d   1     126.291 -41.867  49.814  0.00  0.00     0.143 H 
ATOM     32  C5  SV2 d   1     123.936 -40.731  51.682  0.00  0.00     0.171 A 
ATOM     33  C4  SV2 d   1     124.066 -39.746  50.707  0.00  0.00     0.159 A 
ATOM     34  C6  SV2 d   1     122.876 -40.565  52.731  0.00  0.00     0.292 A 
ATOM     35  N3  SV2 d   1     123.239 -38.568  50.649  0.00  0.00    -0.174 N 
ATOM     36  C2  SV2 d   1     122.245 -38.411  51.633  0.00  0.00     0.680 A 
ATOM     37  H13 SV2 d   1     123.371 -37.862  49.910  0.00  0.00     0.186 HD
ATOM     38  N1  SV2 d   1     122.071 -39.400  52.655  0.00  0.00    -0.154 N 
ATOM     39  H16 SV2 d   1     121.355 -39.264  53.340  0.00  0.00     0.187 HD
ATOM     40  O6  SV2 d   1     122.646 -41.392  53.584  0.00  0.00    -0.265 OA
BRANCH  36  41
ATOM     41  N2  SV2 d   1     121.395 -37.299  51.650  0.00  0.00    -0.234 N 
ATOM     42  H14 SV2 d   1     120.677 -37.211  52.383  0.00  0.00     0.174 HD
ATOM     43  H15 SV2 d   1     121.488 -36.569  50.930  0.00  0.00     0.174 HD
ENDBRANCH  36  41
ENDBRANCH  25  28
ENDBRANCH   1  25
TORSDOF 11
