REMARK  12 active torsions:
REMARK  status: ('A' for Active; 'I' for Inactive)
REMARK    1  A    between atoms: PBA_2  and  CAL_5 
REMARK    2  A    between atoms: CAL_5  and  CAJ_6 
REMARK    3  A    between atoms: CAJ_6  and  OAS_7 
REMARK    4  A    between atoms: OAS_7  and  CAN_8 
REMARK    5  A    between atoms: CAN_8  and  CAY_9 
REMARK    6  A    between atoms: CAY_9  and  OAT_10 
REMARK    7  A    between atoms: CAY_9  and  CAO_17 
REMARK    8  A    between atoms: OAT_10  and  CAK_11 
REMARK    9  A    between atoms: CAK_11  and  CAM_12 
REMARK   10  A    between atoms: CAM_12  and  PBB_13 
REMARK   11  A    between atoms: CAO_17  and  N9_18 
REMARK   12  A    between atoms: C2_21  and  N2_22 
ROOT
ATOM      1  CAY 45T d   1      28.488  15.839   2.592  0.00  0.00     0.074 C 
ATOM      2  H7  45T d   1      29.140  16.725   2.604  0.00  0.00     0.089 H 
ENDROOT
BRANCH   1   3
ATOM      3  CAN 45T d   1      29.361  14.592   2.697  0.00  0.00     0.045 C 
ATOM      4  H5  45T d   1      29.393  14.078   1.725  0.00  0.00     0.078 H 
ATOM      5  H6  45T d   1      30.381  14.876   2.996  0.00  0.00     0.078 H 
BRANCH   3   6
ATOM      6  OAS 45T d   1      28.803  13.746   3.662  0.00  0.00    -0.388 OA
BRANCH   6   7
ATOM      7  CAJ 45T d   1      28.591  12.418   3.248  0.00  0.00     0.031 C 
ATOM      8  H3  45T d   1      27.530  12.247   3.015  0.00  0.00     0.075 H 
ATOM      9  H4  45T d   1      29.203  12.182   2.365  0.00  0.00     0.075 H 
BRANCH   7  10
ATOM     10  CAL 45T d   1      29.020  11.587   4.436  0.00  0.00     0.059 C 
ATOM     11  H1  45T d   1      30.082  11.796   4.633  0.00  0.00     0.057 H 
ATOM     12  H2  45T d   1      28.418  11.896   5.303  0.00  0.00     0.057 H 
BRANCH  10  13
ATOM     13  PBA 45T d   1      28.826   9.764   4.224  0.00  0.00     0.261 P 
ATOM     14  OAE 45T d   1      29.950   9.188   3.386  0.00  0.00    -0.640 OA
ATOM     15  OAF 45T d   1      29.085   9.256   5.621  0.00  0.00    -0.640 OA
ATOM     16  OAC 45T d   1      27.476   9.411   3.684  0.00  0.00    -0.640 OA
ENDBRANCH  10  13
ENDBRANCH   7  10
ENDBRANCH   6   7
ENDBRANCH   3   6
ENDBRANCH   1   3
BRANCH   1  17
ATOM     17  OAT 45T d   1      27.816  15.796   1.372  0.00  0.00    -0.381 OA
BRANCH  17  18
ATOM     18  CAK 45T d   1      28.791  16.251   0.475  0.00  0.00     0.032 C 
ATOM     19  H8  45T d   1      29.487  15.432   0.241  0.00  0.00     0.075 H 
ATOM     20  H9  45T d   1      29.346  17.086   0.927  0.00  0.00     0.075 H 
BRANCH  18  21
ATOM     21  CAM 45T d   1      28.119  16.720  -0.793  0.00  0.00     0.059 C 
ATOM     22  H10 45T d   1      27.126  17.126  -0.551  0.00  0.00     0.057 H 
ATOM     23  H11 45T d   1      28.010  15.871  -1.484  0.00  0.00     0.057 H 
BRANCH  21  24
ATOM     24  PBB 45T d   1      29.143  18.039  -1.597  0.00  0.00     0.261 P 
ATOM     25  OAG 45T d   1      30.535  17.532  -1.965  0.00  0.00    -0.640 OA
ATOM     26  OAH 45T d   1      29.294  19.213  -0.658  0.00  0.00    -0.640 OA
ATOM     27  OAD 45T d   1      28.361  18.369  -2.840  0.00  0.00    -0.640 OA
ENDBRANCH  21  24
ENDBRANCH  18  21
ENDBRANCH  17  18
ENDBRANCH   1  17
BRANCH   1  28
ATOM     28  CAO 45T d   1      27.528  15.954   3.749  0.00  0.00     0.028 C 
ATOM     29  H12 45T d   1      28.125  16.175   4.646  0.00  0.00     0.069 H 
ATOM     30  H13 45T d   1      27.040  14.975   3.865  0.00  0.00     0.069 H 
BRANCH  28  31
ATOM     31  N9  45T d   1      26.474  16.953   3.678  0.00  0.00    -0.323 N 
ATOM     32  C4  45T d   1      25.406  16.719   4.392  0.00  0.00     0.159 A 
ATOM     33  N3  45T d   1      25.150  15.572   5.244  0.00  0.00    -0.174 N 
ATOM     34  C5  45T d   1      24.521  17.772   4.224  0.00  0.00     0.171 A 
ATOM     35  C2  45T d   1      23.897  15.539   5.951  0.00  0.00     0.680 A 
ATOM     36  H14 45T d   1      25.838  14.812   5.339  0.00  0.00     0.186 HD
ATOM     37  N1  45T d   1      22.946  16.601   5.801  0.00  0.00    -0.154 N 
ATOM     38  C6  45T d   1      23.198  17.721   4.954  0.00  0.00     0.292 A 
ATOM     39  H17 45T d   1      22.083  16.556   6.304  0.00  0.00     0.187 HD
ATOM     40  O6  45T d   1      22.372  18.582   4.889  0.00  0.00    -0.265 OA
ATOM     41  N7  45T d   1      25.100  18.616   3.359  0.00  0.00    -0.234 NA
ATOM     42  C8  45T d   1      26.301  18.108   3.043  0.00  0.00     0.068 A 
ATOM     43  H18 45T d   1      27.022  18.570   2.371  0.00  0.00     0.143 H 
BRANCH  35  44
ATOM     44  N2  45T d   1      23.543  14.492   6.825  0.00  0.00    -0.234 N 
ATOM     45  H15 45T d   1      22.634  14.511   7.310  0.00  0.00     0.174 HD
ATOM     46  H16 45T d   1      24.193  13.708   6.979  0.00  0.00     0.174 HD
ENDBRANCH  35  44
ENDBRANCH  28  31
ENDBRANCH   1  28
TORSDOF 12
