REMARK  9 active torsions:
REMARK  status: ('A' for Active; 'I' for Inactive)
REMARK    1  A    between atoms: CAI_3  and  CAJ_4 
REMARK    2  A    between atoms: CAJ_4  and  NAV_5 
REMARK    3  A    between atoms: NAV_5  and  CAL_6 
REMARK    4  A    between atoms: NAV_5  and  CAK_12 
REMARK    5  A    between atoms: CAL_6  and  CAN_7 
REMARK    6  A    between atoms: CAN_7  and  PAX_8 
REMARK    7  A    between atoms: CAK_12  and  CAM_13 
REMARK    8  A    between atoms: CAM_13  and  N9_14 
REMARK    9  A    between atoms: C2_17  and  N2_18 
ROOT
ATOM      1  NAA 3L6 d   1      10.535 141.075  39.730  0.00  0.00    -0.197 NA
ATOM      2  CAG 3L6 d   1      10.256 139.995  39.676  0.00  0.00     0.060 C 
ATOM      3  CAI 3L6 d   1       9.773 138.565  39.833  0.00  0.00     0.037 C 
ATOM      4  H1  3L6 d   1      10.129 138.166  40.794  0.00  0.00     0.057 H 
ATOM      5  H2  3L6 d   1      10.175 137.954  39.011  0.00  0.00     0.057 H 
ENDROOT
BRANCH   3   6
ATOM      6  CAJ 3L6 d   1       8.264 138.513  39.800  0.00  0.00     0.095 C 
ATOM      7  H3  3L6 d   1       7.897 138.234  38.801  0.00  0.00     0.077 H 
ATOM      8  H4  3L6 d   1       7.826 139.478  40.095  0.00  0.00     0.077 H 
BRANCH   6   9
ATOM      9  NAV 3L6 d   1       7.965 137.477  40.780  0.00  0.00    -0.068 N 
ATOM     10  H5  3L6 d   1       8.772 136.909  40.986  0.00  0.00     0.280 HD
BRANCH   9  11
ATOM     11  CAL 3L6 d   1       6.902 136.674  40.148  0.00  0.00     0.095 C 
ATOM     12  H6  3L6 d   1       7.144 136.504  39.089  0.00  0.00     0.077 H 
ATOM     13  H7  3L6 d   1       5.940 137.203  40.224  0.00  0.00     0.077 H 
BRANCH  11  14
ATOM     14  CAN 3L6 d   1       6.817 135.349  40.873  0.00  0.00     0.061 C 
ATOM     15  H8  3L6 d   1       6.627 135.529  41.941  0.00  0.00     0.056 H 
ATOM     16  H9  3L6 d   1       7.767 134.807  40.756  0.00  0.00     0.056 H 
BRANCH  14  17
ATOM     17  PAX 3L6 d   1       5.448 134.339  40.171  0.00  0.00     0.261 P 
ATOM     18  OAD 3L6 d   1       5.877 133.836  38.789  0.00  0.00    -0.640 OA
ATOM     19  OAF 3L6 d   1       5.080 133.160  41.058  0.00  0.00    -0.640 OA
ATOM     20  OAE 3L6 d   1       4.228 135.223  39.965  0.00  0.00    -0.640 OA
ENDBRANCH  14  17
ENDBRANCH  11  14
ENDBRANCH   9  11
BRANCH   9  21
ATOM     21  CAK 3L6 d   1       7.507 138.130  41.952  0.00  0.00     0.099 C 
ATOM     22  H10 3L6 d   1       8.380 138.399  42.566  0.00  0.00     0.078 H 
ATOM     23  H11 3L6 d   1       6.865 137.433  42.512  0.00  0.00     0.078 H 
BRANCH  21  24
ATOM     24  CAM 3L6 d   1       6.714 139.390  41.666  0.00  0.00     0.025 C 
ATOM     25  H12 3L6 d   1       6.054 139.240  40.799  0.00  0.00     0.067 H 
ATOM     26  H13 3L6 d   1       7.392 140.234  41.469  0.00  0.00     0.067 H 
BRANCH  24  27
ATOM     27  N9  3L6 d   1       5.924 139.640  42.872  0.00  0.00    -0.324 N 
ATOM     28  C4  3L6 d   1       6.329 140.420  43.830  0.00  0.00     0.159 A 
ATOM     29  N3  3L6 d   1       7.575 141.144  43.951  0.00  0.00    -0.174 N 
ATOM     30  C5  3L6 d   1       5.377 140.398  44.822  0.00  0.00     0.171 A 
ATOM     31  C2  3L6 d   1       7.729 141.935  45.125  0.00  0.00     0.680 A 
ATOM     32  H14 3L6 d   1       8.309 141.091  43.230  0.00  0.00     0.186 HD
ATOM     33  N1  3L6 d   1       6.729 141.989  46.150  0.00  0.00    -0.154 N 
ATOM     34  C6  3L6 d   1       5.542 141.224  46.025  0.00  0.00     0.292 A 
ATOM     35  H17 3L6 d   1       6.869 142.567  46.954  0.00  0.00     0.187 HD
ATOM     36  O6  3L6 d   1       4.748 141.292  46.909  0.00  0.00    -0.265 OA
ATOM     37  N7  3L6 d   1       4.374 139.625  44.411  0.00  0.00    -0.234 NA
ATOM     38  C8  3L6 d   1       4.759 139.163  43.237  0.00  0.00     0.068 A 
ATOM     39  H18 3L6 d   1       4.175 138.465  42.639  0.00  0.00     0.143 H 
BRANCH  31  40
ATOM     40  N2  3L6 d   1       8.880 142.734  45.300  0.00  0.00    -0.234 N 
ATOM     41  H15 3L6 d   1       8.986 143.304  46.151  0.00  0.00     0.174 HD
ATOM     42  H16 3L6 d   1       9.613 142.746  44.577  0.00  0.00     0.174 HD
ENDBRANCH  31  40
ENDBRANCH  24  27
ENDBRANCH  21  24
ENDBRANCH   9  21
ENDBRANCH   6   9
ENDBRANCH   3   6
TORSDOF 9
