REMARK  12 active torsions:
REMARK  status: ('A' for Active; 'I' for Inactive)
REMARK    1  A    between atoms: PBB_2  and  CAP_5 
REMARK    2  A    between atoms: CAP_5  and  OAT_6 
REMARK    3  A    between atoms: OAT_6  and  CAJ_7 
REMARK    4  A    between atoms: CAJ_7  and  CAK_8 
REMARK    5  A    between atoms: CAK_8  and  NAY_9 
REMARK    6  A    between atoms: NAY_9  and  CAM_10 
REMARK    7  A    between atoms: NAY_9  and  CAL_16 
REMARK    8  A    between atoms: CAM_10  and  CAO_11 
REMARK    9  A    between atoms: CAO_11  and  PBA_12 
REMARK   10  A    between atoms: CAL_16  and  CAN_17 
REMARK   11  A    between atoms: CAN_17  and  N9_18 
REMARK   12  A    between atoms: C2_21  and  N2_22 
ROOT
ATOM      1  NAY 3L4 d   1      27.893 109.799 -81.601  0.00  0.00    -0.067 N 
ATOM      2  H7  3L4 d   1      27.276 109.614 -82.376  0.00  0.00     0.280 HD
ENDROOT
BRANCH   1   3
ATOM      3  CAK 3L4 d   1      28.650 108.571 -81.555  0.00  0.00     0.103 C 
ATOM      4  H5  3L4 d   1      28.929 108.278 -82.578  0.00  0.00     0.079 H 
ATOM      5  H6  3L4 d   1      29.560 108.728 -80.957  0.00  0.00     0.079 H 
BRANCH   3   6
ATOM      6  CAJ 3L4 d   1      27.819 107.462 -80.924  0.00  0.00     0.043 C 
ATOM      7  H3  3L4 d   1      26.832 107.842 -80.621  0.00  0.00     0.076 H 
ATOM      8  H4  3L4 d   1      27.690 106.627 -81.628  0.00  0.00     0.076 H 
BRANCH   6   9
ATOM      9  OAT 3L4 d   1      28.552 107.054 -79.807  0.00  0.00    -0.376 OA
BRANCH   9  10
ATOM     10  CAP 3L4 d   1      29.234 105.851 -80.028  0.00  0.00     0.122 C 
ATOM     11  H1  3L4 d   1      29.393 105.691 -81.105  0.00  0.00     0.095 H 
ATOM     12  H2  3L4 d   1      30.205 105.859 -79.511  0.00  0.00     0.095 H 
BRANCH  10  13
ATOM     13  PBB 3L4 d   1      28.130 104.517 -79.326  0.00  0.00     0.283 P 
ATOM     14  OAG 3L4 d   1      27.088 104.169 -80.367  0.00  0.00    -0.638 OA
ATOM     15  OAH 3L4 d   1      27.462 105.056 -78.071  0.00  0.00    -0.638 OA
ATOM     16  OAD 3L4 d   1      29.004 103.290 -79.038  0.00  0.00    -0.638 OA
ENDBRANCH  10  13
ENDBRANCH   9  10
ENDBRANCH   6   9
ENDBRANCH   3   6
ENDBRANCH   1   3
BRANCH   1  17
ATOM     17  CAM 3L4 d   1      28.651 110.924 -82.129  0.00  0.00     0.095 C 
ATOM     18  H8  3L4 d   1      29.726 110.692 -82.172  0.00  0.00     0.077 H 
ATOM     19  H9  3L4 d   1      28.495 111.827 -81.521  0.00  0.00     0.077 H 
BRANCH  17  20
ATOM     20  CAO 3L4 d   1      28.072 111.096 -83.523  0.00  0.00     0.061 C 
ATOM     21  H10 3L4 d   1      27.006 111.357 -83.450  0.00  0.00     0.056 H 
ATOM     22  H11 3L4 d   1      28.182 110.157 -84.086  0.00  0.00     0.056 H 
BRANCH  20  23
ATOM     23  PBA 3L4 d   1      28.979 112.444 -84.388  0.00  0.00     0.261 P 
ATOM     24  OAE 3L4 d   1      29.001 113.611 -83.426  0.00  0.00    -0.640 OA
ATOM     25  OAF 3L4 d   1      30.384 111.958 -84.724  0.00  0.00    -0.640 OA
ATOM     26  OAC 3L4 d   1      28.249 112.805 -85.668  0.00  0.00    -0.640 OA
ENDBRANCH  20  23
ENDBRANCH  17  20
ENDBRANCH   1  17
BRANCH   1  27
ATOM     27  CAL 3L4 d   1      26.906 110.021 -80.549  0.00  0.00     0.099 C 
ATOM     28  H12 3L4 d   1      26.894 109.120 -79.918  0.00  0.00     0.078 H 
ATOM     29  H13 3L4 d   1      25.928 110.139 -81.039  0.00  0.00     0.078 H 
BRANCH  27  30
ATOM     30  CAN 3L4 d   1      27.093 111.212 -79.627  0.00  0.00     0.025 C 
ATOM     31  H14 3L4 d   1      27.818 111.907 -80.075  0.00  0.00     0.067 H 
ATOM     32  H15 3L4 d   1      27.471 110.863 -78.655  0.00  0.00     0.067 H 
BRANCH  30  33
ATOM     33  N9  3L4 d   1      25.820 111.904 -79.429  0.00  0.00    -0.324 N 
ATOM     34  C4  3L4 d   1      24.764 111.458 -78.733  0.00  0.00     0.159 A 
ATOM     35  N3  3L4 d   1      24.521 110.222 -77.985  0.00  0.00    -0.174 N 
ATOM     36  C5  3L4 d   1      23.781 112.429 -78.799  0.00  0.00     0.171 A 
ATOM     37  C2  3L4 d   1      23.241 110.022 -77.316  0.00  0.00     0.680 A 
ATOM     38  H16 3L4 d   1      25.251 109.498 -77.932  0.00  0.00     0.186 HD
ATOM     39  N1  3L4 d   1      22.215 111.010 -77.380  0.00  0.00    -0.154 N 
ATOM     40  C6  3L4 d   1      22.443 112.221 -78.093  0.00  0.00     0.292 A 
ATOM     41  H19 3L4 d   1      21.338 110.853 -76.926  0.00  0.00     0.187 HD
ATOM     42  O6  3L4 d   1      21.575 113.029 -78.137  0.00  0.00    -0.265 OA
ATOM     43  N7  3L4 d   1      24.279 113.427 -79.537  0.00  0.00    -0.234 NA
ATOM     44  C8  3L4 d   1      25.505 113.102 -79.904  0.00  0.00     0.068 A 
ATOM     45  H20 3L4 d   1      26.162 113.726 -80.508  0.00  0.00     0.143 H 
BRANCH  37  46
ATOM     46  N2  3L4 d   1      22.982 108.816 -76.588  0.00  0.00    -0.234 N 
ATOM     47  H17 3L4 d   1      22.075 108.683 -76.118  0.00  0.00     0.174 HD
ATOM     48  H18 3L4 d   1      23.703 108.082 -76.534  0.00  0.00     0.174 HD
ENDBRANCH  37  46
ENDBRANCH  30  33
ENDBRANCH  27  30
ENDBRANCH   1  27
TORSDOF 12
