REMARK  9 active torsions:
REMARK  status: ('A' for Active; 'I' for Inactive)
REMARK    1  A    between atoms: C18_18  and  C19_2 
REMARK    2  A    between atoms: C06_8  and  C05_7 
REMARK    3  A    between atoms: C07_9  and  C06_8 
REMARK    4  A    between atoms: C08_10  and  C07_9 
REMARK    5  A    between atoms: C09_11  and  C08_10 
REMARK    6  A    between atoms: C10_12  and  C09_11 
REMARK    7  A    between atoms: C11_13  and  C10_12 
REMARK    8  A    between atoms: C15_16  and  C14_15 
REMARK    9  A    between atoms: C14_15  and  N13_23 
ROOT
ATOM      1  C09 BTV d   1      49.815  16.608  18.409  0.00  0.00    -0.060 C 
ATOM      2  H11 BTV d   1      48.792  16.262  18.198  0.00  0.00     0.033 H 
ATOM      3  H12 BTV d   1      50.516  15.767  18.301  0.00  0.00     0.033 H 
ENDROOT
BRANCH   1   4
ATOM      4  C08 BTV d   1      49.875  17.116  19.850  0.00  0.00    -0.065 C 
ATOM      5  H9  BTV d   1      50.930  17.218  20.145  0.00  0.00     0.033 H 
ATOM      6  H10 BTV d   1      49.383  18.099  19.899  0.00  0.00     0.033 H 
BRANCH   4   7
ATOM      7  C07 BTV d   1      49.180  16.169  20.829  0.00  0.00    -0.064 C 
ATOM      8  H7  BTV d   1      48.188  15.913  20.430  0.00  0.00     0.033 H 
ATOM      9  H8  BTV d   1      49.783  15.254  20.925  0.00  0.00     0.033 H 
BRANCH   7  10
ATOM     10  C06 BTV d   1      49.007  16.792  22.214  0.00  0.00    -0.051 C 
ATOM     11  H5  BTV d   1      49.875  16.522  22.834  0.00  0.00     0.034 H 
ATOM     12  H6  BTV d   1      48.959  17.886  22.106  0.00  0.00     0.034 H 
BRANCH  10  13
ATOM     13  C05 BTV d   1      47.647  16.278  22.961  0.00  0.00     0.013 C 
ATOM     14  C04 BTV d   1      47.754  14.923  23.410  0.00  0.00     0.046 A 
ATOM     15  C28 BTV d   1      46.885  14.852  24.883  0.00  0.00     0.047 A 
ATOM     16  N03 BTV d   1      49.022  14.523  23.669  0.00  0.00    -0.335 N 
ATOM     17  H3  BTV d   1      47.310  14.252  22.660  0.00  0.00     0.077 H 
ATOM     18  C27 BTV d   1      46.442  16.375  25.201  0.00  0.00     0.027 C 
ATOM     19  N29 BTV d   1      47.689  14.435  25.796  0.00  0.00    -0.335 N 
ATOM     20  H21 BTV d   1      46.009  14.191  24.804  0.00  0.00     0.077 H 
ATOM     21  S26 BTV d   1      47.358  17.213  24.368  0.00  0.00    -0.154 SA
ATOM     22  H20 BTV d   1      45.654  16.714  25.871  0.00  0.00     0.061 H 
ATOM     23  C02 BTV d   1      49.098  14.195  25.111  0.00  0.00     0.316 A 
ATOM     24  H23 BTV d   1      47.466  14.289  26.760  0.00  0.00     0.164 HD
ATOM     25  O01 BTV d   1      50.068  13.811  25.670  0.00  0.00    -0.247 OA
ATOM     26  H22 BTV d   1      49.770  14.461  23.008  0.00  0.00     0.164 HD
ATOM     27  H4  BTV d   1      46.801  16.372  22.264  0.00  0.00     0.059 H 
ENDBRANCH  10  13
ENDBRANCH   7  10
ENDBRANCH   4   7
ENDBRANCH   1   4
BRANCH   1  28
ATOM     28  C10 BTV d   1      50.186  17.691  17.396  0.00  0.00    -0.022 C 
ATOM     29  H13 BTV d   1      49.688  18.629  17.683  0.00  0.00     0.042 H 
ATOM     30  H14 BTV d   1      49.836  17.380  16.401  0.00  0.00     0.042 H 
BRANCH  28  31
ATOM     31  C11 BTV d   1      51.696  17.934  17.333  0.00  0.00     0.069 A 
ATOM     32  N25 BTV d   1      52.655  17.133  17.805  0.00  0.00    -0.163 NA
ATOM     33  N24 BTV d   1      53.827  17.689  17.558  0.00  0.00     0.004 NA
ATOM     34  N13 BTV d   1      53.665  18.841  16.933  0.00  0.00    -0.279 N 
ATOM     35  C12 BTV d   1      52.361  19.069  16.753  0.00  0.00     0.020 A 
ATOM     36  H15 BTV d   1      51.901  19.930  16.270  0.00  0.00     0.116 H 
BRANCH  34  37
ATOM     37  C14 BTV d   1      54.739  19.724  16.506  0.00  0.00     0.037 C 
ATOM     38  H16 BTV d   1      55.708  19.233  16.678  0.00  0.00     0.074 H 
ATOM     39  H17 BTV d   1      54.626  19.948  15.435  0.00  0.00     0.074 H 
BRANCH  37  40
ATOM     40  C15 BTV d   1      54.677  21.025  17.308  0.00  0.00    -0.039 A 
ATOM     41  C16 BTV d   1      54.074  21.041  18.556  0.00  0.00    -0.074 A 
ATOM     42  C17 BTV d   1      54.018  22.220  19.282  0.00  0.00    -0.066 A 
ATOM     43  H1  BTV d   1      53.647  20.132  18.964  0.00  0.00     0.084 H 
ATOM     44  C18 BTV d   1      54.564  23.382  18.760  0.00  0.00     0.040 A 
ATOM     45  H18 BTV d   1      53.547  22.233  20.258  0.00  0.00     0.085 H 
ATOM     46  C22 BTV d   1      55.166  23.365  17.512  0.00  0.00    -0.066 A 
ATOM     47  C23 BTV d   1      55.222  22.187  16.786  0.00  0.00    -0.074 A 
ATOM     48  H2  BTV d   1      55.593  24.274  17.104  0.00  0.00     0.085 H 
ATOM     49  H19 BTV d   1      55.692  22.174  15.809  0.00  0.00     0.084 H 
BRANCH  44  50
ATOM     50  C19 BTV d   1      54.502  24.682  19.561  0.00  0.00     0.209 C 
ATOM     51  O20 BTV d   1      53.446  24.995  20.171  0.00  0.00    -0.644 OA
ATOM     52  O21 BTV d   1      55.506  25.439  19.610  0.00  0.00    -0.644 OA
ENDBRANCH  44  50
ENDBRANCH  37  40
ENDBRANCH  34  37
ENDBRANCH  28  31
ENDBRANCH   1  28
TORSDOF 9
