REMARK  6 active torsions:
REMARK  status: ('A' for Active; 'I' for Inactive)
REMARK    1  A    between atoms: C13_2  and  O14_15 
REMARK    2  A    between atoms: C04_5  and  C02_4 
REMARK    3  A    between atoms: C06_6  and  C04_5 
REMARK    4  A    between atoms: C04_5  and  O05_13 
REMARK    5  A    between atoms: C07_7  and  C06_6 
REMARK    6  A    between atoms: C07_7  and  C09_8 
ROOT
ATOM      1  C10 BQ4 d   1      32.919  78.007  61.797  0.00  0.00    -0.069 A 
ATOM      2  C13 BQ4 d   1      33.580  75.966  63.569  0.00  0.00     0.066 A 
ATOM      3  C15 BQ4 d   1      34.423  77.086  63.448  0.00  0.00    -0.038 A 
ATOM      4  C09 BQ4 d   1      34.096  78.128  62.566  0.00  0.00     0.012 A 
ATOM      5  C11 BQ4 d   1      32.069  76.875  61.922  0.00  0.00    -0.079 A 
ATOM      6  C12 BQ4 d   1      32.392  75.844  62.813  0.00  0.00    -0.051 A 
ATOM      7  H1  BQ4 d   1      32.658  78.793  61.097  0.00  0.00     0.085 H 
ATOM      8  H2  BQ4 d   1      35.330  77.145  64.039  0.00  0.00     0.089 H 
ATOM      9  H6  BQ4 d   1      31.167  76.809  61.325  0.00  0.00     0.083 H 
ATOM     10  H7  BQ4 d   1      31.750  74.978  62.920  0.00  0.00     0.087 H 
ENDROOT
BRANCH   4  11
ATOM     11  C07 BQ4 d   1      35.022  79.315  62.428  0.00  0.00     0.162 C 
ATOM     12  O08 BQ4 d   1      35.253  79.699  61.267  0.00  0.00    -0.292 OA
BRANCH  11  13
ATOM     13  C06 BQ4 d   1      35.647  79.942  63.554  0.00  0.00     0.028 C 
ATOM     14  H4  BQ4 d   1      34.832  80.454  64.088  0.00  0.00     0.049 H 
ATOM     15  H5  BQ4 d   1      36.026  79.114  64.171  0.00  0.00     0.049 H 
BRANCH  13  16
ATOM     16  C04 BQ4 d   1      36.659  80.841  63.506  0.00  0.00     0.125 C 
ATOM     17  H3  BQ4 d   1      36.116  81.632  64.044  0.00  0.00     0.100 H 
BRANCH  16  18
ATOM     18  C02 BQ4 d   1      37.863  80.813  64.473  0.00  0.00     0.203 C 
ATOM     19  O01 BQ4 d   1      38.969  81.029  63.943  0.00  0.00    -0.646 OA
ATOM     20  O03 BQ4 d   1      37.619  80.576  65.673  0.00  0.00    -0.646 OA
ENDBRANCH  16  18
BRANCH  16  21
ATOM     21  O05 BQ4 d   1      36.817  81.522  62.351  0.00  0.00    -0.384 OA
ATOM     22  H8  BQ4 d   1      36.984  80.910  61.644  0.00  0.00     0.210 HD
ENDBRANCH  16  21
ENDBRANCH  13  16
ENDBRANCH  11  13
ENDBRANCH   4  11
BRANCH   2  23
ATOM     23  O14 BQ4 d   1      33.938  74.959  64.464  0.00  0.00    -0.361 OA
ATOM     24  H9  BQ4 d   1      34.046  74.141  63.992  0.00  0.00     0.217 HD
ENDBRANCH   2  23
TORSDOF 6
