REMARK  7 active torsions:
REMARK  status: ('A' for Active; 'I' for Inactive)
REMARK    1  A    between atoms: C3_3  and  O4_4 
REMARK    2  A    between atoms: C7_7  and  C8_8 
REMARK    3  A    between atoms: C8_8  and  C9_9 
REMARK    4  A    between atoms: C9_9  and  N10_10 
REMARK    5  A    between atoms: N10_10  and  C11_11 
REMARK    6  A    between atoms: C14_14  and  N15_15 
REMARK    7  A    between atoms: C20_20  and  C21_21 
ROOT
ATOM      1  C11 ZMA d   1      21.506 172.438  16.774  0.00  0.00     0.754 A 
ATOM      2  N12 ZMA d   1      21.882 173.736  16.950  0.00  0.00     0.131 NA
ATOM      3  N13 ZMA d   1      20.316 171.992  17.278  0.00  0.00     0.131 NA
ATOM      4  C14 ZMA d   1      19.487 172.822  17.957  0.00  0.00     0.752 A 
ATOM      5  N16 ZMA d   1      19.864 174.105  18.127  0.00  0.00     0.119 N 
ATOM      6  N17 ZMA d   1      19.145 175.096  18.795  0.00  0.00    -0.115 NA
ATOM      7  C18 ZMA d   1      21.030 174.537  17.633  0.00  0.00     0.760 A 
ATOM      8  N19 ZMA d   1      21.164 175.849  17.941  0.00  0.00    -0.166 N 
ATOM      9  C20 ZMA d   1      20.020 176.115  18.624  0.00  0.00     0.198 A 
ATOM     10  H13 ZMA d   1      21.940 176.487  17.714  0.00  0.00     0.186 HD
ENDROOT
BRANCH   1  11
ATOM     11  N10 ZMA d   1      22.336 171.610  16.095  0.00  0.00    -0.221 N 
ATOM     12  H10 ZMA d   1      23.132 172.013  15.581  0.00  0.00     0.177 HD
BRANCH  11  13
ATOM     13  C9  ZMA d   1      22.139 170.178  16.070  0.00  0.00     0.013 C 
ATOM     14  H8  ZMA d   1      23.118 169.685  15.976  0.00  0.00     0.065 H 
ATOM     15  H9  ZMA d   1      21.660 169.867  17.010  0.00  0.00     0.065 H 
BRANCH  13  16
ATOM     16  C8  ZMA d   1      21.257 169.754  14.901  0.00  0.00    -0.026 C 
ATOM     17  H6  ZMA d   1      20.337 170.357  14.900  0.00  0.00     0.042 H 
ATOM     18  H7  ZMA d   1      21.800 169.911  13.957  0.00  0.00     0.042 H 
BRANCH  16  19
ATOM     19  C7  ZMA d   1      20.899 168.294  15.036  0.00  0.00    -0.057 A 
ATOM     20  C1  ZMA d   1      19.743 167.920  15.739  0.00  0.00    -0.074 A 
ATOM     21  C2  ZMA d   1      19.419 166.567  15.864  0.00  0.00    -0.051 A 
ATOM     22  H1  ZMA d   1      19.106 168.677  16.182  0.00  0.00     0.084 H 
ATOM     23  C3  ZMA d   1      20.252 165.599  15.283  0.00  0.00     0.065 A 
ATOM     24  H2  ZMA d   1      18.530 166.267  16.406  0.00  0.00     0.087 H 
ATOM     25  C5  ZMA d   1      21.410 165.974  14.586  0.00  0.00    -0.051 A 
ATOM     26  C6  ZMA d   1      21.733 167.327  14.454  0.00  0.00    -0.074 A 
ATOM     27  H4  ZMA d   1      22.052 165.217  14.151  0.00  0.00     0.087 H 
ATOM     28  H5  ZMA d   1      22.620 167.627  13.907  0.00  0.00     0.084 H 
BRANCH  23  29
ATOM     29  O4  ZMA d   1      19.937 164.276  15.398  0.00  0.00    -0.361 OA
ATOM     30  H3  ZMA d   1      20.596 163.755  14.954  0.00  0.00     0.217 HD
ENDBRANCH  23  29
ENDBRANCH  16  19
ENDBRANCH  13  16
ENDBRANCH  11  13
ENDBRANCH   1  11
BRANCH   4  31
ATOM     31  N15 ZMA d   1      18.316 172.343  18.440  0.00  0.00    -0.230 N 
ATOM     32  H11 ZMA d   1      18.062 171.356  18.290  0.00  0.00     0.174 HD
ATOM     33  H12 ZMA d   1      17.679 172.966  18.957  0.00  0.00     0.174 HD
ENDBRANCH   4  31
BRANCH   9  34
ATOM     34  C21 ZMA d   1      19.731 177.459  19.166  0.00  0.00     0.123 A 
ATOM     35  C22 ZMA d   1      20.685 178.436  19.312  0.00  0.00    -0.045 A 
ATOM     36  C23 ZMA d   1      19.949 179.509  19.788  0.00  0.00    -0.059 A 
ATOM     37  H14 ZMA d   1      21.753 178.381  19.105  0.00  0.00     0.088 H 
ATOM     38  C24 ZMA d   1      18.605 179.154  19.872  0.00  0.00     0.019 A 
ATOM     39  H15 ZMA d   1      20.359 180.482  20.056  0.00  0.00     0.086 H 
ATOM     40  O25 ZMA d   1      18.460 177.843  19.453  0.00  0.00    -0.319 OA
ATOM     41  H16 ZMA d   1      17.799 179.803  20.212  0.00  0.00     0.123 H 
ENDBRANCH   9  34
TORSDOF 7
