REMARK  12 active torsions:
REMARK  status: ('A' for Active; 'I' for Inactive)
REMARK    1  A    between atoms: PBA_2  and  CAL_5 
REMARK    2  A    between atoms: CAL_5  and  CAJ_6 
REMARK    3  A    between atoms: CAJ_6  and  OAS_7 
REMARK    4  A    between atoms: OAS_7  and  CAN_8 
REMARK    5  A    between atoms: CAN_8  and  CAY_9 
REMARK    6  A    between atoms: CAY_9  and  OAT_10 
REMARK    7  A    between atoms: CAY_9  and  CAO_17 
REMARK    8  A    between atoms: OAT_10  and  CAK_11 
REMARK    9  A    between atoms: CAK_11  and  CAM_12 
REMARK   10  A    between atoms: CAM_12  and  PBB_13 
REMARK   11  A    between atoms: CAO_17  and  N9_18 
REMARK   12  A    between atoms: C2_21  and  N2_22 
ROOT
ATOM      1  CAY 45T d   1     -10.722   3.023 -51.602  0.00  0.00     0.074 C 
ATOM      2  H7  45T d   1     -10.453   3.991 -51.154  0.00  0.00     0.089 H 
ENDROOT
BRANCH   1   3
ATOM      3  CAN 45T d   1     -10.512   1.921 -50.564  0.00  0.00     0.045 C 
ATOM      4  H5  45T d   1     -11.482   1.472 -50.302  0.00  0.00     0.078 H 
ATOM      5  H6  45T d   1      -9.849   1.147 -50.978  0.00  0.00     0.078 H 
BRANCH   3   6
ATOM      6  OAS 45T d   1      -9.928   2.475 -49.421  0.00  0.00    -0.388 OA
BRANCH   6   7
ATOM      7  CAJ 45T d   1     -10.864   2.856 -48.453  0.00  0.00     0.031 C 
ATOM      8  H3  45T d   1     -10.549   3.798 -47.980  0.00  0.00     0.075 H 
ATOM      9  H4  45T d   1     -11.850   2.993 -48.921  0.00  0.00     0.075 H 
BRANCH   7  10
ATOM     10  CAL 45T d   1     -10.939   1.749 -47.402  0.00  0.00     0.059 C 
ATOM     11  H1  45T d   1     -11.971   1.693 -47.025  0.00  0.00     0.057 H 
ATOM     12  H2  45T d   1     -10.670   0.795 -47.879  0.00  0.00     0.057 H 
BRANCH  10  13
ATOM     13  PBA 45T d   1      -9.795   2.035 -45.960  0.00  0.00     0.261 P 
ATOM     14  OAE 45T d   1      -8.451   1.404 -46.244  0.00  0.00    -0.640 OA
ATOM     15  OAF 45T d   1     -10.397   1.402 -44.726  0.00  0.00    -0.640 OA
ATOM     16  OAC 45T d   1      -9.617   3.518 -45.728  0.00  0.00    -0.640 OA
ENDBRANCH  10  13
ENDBRANCH   7  10
ENDBRANCH   6   7
ENDBRANCH   3   6
ENDBRANCH   1   3
BRANCH   1  17
ATOM     17  OAT 45T d   1      -9.877   2.752 -52.685  0.00  0.00    -0.381 OA
BRANCH  17  18
ATOM     18  CAK 45T d   1      -9.260   3.871 -53.253  0.00  0.00     0.032 C 
ATOM     19  H8  45T d   1      -8.177   3.847 -53.060  0.00  0.00     0.075 H 
ATOM     20  H9  45T d   1      -9.687   4.794 -52.834  0.00  0.00     0.075 H 
BRANCH  18  21
ATOM     21  CAM 45T d   1      -9.529   3.800 -54.750  0.00  0.00     0.059 C 
ATOM     22  H10 45T d   1     -10.574   4.091 -54.932  0.00  0.00     0.057 H 
ATOM     23  H11 45T d   1      -9.373   2.764 -55.086  0.00  0.00     0.057 H 
BRANCH  21  24
ATOM     24  PBB 45T d   1      -8.422   4.917 -55.741  0.00  0.00     0.261 P 
ATOM     25  OAG 45T d   1      -8.123   6.168 -54.949  0.00  0.00    -0.640 OA
ATOM     26  OAH 45T d   1      -7.137   4.200 -56.079  0.00  0.00    -0.640 OA
ATOM     27  OAD 45T d   1      -9.136   5.291 -57.013  0.00  0.00    -0.640 OA
ENDBRANCH  21  24
ENDBRANCH  18  21
ENDBRANCH  17  18
ENDBRANCH   1  17
BRANCH   1  28
ATOM     28  CAO 45T d   1     -12.165   3.100 -52.104  0.00  0.00     0.028 C 
ATOM     29  H12 45T d   1     -12.292   4.022 -52.690  0.00  0.00     0.069 H 
ATOM     30  H13 45T d   1     -12.845   3.118 -51.239  0.00  0.00     0.069 H 
BRANCH  28  31
ATOM     31  N9  45T d   1     -12.494   1.958 -52.941  0.00  0.00    -0.323 N 
ATOM     32  C4  45T d   1     -13.031   0.798 -52.534  0.00  0.00     0.159 A 
ATOM     33  N3  45T d   1     -13.448   0.272 -51.207  0.00  0.00    -0.174 N 
ATOM     34  C5  45T d   1     -13.174   0.010 -53.662  0.00  0.00     0.171 A 
ATOM     35  C2  45T d   1     -14.011  -1.076 -51.090  0.00  0.00     0.680 A 
ATOM     36  H14 45T d   1     -13.341   0.858 -50.367  0.00  0.00     0.186 HD
ATOM     37  N1  45T d   1     -14.166  -1.905 -52.268  0.00  0.00    -0.154 N 
ATOM     38  C6  45T d   1     -13.764  -1.399 -53.549  0.00  0.00     0.292 A 
ATOM     39  H17 45T d   1     -14.551  -2.825 -52.189  0.00  0.00     0.187 HD
ATOM     40  O6  45T d   1     -13.889  -2.078 -54.512  0.00  0.00    -0.265 OA
ATOM     41  N7  45T d   1     -12.721   0.728 -54.695  0.00  0.00    -0.234 NA
ATOM     42  C8  45T d   1     -12.318   1.905 -54.248  0.00  0.00     0.068 A 
ATOM     43  H18 45T d   1     -11.906   2.705 -54.861  0.00  0.00     0.143 H 
BRANCH  35  44
ATOM     44  N2  45T d   1     -14.420  -1.581 -49.795  0.00  0.00    -0.234 N 
ATOM     45  H15 45T d   1     -14.816  -2.529 -49.713  0.00  0.00     0.174 HD
ATOM     46  H16 45T d   1     -14.315  -0.993 -48.956  0.00  0.00     0.174 HD
ENDBRANCH  35  44
ENDBRANCH  28  31
ENDBRANCH   1  28
TORSDOF 12
