REMARK  8 active torsions:
REMARK  status: ('A' for Active; 'I' for Inactive)
REMARK    1  A    between atoms: C08_5  and  C07_4 
REMARK    2  A    between atoms: C09_6  and  C08_5 
REMARK    3  A    between atoms: C10_7  and  C09_6 
REMARK    4  A    between atoms: C11_8  and  C10_7 
REMARK    5  A    between atoms: C12_9  and  C11_8 
REMARK    6  A    between atoms: C13_10  and  C12_9 
REMARK    7  A    between atoms: C16_12  and  C17_13 
REMARK    8  A    between atoms: C16_12  and  N15_22 
ROOT
ATOM      1  C11 BVY d   1      19.648 -49.753  20.487  0.00  0.00    -0.060 C 
ATOM      2  H11 BVY d   1      20.026 -48.751  20.738  0.00  0.00     0.033 H 
ATOM      3  H12 BVY d   1      19.722 -49.911  19.401  0.00  0.00     0.033 H 
ENDROOT
BRANCH   1   4
ATOM      4  C10 BVY d   1      18.166 -49.867  20.923  0.00  0.00    -0.065 C 
ATOM      5  H9  BVY d   1      17.517 -49.840  20.035  0.00  0.00     0.033 H 
ATOM      6  H10 BVY d   1      18.011 -50.814  21.461  0.00  0.00     0.033 H 
BRANCH   4   7
ATOM      7  C09 BVY d   1      17.824 -48.681  21.852  0.00  0.00    -0.064 C 
ATOM      8  H7  BVY d   1      18.472 -48.708  22.740  0.00  0.00     0.033 H 
ATOM      9  H8  BVY d   1      17.977 -47.734  21.314  0.00  0.00     0.033 H 
BRANCH   7  10
ATOM     10  C08 BVY d   1      16.333 -48.802  22.287  0.00  0.00    -0.051 C 
ATOM     11  H5  BVY d   1      15.708 -48.856  21.383  0.00  0.00     0.034 H 
ATOM     12  H6  BVY d   1      16.213 -49.726  22.872  0.00  0.00     0.034 H 
BRANCH  10  13
ATOM     13  C07 BVY d   1      15.861 -47.628  23.133  0.00  0.00     0.012 C 
ATOM     14  C26 BVY d   1      14.604 -48.028  23.858  0.00  0.00     0.046 A 
ATOM     15  C04 BVY d   1      14.428 -47.091  24.854  0.00  0.00     0.042 A 
ATOM     16  N27 BVY d   1      14.328 -49.285  24.105  0.00  0.00    -0.335 N 
ATOM     17  H22 BVY d   1      13.812 -47.786  23.134  0.00  0.00     0.077 H 
ATOM     18  C05 BVY d   1      15.726 -46.310  25.181  0.00  0.00    -0.002 C 
ATOM     19  N03 BVY d   1      13.988 -47.841  26.039  0.00  0.00    -0.336 N 
ATOM     20  H1  BVY d   1      13.651 -46.374  24.550  0.00  0.00     0.077 H 
ATOM     21  S06 BVY d   1      17.054 -47.266  24.385  0.00  0.00    -0.160 SA
ATOM     22  H2  BVY d   1      15.884 -46.258  26.268  0.00  0.00     0.052 H 
ATOM     23  H3  BVY d   1      15.680 -45.291  24.768  0.00  0.00     0.052 H 
ATOM     24  C02 BVY d   1      13.919 -49.325  25.547  0.00  0.00     0.316 A 
ATOM     25  H23 BVY d   1      13.780 -47.485  26.950  0.00  0.00     0.164 HD
ATOM     26  O01 BVY d   1      13.594 -50.307  26.192  0.00  0.00    -0.247 OA
ATOM     27  H24 BVY d   1      14.379 -50.054  23.468  0.00  0.00     0.164 HD
ATOM     28  H4  BVY d   1      15.685 -46.748  22.497  0.00  0.00     0.059 H 
ENDBRANCH  10  13
ENDBRANCH   7  10
ENDBRANCH   4   7
ENDBRANCH   1   4
BRANCH   1  29
ATOM     29  C12 BVY d   1      20.496 -50.821  21.221  0.00  0.00    -0.022 C 
ATOM     30  H13 BVY d   1      20.171 -50.892  22.269  0.00  0.00     0.042 H 
ATOM     31  H14 BVY d   1      21.558 -50.536  21.185  0.00  0.00     0.042 H 
BRANCH  29  32
ATOM     32  C13 BVY d   1      20.307 -52.163  20.539  0.00  0.00     0.069 A 
ATOM     33  C14 BVY d   1      21.098 -52.688  19.531  0.00  0.00     0.020 A 
ATOM     34  N15 BVY d   1      20.611 -53.902  19.196  0.00  0.00    -0.279 N 
ATOM     35  H15 BVY d   1      21.965 -52.204  19.084  0.00  0.00     0.116 H 
ATOM     36  N24 BVY d   1      19.513 -54.136  19.974  0.00  0.00     0.004 NA
ATOM     37  N25 BVY d   1      19.335 -53.054  20.805  0.00  0.00    -0.163 NA
BRANCH  34  38
ATOM     38  C16 BVY d   1      21.168 -54.746  18.188  0.00  0.00     0.037 C 
ATOM     39  H16 BVY d   1      20.811 -54.385  17.212  0.00  0.00     0.074 H 
ATOM     40  H17 BVY d   1      22.263 -54.650  18.236  0.00  0.00     0.074 H 
BRANCH  38  41
ATOM     41  C17 BVY d   1      20.818 -56.255  18.294  0.00  0.00    -0.036 A 
ATOM     42  C18 BVY d   1      20.697 -56.908  19.526  0.00  0.00    -0.075 A 
ATOM     43  C19 BVY d   1      20.389 -58.272  19.570  0.00  0.00    -0.080 A 
ATOM     44  H18 BVY d   1      20.842 -56.356  20.448  0.00  0.00     0.084 H 
ATOM     45  C20 BVY d   1      20.214 -58.993  18.379  0.00  0.00    -0.046 A 
ATOM     46  H19 BVY d   1      20.285 -58.773  20.526  0.00  0.00     0.083 H 
ATOM     47  C21 BVY d   1      20.345 -58.349  17.156  0.00  0.00     0.117 A 
ATOM     48  H20 BVY d   1      19.977 -60.050  18.414  0.00  0.00     0.088 H 
ATOM     49  C23 BVY d   1      20.651 -56.981  17.116  0.00  0.00    -0.038 A 
ATOM     50  F22 BVY d   1      20.177 -59.039  16.000  0.00  0.00    -0.206 F 
ATOM     51  H21 BVY d   1      20.759 -56.483  16.159  0.00  0.00     0.089 H 
ENDBRANCH  38  41
ENDBRANCH  34  38
ENDBRANCH  29  32
ENDBRANCH   1  29
TORSDOF 8
