REMARK  31 active torsions:
REMARK  status: ('A' for Active; 'I' for Inactive)
REMARK    1  A    between atoms: N_1  and  CA_2 
REMARK    2  A    between atoms: CA_2  and  C_3 
REMARK    3  A    between atoms: CA_2  and  CB_5 
REMARK       I    between atoms: C_3  and  N_9 
REMARK    4  A    between atoms: CB_5  and  CG_6 
REMARK    5  A    between atoms: N_9  and  CA_10 
REMARK    6  A    between atoms: CA_10  and  C_11 
REMARK       I    between atoms: C_11  and  N_13 
REMARK    7  A    between atoms: N_13  and  CA_14 
REMARK    8  A    between atoms: CA_14  and  CB_15 
REMARK    9  A    between atoms: CA_14  and  C_22 
REMARK   10  A    between atoms: CB_15  and  CG2_16 
REMARK   11  A    between atoms: CB_15  and  OG1_17 
REMARK   12  A    between atoms: OG1_17  and  P_18 
REMARK       I    between atoms: C_22  and  N_24 
REMARK   13  A    between atoms: N_24  and  CA_25 
REMARK   14  A    between atoms: CA_25  and  C_26 
REMARK   15  A    between atoms: CA_25  and  CB_28 
REMARK       I    between atoms: C_26  and  N_32 
REMARK   16  A    between atoms: CB_28  and  CG_29 
REMARK   17  A    between atoms: CG_29  and  SD_30 
REMARK   18  A    between atoms: SD_30  and  CE_31 
REMARK   19  A    between atoms: N_32  and  CA_33 
REMARK   20  A    between atoms: CA_33  and  C_34 
REMARK   21  A    between atoms: CA_33  and  CB_36 
REMARK       I    between atoms: C_34  and  N_41 
REMARK   22  A    between atoms: CB_36  and  CG_37 
REMARK   23  A    between atoms: CG_37  and  CD_38 
REMARK   24  A    between atoms: CD_38  and  CE_39 
REMARK   25  A    between atoms: CE_39  and  NZ_40 
REMARK   26  A    between atoms: N_41  and  CA_42 
REMARK   27  A    between atoms: CA_42  and  C_43 
REMARK   28  A    between atoms: CA_42  and  CB_45 
REMARK   29  A    between atoms: CB_45  and  CG_46 
REMARK   30  A    between atoms: CG_46  and  CD_47 
REMARK   31  A    between atoms: CD_47  and  NE_48 
REMARK       I    between atoms: NE_48  and  CZ_49 
REMARK       I    between atoms: CZ_49  and  NH1_50 
ROOT
ATOM      1  CA  MET d   1      -7.702 160.084 105.694  0.00  0.00     0.090 C 
ATOM      2  H17 MET d   1      -8.641 160.110 105.121  0.00  0.00     0.087 H 
ENDROOT
BRANCH   1   3
ATOM      3  N   MET d   1      -7.190 158.721 105.732  0.00  0.00    -0.346 N 
ATOM      4  C   TPO d   1      -7.193 157.943 104.650  0.00  0.00     0.243 C 
ATOM      5  O   TPO d   1      -7.796 158.244 103.635  0.00  0.00    -0.271 OA
ATOM      6  H16 MET d   1      -6.827 158.360 106.591  0.00  0.00     0.163 HD
BRANCH   4   7
ATOM      7  CA  TPO d   1      -6.448 156.617 104.736  0.00  0.00     0.114 C 
ATOM      8  H11 TPO d   1      -6.325 156.354 105.797  0.00  0.00     0.091 H 
BRANCH   7   9
ATOM      9  N   TPO d   1      -7.200 155.554 104.076  0.00  0.00    -0.344 N 
ATOM     10  C   GLY d   1      -8.322 155.049 104.591  0.00  0.00     0.236 C 
ATOM     11  O   GLY d   1      -8.849 155.480 105.614  0.00  0.00    -0.272 OA
ATOM     12  H10 TPO d   1      -6.862 155.192 103.207  0.00  0.00     0.163 HD
BRANCH  10  13
ATOM     13  CA  GLY d   1      -8.964 153.896 103.837  0.00  0.00     0.069 C 
ATOM     14  H8  GLY d   1      -9.084 153.055 104.536  0.00  0.00     0.078 H 
ATOM     15  H9  GLY d   1      -9.953 154.226 103.486  0.00  0.00     0.078 H 
BRANCH  13  16
ATOM     16  N   GLY d   1      -8.208 153.420 102.681  0.00  0.00    -0.351 N 
ATOM     17  C   ASP d   1      -7.244 152.519 102.784  0.00  0.00     0.249 C 
ATOM     18  O   ASP d   1      -6.767 152.143 103.844  0.00  0.00    -0.271 OA
ATOM     19  H7  GLY d   1      -8.427 153.789 101.778  0.00  0.00     0.163 HD
BRANCH  17  20
ATOM     20  CA  ASP d   1      -6.716 151.954 101.493  0.00  0.00     0.185 C 
ATOM     21  H4  ASP d   1      -6.792 152.712 100.699  0.00  0.00     0.100 H 
BRANCH  20  22
ATOM     22  N   ASP d   1      -5.305 151.597 101.680  0.00  0.00    -0.066 N 
ATOM     23  H1  ASP d   1      -4.938 151.217 100.822  0.00  0.00     0.275 HD
ATOM     24  H2  ASP d   1      -5.227 150.909 102.413  0.00  0.00     0.275 HD
ATOM     25  H3  ASP d   1      -4.781 152.420 101.934  0.00  0.00     0.275 HD
ENDBRANCH  20  22
BRANCH  20  26
ATOM     26  CB  ASP d   1      -7.561 150.744 101.108  0.00  0.00     0.050 C 
ATOM     27  H5  ASP d   1      -7.212 150.363 100.137  0.00  0.00     0.052 H 
ATOM     28  H6  ASP d   1      -8.612 151.058 101.023  0.00  0.00     0.052 H 
BRANCH  26  29
ATOM     29  CG  ASP d   1      -7.465 149.630 102.134  0.00  0.00     0.175 C 
ATOM     30  OD1 ASP d   1      -8.504 149.185 102.648  0.00  0.00    -0.648 OA
ATOM     31  OD2 ASP d   1      -6.324 149.205 102.434  0.00  0.00    -0.648 OA
ENDBRANCH  26  29
ENDBRANCH  20  26
ENDBRANCH  17  20
ENDBRANCH  13  16
ENDBRANCH  10  13
ENDBRANCH   7   9
BRANCH   7  32
ATOM     32  CB  TPO d   1      -5.076 156.742 104.102  0.00  0.00     0.076 C 
ATOM     33  H12 TPO d   1      -5.166 157.071 103.056  0.00  0.00     0.087 H 
BRANCH  32  34
ATOM     34  CG2 TPO d   1      -4.233 157.739 104.898  0.00  0.00    -0.049 C 
ATOM     35  H13 TPO d   1      -3.238 157.828 104.437  0.00  0.00     0.031 H 
ATOM     36  H14 TPO d   1      -4.126 157.384 105.934  0.00  0.00     0.031 H 
ATOM     37  H15 TPO d   1      -4.728 158.721 104.896  0.00  0.00     0.031 H 
ENDBRANCH  32  34
BRANCH  32  38
ATOM     38  OG1 TPO d   1      -4.449 155.455 104.172  0.00  0.00    -0.275 OA
BRANCH  38  39
ATOM     39  P   TPO d   1      -4.111 154.770 102.734  0.00  0.00     0.422 P 
ATOM     40  O1P TPO d   1      -5.349 154.723 101.893  0.00  0.00    -0.617 OA
ATOM     41  O2P TPO d   1      -2.912 155.570 102.097  0.00  0.00    -0.617 OA
ATOM     42  O3P TPO d   1      -3.631 153.314 103.155  0.00  0.00    -0.617 OA
ENDBRANCH  38  39
ENDBRANCH  32  38
ENDBRANCH   7  32
ENDBRANCH   4   7
ENDBRANCH   1   3
BRANCH   1  43
ATOM     43  C   MET d   1      -6.657 160.956 104.992  0.00  0.00     0.241 C 
ATOM     44  O   MET d   1      -5.553 161.081 105.501  0.00  0.00    -0.271 OA
ATOM     45  N   LYS d   1      -6.999 161.581 103.859  0.00  0.00    -0.346 N 
ATOM     46  H25 LYS d   1      -7.967 161.662 103.622  0.00  0.00     0.163 HD
BRANCH  45  47
ATOM     47  CA  LYS d   1      -5.997 162.149 102.958  0.00  0.00     0.089 C 
ATOM     48  H26 LYS d   1      -5.001 161.883 103.342  0.00  0.00     0.087 H 
BRANCH  47  49
ATOM     49  C   LYS d   1      -6.105 163.665 102.898  0.00  0.00     0.241 C 
ATOM     50  O   LYS d   1      -7.206 164.217 102.799  0.00  0.00    -0.271 OA
ATOM     51  N   ARG d   1      -4.956 164.334 102.952  0.00  0.00    -0.345 N 
ATOM     52  H38 ARG d   1      -4.094 163.830 102.998  0.00  0.00     0.163 HD
BRANCH  51  53
ATOM     53  CA  ARG d   1      -4.936 165.799 102.945  0.00  0.00     0.096 C 
ATOM     54  H39 ARG d   1      -5.678 166.155 103.675  0.00  0.00     0.089 H 
BRANCH  53  55
ATOM     55  C   ARG d   1      -5.317 166.348 101.571  0.00  0.00     0.196 C 
ATOM     56  O   ARG d   1      -5.021 165.743 100.542  0.00  0.00    -0.646 OA
ATOM     57  OXT ARG d   1      -5.929 167.409 101.459  0.00  0.00    -0.646 OA
ENDBRANCH  53  55
BRANCH  53  58
ATOM     58  CB  ARG d   1      -3.554 166.329 103.363  0.00  0.00    -0.035 C 
ATOM     59  H40 ARG d   1      -2.812 165.993 102.623  0.00  0.00     0.036 H 
ATOM     60  H41 ARG d   1      -3.303 165.911 104.349  0.00  0.00     0.036 H 
BRANCH  58  61
ATOM     61  CG  ARG d   1      -3.495 167.854 103.452  0.00  0.00    -0.047 C 
ATOM     62  H42 ARG d   1      -4.253 168.196 104.172  0.00  0.00     0.035 H 
ATOM     63  H43 ARG d   1      -3.716 168.275 102.460  0.00  0.00     0.035 H 
BRANCH  61  64
ATOM     64  CD  ARG d   1      -2.136 168.354 103.902  0.00  0.00     0.009 C 
ATOM     65  H44 ARG d   1      -1.879 169.256 103.327  0.00  0.00     0.064 H 
ATOM     66  H45 ARG d   1      -1.387 167.572 103.711  0.00  0.00     0.064 H 
BRANCH  64  67
ATOM     67  NE  ARG d   1      -2.128 168.681 105.324  0.00  0.00    -0.227 N 
ATOM     68  CZ  ARG d   1      -1.125 169.291 105.952  0.00  0.00     0.665 C 
ATOM     69  NH1 ARG d   1      -0.035 169.652 105.282  0.00  0.00    -0.235 N 
ATOM     70  NH2 ARG d   1      -1.213 169.548 107.256  0.00  0.00    -0.235 N 
ATOM     71  H47 ARG d   1       0.738 170.124 105.772  0.00  0.00     0.174 HD
ATOM     72  H48 ARG d   1       0.036 169.460 104.273  0.00  0.00     0.174 HD
ATOM     73  H49 ARG d   1      -2.055 169.270 107.780  0.00  0.00     0.174 HD
ATOM     74  H50 ARG d   1      -0.439 170.024 107.740  0.00  0.00     0.174 HD
ATOM     75  H46 ARG d   1      -2.955 168.422 105.880  0.00  0.00     0.177 HD
ENDBRANCH  64  67
ENDBRANCH  61  64
ENDBRANCH  58  61
ENDBRANCH  53  58
ENDBRANCH  51  53
ENDBRANCH  47  49
BRANCH  47  76
ATOM     76  CB  LYS d   1      -6.142 161.585 101.546  0.00  0.00    -0.038 C 
ATOM     77  H27 LYS d   1      -5.329 161.991 100.926  0.00  0.00     0.036 H 
ATOM     78  H28 LYS d   1      -7.111 161.911 101.140  0.00  0.00     0.036 H 
BRANCH  76  79
ATOM     79  CG  LYS d   1      -6.083 160.085 101.482  0.00  0.00    -0.061 C 
ATOM     80  H29 LYS d   1      -6.878 159.669 102.119  0.00  0.00     0.033 H 
ATOM     81  H30 LYS d   1      -5.103 159.750 101.854  0.00  0.00     0.033 H 
BRANCH  79  82
ATOM     82  CD  LYS d   1      -6.270 159.580 100.075  0.00  0.00    -0.043 C 
ATOM     83  H31 LYS d   1      -5.496 160.021  99.429  0.00  0.00     0.035 H 
ATOM     84  H32 LYS d   1      -7.264 159.881  99.714  0.00  0.00     0.035 H 
BRANCH  82  85
ATOM     85  CE  LYS d   1      -6.160 158.074 100.020  0.00  0.00     0.080 C 
ATOM     86  H33 LYS d   1      -7.030 157.635 100.530  0.00  0.00     0.075 H 
ATOM     87  H34 LYS d   1      -5.238 157.765 100.535  0.00  0.00     0.075 H 
BRANCH  85  88
ATOM     88  NZ  LYS d   1      -6.120 157.575  98.623  0.00  0.00    -0.079 N 
ATOM     89  H35 LYS d   1      -6.047 156.570  98.627  0.00  0.00     0.274 HD
ATOM     90  H36 LYS d   1      -5.322 157.968  98.148  0.00  0.00     0.274 HD
ATOM     91  H37 LYS d   1      -6.964 157.848  98.144  0.00  0.00     0.274 HD
ENDBRANCH  85  88
ENDBRANCH  82  85
ENDBRANCH  79  82
ENDBRANCH  76  79
ENDBRANCH  47  76
ENDBRANCH  45  47
ENDBRANCH   1  43
BRANCH   1  92
ATOM     92  CB  MET d   1      -7.978 160.577 107.124  0.00  0.00    -0.030 C 
ATOM     93  H18 MET d   1      -7.061 160.435 107.714  0.00  0.00     0.037 H 
ATOM     94  H19 MET d   1      -8.784 159.959 107.545  0.00  0.00     0.037 H 
BRANCH  92  95
ATOM     95  CG  MET d   1      -8.389 162.022 107.247  0.00  0.00    -0.021 C 
ATOM     96  H20 MET d   1      -9.238 162.213 106.573  0.00  0.00     0.049 H 
ATOM     97  H21 MET d   1      -7.542 162.662 106.960  0.00  0.00     0.049 H 
BRANCH  95  98
ATOM     98  SD  MET d   1      -8.880 162.418 108.942  0.00  0.00    -0.173 SA
BRANCH  98  99
ATOM     99  CE  MET d   1      -9.258 164.159 108.818  0.00  0.00    -0.035 C 
ATOM    100  H22 MET d   1      -9.577 164.536 109.801  0.00  0.00     0.041 H 
ATOM    101  H23 MET d   1     -10.067 164.307 108.088  0.00  0.00     0.041 H 
ATOM    102  H24 MET d   1      -8.362 164.706 108.489  0.00  0.00     0.041 H 
ENDBRANCH  98  99
ENDBRANCH  95  98
ENDBRANCH  92  95
ENDBRANCH   1  92
TORSDOF 31
