REMARK  9 active torsions:
REMARK  status: ('A' for Active; 'I' for Inactive)
REMARK    1  A    between atoms: N1_1  and  C16_19 
REMARK    2  A    between atoms: C1_31  and  C2_2 
REMARK    3  A    between atoms: C2_2  and  C3_34 
REMARK    4  A    between atoms: C7_4  and  C8_24 
REMARK    5  A    between atoms: C_28  and  C7_4 
REMARK    6  A    between atoms: C1_31  and  C6_5 
REMARK    7  A    between atoms: C22_13  and  C23_10 
REMARK    8  A    between atoms: C16_19  and  C17_18 
REMARK       I    between atoms: N_30  and  C_28 
REMARK    9  A    between atoms: N_30  and  C1_31 
ROOT
ATOM      1  N1  BQA d   1     -13.991   5.650   6.941  0.00  0.00    -0.067 N 
ATOM      2  C7  BQA d   1     -14.490   6.021   4.044  0.00  0.00     0.071 C 
ATOM      3  C15 BQA d   1     -15.369   5.963   6.490  0.00  0.00     0.085 C 
ATOM      4  C14 BQA d   1     -15.522   5.471   5.062  0.00  0.00    -0.023 C 
ATOM      5  C24 BQA d   1     -12.873   5.997   6.049  0.00  0.00     0.085 C 
ATOM      6  C25 BQA d   1     -13.131   5.549   4.615  0.00  0.00    -0.023 C 
ATOM      7  H1  BQA d   1     -14.017   4.659   6.756  0.00  0.00     0.280 HD
ATOM      8  H14 BQA d   1     -15.536   7.049   6.530  0.00  0.00     0.076 H 
ATOM      9  H15 BQA d   1     -16.098   5.456   7.139  0.00  0.00     0.076 H 
ATOM     10  H16 BQA d   1     -15.435   4.375   5.072  0.00  0.00     0.037 H 
ATOM     11  H17 BQA d   1     -16.525   5.756   4.713  0.00  0.00     0.037 H 
ATOM     12  H18 BQA d   1     -11.960   5.506   6.416  0.00  0.00     0.076 H 
ATOM     13  H19 BQA d   1     -12.733   7.088   6.061  0.00  0.00     0.076 H 
ATOM     14  H20 BQA d   1     -12.329   5.950   3.978  0.00  0.00     0.037 H 
ATOM     15  H21 BQA d   1     -13.107   4.450   4.586  0.00  0.00     0.037 H 
ENDROOT
BRANCH   2  16
ATOM     16  C8  BQA d   1     -14.712   5.312   2.736  0.00  0.00    -0.040 A 
ATOM     17  C9  BQA d   1     -15.794   4.397   2.392  0.00  0.00    -0.074 A 
ATOM     18  C10 BQA d   1     -15.968   3.819   1.143  0.00  0.00    -0.066 A 
ATOM     19  H6  BQA d   1     -16.512   4.151   3.166  0.00  0.00     0.084 H 
ATOM     20  C11 BQA d   1     -14.992   4.136   0.233  0.00  0.00     0.011 A 
ATOM     21  H7  BQA d   1     -16.805   3.172   0.906  0.00  0.00     0.085 H 
ATOM     22  C12 BQA d   1     -13.970   4.989   0.535  0.00  0.00    -0.066 A 
ATOM     23 BR   BQA d   1     -14.857   3.520  -1.514  0.00  0.00    -0.051 Br
ATOM     24  C13 BQA d   1     -13.830   5.587   1.688  0.00  0.00    -0.074 A 
ATOM     25  H23 BQA d   1     -13.227   5.183  -0.231  0.00  0.00     0.085 H 
ATOM     26  H22 BQA d   1     -13.026   6.300   1.832  0.00  0.00     0.084 H 
ENDBRANCH   2  16
BRANCH   2  27
ATOM     27  C   BQA d   1     -14.522   7.516   3.827  0.00  0.00     0.231 C 
ATOM     28  O   BQA d   1     -13.469   8.131   3.547  0.00  0.00    -0.272 OA
ATOM     29  N   BQA d   1     -15.703   8.185   3.870  0.00  0.00    -0.346 N 
ATOM     30  H24 BQA d   1     -16.509   7.720   4.236  0.00  0.00     0.163 HD
BRANCH  29  31
ATOM     31  C1  BQA d   1     -15.832   9.532   3.410  0.00  0.00     0.096 C 
ATOM     32  H25 BQA d   1     -14.836   9.882   3.102  0.00  0.00     0.089 H 
BRANCH  31  33
ATOM     33  C2  BQA d   1     -16.793   9.670   2.268  0.00  0.00    -0.033 C 
ATOM     34  H2  BQA d   1     -16.822  10.728   1.969  0.00  0.00     0.037 H 
ATOM     35  H3  BQA d   1     -17.789   9.360   2.617  0.00  0.00     0.037 H 
BRANCH  33  36
ATOM     36  C3  BQA d   1     -16.433   8.826   1.023  0.00  0.00    -0.052 A 
ATOM     37  C4  BQA d   1     -17.644   8.498   0.217  0.00  0.00    -0.061 A 
ATOM     38  C5  BQA d   1     -16.957   7.425   1.019  0.00  0.00    -0.061 A 
ATOM     39  H4  BQA d   1     -17.587   8.485  -0.881  0.00  0.00     0.033 H 
ATOM     40  H5  BQA d   1     -18.631   8.872   0.529  0.00  0.00     0.033 H 
ATOM     41  H27 BQA d   1     -16.396   6.628   0.508  0.00  0.00     0.033 H 
ATOM     42  H28 BQA d   1     -17.440   7.015   1.918  0.00  0.00     0.033 H 
ATOM     43  H26 BQA d   1     -15.461   9.092   0.583  0.00  0.00     0.040 H 
ENDBRANCH  33  36
ENDBRANCH  31  33
BRANCH  31  44
ATOM     44  C6  BQA d   1     -16.381  10.430   4.430  0.00  0.00     0.196 C 
ATOM     45  O2  BQA d   1     -16.253  11.681   4.274  0.00  0.00    -0.646 OA
ATOM     46  O1  BQA d   1     -16.973   9.815   5.486  0.00  0.00    -0.646 OA
ENDBRANCH  31  44
ENDBRANCH  29  31
ENDBRANCH   2  27
BRANCH   1  47
ATOM     47  C16 BQA d   1     -13.680   5.574   8.385  0.00  0.00     0.108 C 
ATOM     48  H12 BQA d   1     -13.531   6.601   8.748  0.00  0.00     0.083 H 
ATOM     49  H13 BQA d   1     -12.744   5.007   8.495  0.00  0.00     0.083 H 
BRANCH  47  50
ATOM     50  C17 BQA d   1     -14.730   4.914   9.279  0.00  0.00    -0.018 C 
ATOM     51  C22 BQA d   1     -15.634   5.663  10.254  0.00  0.00     0.055 C 
ATOM     52  C21 BQA d   1     -16.398   4.916  11.146  0.00  0.00    -0.068 C 
ATOM     53  C20 BQA d   1     -16.214   3.552  11.247  0.00  0.00    -0.082 C 
ATOM     54  H8  BQA d   1     -17.141   5.408  11.764  0.00  0.00     0.084 H 
ATOM     55  C19 BQA d   1     -15.243   2.900  10.514  0.00  0.00    -0.082 C 
ATOM     56  H9  BQA d   1     -16.846   2.980  11.917  0.00  0.00     0.083 H 
ATOM     57  C18 BQA d   1     -14.435   3.593   9.623  0.00  0.00    -0.074 C 
ATOM     58  H10 BQA d   1     -15.109   1.831  10.636  0.00  0.00     0.083 H 
ATOM     59  H11 BQA d   1     -13.569   3.105   9.191  0.00  0.00     0.084 H 
BRANCH  51  60
ATOM     60  C23 BQA d   1     -15.891   7.155  10.229  0.00  0.00     0.418 C 
ATOM     61  F2  BQA d   1     -16.856   7.455  11.110  0.00  0.00    -0.166 F 
ATOM     62  F   BQA d   1     -16.176   7.580   8.993  0.00  0.00    -0.166 F 
ATOM     63  F1  BQA d   1     -14.772   7.744  10.687  0.00  0.00    -0.166 F 
ENDBRANCH  51  60
ENDBRANCH  47  50
ENDBRANCH   1  47
TORSDOF 9
