REMARK  12 active torsions:
REMARK  status: ('A' for Active; 'I' for Inactive)
REMARK    1  A    between atoms: PBB_2  and  CAP_5 
REMARK    2  A    between atoms: CAP_5  and  OAT_6 
REMARK    3  A    between atoms: OAT_6  and  CAJ_7 
REMARK    4  A    between atoms: CAJ_7  and  CAK_8 
REMARK    5  A    between atoms: CAK_8  and  NAY_9 
REMARK    6  A    between atoms: NAY_9  and  CAM_10 
REMARK    7  A    between atoms: NAY_9  and  CAL_16 
REMARK    8  A    between atoms: CAM_10  and  CAO_11 
REMARK    9  A    between atoms: CAO_11  and  PBA_12 
REMARK   10  A    between atoms: CAL_16  and  CAN_17 
REMARK   11  A    between atoms: CAN_17  and  N9_18 
REMARK   12  A    between atoms: C2_21  and  N2_22 
ROOT
ATOM      1  NAY 3L4 d   1      -9.710   2.842 -49.930  0.00  0.00    -0.067 N 
ATOM      2  H7  3L4 d   1      -8.798   2.472 -49.712  0.00  0.00     0.280 HD
ENDROOT
BRANCH   1   3
ATOM      3  CAK 3L4 d   1      -9.542   4.059 -50.711  0.00  0.00     0.103 C 
ATOM      4  H5  3L4 d   1     -10.481   4.277 -51.241  0.00  0.00     0.079 H 
ATOM      5  H6  3L4 d   1      -9.302   4.891 -50.032  0.00  0.00     0.079 H 
BRANCH   3   6
ATOM      6  CAJ 3L4 d   1      -8.416   3.908 -51.732  0.00  0.00     0.043 C 
ATOM      7  H3  3L4 d   1      -7.720   4.756 -51.654  0.00  0.00     0.076 H 
ATOM      8  H4  3L4 d   1      -7.871   2.969 -51.556  0.00  0.00     0.076 H 
BRANCH   6   9
ATOM      9  OAT 3L4 d   1      -9.009   3.889 -53.001  0.00  0.00    -0.376 OA
BRANCH   9  10
ATOM     10  CAP 3L4 d   1      -8.201   3.341 -54.002  0.00  0.00     0.122 C 
ATOM     11  H1  3L4 d   1      -7.189   3.155 -53.614  0.00  0.00     0.095 H 
ATOM     12  H2  3L4 d   1      -8.633   2.397 -54.365  0.00  0.00     0.095 H 
BRANCH  10  13
ATOM     13  PBB 3L4 d   1      -8.144   4.592 -55.375  0.00  0.00     0.283 P 
ATOM     14  OAG 3L4 d   1      -7.663   5.916 -54.831  0.00  0.00    -0.638 OA
ATOM     15  OAH 3L4 d   1      -9.532   4.763 -55.948  0.00  0.00    -0.638 OA
ATOM     16  OAD 3L4 d   1      -7.191   4.117 -56.448  0.00  0.00    -0.638 OA
ENDBRANCH  10  13
ENDBRANCH   9  10
ENDBRANCH   6   9
ENDBRANCH   3   6
ENDBRANCH   1   3
BRANCH   1  17
ATOM     17  CAM 3L4 d   1     -10.386   3.182 -48.684  0.00  0.00     0.095 C 
ATOM     18  H8  3L4 d   1     -11.211   3.874 -48.909  0.00  0.00     0.077 H 
ATOM     19  H9  3L4 d   1      -9.665   3.676 -48.017  0.00  0.00     0.077 H 
BRANCH  17  20
ATOM     20  CAO 3L4 d   1     -10.958   1.959 -47.965  0.00  0.00     0.061 C 
ATOM     21  H10 3L4 d   1     -11.142   1.171 -48.710  0.00  0.00     0.056 H 
ATOM     22  H11 3L4 d   1     -11.909   2.245 -47.492  0.00  0.00     0.056 H 
BRANCH  20  23
ATOM     23  PBA 3L4 d   1      -9.824   1.279 -46.651  0.00  0.00     0.261 P 
ATOM     24  OAE 3L4 d   1      -9.092   0.085 -47.213  0.00  0.00    -0.640 OA
ATOM     25  OAF 3L4 d   1      -8.822   2.327 -46.222  0.00  0.00    -0.640 OA
ATOM     26  OAC 3L4 d   1     -10.639   0.847 -45.454  0.00  0.00    -0.640 OA
ENDBRANCH  20  23
ENDBRANCH  17  20
ENDBRANCH   1  17
BRANCH   1  27
ATOM     27  CAL 3L4 d   1     -10.446   1.820 -50.671  0.00  0.00     0.099 C 
ATOM     28  H12 3L4 d   1     -10.930   1.149 -49.946  0.00  0.00     0.078 H 
ATOM     29  H13 3L4 d   1      -9.728   1.248 -51.278  0.00  0.00     0.078 H 
BRANCH  27  30
ATOM     30  CAN 3L4 d   1     -11.525   2.380 -51.603  0.00  0.00     0.025 C 
ATOM     31  H14 3L4 d   1     -11.113   3.229 -52.167  0.00  0.00     0.067 H 
ATOM     32  H15 3L4 d   1     -12.383   2.720 -51.004  0.00  0.00     0.067 H 
BRANCH  30  33
ATOM     33  N9  3L4 d   1     -11.965   1.353 -52.533  0.00  0.00    -0.324 N 
ATOM     34  C4  3L4 d   1     -12.609   0.236 -52.188  0.00  0.00     0.159 A 
ATOM     35  N3  3L4 d   1     -13.055  -0.293 -50.874  0.00  0.00    -0.174 N 
ATOM     36  C5  3L4 d   1     -12.851  -0.476 -53.351  0.00  0.00     0.171 A 
ATOM     37  C2  3L4 d   1     -13.753  -1.572 -50.800  0.00  0.00     0.680 A 
ATOM     38  H16 3L4 d   1     -12.871   0.243 -50.014  0.00  0.00     0.186 HD
ATOM     39  N1  3L4 d   1     -14.015  -2.327 -52.009  0.00  0.00    -0.154 N 
ATOM     40  C6  3L4 d   1     -13.584  -1.818 -53.281  0.00  0.00     0.292 A 
ATOM     41  H19 3L4 d   1     -14.496  -3.202 -51.958  0.00  0.00     0.187 HD
ATOM     42  O6  3L4 d   1     -13.796  -2.438 -54.270  0.00  0.00    -0.265 OA
ATOM     43  N7  3L4 d   1     -12.340   0.246 -54.356  0.00  0.00    -0.234 NA
ATOM     44  C8  3L4 d   1     -11.806   1.349 -53.848  0.00  0.00     0.068 A 
ATOM     45  H20 3L4 d   1     -11.313   2.131 -54.424  0.00  0.00     0.143 H 
BRANCH  37  46
ATOM     46  N2  3L4 d   1     -14.182  -2.074 -49.510  0.00  0.00    -0.234 N 
ATOM     47  H17 3L4 d   1     -14.675  -2.976 -49.447  0.00  0.00     0.174 HD
ATOM     48  H18 3L4 d   1     -13.993  -1.529 -48.657  0.00  0.00     0.174 HD
ENDBRANCH  37  46
ENDBRANCH  30  33
ENDBRANCH  27  30
ENDBRANCH   1  27
TORSDOF 12
