REMARK  11 active torsions:
REMARK  status: ('A' for Active; 'I' for Inactive)
REMARK    1  A    between atoms: NAY_6  and  CAH_7 
REMARK    2  A    between atoms: NAD_12  and  CAB_13 
REMARK    3  A    between atoms: CAB_13  and  CAC_14 
REMARK    4  A    between atoms: CAB_13  and  CAA_15 
REMARK    5  A    between atoms: CAJ_18  and  CAM_19 
REMARK    6  A    between atoms: CAQ_24  and  OAR_25 
REMARK    7  A    between atoms: OAR_25  and  CAS_26 
REMARK    8  A    between atoms: CAS_26  and  CAT_27 
REMARK    9  A    between atoms: CAT_27  and  OAU_28 
REMARK   10  A    between atoms: CAT_27  and  CAV_29 
REMARK   11  A    between atoms: CAV_29  and  NAW_30 
ROOT
ATOM      1  CAH BW7 d   1      -4.956  21.507  24.453  0.00  0.00     0.048 A 
ATOM      2  CAI BW7 d   1      -6.010  20.646  24.782  0.00  0.00    -0.028 A 
ATOM      3  CAG BW7 d   1      -5.249  22.635  23.764  0.00  0.00     0.057 A 
ATOM      4  CAF BW7 d   1      -4.503  23.642  23.309  0.00  0.00     0.038 A 
ATOM      5  NAE BW7 d   1      -5.334  24.488  22.690  0.00  0.00    -0.182 NA
ATOM      6  NAD BW7 d   1      -6.498  24.068  22.743  0.00  0.00    -0.248 N 
ATOM      7  CAL BW7 d   1      -6.515  22.921  23.400  0.00  0.00     0.161 A 
ATOM      8  NAK BW7 d   1      -7.545  22.096  23.715  0.00  0.00    -0.228 NA
ATOM      9  CAJ BW7 d   1      -7.320  20.960  24.397  0.00  0.00     0.071 A 
ATOM     10  H9  BW7 d   1      -5.812  19.735  25.335  0.00  0.00     0.090 H 
ATOM     11  H10 BW7 d   1      -3.425  23.754  23.420  0.00  0.00     0.119 H 
ENDROOT
BRANCH   9  12
ATOM     12  CAM BW7 d   1      -8.406  20.111  24.679  0.00  0.00    -0.005 A 
ATOM     13  CAX BW7 d   1      -9.456  20.000  23.763  0.00  0.00    -0.039 A 
ATOM     14  CAQ BW7 d   1     -10.531  19.140  24.056  0.00  0.00     0.069 A 
ATOM     15  H18 BW7 d   1      -9.443  20.568  22.840  0.00  0.00     0.089 H 
ATOM     16  CAP BW7 d   1     -10.565  18.444  25.256  0.00  0.00    -0.051 A 
ATOM     17  CAO BW7 d   1      -9.512  18.558  26.152  0.00  0.00    -0.080 A 
ATOM     18  H21 BW7 d   1     -11.413  17.812  25.493  0.00  0.00     0.087 H 
ATOM     19  CAN BW7 d   1      -8.436  19.398  25.868  0.00  0.00    -0.071 A 
ATOM     20  H20 BW7 d   1      -9.526  17.992  27.076  0.00  0.00     0.083 H 
ATOM     21  H19 BW7 d   1      -7.622  19.494  26.577  0.00  0.00     0.084 H 
BRANCH  14  22
ATOM     22  OAR BW7 d   1     -11.587  18.963  23.242  0.00  0.00    -0.349 OA
BRANCH  22  23
ATOM     23  CAS BW7 d   1     -11.552  19.508  21.910  0.00  0.00     0.051 C 
ATOM     24  H22 BW7 d   1     -10.744  19.030  21.336  0.00  0.00     0.079 H 
ATOM     25  H23 BW7 d   1     -11.375  20.593  21.959  0.00  0.00     0.079 H 
BRANCH  23  26
ATOM     26  CAT BW7 d   1     -12.886  19.239  21.234  0.00  0.00     0.079 C 
ATOM     27  H24 BW7 d   1     -13.708  19.495  21.918  0.00  0.00     0.088 H 
BRANCH  26  28
ATOM     28  OAU BW7 d   1     -12.972  17.851  20.865  0.00  0.00    -0.392 OA
ATOM     29  H25 BW7 d   1     -13.807  17.688  20.443  0.00  0.00     0.210 HD
ENDBRANCH  26  28
BRANCH  26  30
ATOM     30  CAV BW7 d   1     -12.980  20.095  19.952  0.00  0.00     0.105 C 
ATOM     31  H26 BW7 d   1     -12.367  19.638  19.161  0.00  0.00     0.079 H 
ATOM     32  H27 BW7 d   1     -12.611  21.110  20.162  0.00  0.00     0.079 H 
BRANCH  30  33
ATOM     33  NAW BW7 d   1     -14.374  20.166  19.509  0.00  0.00    -0.077 N 
ATOM     34  H28 BW7 d   1     -14.433  20.725  18.672  0.00  0.00     0.274 HD
ATOM     35  H29 BW7 d   1     -14.936  20.585  20.233  0.00  0.00     0.274 HD
ATOM     36  H30 BW7 d   1     -14.713  19.236  19.316  0.00  0.00     0.274 HD
ENDBRANCH  30  33
ENDBRANCH  26  30
ENDBRANCH  23  26
ENDBRANCH  22  23
ENDBRANCH  14  22
ENDBRANCH   9  12
BRANCH   1  37
ATOM     37  NAY BW7 d   1      -3.692  21.200  24.842  0.00  0.00    -0.376 N 
ATOM     38  CAZ BW7 d   1      -3.453  19.873  25.504  0.00  0.00     0.015 C 
ATOM     39  CBA BW7 d   1      -2.132  19.786  26.253  0.00  0.00     0.034 C 
ATOM     40  H1  BW7 d   1      -4.269  19.691  26.219  0.00  0.00     0.067 H 
ATOM     41  H2  BW7 d   1      -3.463  19.093  24.729  0.00  0.00     0.067 H 
ATOM     42  OBB BW7 d   1      -1.106  20.355  25.411  0.00  0.00    -0.388 OA
ATOM     43  H3  BW7 d   1      -1.895  18.734  26.472  0.00  0.00     0.076 H 
ATOM     44  H4  BW7 d   1      -2.198  20.351  27.195  0.00  0.00     0.076 H 
ATOM     45  CBC BW7 d   1      -1.259  21.810  25.300  0.00  0.00     0.034 C 
ATOM     46  CBD BW7 d   1      -2.564  22.141  24.558  0.00  0.00     0.015 C 
ATOM     47  H5  BW7 d   1      -0.406  22.225  24.743  0.00  0.00     0.076 H 
ATOM     48  H6  BW7 d   1      -1.289  22.252  26.307  0.00  0.00     0.076 H 
ATOM     49  H7  BW7 d   1      -2.361  22.118  23.477  0.00  0.00     0.067 H 
ATOM     50  H8  BW7 d   1      -2.879  23.154  24.851  0.00  0.00     0.067 H 
ENDBRANCH   1  37
BRANCH   6  51
ATOM     51  CAB BW7 d   1      -7.682  24.759  22.142  0.00  0.00     0.029 C 
ATOM     52  H11 BW7 d   1      -8.584  24.445  22.687  0.00  0.00     0.074 H 
BRANCH  51  53
ATOM     53  CAC BW7 d   1      -7.591  26.308  22.192  0.00  0.00    -0.056 C 
ATOM     54  H12 BW7 d   1      -8.492  26.743  21.735  0.00  0.00     0.030 H 
ATOM     55  H13 BW7 d   1      -6.701  26.641  21.638  0.00  0.00     0.030 H 
ATOM     56  H14 BW7 d   1      -7.516  26.637  23.239  0.00  0.00     0.030 H 
ENDBRANCH  51  53
BRANCH  51  57
ATOM     57  CAA BW7 d   1      -7.789  24.335  20.695  0.00  0.00    -0.056 C 
ATOM     58  H15 BW7 d   1      -8.654  24.831  20.231  0.00  0.00     0.030 H 
ATOM     59  H16 BW7 d   1      -7.920  23.244  20.641  0.00  0.00     0.030 H 
ATOM     60  H17 BW7 d   1      -6.872  24.621  20.160  0.00  0.00     0.030 H 
ENDBRANCH  51  57
ENDBRANCH   6  51
TORSDOF 11
