REMARK  8 active torsions:
REMARK  status: ('A' for Active; 'I' for Inactive)
REMARK    1  A    between atoms: C08_9  and  C11_2 
REMARK    2  A    between atoms: C11_2  and  C13_11 
REMARK    3  A    between atoms: C11_2  and  O12_15 
REMARK    4  A    between atoms: C02_4  and  C01_3 
REMARK    5  A    between atoms: C03_5  and  C02_4 
REMARK    6  A    between atoms: C03_5  and  C04_6 
REMARK    7  A    between atoms: N06_14  and  C03_5 
REMARK    8  A    between atoms: C04_6  and  C05_7 
ROOT
ATOM      1  C03 BT7 d   1     -62.112  59.548  16.094  0.00  0.00     0.033 C 
ATOM      2  H7  BT7 d   1     -62.569  59.936  17.016  0.00  0.00     0.075 H 
ENDROOT
BRANCH   1   3
ATOM      3  C02 BT7 d   1     -61.927  60.793  15.144  0.00  0.00    -0.048 C 
ATOM      4  H5  BT7 d   1     -62.456  60.585  14.202  0.00  0.00     0.035 H 
ATOM      5  H6  BT7 d   1     -62.380  61.667  15.634  0.00  0.00     0.035 H 
BRANCH   3   6
ATOM      6  C01 BT7 d   1     -60.456  61.142  14.803  0.00  0.00    -0.075 C 
ATOM      7  H2  BT7 d   1     -60.432  62.019  14.139  0.00  0.00     0.027 H 
ATOM      8  H3  BT7 d   1     -59.984  60.287  14.298  0.00  0.00     0.027 H 
ATOM      9  H4  BT7 d   1     -59.908  61.368  15.730  0.00  0.00     0.027 H 
ENDBRANCH   3   6
ENDBRANCH   1   3
BRANCH   1  10
ATOM     10  C04 BT7 d   1     -63.111  58.453  15.554  0.00  0.00    -0.048 C 
ATOM     11  H8  BT7 d   1     -62.735  58.087  14.587  0.00  0.00     0.035 H 
ATOM     12  H9  BT7 d   1     -64.096  58.922  15.411  0.00  0.00     0.035 H 
BRANCH  10  13
ATOM     13  C05 BT7 d   1     -63.281  57.242  16.502  0.00  0.00    -0.075 C 
ATOM     14  H10 BT7 d   1     -63.989  56.526  16.059  0.00  0.00     0.027 H 
ATOM     15  H11 BT7 d   1     -63.668  57.587  17.472  0.00  0.00     0.027 H 
ATOM     16  H12 BT7 d   1     -62.307  56.752  16.649  0.00  0.00     0.027 H 
ENDBRANCH  10  13
ENDBRANCH   1  10
BRANCH   1  17
ATOM     17  N06 BT7 d   1     -60.738  58.957  16.503  0.00  0.00    -0.276 N 
ATOM     18  N10 BT7 d   1     -60.081  57.902  15.870  0.00  0.00    -0.184 NA
ATOM     19  C09 BT7 d   1     -58.906  57.677  16.586  0.00  0.00     0.032 A 
ATOM     20  C08 BT7 d   1     -58.830  58.603  17.696  0.00  0.00     0.012 A 
ATOM     21  H14 BT7 d   1     -58.160  56.921  16.347  0.00  0.00     0.118 H 
ATOM     22  C07 BT7 d   1     -59.985  59.386  17.592  0.00  0.00     0.009 A 
ATOM     23  H13 BT7 d   1     -60.253  60.204  18.259  0.00  0.00     0.115 H 
BRANCH  20  24
ATOM     24  C11 BT7 d   1     -57.683  58.781  18.697  0.00  0.00     0.120 C 
ATOM     25  H1  BT7 d   1     -58.029  59.238  19.636  0.00  0.00     0.099 H 
BRANCH  24  26
ATOM     26  C13 BT7 d   1     -57.095  57.386  18.941  0.00  0.00     0.236 C 
ATOM     27  F14 BT7 d   1     -57.943  56.575  19.665  0.00  0.00    -0.211 F 
ATOM     28  F15 BT7 d   1     -56.019  57.425  19.834  0.00  0.00    -0.211 F 
ATOM     29  H15 BT7 d   1     -56.817  56.933  17.978  0.00  0.00     0.149 H 
ENDBRANCH  24  26
BRANCH  24  30
ATOM     30  O12 BT7 d   1     -56.717  59.579  18.071  0.00  0.00    -0.385 OA
ATOM     31  H16 BT7 d   1     -57.075  60.445  17.917  0.00  0.00     0.210 HD
ENDBRANCH  24  30
ENDBRANCH  20  24
ENDBRANCH   1  17
TORSDOF 8
