REMARK  7 active torsions:
REMARK  status: ('A' for Active; 'I' for Inactive)
REMARK    1  A    between atoms: C08_11  and  C10_1 
REMARK    2  A    between atoms: C10_1  and  C11_12 
REMARK    3  A    between atoms: C11_12  and  C13_2 
REMARK    4  A    between atoms: C02_5  and  C01_4 
REMARK    5  A    between atoms: C05_8  and  C16_13 
REMARK    6  A    between atoms: C07_10  and  C08_11 
REMARK    7  A    between atoms: C11_12  and  O12_16 
ROOT
ATOM      1  C02 BSV d   1      34.252  76.290  63.190  0.00  0.00    -0.048 A 
ATOM      2  C03 BSV d   1      33.301  75.265  63.185  0.00  0.00    -0.076 A 
ATOM      3  C04 BSV d   1      32.162  75.335  62.393  0.00  0.00    -0.076 A 
ATOM      4  C05 BSV d   1      31.919  76.424  61.550  0.00  0.00    -0.053 A 
ATOM      5  C06 BSV d   1      32.876  77.457  61.538  0.00  0.00    -0.062 A 
ATOM      6  C07 BSV d   1      34.030  77.416  62.348  0.00  0.00     0.016 A 
ATOM      7  H8  BSV d   1      33.456  74.396  63.814  0.00  0.00     0.084 H 
ATOM      8  H9  BSV d   1      31.443  74.525  62.429  0.00  0.00     0.084 H 
ATOM      9  H10 BSV d   1      32.721  78.309  60.887  0.00  0.00     0.085 H 
ENDROOT
BRANCH   6  10
ATOM     10  C08 BSV d   1      35.005  78.550  62.191  0.00  0.00     0.163 C 
ATOM     11  O09 BSV d   1      35.320  78.885  61.021  0.00  0.00    -0.292 OA
BRANCH  10  12
ATOM     12  C10 BSV d   1      35.579  79.292  63.330  0.00  0.00     0.028 C 
ATOM     13  H1  BSV d   1      36.022  78.532  63.991  0.00  0.00     0.049 H 
ATOM     14  H2  BSV d   1      34.728  79.768  63.838  0.00  0.00     0.049 H 
BRANCH  12  15
ATOM     15  C11 BSV d   1      36.515  80.256  63.196  0.00  0.00     0.125 C 
ATOM     16  H11 BSV d   1      35.971  81.035  63.750  0.00  0.00     0.100 H 
BRANCH  15  17
ATOM     17  C13 BSV d   1      37.767  80.219  63.994  0.00  0.00     0.203 C 
ATOM     18  O14 BSV d   1      37.640  80.001  65.329  0.00  0.00    -0.646 OA
ATOM     19  O15 BSV d   1      38.894  80.212  63.504  0.00  0.00    -0.646 OA
ENDBRANCH  15  17
BRANCH  15  20
ATOM     20  O12 BSV d   1      36.753  80.954  62.033  0.00  0.00    -0.384 OA
ATOM     21  H15 BSV d   1      37.438  80.520  61.539  0.00  0.00     0.210 HD
ENDBRANCH  15  20
ENDBRANCH  12  15
ENDBRANCH  10  12
ENDBRANCH   6  10
BRANCH   1  22
ATOM     22  C01 BSV d   1      35.446  76.117  64.047  0.00  0.00    -0.050 C 
ATOM     23  H5  BSV d   1      35.370  75.165  64.593  0.00  0.00     0.033 H 
ATOM     24  H6  BSV d   1      35.506  76.948  64.765  0.00  0.00     0.033 H 
ATOM     25  H7  BSV d   1      36.349  76.109  63.420  0.00  0.00     0.033 H 
ENDBRANCH   1  22
BRANCH   4  26
ATOM     26  C16 BSV d   1      30.690  76.473  60.722  0.00  0.00    -0.029 A 
ATOM     27  C17 BSV d   1      29.313  75.966  61.120  0.00  0.00    -0.057 A 
ATOM     28  C18 BSV d   1      30.055  75.296  60.004  0.00  0.00    -0.057 A 
ATOM     29  H3  BSV d   1      28.421  76.571  60.901  0.00  0.00     0.034 H 
ATOM     30  H4  BSV d   1      29.176  75.445  62.079  0.00  0.00     0.034 H 
ATOM     31  H13 BSV d   1      29.706  75.410  58.967  0.00  0.00     0.034 H 
ATOM     32  H14 BSV d   1      30.461  74.284  60.145  0.00  0.00     0.034 H 
ATOM     33  H12 BSV d   1      30.733  77.429  60.179  0.00  0.00     0.047 H 
ENDBRANCH   4  26
TORSDOF 7
