REMARK WARNING: 32 MAX_TORS EXCEEDED!!!
REMARK  33 active torsions:
REMARK  status: ('A' for Active; 'I' for Inactive)
REMARK    1  A    between atoms: N_1  and  CA_2 
REMARK    2  A    between atoms: CA_2  and  C_3 
REMARK    3  A    between atoms: CA_2  and  CB_5 
REMARK       I    between atoms: C_3  and  N_10 
REMARK    4  A    between atoms: CB_5  and  CG_6 
REMARK    5  A    between atoms: CG_6  and  CD_7 
REMARK       I    between atoms: CD_7  and  NE2_9 
REMARK    6  A    between atoms: N_10  and  CA_11 
REMARK    7  A    between atoms: CA_11  and  C_12 
REMARK    8  A    between atoms: CA_11  and  CB_14 
REMARK       I    between atoms: C_12  and  N_17 
REMARK    9  A    between atoms: CB_14  and  OG1_15 
REMARK   10  A    between atoms: CB_14  and  CG2_16 
REMARK   11  A    between atoms: N_17  and  CA_18 
REMARK   12  A    between atoms: CA_18  and  C_19 
REMARK   13  A    between atoms: CA_18  and  CB_21 
REMARK       I    between atoms: C_19  and  N_22 
REMARK   14  A    between atoms: N_22  and  CA_23 
REMARK   15  A    between atoms: CA_23  and  C_24 
REMARK   16  A    between atoms: CA_23  and  CB_26 
REMARK       I    between atoms: C_24  and  N_33 
REMARK   17  A    between atoms: CB_26  and  CG_27 
REMARK   18  A    between atoms: CG_27  and  CD_28 
REMARK   19  A    between atoms: CD_28  and  NE_29 
REMARK       I    between atoms: NE_29  and  CZ_30 
REMARK       I    between atoms: CZ_30  and  NH1_31 
REMARK   20  A    between atoms: N_33  and  CA_34 
REMARK   21  A    between atoms: CA_34  and  CB_35 
REMARK   22  A    between atoms: CA_34  and  C_40 
REMARK   23  A    between atoms: CB_35  and  CG_36 
REMARK   24  A    between atoms: CG_36  and  CD_37 
REMARK   25  A    between atoms: CD_37  and  CE_38 
REMARK   26  A    between atoms: CE_38  and  NZ_39 
REMARK   27  A    between atoms: NZ_39  and  CM1_42 
REMARK   28  A    between atoms: NZ_39  and  CM2_43 
REMARK   29  A    between atoms: NZ_39  and  CM3_44 
REMARK       I    between atoms: C_40  and  N_45 
REMARK   30  A    between atoms: N_45  and  CA_46 
REMARK   31  A    between atoms: CA_46  and  C_47 
REMARK   32  A    between atoms: CA_46  and  CB_49 
REMARK   33  A    between atoms: CB_49  and  OG_50 
ROOT
ATOM      1  CA  ARG d   1     -18.070 -15.443   6.303  0.00  0.00     0.089 C 
ATOM      2  H24 ARG d   1     -19.005 -15.319   6.870  0.00  0.00     0.087 H 
ENDROOT
BRANCH   1   3
ATOM      3  N   ARG d   1     -17.873 -14.294   5.441  0.00  0.00    -0.346 N 
ATOM      4  C   ALA d   1     -18.027 -13.044   5.862  0.00  0.00     0.240 C 
ATOM      5  O   ALA d   1     -18.517 -12.747   6.956  0.00  0.00    -0.271 OA
ATOM      6  H23 ARG d   1     -17.610 -14.449   4.489  0.00  0.00     0.163 HD
BRANCH   4   7
ATOM      7  CA  ALA d   1     -17.547 -11.979   4.893  0.00  0.00     0.086 C 
ATOM      8  H19 ALA d   1     -17.703 -12.339   3.865  0.00  0.00     0.086 H 
BRANCH   7   9
ATOM      9  N   ALA d   1     -18.322 -10.759   5.071  0.00  0.00    -0.346 N 
ATOM     10  C   THR d   1     -18.464  -9.883   4.078  0.00  0.00     0.243 C 
ATOM     11  O   THR d   1     -17.888  -9.999   2.994  0.00  0.00    -0.271 OA
ATOM     12  H18 ALA d   1     -18.755 -10.576   5.954  0.00  0.00     0.163 HD
BRANCH  10  13
ATOM     13  CA  THR d   1     -19.405  -8.721   4.352  0.00  0.00     0.113 C 
ATOM     14  H12 THR d   1     -19.132  -8.255   5.311  0.00  0.00     0.091 H 
BRANCH  13  15
ATOM     15  N   THR d   1     -19.258  -7.729   3.296  0.00  0.00    -0.344 N 
ATOM     16  C   GLN d   1     -19.179  -6.425   3.551  0.00  0.00     0.249 C 
ATOM     17  O   GLN d   1     -19.128  -5.969   4.702  0.00  0.00    -0.271 OA
ATOM     18  H11 THR d   1     -19.215  -8.038   2.346  0.00  0.00     0.163 HD
BRANCH  16  19
ATOM     19  CA  GLN d   1     -19.151  -5.516   2.323  0.00  0.00     0.176 C 
ATOM     20  H4  GLN d   1     -18.379  -5.890   1.634  0.00  0.00     0.099 H 
BRANCH  19  21
ATOM     21  N   GLN d   1     -20.437  -5.539   1.631  0.00  0.00    -0.066 N 
ATOM     22  H1  GLN d   1     -20.396  -4.934   0.826  0.00  0.00     0.275 HD
ATOM     23  H2  GLN d   1     -21.160  -5.219   2.256  0.00  0.00     0.275 HD
ATOM     24  H3  GLN d   1     -20.642  -6.480   1.334  0.00  0.00     0.275 HD
ENDBRANCH  19  21
BRANCH  19  25
ATOM     25  CB  GLN d   1     -18.795  -4.092   2.716  0.00  0.00    -0.022 C 
ATOM     26  H5  GLN d   1     -19.480  -3.776   3.517  0.00  0.00     0.037 H 
ATOM     27  H6  GLN d   1     -18.938  -3.448   1.836  0.00  0.00     0.037 H 
BRANCH  25  28
ATOM     28  CG  GLN d   1     -17.379  -3.908   3.209  0.00  0.00     0.011 C 
ATOM     29  H7  GLN d   1     -16.707  -4.531   2.601  0.00  0.00     0.047 H 
ATOM     30  H8  GLN d   1     -17.324  -4.227   4.260  0.00  0.00     0.047 H 
BRANCH  28  31
ATOM     31  CD  GLN d   1     -16.932  -2.466   3.111  0.00  0.00     0.215 C 
ATOM     32  OE1 GLN d   1     -16.778  -1.936   2.014  0.00  0.00    -0.274 OA
ATOM     33  NE2 GLN d   1     -16.732  -1.816   4.261  0.00  0.00    -0.370 N 
ATOM     34  H9  GLN d   1     -16.436  -0.861   4.250  0.00  0.00     0.159 HD
ATOM     35  H10 GLN d   1     -16.878  -2.285   5.132  0.00  0.00     0.159 HD
ENDBRANCH  28  31
ENDBRANCH  25  28
ENDBRANCH  19  25
ENDBRANCH  16  19
ENDBRANCH  13  15
BRANCH  13  36
ATOM     36  CB  THR d   1     -20.848  -9.243   4.456  0.00  0.00     0.060 C 
ATOM     37  H13 THR d   1     -20.899  -9.972   5.278  0.00  0.00     0.086 H 
BRANCH  36  38
ATOM     38  OG1 THR d   1     -21.213  -9.897   3.231  0.00  0.00    -0.393 OA
ATOM     39  H14 THR d   1     -20.624 -10.626   3.075  0.00  0.00     0.210 HD
ENDBRANCH  36  38
BRANCH  36  40
ATOM     40  CG2 THR d   1     -21.831  -8.106   4.752  0.00  0.00    -0.050 C 
ATOM     41  H15 THR d   1     -22.851  -8.512   4.820  0.00  0.00     0.031 H 
ATOM     42  H16 THR d   1     -21.785  -7.362   3.943  0.00  0.00     0.031 H 
ATOM     43  H17 THR d   1     -21.562  -7.628   5.705  0.00  0.00     0.031 H 
ENDBRANCH  36  40
ENDBRANCH  13  36
ENDBRANCH  10  13
ENDBRANCH   7   9
BRANCH   7  44
ATOM     44  CB  ALA d   1     -16.047 -11.742   5.100  0.00  0.00    -0.049 C 
ATOM     45  H20 ALA d   1     -15.503 -12.687   4.956  0.00  0.00     0.030 H 
ATOM     46  H21 ALA d   1     -15.872 -11.370   6.120  0.00  0.00     0.030 H 
ATOM     47  H22 ALA d   1     -15.689 -10.999   4.372  0.00  0.00     0.030 H 
ENDBRANCH   7  44
ENDBRANCH   4   7
ENDBRANCH   1   3
BRANCH   1  48
ATOM     48  C   ARG d   1     -16.901 -15.521   7.279  0.00  0.00     0.241 C 
ATOM     49  O   ARG d   1     -15.753 -15.385   6.885  0.00  0.00    -0.271 OA
ATOM     50  N   M3L d   1     -17.190 -15.726   8.553  0.00  0.00    -0.346 N 
ATOM     51  H36 M3L d   1     -18.146 -15.820   8.831  0.00  0.00     0.163 HD
BRANCH  50  52
ATOM     52  CA  M3L d   1     -16.153 -15.816   9.547  0.00  0.00     0.089 C 
ATOM     53  H37 M3L d   1     -15.216 -15.451   9.101  0.00  0.00     0.087 H 
BRANCH  52  54
ATOM     54  CB  M3L d   1     -16.480 -14.964  10.781  0.00  0.00    -0.038 C 
ATOM     55  H38 M3L d   1     -17.320 -15.423  11.323  0.00  0.00     0.036 H 
ATOM     56  H39 M3L d   1     -16.762 -13.952  10.455  0.00  0.00     0.036 H 
BRANCH  54  57
ATOM     57  CG  M3L d   1     -15.287 -14.871  11.706  0.00  0.00    -0.061 C 
ATOM     58  H40 M3L d   1     -14.595 -14.103  11.332  0.00  0.00     0.033 H 
ATOM     59  H41 M3L d   1     -14.774 -15.843  11.737  0.00  0.00     0.033 H 
BRANCH  57  60
ATOM     60  CD  M3L d   1     -15.743 -14.498  13.105  0.00  0.00    -0.042 C 
ATOM     61  H42 M3L d   1     -14.873 -14.319  13.753  0.00  0.00     0.035 H 
ATOM     62  H43 M3L d   1     -16.359 -15.304  13.531  0.00  0.00     0.035 H 
BRANCH  60  63
ATOM     63  CE  M3L d   1     -16.563 -13.229  12.968  0.00  0.00     0.084 C 
ATOM     64  H44 M3L d   1     -17.561 -13.526  12.614  0.00  0.00     0.076 H 
ATOM     65  H45 M3L d   1     -16.073 -12.608  12.204  0.00  0.00     0.076 H 
BRANCH  63  66
ATOM     66  NZ  M3L d   1     -16.765 -12.355  14.189  0.00  0.00    -0.079 N 
BRANCH  66  67
ATOM     67  CM1 M3L d   1     -15.512 -12.151  14.978  0.00  0.00     0.067 C 
ATOM     68  H46 M3L d   1     -15.726 -11.511  15.847  0.00  0.00     0.068 H 
ATOM     69  H47 M3L d   1     -14.754 -11.668  14.344  0.00  0.00     0.068 H 
ATOM     70  H48 M3L d   1     -15.134 -13.124  15.324  0.00  0.00     0.068 H 
ENDBRANCH  66  67
BRANCH  66  71
ATOM     71  CM2 M3L d   1     -17.271 -11.034  13.714  0.00  0.00     0.067 C 
ATOM     72  H49 M3L d   1     -18.193 -11.182  13.133  0.00  0.00     0.068 H 
ATOM     73  H50 M3L d   1     -16.510 -10.557  13.079  0.00  0.00     0.068 H 
ATOM     74  H51 M3L d   1     -17.483 -10.389  14.580  0.00  0.00     0.068 H 
ENDBRANCH  66  71
BRANCH  66  75
ATOM     75  CM3 M3L d   1     -17.790 -12.996  15.075  0.00  0.00     0.067 C 
ATOM     76  H52 M3L d   1     -17.416 -13.970  15.424  0.00  0.00     0.068 H 
ATOM     77  H53 M3L d   1     -18.722 -13.143  14.510  0.00  0.00     0.068 H 
ATOM     78  H54 M3L d   1     -17.984 -12.346  15.941  0.00  0.00     0.068 H 
ENDBRANCH  66  75
ENDBRANCH  63  66
ENDBRANCH  60  63
ENDBRANCH  57  60
ENDBRANCH  54  57
ENDBRANCH  52  54
BRANCH  52  79
ATOM     79  C   M3L d   1     -15.953 -17.248  10.007  0.00  0.00     0.241 C 
ATOM     80  O   M3L d   1     -16.884 -17.979  10.333  0.00  0.00    -0.271 OA
ATOM     81  N   SER d   1     -14.697 -17.678  10.021  0.00  0.00    -0.343 N 
ATOM     82  H55 SER d   1     -13.953 -17.064   9.758  0.00  0.00     0.163 HD
BRANCH  81  83
ATOM     83  CA  SER d   1     -14.406 -19.052  10.422  0.00  0.00     0.116 C 
ATOM     84  H56 SER d   1     -15.363 -19.571  10.578  0.00  0.00     0.093 H 
BRANCH  83  85
ATOM     85  C   SER d   1     -13.629 -19.092  11.734  0.00  0.00     0.198 C 
ATOM     86  O   SER d   1     -14.171 -19.472  12.775  0.00  0.00    -0.646 OA
ATOM     87  OXT SER d   1     -12.446 -18.745  11.776  0.00  0.00    -0.646 OA
ENDBRANCH  83  85
BRANCH  83  88
ATOM     88  CB  SER d   1     -13.642 -19.786   9.315  0.00  0.00     0.045 C 
ATOM     89  H57 SER d   1     -14.302 -19.901   8.442  0.00  0.00     0.077 H 
ATOM     90  H58 SER d   1     -13.346 -20.779   9.684  0.00  0.00     0.077 H 
BRANCH  88  91
ATOM     91  OG  SER d   1     -12.478 -19.076   8.922  0.00  0.00    -0.398 OA
ATOM     92  H59 SER d   1     -12.726 -18.218   8.597  0.00  0.00     0.209 HD
ENDBRANCH  88  91
ENDBRANCH  83  88
ENDBRANCH  81  83
ENDBRANCH  52  79
ENDBRANCH  50  52
ENDBRANCH   1  48
BRANCH   1  93
ATOM     93  CB  ARG d   1     -18.171 -16.710   5.454  0.00  0.00    -0.036 C 
ATOM     94  H25 ARG d   1     -17.189 -16.881   4.989  0.00  0.00     0.036 H 
ATOM     95  H26 ARG d   1     -18.921 -16.529   4.670  0.00  0.00     0.036 H 
BRANCH  93  96
ATOM     96  CG  ARG d   1     -18.560 -17.968   6.177  0.00  0.00    -0.048 C 
ATOM     97  H27 ARG d   1     -19.543 -17.834   6.652  0.00  0.00     0.035 H 
ATOM     98  H28 ARG d   1     -17.809 -18.201   6.946  0.00  0.00     0.035 H 
BRANCH  96  99
ATOM     99  CD  ARG d   1     -18.629 -19.103   5.167  0.00  0.00     0.009 C 
ATOM    100  H29 ARG d   1     -17.616 -19.294   4.783  0.00  0.00     0.064 H 
ATOM    101  H30 ARG d   1     -19.284 -18.797   4.338  0.00  0.00     0.064 H 
BRANCH  99 102
ATOM    102  NE  ARG d   1     -19.149 -20.335   5.739  0.00  0.00    -0.227 N 
ATOM    103  CZ  ARG d   1     -20.437 -20.656   5.776  0.00  0.00     0.665 C 
ATOM    104  NH1 ARG d   1     -21.349 -19.833   5.269  0.00  0.00    -0.235 N 
ATOM    105  NH2 ARG d   1     -20.812 -21.806   6.316  0.00  0.00    -0.235 N 
ATOM    106  H32 ARG d   1     -22.347 -20.087   5.301  0.00  0.00     0.174 HD
ATOM    107  H33 ARG d   1     -21.058 -18.941   4.845  0.00  0.00     0.174 HD
ATOM    108  H34 ARG d   1     -20.106 -22.445   6.709  0.00  0.00     0.174 HD
ATOM    109  H35 ARG d   1     -21.809 -22.061   6.343  0.00  0.00     0.174 HD
ATOM    110  H31 ARG d   1     -18.475 -21.002   6.141  0.00  0.00     0.177 HD
ENDBRANCH  99 102
ENDBRANCH  96  99
ENDBRANCH  93  96
ENDBRANCH   1  93
TORSDOF 33
