REMARK WARNING: 32 MAX_TORS EXCEEDED!!!
REMARK  33 active torsions:
REMARK  status: ('A' for Active; 'I' for Inactive)
REMARK    1  A    between atoms: N_1  and  CA_2 
REMARK    2  A    between atoms: CA_2  and  C_3 
REMARK    3  A    between atoms: CA_2  and  CB_5 
REMARK       I    between atoms: C_3  and  N_10 
REMARK    4  A    between atoms: CB_5  and  CG_6 
REMARK    5  A    between atoms: CG_6  and  CD_7 
REMARK       I    between atoms: CD_7  and  NE2_9 
REMARK    6  A    between atoms: N_10  and  CA_11 
REMARK    7  A    between atoms: CA_11  and  C_12 
REMARK    8  A    between atoms: CA_11  and  CB_14 
REMARK       I    between atoms: C_12  and  N_17 
REMARK    9  A    between atoms: CB_14  and  OG1_15 
REMARK   10  A    between atoms: CB_14  and  CG2_16 
REMARK   11  A    between atoms: N_17  and  CA_18 
REMARK   12  A    between atoms: CA_18  and  C_19 
REMARK   13  A    between atoms: CA_18  and  CB_21 
REMARK       I    between atoms: C_19  and  N_22 
REMARK   14  A    between atoms: N_22  and  CA_23 
REMARK   15  A    between atoms: CA_23  and  C_24 
REMARK   16  A    between atoms: CA_23  and  CB_26 
REMARK       I    between atoms: C_24  and  N_33 
REMARK   17  A    between atoms: CB_26  and  CG_27 
REMARK   18  A    between atoms: CG_27  and  CD_28 
REMARK   19  A    between atoms: CD_28  and  NE_29 
REMARK       I    between atoms: NE_29  and  CZ_30 
REMARK       I    between atoms: CZ_30  and  NH1_31 
REMARK   20  A    between atoms: N_33  and  CA_34 
REMARK   21  A    between atoms: CA_34  and  CB_35 
REMARK   22  A    between atoms: CA_34  and  C_40 
REMARK   23  A    between atoms: CB_35  and  CG_36 
REMARK   24  A    between atoms: CG_36  and  CD_37 
REMARK   25  A    between atoms: CD_37  and  CE_38 
REMARK   26  A    between atoms: CE_38  and  NZ_39 
REMARK   27  A    between atoms: NZ_39  and  CM1_42 
REMARK   28  A    between atoms: NZ_39  and  CM2_43 
REMARK   29  A    between atoms: NZ_39  and  CM3_44 
REMARK       I    between atoms: C_40  and  N_45 
REMARK   30  A    between atoms: N_45  and  CA_46 
REMARK   31  A    between atoms: CA_46  and  C_47 
REMARK   32  A    between atoms: CA_46  and  CB_49 
REMARK   33  A    between atoms: CB_49  and  OG_50 
ROOT
ATOM      1  CA  ARG d   1     -18.284 -15.388   6.399  0.00  0.00     0.089 C 
ATOM      2  H24 ARG d   1     -19.204 -15.247   6.986  0.00  0.00     0.087 H 
ENDROOT
BRANCH   1   3
ATOM      3  N   ARG d   1     -18.037 -14.240   5.552  0.00  0.00    -0.346 N 
ATOM      4  C   ALA d   1     -18.186 -12.990   5.978  0.00  0.00     0.240 C 
ATOM      5  O   ALA d   1     -18.662 -12.690   7.079  0.00  0.00    -0.271 OA
ATOM      6  H23 ARG d   1     -17.742 -14.394   4.609  0.00  0.00     0.163 HD
BRANCH   4   7
ATOM      7  CA  ALA d   1     -17.706 -11.925   5.007  0.00  0.00     0.086 C 
ATOM      8  H19 ALA d   1     -17.892 -12.272   3.980  0.00  0.00     0.086 H 
BRANCH   7   9
ATOM      9  N   ALA d   1     -18.449 -10.691   5.210  0.00  0.00    -0.346 N 
ATOM     10  C   THR d   1     -18.552  -9.792   4.231  0.00  0.00     0.243 C 
ATOM     11  O   THR d   1     -17.944  -9.893   3.160  0.00  0.00    -0.271 OA
ATOM     12  H18 ALA d   1     -18.887 -10.515   6.092  0.00  0.00     0.163 HD
BRANCH  10  13
ATOM     13  CA  THR d   1     -19.480  -8.618   4.508  0.00  0.00     0.113 C 
ATOM     14  H12 THR d   1     -19.225  -8.173   5.481  0.00  0.00     0.091 H 
BRANCH  13  15
ATOM     15  N   THR d   1     -19.303  -7.615   3.471  0.00  0.00    -0.344 N 
ATOM     16  C   GLN d   1     -19.173  -6.315   3.729  0.00  0.00     0.249 C 
ATOM     17  O   GLN d   1     -19.139  -5.851   4.875  0.00  0.00    -0.271 OA
ATOM     18  H11 THR d   1     -19.278  -7.916   2.518  0.00  0.00     0.163 HD
BRANCH  16  19
ATOM     19  CA  GLN d   1     -19.089  -5.412   2.503  0.00  0.00     0.176 C 
ATOM     20  H4  GLN d   1     -18.302  -5.794   1.836  0.00  0.00     0.099 H 
BRANCH  19  21
ATOM     21  N   GLN d   1     -20.362  -5.432   1.788  0.00  0.00    -0.066 N 
ATOM     22  H1  GLN d   1     -20.302  -4.834   0.979  0.00  0.00     0.275 HD
ATOM     23  H2  GLN d   1     -21.094  -5.101   2.397  0.00  0.00     0.275 HD
ATOM     24  H3  GLN d   1     -20.568  -6.374   1.495  0.00  0.00     0.275 HD
ENDBRANCH  19  21
BRANCH  19  25
ATOM     25  CB  GLN d   1     -18.732  -3.985   2.911  0.00  0.00    -0.022 C 
ATOM     26  H5  GLN d   1     -19.436  -3.662   3.692  0.00  0.00     0.037 H 
ATOM     27  H6  GLN d   1     -18.839  -3.336   2.029  0.00  0.00     0.037 H 
BRANCH  25  28
ATOM     28  CG  GLN d   1     -17.321  -3.833   3.448  0.00  0.00     0.011 C 
ATOM     29  H7  GLN d   1     -16.633  -4.389   2.794  0.00  0.00     0.047 H 
ATOM     30  H8  GLN d   1     -17.283  -4.255   4.463  0.00  0.00     0.047 H 
BRANCH  28  31
ATOM     31  CD  GLN d   1     -16.872  -2.389   3.507  0.00  0.00     0.215 C 
ATOM     32  OE1 GLN d   1     -16.691  -1.746   2.473  0.00  0.00    -0.274 OA
ATOM     33  NE2 GLN d   1     -16.689  -1.870   4.721  0.00  0.00    -0.370 N 
ATOM     34  H9  GLN d   1     -16.392  -0.920   4.819  0.00  0.00     0.159 HD
ATOM     35  H10 GLN d   1     -16.848  -2.431   5.534  0.00  0.00     0.159 HD
ENDBRANCH  28  31
ENDBRANCH  25  28
ENDBRANCH  19  25
ENDBRANCH  16  19
ENDBRANCH  13  15
BRANCH  13  36
ATOM     36  CB  THR d   1     -20.929  -9.124   4.556  0.00  0.00     0.060 C 
ATOM     37  H13 THR d   1     -21.022  -9.859   5.369  0.00  0.00     0.086 H 
BRANCH  36  38
ATOM     38  OG1 THR d   1     -21.252  -9.760   3.309  0.00  0.00    -0.393 OA
ATOM     39  H14 THR d   1     -20.664 -10.492   3.167  0.00  0.00     0.210 HD
ENDBRANCH  36  38
BRANCH  36  40
ATOM     40  CG2 THR d   1     -21.904  -7.974   4.820  0.00  0.00    -0.050 C 
ATOM     41  H15 THR d   1     -22.932  -8.364   4.849  0.00  0.00     0.031 H 
ATOM     42  H16 THR d   1     -21.818  -7.228   4.016  0.00  0.00     0.031 H 
ATOM     43  H17 THR d   1     -21.663  -7.503   5.785  0.00  0.00     0.031 H 
ENDBRANCH  36  40
ENDBRANCH  13  36
ENDBRANCH  10  13
ENDBRANCH   7   9
BRANCH   7  44
ATOM     44  CB  ALA d   1     -16.195 -11.728   5.183  0.00  0.00    -0.049 C 
ATOM     45  H20 ALA d   1     -15.679 -12.686   5.020  0.00  0.00     0.030 H 
ATOM     46  H21 ALA d   1     -15.988 -11.369   6.202  0.00  0.00     0.030 H 
ATOM     47  H22 ALA d   1     -15.834 -10.988   4.453  0.00  0.00     0.030 H 
ENDBRANCH   7  44
ENDBRANCH   4   7
ENDBRANCH   1   3
BRANCH   1  48
ATOM     48  C   ARG d   1     -17.084 -15.523   7.324  0.00  0.00     0.241 C 
ATOM     49  O   ARG d   1     -15.945 -15.332   6.900  0.00  0.00    -0.271 OA
ATOM     50  N   M3L d   1     -17.340 -15.832   8.591  0.00  0.00    -0.346 N 
ATOM     51  H36 M3L d   1     -18.289 -15.968   8.876  0.00  0.00     0.163 HD
BRANCH  50  52
ATOM     52  CA  M3L d   1     -16.289 -15.976   9.566  0.00  0.00     0.089 C 
ATOM     53  H37 M3L d   1     -15.346 -15.624   9.121  0.00  0.00     0.087 H 
BRANCH  52  54
ATOM     54  CB  M3L d   1     -16.597 -15.127  10.821  0.00  0.00    -0.038 C 
ATOM     55  H38 M3L d   1     -17.480 -15.551  11.321  0.00  0.00     0.036 H 
ATOM     56  H39 M3L d   1     -16.815 -14.098  10.501  0.00  0.00     0.036 H 
BRANCH  54  57
ATOM     57  CG  M3L d   1     -15.456 -15.089  11.814  0.00  0.00    -0.061 C 
ATOM     58  H40 M3L d   1     -14.672 -14.416  11.436  0.00  0.00     0.033 H 
ATOM     59  H41 M3L d   1     -15.045 -16.103  11.929  0.00  0.00     0.033 H 
BRANCH  57  60
ATOM     60  CD  M3L d   1     -15.933 -14.587  13.172  0.00  0.00    -0.042 C 
ATOM     61  H42 M3L d   1     -15.090 -14.586  13.879  0.00  0.00     0.035 H 
ATOM     62  H43 M3L d   1     -16.727 -15.249  13.549  0.00  0.00     0.035 H 
BRANCH  60  63
ATOM     63  CE  M3L d   1     -16.478 -13.170  13.031  0.00  0.00     0.084 C 
ATOM     64  H44 M3L d   1     -17.449 -13.242  12.519  0.00  0.00     0.076 H 
ATOM     65  H45 M3L d   1     -15.772 -12.609  12.401  0.00  0.00     0.076 H 
BRANCH  63  66
ATOM     66  NZ  M3L d   1     -16.695 -12.360  14.300  0.00  0.00    -0.079 N 
BRANCH  66  67
ATOM     67  CM1 M3L d   1     -15.447 -12.238  15.110  0.00  0.00     0.067 C 
ATOM     68  H46 M3L d   1     -15.653 -11.646  16.014  0.00  0.00     0.068 H 
ATOM     69  H47 M3L d   1     -14.670 -11.738  14.513  0.00  0.00     0.068 H 
ATOM     70  H48 M3L d   1     -15.098 -13.240  15.399  0.00  0.00     0.068 H 
ENDBRANCH  66  67
BRANCH  66  71
ATOM     71  CM2 M3L d   1     -17.189 -10.994  13.964  0.00  0.00     0.067 C 
ATOM     72  H49 M3L d   1     -18.109 -11.074  13.367  0.00  0.00     0.068 H 
ATOM     73  H50 M3L d   1     -16.422 -10.459  13.386  0.00  0.00     0.068 H 
ATOM     74  H51 M3L d   1     -17.401 -10.442  14.892  0.00  0.00     0.068 H 
ENDBRANCH  66  71
BRANCH  66  75
ATOM     75  CM3 M3L d   1     -17.732 -13.045  15.134  0.00  0.00     0.067 C 
ATOM     76  H52 M3L d   1     -17.385 -14.056  15.393  0.00  0.00     0.068 H 
ATOM     77  H53 M3L d   1     -18.672 -13.114  14.567  0.00  0.00     0.068 H 
ATOM     78  H54 M3L d   1     -17.901 -12.469  16.055  0.00  0.00     0.068 H 
ENDBRANCH  66  75
ENDBRANCH  63  66
ENDBRANCH  60  63
ENDBRANCH  57  60
ENDBRANCH  54  57
ENDBRANCH  52  54
BRANCH  52  79
ATOM     79  C   M3L d   1     -16.128 -17.438   9.968  0.00  0.00     0.241 C 
ATOM     80  O   M3L d   1     -16.983 -18.041  10.616  0.00  0.00    -0.271 OA
ATOM     81  N   SER d   1     -15.001 -18.014   9.562  0.00  0.00    -0.343 N 
ATOM     82  H55 SER d   1     -14.322 -17.462   9.079  0.00  0.00     0.163 HD
BRANCH  81  83
ATOM     83  CA  SER d   1     -14.724 -19.427   9.799  0.00  0.00     0.116 C 
ATOM     84  H56 SER d   1     -15.681 -19.970   9.797  0.00  0.00     0.093 H 
BRANCH  83  85
ATOM     85  C   SER d   1     -14.053 -19.648  11.149  0.00  0.00     0.198 C 
ATOM     86  O   SER d   1     -14.372 -18.977  12.130  0.00  0.00    -0.646 OA
ATOM     87  OXT SER d   1     -13.178 -20.502  11.287  0.00  0.00    -0.646 OA
ENDBRANCH  83  85
BRANCH  83  88
ATOM     88  CB  SER d   1     -13.845 -19.989   8.680  0.00  0.00     0.045 C 
ATOM     89  H57 SER d   1     -14.389 -19.921   7.727  0.00  0.00     0.077 H 
ATOM     90  H58 SER d   1     -13.616 -21.043   8.897  0.00  0.00     0.077 H 
BRANCH  88  91
ATOM     91  OG  SER d   1     -12.630 -19.263   8.573  0.00  0.00    -0.398 OA
ATOM     92  H59 SER d   1     -12.822 -18.353   8.382  0.00  0.00     0.209 HD
ENDBRANCH  88  91
ENDBRANCH  83  88
ENDBRANCH  81  83
ENDBRANCH  52  79
ENDBRANCH  50  52
ENDBRANCH   1  48
BRANCH   1  93
ATOM     93  CB  ARG d   1     -18.416 -16.628   5.512  0.00  0.00    -0.036 C 
ATOM     94  H25 ARG d   1     -17.461 -16.762   4.982  0.00  0.00     0.036 H 
ATOM     95  H26 ARG d   1     -19.216 -16.433   4.783  0.00  0.00     0.036 H 
BRANCH  93  96
ATOM     96  CG  ARG d   1     -18.741 -17.934   6.213  0.00  0.00    -0.048 C 
ATOM     97  H27 ARG d   1     -19.679 -17.831   6.778  0.00  0.00     0.035 H 
ATOM     98  H28 ARG d   1     -17.925 -18.201   6.901  0.00  0.00     0.035 H 
BRANCH  96  99
ATOM     99  CD  ARG d   1     -18.895 -19.017   5.149  0.00  0.00     0.009 C 
ATOM    100  H29 ARG d   1     -17.969 -19.056   4.556  0.00  0.00     0.064 H 
ATOM    101  H30 ARG d   1     -19.737 -18.745   4.496  0.00  0.00     0.064 H 
BRANCH  99 102
ATOM    102  NE  ARG d   1     -19.147 -20.345   5.698  0.00  0.00    -0.227 N 
ATOM    103  CZ  ARG d   1     -20.357 -20.852   5.908  0.00  0.00     0.665 C 
ATOM    104  NH1 ARG d   1     -21.438 -20.141   5.615  0.00  0.00    -0.235 N 
ATOM    105  NH2 ARG d   1     -20.486 -22.073   6.407  0.00  0.00    -0.235 N 
ATOM    106  H32 ARG d   1     -22.375 -20.537   5.779  0.00  0.00     0.174 HD
ATOM    107  H33 ARG d   1     -21.341 -19.193   5.224  0.00  0.00     0.174 HD
ATOM    108  H34 ARG d   1     -19.648 -22.627   6.635  0.00  0.00     0.174 HD
ATOM    109  H35 ARG d   1     -21.424 -22.468   6.566  0.00  0.00     0.174 HD
ATOM    110  H31 ARG d   1     -18.333 -20.928   5.939  0.00  0.00     0.177 HD
ENDBRANCH  99 102
ENDBRANCH  96  99
ENDBRANCH  93  96
ENDBRANCH   1  93
TORSDOF 33
