REMARK WARNING: 32 MAX_TORS EXCEEDED!!!
REMARK  56 active torsions:
REMARK  status: ('A' for Active; 'I' for Inactive)
REMARK    1  A    between atoms: C_1  and  CH3_3 
REMARK       I    between atoms: C_1  and  N_4 
REMARK    2  A    between atoms: N_4  and  CA_5 
REMARK    3  A    between atoms: CA_5  and  C_6 
REMARK    4  A    between atoms: CA_5  and  CB_8 
REMARK       I    between atoms: C_6  and  N_16 
REMARK    5  A    between atoms: CB_8  and  CG_9 
REMARK    6  A    between atoms: CZ_14  and  OH_15 
REMARK    7  A    between atoms: N_16  and  CA_17 
REMARK    8  A    between atoms: CA_17  and  C_18 
REMARK       I    between atoms: C_18  and  N_20 
REMARK    9  A    between atoms: N_20  and  CA_21 
REMARK   10  A    between atoms: CA_21  and  C_22 
REMARK   11  A    between atoms: CA_21  and  CB_24 
REMARK       I    between atoms: C_22  and  N_31 
REMARK   12  A    between atoms: CB_24  and  CG_25 
REMARK   13  A    between atoms: CG_25  and  CD_26 
REMARK   14  A    between atoms: CD_26  and  NE_27 
REMARK       I    between atoms: NE_27  and  CZ_28 
REMARK       I    between atoms: CZ_28  and  NH1_29 
REMARK       I    between atoms: CZ_28  and  NH2_30 
REMARK   15  A    between atoms: CA_32  and  C_33 
REMARK       I    between atoms: C_33  and  N_38 
REMARK   16  A    between atoms: CA_39  and  C_40 
REMARK       I    between atoms: C_40  and  N_45 
REMARK   17  A    between atoms: N_45  and  CA_46 
REMARK   18  A    between atoms: CA_46  and  C_47 
REMARK   19  A    between atoms: CA_46  and  CB_49 
REMARK       I    between atoms: C_47  and  N_53 
REMARK   20  A    between atoms: CB_49  and  CG_50 
REMARK   21  A    between atoms: CG_50  and  CD1_51 
REMARK   22  A    between atoms: CG_50  and  CD2_52 
REMARK   23  A    between atoms: CA_54  and  C_55 
REMARK       I    between atoms: C_55  and  N_60 
REMARK   24  A    between atoms: CA_61  and  C_62 
REMARK       I    between atoms: C_62  and  N_67 
REMARK   25  A    between atoms: N_67  and  CA_68 
REMARK   26  A    between atoms: CA_68  and  C_69 
REMARK   27  A    between atoms: CA_68  and  CB_71 
REMARK       I    between atoms: C_69  and  N_76 
REMARK   28  A    between atoms: CB_71  and  CG_72 
REMARK   29  A    between atoms: CG_72  and  CD_73 
REMARK   30  A    between atoms: CD_73  and  CE_74 
REMARK   31  A    between atoms: CE_74  and  NZ_75 
REMARK   32  A    between atoms: N_76  and  CA_77 
REMARK   33  A    between atoms: CA_77  and  C_78 
REMARK   34  A    between atoms: CA_77  and  CB_80 
REMARK       I    between atoms: C_78  and  N_85 
REMARK   35  A    between atoms: CB_80  and  CG_81 
REMARK   36  A    between atoms: CG_81  and  CD_82 
REMARK       I    between atoms: CD_82  and  NE2_84 
REMARK   37  A    between atoms: N_85  and  CA_86 
REMARK   38  A    between atoms: CA_86  and  C_87 
REMARK   39  A    between atoms: CA_86  and  CB_89 
REMARK       I    between atoms: C_87  and  N_94 
REMARK   40  A    between atoms: CB_89  and  CG_90 
REMARK   41  A    between atoms: CG_90  and  CD_91 
REMARK   42  A    between atoms: CD_91  and  CE_92 
REMARK   43  A    between atoms: CE_92  and  NZ_93 
REMARK   44  A    between atoms: N_94  and  CA_95 
REMARK   45  A    between atoms: CA_95  and  C_96 
REMARK   46  A    between atoms: CA_95  and  CB_98 
REMARK       I    between atoms: C_96  and  N_105 
REMARK   47  A    between atoms: CB_98  and  CG_99 
REMARK   48  A    between atoms: CG_99  and  CD_100 
REMARK   49  A    between atoms: CD_100  and  NE_101 
REMARK       I    between atoms: NE_101  and  CZ_102 
REMARK       I    between atoms: CZ_102  and  NH1_103 
REMARK       I    between atoms: CZ_102  and  NH2_104 
REMARK   50  A    between atoms: N_105  and  CA_106 
REMARK   51  A    between atoms: CA_106  and  C_107 
REMARK   52  A    between atoms: CA_106  and  CB_109 
REMARK       I    between atoms: C_107  and  N_114 
REMARK   53  A    between atoms: CB_109  and  CG_110 
REMARK   54  A    between atoms: CG_110  and  CD_111 
REMARK   55  A    between atoms: CD_111  and  CE_112 
REMARK   56  A    between atoms: CE_112  and  NZ_113 
ROOT
ATOM      1  C   PRO d   1       5.515  18.141 -10.777  0.00  0.00     0.243 C 
ATOM      2  O   PRO d   1       4.501  18.085 -11.489  0.00  0.00    -0.271 OA
ATOM      3  N   PRO d   1       6.719  17.786 -11.224  0.00  0.00    -0.337 N 
ATOM      4  CA  PRO d   1       6.872  17.172 -12.545  0.00  0.00     0.091 C 
ATOM      5  CB  PRO d   1       8.393  17.082 -12.718  0.00  0.00    -0.036 C 
ATOM      6  CG  PRO d   1       8.918  16.999 -11.320  0.00  0.00    -0.048 C 
ATOM      7  CD  PRO d   1       7.994  17.847 -10.489  0.00  0.00    -0.001 C 
ATOM      8  H61 PRO d   1       6.424  17.802 -13.327  0.00  0.00     0.087 H 
ATOM      9  H62 PRO d   1       8.781  17.976 -13.228  0.00  0.00     0.036 H 
ATOM     10  H63 PRO d   1       8.668  16.184 -13.292  0.00  0.00     0.036 H 
ATOM     11  H64 PRO d   1       9.945  17.390 -11.272  0.00  0.00     0.035 H 
ATOM     12  H65 PRO d   1       8.905  15.957 -10.966  0.00  0.00     0.035 H 
ATOM     13  H66 PRO d   1       7.884  17.433  -9.476  0.00  0.00     0.064 H 
ATOM     14  H67 PRO d   1       8.362  18.882 -10.424  0.00  0.00     0.064 H 
ENDROOT
BRANCH   1  15
ATOM     15  CA  PRO d   1       5.414  18.559  -9.321  0.00  0.00     0.092 C 
ATOM     16  N   PRO d   1       4.344  19.537  -9.098  0.00  0.00    -0.337 N 
ATOM     17  C   LEU d   1       4.514  20.812  -9.451  0.00  0.00     0.243 C 
ATOM     18  CD  PRO d   1       3.229  18.951  -8.328  0.00  0.00    -0.001 C 
ATOM     19  O   LEU d   1       5.506  21.172 -10.097  0.00  0.00    -0.271 OA
ATOM     20  CG  PRO d   1       3.526  17.463  -8.371  0.00  0.00    -0.048 C 
ATOM     21  H59 PRO d   1       2.262  19.174  -8.802  0.00  0.00     0.064 H 
ATOM     22  H60 PRO d   1       3.225  19.323  -7.293  0.00  0.00     0.064 H 
ATOM     23  CB  PRO d   1       4.994  17.370  -8.449  0.00  0.00    -0.036 C 
ATOM     24  H57 PRO d   1       3.155  16.968  -7.461  0.00  0.00     0.035 H 
ATOM     25  H58 PRO d   1       3.062  17.001  -9.255  0.00  0.00     0.035 H 
ATOM     26  H55 PRO d   1       5.441  17.447  -7.447  0.00  0.00     0.036 H 
ATOM     27  H56 PRO d   1       5.298  16.421  -8.915  0.00  0.00     0.036 H 
ATOM     28  H54 PRO d   1       6.383  18.964  -8.993  0.00  0.00     0.087 H 
BRANCH  17  29
ATOM     29  CA  LEU d   1       3.456  21.841  -9.074  0.00  0.00     0.090 C 
ATOM     30  H44 LEU d   1       2.789  21.411  -8.312  0.00  0.00     0.087 H 
BRANCH  29  31
ATOM     31  N   LEU d   1       4.115  23.021  -8.528  0.00  0.00    -0.346 N 
ATOM     32  C   PRO d   1       4.741  22.967  -7.360  0.00  0.00     0.241 C 
ATOM     33  O   PRO d   1       4.773  21.953  -6.660  0.00  0.00    -0.271 OA
ATOM     34  H43 LEU d   1       4.095  23.880  -9.039  0.00  0.00     0.163 HD
BRANCH  32  35
ATOM     35  CA  PRO d   1       5.461  24.241  -6.947  0.00  0.00     0.091 C 
ATOM     36  N   PRO d   1       5.552  24.338  -5.485  0.00  0.00    -0.337 N 
ATOM     37  C   PRO d   1       4.441  24.427  -4.754  0.00  0.00     0.243 C 
ATOM     38  CD  PRO d   1       6.942  24.442  -5.006  0.00  0.00    -0.001 C 
ATOM     39  O   PRO d   1       3.317  24.477  -5.280  0.00  0.00    -0.271 OA
ATOM     40  CG  PRO d   1       7.714  24.807  -6.251  0.00  0.00    -0.048 C 
ATOM     41  H41 PRO d   1       7.289  23.483  -4.594  0.00  0.00     0.064 H 
ATOM     42  H42 PRO d   1       7.037  25.226  -4.240  0.00  0.00     0.064 H 
ATOM     43  CB  PRO d   1       6.930  24.218  -7.400  0.00  0.00    -0.036 C 
ATOM     44  H39 PRO d   1       7.784  25.900  -6.353  0.00  0.00     0.035 H 
ATOM     45  H40 PRO d   1       8.726  24.377  -6.216  0.00  0.00     0.035 H 
ATOM     46  H37 PRO d   1       7.062  24.825  -8.307  0.00  0.00     0.036 H 
ATOM     47  H38 PRO d   1       7.255  23.186  -7.599  0.00  0.00     0.036 H 
ATOM     48  H36 PRO d   1       4.935  25.111  -7.367  0.00  0.00     0.087 H 
BRANCH  37  49
ATOM     49  CA  PRO d   1       4.586  24.445  -3.243  0.00  0.00     0.092 C 
ATOM     50  N   PRO d   1       3.428  25.083  -2.620  0.00  0.00    -0.337 N 
ATOM     51  C   ARG d   1       3.238  26.394  -2.710  0.00  0.00     0.243 C 
ATOM     52  CD  PRO d   1       2.536  24.103  -1.973  0.00  0.00    -0.001 C 
ATOM     53  O   ARG d   1       4.017  27.120  -3.354  0.00  0.00    -0.271 OA
ATOM     54  CG  PRO d   1       3.090  22.778  -2.452  0.00  0.00    -0.048 C 
ATOM     55  H34 PRO d   1       1.495  24.239  -2.300  0.00  0.00     0.064 H 
ATOM     56  H35 PRO d   1       2.589  24.182  -0.877  0.00  0.00     0.064 H 
ATOM     57  CB  PRO d   1       4.549  23.022  -2.667  0.00  0.00    -0.036 C 
ATOM     58  H32 PRO d   1       2.937  21.998  -1.692  0.00  0.00     0.035 H 
ATOM     59  H33 PRO d   1       2.606  22.474  -3.392  0.00  0.00     0.035 H 
ATOM     60  H30 PRO d   1       5.102  22.966  -1.718  0.00  0.00     0.036 H 
ATOM     61  H31 PRO d   1       4.969  22.297  -3.380  0.00  0.00     0.036 H 
ATOM     62  H29 PRO d   1       5.519  24.959  -2.968  0.00  0.00     0.087 H 
BRANCH  51  63
ATOM     63  CA  ARG d   1       2.027  27.007  -2.023  0.00  0.00     0.089 C 
ATOM     64  H17 ARG d   1       1.522  26.224  -1.438  0.00  0.00     0.087 H 
BRANCH  63  65
ATOM     65  N   ARG d   1       2.466  28.053  -1.097  0.00  0.00    -0.346 N 
ATOM     66  C   GLY d   1       2.241  27.975   0.217  0.00  0.00     0.236 C 
ATOM     67  O   GLY d   1       1.564  27.075   0.723  0.00  0.00    -0.272 OA
ATOM     68  H16 ARG d   1       2.949  28.850  -1.460  0.00  0.00     0.163 HD
BRANCH  66  69
ATOM     69  CA  GLY d   1       2.879  29.065   1.068  0.00  0.00     0.069 C 
ATOM     70  H14 GLY d   1       3.840  29.357   0.619  0.00  0.00     0.078 H 
ATOM     71  H15 GLY d   1       2.209  29.937   1.099  0.00  0.00     0.078 H 
BRANCH  69  72
ATOM     72  N   GLY d   1       3.111  28.594   2.426  0.00  0.00    -0.351 N 
ATOM     73  C   TYR d   1       4.001  27.625   2.656  0.00  0.00     0.241 C 
ATOM     74  O   TYR d   1       4.711  27.141   1.773  0.00  0.00    -0.271 OA
ATOM     75  H13 GLY d   1       2.603  28.997   3.188  0.00  0.00     0.163 HD
BRANCH  73  76
ATOM     76  CA  TYR d   1       4.112  27.115   4.090  0.00  0.00     0.093 C 
ATOM     77  H5  TYR d   1       5.160  26.826   4.260  0.00  0.00     0.088 H 
BRANCH  76  78
ATOM     78  N   TYR d   1       3.762  28.111   5.095  0.00  0.00    -0.348 N 
ATOM     79  C   ACE d   1       4.543  29.157   5.322  0.00  0.00     0.214 C 
ATOM     80  O   ACE d   1       5.584  29.353   4.700  0.00  0.00    -0.274 OA
ATOM     81  H4  TYR d   1       2.919  28.003   5.622  0.00  0.00     0.163 HD
BRANCH  79  82
ATOM     82  CH3 ACE d   1       4.055  30.086   6.391  0.00  0.00    -0.003 C 
ATOM     83  H1  ACE d   1       3.108  29.706   6.803  0.00  0.00     0.040 H 
ATOM     84  H2  ACE d   1       3.893  31.086   5.962  0.00  0.00     0.040 H 
ATOM     85  H3  ACE d   1       4.805  30.148   7.193  0.00  0.00     0.040 H 
ENDBRANCH  79  82
ENDBRANCH  76  78
BRANCH  76  86
ATOM     86  CB  TYR d   1       3.234  25.873   4.261  0.00  0.00    -0.014 C 
ATOM     87  H6  TYR d   1       2.193  26.154   4.041  0.00  0.00     0.043 H 
ATOM     88  H7  TYR d   1       3.310  25.539   5.306  0.00  0.00     0.043 H 
BRANCH  86  89
ATOM     89  CG  TYR d   1       3.612  24.712   3.363  0.00  0.00    -0.056 A 
ATOM     90  CD1 TYR d   1       4.855  24.094   3.472  0.00  0.00    -0.074 A 
ATOM     91  CE1 TYR d   1       5.203  23.021   2.653  0.00  0.00    -0.051 A 
ATOM     92  H8  TYR d   1       5.565  24.454   4.207  0.00  0.00     0.084 H 
ATOM     93  CZ  TYR d   1       4.299  22.558   1.726  0.00  0.00     0.065 A 
ATOM     94  H10 TYR d   1       6.178  22.556   2.746  0.00  0.00     0.087 H 
ATOM     95  CE2 TYR d   1       3.057  23.155   1.605  0.00  0.00    -0.051 A 
ATOM     96  CD2 TYR d   1       2.722  24.224   2.423  0.00  0.00    -0.074 A 
ATOM     97  H11 TYR d   1       2.347  22.788   0.873  0.00  0.00     0.087 H 
ATOM     98  H9  TYR d   1       1.746  24.685   2.324  0.00  0.00     0.084 H 
BRANCH  93  99
ATOM     99  OH  TYR d   1       4.647  21.499   0.911  0.00  0.00    -0.361 OA
ATOM    100  H12 TYR d   1       4.037  20.783   1.046  0.00  0.00     0.217 HD
ENDBRANCH  93  99
ENDBRANCH  86  89
ENDBRANCH  76  86
ENDBRANCH  73  76
ENDBRANCH  69  72
ENDBRANCH  66  69
ENDBRANCH  63  65
BRANCH  63 101
ATOM    101  CB  ARG d   1       1.039  27.524  -3.075  0.00  0.00    -0.036 C 
ATOM    102  H18 ARG d   1       1.543  28.276  -3.700  0.00  0.00     0.036 H 
ATOM    103  H19 ARG d   1       0.182  27.986  -2.564  0.00  0.00     0.036 H 
BRANCH 101 104
ATOM    104  CG  ARG d   1       0.530  26.388  -3.975  0.00  0.00    -0.048 C 
ATOM    105  H20 ARG d   1       0.189  25.563  -3.332  0.00  0.00     0.035 H 
ATOM    106  H21 ARG d   1       1.365  26.043  -4.603  0.00  0.00     0.035 H 
BRANCH 104 107
ATOM    107  CD  ARG d   1      -0.612  26.789  -4.880  0.00  0.00     0.009 C 
ATOM    108  H22 ARG d   1      -1.339  27.370  -4.295  0.00  0.00     0.064 H 
ATOM    109  H23 ARG d   1      -1.095  25.879  -5.265  0.00  0.00     0.064 H 
BRANCH 107 110
ATOM    110  NE  ARG d   1      -0.167  27.596  -6.009  0.00  0.00    -0.227 N 
ATOM    111  CZ  ARG d   1      -0.306  28.913  -6.072  0.00  0.00     0.665 C 
ATOM    112  NH1 ARG d   1      -0.890  29.561  -5.073  0.00  0.00    -0.235 N 
ATOM    113  NH2 ARG d   1       0.127  29.585  -7.133  0.00  0.00    -0.235 N 
ATOM    114  H25 ARG d   1      -1.000  30.584  -5.117  0.00  0.00     0.174 HD
ATOM    115  H26 ARG d   1      -1.233  29.041  -4.253  0.00  0.00     0.174 HD
ATOM    116  H27 ARG d   1       0.581  29.084  -7.910  0.00  0.00     0.174 HD
ATOM    117  H28 ARG d   1       0.009  30.607  -7.179  0.00  0.00     0.174 HD
ATOM    118  H24 ARG d   1       0.281  27.116  -6.803  0.00  0.00     0.177 HD
ENDBRANCH 107 110
ENDBRANCH 104 107
ENDBRANCH 101 104
ENDBRANCH  63 101
ENDBRANCH  51  63
ENDBRANCH  37  49
ENDBRANCH  32  35
ENDBRANCH  29  31
BRANCH  29 119
ATOM    119  CB  LEU d   1       2.629  22.232 -10.294  0.00  0.00    -0.035 C 
ATOM    120  H45 LEU d   1       3.336  22.539 -11.079  0.00  0.00     0.037 H 
ATOM    121  H46 LEU d   1       2.009  23.093 -10.002  0.00  0.00     0.037 H 
BRANCH 119 122
ATOM    122  CG  LEU d   1       1.694  21.196 -10.913  0.00  0.00    -0.059 C 
ATOM    123  H47 LEU d   1       2.232  20.242 -11.018  0.00  0.00     0.038 H 
BRANCH 122 124
ATOM    124  CD1 LEU d   1       0.483  20.979  -9.988  0.00  0.00    -0.073 C 
ATOM    125  H48 LEU d   1      -0.190  20.233 -10.434  0.00  0.00     0.028 H 
ATOM    126  H49 LEU d   1      -0.056  21.929  -9.861  0.00  0.00     0.028 H 
ATOM    127  H50 LEU d   1       0.830  20.620  -9.008  0.00  0.00     0.028 H 
ENDBRANCH 122 124
BRANCH 122 128
ATOM    128  CD2 LEU d   1       1.264  21.667 -12.289  0.00  0.00    -0.073 C 
ATOM    129  H51 LEU d   1       2.152  21.811 -12.921  0.00  0.00     0.028 H 
ATOM    130  H52 LEU d   1       0.721  22.619 -12.197  0.00  0.00     0.028 H 
ATOM    131  H53 LEU d   1       0.607  20.912 -12.746  0.00  0.00     0.028 H 
ENDBRANCH 122 128
ENDBRANCH 119 122
ENDBRANCH  29 119
ENDBRANCH  17  29
ENDBRANCH   1  15
BRANCH   4 132
ATOM    132  C   PRO d   1       6.233  15.794 -12.578  0.00  0.00     0.241 C 
ATOM    133  O   PRO d   1       6.093  15.115 -11.559  0.00  0.00    -0.271 OA
ATOM    134  N   LYS d   1       5.839  15.376 -13.777  0.00  0.00    -0.346 N 
ATOM    135  H68 LYS d   1       5.891  16.000 -14.557  0.00  0.00     0.163 HD
BRANCH 134 136
ATOM    136  CA  LYS d   1       5.333  14.025 -13.974  0.00  0.00     0.089 C 
ATOM    137  H69 LYS d   1       4.926  13.658 -13.020  0.00  0.00     0.087 H 
BRANCH 136 138
ATOM    138  C   LYS d   1       6.476  13.110 -14.399  0.00  0.00     0.241 C 
ATOM    139  O   LYS d   1       7.251  13.455 -15.298  0.00  0.00    -0.271 OA
ATOM    140  N   GLN d   1       6.585  11.953 -13.751  0.00  0.00    -0.346 N 
ATOM    141  H81 GLN d   1       5.883  11.707 -13.082  0.00  0.00     0.163 HD
BRANCH 140 142
ATOM    142  CA  GLN d   1       7.692  11.029 -13.981  0.00  0.00     0.090 C 
ATOM    143  H82 GLN d   1       8.309  11.429 -14.800  0.00  0.00     0.087 H 
BRANCH 142 144
ATOM    144  C   GLN d   1       7.176   9.652 -14.406  0.00  0.00     0.241 C 
ATOM    145  O   GLN d   1       5.969   9.404 -14.481  0.00  0.00    -0.271 OA
ATOM    146  N   LYS d   1       8.119   8.754 -14.703  0.00  0.00    -0.346 N 
ATOM    147  H89 LYS d   1       9.081   9.022 -14.654  0.00  0.00     0.163 HD
BRANCH 146 148
ATOM    148  CA  LYS d   1       7.778   7.390 -15.097  0.00  0.00     0.089 C 
ATOM    149  H90 LYS d   1       7.168   7.433 -16.012  0.00  0.00     0.087 H 
BRANCH 148 150
ATOM    150  C   LYS d   1       6.968   6.696 -14.006  0.00  0.00     0.241 C 
ATOM    151  O   LYS d   1       7.278   6.795 -12.815  0.00  0.00    -0.271 OA
ATOM    152  N   ARG d   1       5.925   5.986 -14.418  0.00  0.00    -0.346 N 
ATOM    153 2H10 ARG d   1       5.791   5.841 -15.398  0.00  0.00     0.163 HD
BRANCH 152 154
ATOM    154  CA  ARG d   1       4.972   5.414 -13.479  0.00  0.00     0.089 C 
ATOM    155 3H10 ARG d   1       5.130   5.894 -12.502  0.00  0.00     0.087 H 
BRANCH 154 156
ATOM    156  C   ARG d   1       5.178   3.912 -13.300  0.00  0.00     0.241 C 
ATOM    157  O   ARG d   1       5.807   3.233 -14.117  0.00  0.00    -0.271 OA
ATOM    158  N   LYS d   1       4.646   3.407 -12.192  0.00  0.00    -0.346 N 
ATOM    159 5H11 LYS d   1       4.201   4.022 -11.542  0.00  0.00     0.163 HD
BRANCH 158 160
ATOM    160  CA  LYS d   1       4.694   1.984 -11.900  0.00  0.00     0.089 C 
ATOM    161 6H11 LYS d   1       5.662   1.588 -12.241  0.00  0.00     0.087 H 
BRANCH 160 162
ATOM    162  C   LYS d   1       3.583   1.267 -12.652  0.00  0.00     0.238 C 
ATOM    163  O   LYS d   1       2.431   1.706 -12.641  0.00  0.00    -0.271 OA
ATOM    164  N   NH2 d   1       3.936   0.168 -13.309  0.00  0.00    -0.368 N 
ATOM    165 8H12 NH2 d   1       3.251  -0.349 -13.823  0.00  0.00     0.159 HD
ATOM    166 9H12 NH2 d   1       4.886  -0.143 -13.290  0.00  0.00     0.159 HD
ENDBRANCH 160 162
BRANCH 160 167
ATOM    167  CB  LYS d   1       4.572   1.734 -10.397  0.00  0.00    -0.038 C 
ATOM    168 7H11 LYS d   1       3.777   0.992 -10.232  0.00  0.00     0.036 H 
ATOM    169 8H11 LYS d   1       4.298   2.681  -9.909  0.00  0.00     0.036 H 
BRANCH 167 170
ATOM    170  CG  LYS d   1       5.848   1.218  -9.759  0.00  0.00    -0.061 C 
ATOM    171 9H11 LYS d   1       5.676   1.061  -8.684  0.00  0.00     0.033 H 
ATOM    172 0H12 LYS d   1       6.646   1.962  -9.897  0.00  0.00     0.033 H 
BRANCH 170 173
ATOM    173  CD  LYS d   1       6.277  -0.098 -10.393  0.00  0.00    -0.043 C 
ATOM    174 1H12 LYS d   1       6.347   0.037 -11.482  0.00  0.00     0.035 H 
ATOM    175 2H12 LYS d   1       5.522  -0.866 -10.166  0.00  0.00     0.035 H 
BRANCH 173 176
ATOM    176  CE  LYS d   1       7.625  -0.562  -9.867  0.00  0.00     0.080 C 
ATOM    177 3H12 LYS d   1       8.384   0.193 -10.118  0.00  0.00     0.075 H 
ATOM    178 4H12 LYS d   1       7.885  -1.517 -10.347  0.00  0.00     0.075 H 
BRANCH 176 179
ATOM    179  NZ  LYS d   1       7.606  -0.754  -8.393  0.00  0.00    -0.079 N 
ATOM    180 5H12 LYS d   1       8.514  -1.061  -8.082  0.00  0.00     0.274 HD
ATOM    181 6H12 LYS d   1       6.917  -1.449  -8.154  0.00  0.00     0.274 HD
ATOM    182 7H12 LYS d   1       7.374   0.118  -7.944  0.00  0.00     0.274 HD
ENDBRANCH 176 179
ENDBRANCH 173 176
ENDBRANCH 170 173
ENDBRANCH 167 170
ENDBRANCH 160 167
ENDBRANCH 158 160
ENDBRANCH 154 156
BRANCH 154 183
ATOM    183  CB  ARG d   1       3.539   5.711 -13.931  0.00  0.00    -0.036 C 
ATOM    184 4H10 ARG d   1       2.852   5.021 -13.419  0.00  0.00     0.036 H 
ATOM    185 5H10 ARG d   1       3.468   5.559 -15.018  0.00  0.00     0.036 H 
BRANCH 183 186
ATOM    186  CG  ARG d   1       3.139   7.141 -13.604  0.00  0.00    -0.048 C 
ATOM    187 6H10 ARG d   1       3.926   7.813 -13.978  0.00  0.00     0.035 H 
ATOM    188 7H10 ARG d   1       3.064   7.236 -12.511  0.00  0.00     0.035 H 
BRANCH 186 189
ATOM    189  CD  ARG d   1       1.817   7.575 -14.210  0.00  0.00     0.009 C 
ATOM    190 8H10 ARG d   1       1.007   6.949 -13.807  0.00  0.00     0.064 H 
ATOM    191 9H10 ARG d   1       1.860   7.459 -15.303  0.00  0.00     0.064 H 
BRANCH 189 192
ATOM    192  NE  ARG d   1       1.558   8.978 -13.880  0.00  0.00    -0.227 N 
ATOM    193  CZ  ARG d   1       0.580   9.708 -14.410  0.00  0.00     0.665 C 
ATOM    194  NH1 ARG d   1       0.426  10.978 -14.049  0.00  0.00    -0.235 N 
ATOM    195  NH2 ARG d   1      -0.242   9.168 -15.303  0.00  0.00    -0.235 N 
ATOM    196 1H11 ARG d   1      -0.332  11.542 -14.460  0.00  0.00     0.174 HD
ATOM    197 2H11 ARG d   1       1.064  11.398 -13.358  0.00  0.00     0.174 HD
ATOM    198 3H11 ARG d   1      -0.123   8.184 -15.583  0.00  0.00     0.174 HD
ATOM    199 4H11 ARG d   1      -0.998   9.733 -15.715  0.00  0.00     0.174 HD
ATOM    200 0H11 ARG d   1       2.175   9.431 -13.191  0.00  0.00     0.177 HD
ENDBRANCH 189 192
ENDBRANCH 186 189
ENDBRANCH 183 186
ENDBRANCH 154 183
ENDBRANCH 152 154
ENDBRANCH 148 150
BRANCH 148 201
ATOM    201  CB  LYS d   1       9.051   6.591 -15.393  0.00  0.00    -0.038 C 
ATOM    202  H91 LYS d   1       9.630   6.507 -14.461  0.00  0.00     0.036 H 
ATOM    203  H92 LYS d   1       9.638   7.143 -16.142  0.00  0.00     0.036 H 
BRANCH 201 204
ATOM    204  CG  LYS d   1       8.800   5.196 -15.922  0.00  0.00    -0.061 C 
ATOM    205  H93 LYS d   1       8.284   5.268 -16.891  0.00  0.00     0.033 H 
ATOM    206  H94 LYS d   1       8.165   4.651 -15.208  0.00  0.00     0.033 H 
BRANCH 204 207
ATOM    207  CD  LYS d   1      10.104   4.432 -16.110  0.00  0.00    -0.043 C 
ATOM    208  H95 LYS d   1      10.616   4.354 -15.140  0.00  0.00     0.035 H 
ATOM    209  H96 LYS d   1      10.742   4.982 -16.818  0.00  0.00     0.035 H 
BRANCH 207 210
ATOM    210  CE  LYS d   1       9.855   3.029 -16.653  0.00  0.00     0.080 C 
ATOM    211  H97 LYS d   1       9.440   3.111 -17.668  0.00  0.00     0.075 H 
ATOM    212  H98 LYS d   1       9.130   2.521 -16.000  0.00  0.00     0.075 H 
BRANCH 210 213
ATOM    213  NZ  LYS d   1      11.103   2.213 -16.710  0.00  0.00    -0.079 N 
ATOM    214  H99 LYS d   1      10.889   1.298 -17.074  0.00  0.00     0.274 HD
ATOM    215 0H10 LYS d   1      11.489   2.124 -15.783  0.00  0.00     0.274 HD
ATOM    216 1H10 LYS d   1      11.773   2.666 -17.312  0.00  0.00     0.274 HD
ENDBRANCH 210 213
ENDBRANCH 207 210
ENDBRANCH 204 207
ENDBRANCH 201 204
ENDBRANCH 148 201
ENDBRANCH 146 148
ENDBRANCH 142 144
BRANCH 142 217
ATOM    217  CB  GLN d   1       8.567  10.930 -12.729  0.00  0.00    -0.030 C 
ATOM    218  H83 GLN d   1       9.512  10.436 -12.999  0.00  0.00     0.037 H 
ATOM    219  H84 GLN d   1       8.038  10.325 -11.978  0.00  0.00     0.037 H 
BRANCH 217 220
ATOM    220  CG  GLN d   1       8.884  12.286 -12.124  0.00  0.00     0.011 C 
ATOM    221  H85 GLN d   1       8.115  12.524 -11.375  0.00  0.00     0.047 H 
ATOM    222  H86 GLN d   1       8.862  13.040 -12.924  0.00  0.00     0.047 H 
BRANCH 220 223
ATOM    223  CD  GLN d   1      10.238  12.335 -11.455  0.00  0.00     0.215 C 
ATOM    224  OE1 GLN d   1      10.348  12.670 -10.275  0.00  0.00    -0.274 OA
ATOM    225  NE2 GLN d   1      11.283  12.006 -12.208  0.00  0.00    -0.370 N 
ATOM    226  H87 GLN d   1      12.204  12.020 -11.819  0.00  0.00     0.159 HD
ATOM    227  H88 GLN d   1      11.148  11.744 -13.164  0.00  0.00     0.159 HD
ENDBRANCH 220 223
ENDBRANCH 217 220
ENDBRANCH 142 217
ENDBRANCH 140 142
ENDBRANCH 136 138
BRANCH 136 228
ATOM    228  CB  LYS d   1       4.209  14.022 -15.011  0.00  0.00    -0.038 C 
ATOM    229  H70 LYS d   1       3.954  12.982 -15.261  0.00  0.00     0.036 H 
ATOM    230  H71 LYS d   1       4.555  14.542 -15.916  0.00  0.00     0.036 H 
BRANCH 228 231
ATOM    231  CG  LYS d   1       2.977  14.718 -14.484  0.00  0.00    -0.061 C 
ATOM    232  H72 LYS d   1       3.226  15.772 -14.292  0.00  0.00     0.033 H 
ATOM    233  H73 LYS d   1       2.678  14.235 -13.542  0.00  0.00     0.033 H 
BRANCH 231 234
ATOM    234  CD  LYS d   1       1.807  14.666 -15.445  0.00  0.00    -0.043 C 
ATOM    235  H74 LYS d   1       1.661  13.631 -15.788  0.00  0.00     0.035 H 
ATOM    236  H75 LYS d   1       2.015  15.313 -16.310  0.00  0.00     0.035 H 
BRANCH 234 237
ATOM    237  CE  LYS d   1       0.539  15.151 -14.741  0.00  0.00     0.080 C 
ATOM    238  H76 LYS d   1       0.685  16.190 -14.411  0.00  0.00     0.075 H 
ATOM    239  H77 LYS d   1       0.346  14.512 -13.867  0.00  0.00     0.075 H 
BRANCH 237 240
ATOM    240  NZ  LYS d   1      -0.630  15.091 -15.655  0.00  0.00    -0.079 N 
ATOM    241  H78 LYS d   1      -1.452  15.415 -15.170  0.00  0.00     0.274 HD
ATOM    242  H79 LYS d   1      -0.771  14.140 -15.958  0.00  0.00     0.274 HD
ATOM    243  H80 LYS d   1      -0.460  15.678 -16.457  0.00  0.00     0.274 HD
ENDBRANCH 237 240
ENDBRANCH 234 237
ENDBRANCH 231 234
ENDBRANCH 228 231
ENDBRANCH 136 228
ENDBRANCH 134 136
ENDBRANCH   4 132
TORSDOF 56
