REMARK  1 active torsions:
REMARK  status: ('A' for Active; 'I' for Inactive)
REMARK    1  A    between atoms: C1_11  and  C_10 
ROOT
ATOM      1  C4  CGJ d   1      16.753  59.013   8.409  0.00  0.00     0.046 C 
ATOM      2  C5  CGJ d   1      16.760  59.636   7.041  0.00  0.00    -0.007 A 
ATOM      3  C6  CGJ d   1      17.950  60.069   6.465  0.00  0.00    -0.073 A 
ATOM      4  N1  CGJ d   1      12.885  59.215   8.565  0.00  0.00    -0.132 NA
ATOM      5  C7  CGJ d   1      17.968  60.552   5.167  0.00  0.00    -0.082 A 
ATOM      6  C8  CGJ d   1      16.806  60.607   4.426  0.00  0.00    -0.081 A 
ATOM      7  N2  CGJ d   1      14.344  59.408   6.927  0.00  0.00    -0.282 N 
ATOM      8  C9  CGJ d   1      15.602  60.209   4.981  0.00  0.00    -0.056 A 
ATOM      9  C10 CGJ d   1      15.584  59.742   6.294  0.00  0.00     0.051 A 
ATOM     10  C1  CGJ d   1      13.267  58.674   6.470  0.00  0.00     0.131 A 
ATOM     11  C2  CGJ d   1      14.044  59.719   8.234  0.00  0.00     0.158 A 
ATOM     12  N   CGJ d   1      12.388  58.546   7.431  0.00  0.00    -0.135 NA
ATOM     13  O   CGJ d   1      16.135  59.783   9.448  0.00  0.00    -0.379 OA
ATOM     14  C3  CGJ d   1      14.987  60.501   9.056  0.00  0.00     0.076 C 
ATOM     15  H1  CGJ d   1      17.798  58.831   8.701  0.00  0.00     0.082 H 
ATOM     16  H2  CGJ d   1      16.220  58.053   8.339  0.00  0.00     0.082 H 
ATOM     17  H3  CGJ d   1      18.870  60.028   7.036  0.00  0.00     0.084 H 
ATOM     18  H4  CGJ d   1      18.901  60.889   4.731  0.00  0.00     0.083 H 
ATOM     19  H5  CGJ d   1      16.836  60.964   3.403  0.00  0.00     0.083 H 
ATOM     20  H6  CGJ d   1      14.687  60.260   4.403  0.00  0.00     0.087 H 
ATOM     21  H10 CGJ d   1      14.461  60.835   9.963  0.00  0.00     0.086 H 
ATOM     22  H11 CGJ d   1      15.309  61.378   8.475  0.00  0.00     0.086 H 
ENDROOT
BRANCH  10  23
ATOM     23  C   CGJ d   1      13.165  58.083   5.111  0.00  0.00    -0.019 C 
ATOM     24  H7  CGJ d   1      12.207  57.552   5.013  0.00  0.00     0.037 H 
ATOM     25  H8  CGJ d   1      13.993  57.376   4.955  0.00  0.00     0.037 H 
ATOM     26  H9  CGJ d   1      13.220  58.883   4.358  0.00  0.00     0.037 H 
ENDBRANCH  10  23
TORSDOF 1
