REMARK WARNING: 32 MAX_TORS EXCEEDED!!!
REMARK  57 active torsions:
REMARK  status: ('A' for Active; 'I' for Inactive)
REMARK    1  A    between atoms: N_1  and  CA_2 
REMARK    2  A    between atoms: CA_2  and  C_3 
REMARK    3  A    between atoms: CA_2  and  CB_5 
REMARK       I    between atoms: C_3  and  N_10 
REMARK    4  A    between atoms: CB_5  and  CG_6 
REMARK    5  A    between atoms: CG_6  and  CD_7 
REMARK       I    between atoms: CD_7  and  NE2_9 
REMARK    6  A    between atoms: N_10  and  CA_11 
REMARK    7  A    between atoms: CA_11  and  C_12 
REMARK    8  A    between atoms: CA_11  and  CB_14 
REMARK       I    between atoms: C_12  and  N_21 
REMARK    9  A    between atoms: CB_14  and  CG_15 
REMARK   10  A    between atoms: N_21  and  CA_22 
REMARK   11  A    between atoms: CA_22  and  C_23 
REMARK   12  A    between atoms: CA_22  and  CB_25 
REMARK       I    between atoms: C_23  and  N_29 
REMARK   13  A    between atoms: CB_25  and  CG_26 
REMARK   14  A    between atoms: N_29  and  CA_30 
REMARK   15  A    between atoms: CA_30  and  C_31 
REMARK   16  A    between atoms: CA_30  and  CB_33 
REMARK       I    between atoms: C_31  and  N_37 
REMARK   17  A    between atoms: CB_33  and  CG_34 
REMARK   18  A    between atoms: CG_34  and  CD1_35 
REMARK   19  A    between atoms: CG_34  and  CD2_36 
REMARK   20  A    between atoms: N_37  and  CA_38 
REMARK   21  A    between atoms: CA_38  and  C_39 
REMARK   22  A    between atoms: CA_38  and  CB_41 
REMARK       I    between atoms: C_39  and  N_43 
REMARK   23  A    between atoms: CB_41  and  OG_42 
REMARK   24  A    between atoms: N_43  and  CA_44 
REMARK   25  A    between atoms: CA_44  and  C_45 
REMARK   26  A    between atoms: CA_44  and  CB_47 
REMARK       I    between atoms: C_45  and  N_50 
REMARK   27  A    between atoms: CB_47  and  OG1_48 
REMARK   28  A    between atoms: CB_47  and  CG2_49 
REMARK   29  A    between atoms: N_50  and  CA_51 
REMARK   30  A    between atoms: CA_51  and  C_52 
REMARK   31  A    between atoms: CA_51  and  CB_54 
REMARK       I    between atoms: C_52  and  N_65 
REMARK   32  A    between atoms: CB_54  and  CG_55 
REMARK   33  A    between atoms: CG_55  and  CD_56 
REMARK   34  A    between atoms: CD_56  and  NE_57 
REMARK       I    between atoms: NE_57  and  CZ_58 
REMARK       I    between atoms: CZ_58  and  NH1_59 
REMARK       I    between atoms: CZ_58  and  NH2_60 
REMARK   35  A    between atoms: NH2_60  and  C02_62 
REMARK   36  A    between atoms: C02_62  and  C01_61 
REMARK   37  A    between atoms: C01_61  and  C03_63 
REMARK   38  A    between atoms: C03_63  and  C04_64 
REMARK   39  A    between atoms: N_65  and  CA_66 
REMARK   40  A    between atoms: CA_66  and  C_67 
REMARK   41  A    between atoms: CA_66  and  CB_69 
REMARK       I    between atoms: C_67  and  N_76 
REMARK   42  A    between atoms: CB_69  and  CG_70 
REMARK   43  A    between atoms: CG_70  and  CD_71 
REMARK   44  A    between atoms: CD_71  and  NE_72 
REMARK       I    between atoms: NE_72  and  CZ_73 
REMARK       I    between atoms: CZ_73  and  NH1_74 
REMARK   45  A    between atoms: N_76  and  CA_77 
REMARK   46  A    between atoms: CA_77  and  C_78 
REMARK   47  A    between atoms: CA_77  and  CB_80 
REMARK       I    between atoms: C_78  and  N_84 
REMARK   48  A    between atoms: CB_80  and  CG_81 
REMARK   49  A    between atoms: CG_81  and  CD1_82 
REMARK   50  A    between atoms: CG_81  and  CD2_83 
REMARK   51  A    between atoms: N_84  and  CA_85 
REMARK   52  A    between atoms: CA_85  and  C_86 
REMARK   53  A    between atoms: CA_85  and  CB_88 
REMARK   54  A    between atoms: CB_88  and  CG_89 
REMARK   55  A    between atoms: CG_89  and  CD_90 
REMARK   56  A    between atoms: CD_90  and  CE_91 
REMARK   57  A    between atoms: CE_91  and  NZ_92 
ROOT
ATOM      1  CA  BWV d   1      -3.894  35.970  29.409  0.00  0.00     0.089 C 
ATOM      2  H48 BWV d   1      -4.515  36.795  29.030  0.00  0.00     0.087 H 
ENDROOT
BRANCH   1   3
ATOM      3  N   BWV d   1      -3.808  36.115  30.882  0.00  0.00    -0.346 N 
ATOM      4  C   THR d   1      -3.097  35.310  31.672  0.00  0.00     0.243 C 
ATOM      5  O   THR d   1      -2.355  34.412  31.254  0.00  0.00    -0.271 OA
ATOM      6  H47 BWV d   1      -4.315  36.863  31.310  0.00  0.00     0.163 HD
BRANCH   4   7
ATOM      7  CA  THR d   1      -3.253  35.547  33.173  0.00  0.00     0.113 C 
ATOM      8  H41 THR d   1      -2.253  35.554  33.631  0.00  0.00     0.091 H 
BRANCH   7   9
ATOM      9  N   THR d   1      -3.892  36.831  33.474  0.00  0.00    -0.344 N 
ATOM     10  C   SER d   1      -3.272  37.785  34.168  0.00  0.00     0.243 C 
ATOM     11  O   SER d   1      -2.094  37.678  34.534  0.00  0.00    -0.271 OA
ATOM     12  H40 THR d   1      -4.823  36.997  33.148  0.00  0.00     0.163 HD
BRANCH  10  13
ATOM     13  CA  SER d   1      -4.055  39.051  34.506  0.00  0.00     0.109 C 
ATOM     14  H36 SER d   1      -3.336  39.881  34.575  0.00  0.00     0.090 H 
BRANCH  13  15
ATOM     15  N   SER d   1      -5.037  39.396  33.484  0.00  0.00    -0.344 N 
ATOM     16  C   LEU d   1      -4.651  39.996  32.356  0.00  0.00     0.241 C 
ATOM     17  O   LEU d   1      -3.461  40.210  32.096  0.00  0.00    -0.271 OA
ATOM     18  H35 SER d   1      -6.003  39.182  33.629  0.00  0.00     0.163 HD
BRANCH  16  19
ATOM     19  CA  LEU d   1      -5.721  40.418  31.355  0.00  0.00     0.089 C 
ATOM     20  H25 LEU d   1      -5.360  40.163  30.348  0.00  0.00     0.087 H 
BRANCH  19  21
ATOM     21  N   LEU d   1      -6.991  39.729  31.562  0.00  0.00    -0.346 N 
ATOM     22  C   ASP d   1      -7.130  38.440  31.244  0.00  0.00     0.241 C 
ATOM     23  O   ASP d   1      -6.203  37.745  30.814  0.00  0.00    -0.271 OA
ATOM     24  H24 LEU d   1      -7.767  40.229  31.947  0.00  0.00     0.163 HD
BRANCH  22  25
ATOM     25  CA  ASP d   1      -8.513  37.838  31.456  0.00  0.00     0.098 C 
ATOM     26  H21 ASP d   1      -9.211  38.640  31.738  0.00  0.00     0.088 H 
BRANCH  25  27
ATOM     27  N   ASP d   1      -8.972  37.235  30.211  0.00  0.00    -0.345 N 
ATOM     28  C   PHE d   1      -9.969  37.735  29.485  0.00  0.00     0.241 C 
ATOM     29  O   PHE d   1     -10.574  38.765  29.795  0.00  0.00    -0.271 OA
ATOM     30  H20 ASP d   1      -8.516  36.406  29.887  0.00  0.00     0.163 HD
BRANCH  28  31
ATOM     31  CA  PHE d   1     -10.327  36.956  28.223  0.00  0.00     0.093 C 
ATOM     32  H12 PHE d   1      -9.884  35.952  28.299  0.00  0.00     0.088 H 
BRANCH  31  33
ATOM     33  N   PHE d   1     -11.769  36.813  28.085  0.00  0.00    -0.346 N 
ATOM     34  C   GLN d   1     -12.451  35.957  28.840  0.00  0.00     0.249 C 
ATOM     35  O   GLN d   1     -11.937  35.307  29.749  0.00  0.00    -0.271 OA
ATOM     36  H11 PHE d   1     -12.255  37.368  27.410  0.00  0.00     0.163 HD
BRANCH  34  37
ATOM     37  CA  GLN d   1     -13.936  35.817  28.520  0.00  0.00     0.176 C 
ATOM     38  H4  GLN d   1     -14.102  36.171  27.492  0.00  0.00     0.099 H 
BRANCH  37  39
ATOM     39  N   GLN d   1     -14.350  34.422  28.596  0.00  0.00    -0.066 N 
ATOM     40  H1  GLN d   1     -15.332  34.351  28.382  0.00  0.00     0.275 HD
ATOM     41  H2  GLN d   1     -14.183  34.072  29.526  0.00  0.00     0.275 HD
ATOM     42  H3  GLN d   1     -13.821  33.878  27.932  0.00  0.00     0.275 HD
ENDBRANCH  37  39
BRANCH  37  43
ATOM     43  CB  GLN d   1     -14.776  36.678  29.468  0.00  0.00    -0.022 C 
ATOM     44  H5  GLN d   1     -14.606  36.326  30.496  0.00  0.00     0.037 H 
ATOM     45  H6  GLN d   1     -15.836  36.547  29.206  0.00  0.00     0.037 H 
BRANCH  43  46
ATOM     46  CG  GLN d   1     -14.449  38.160  29.410  0.00  0.00     0.011 C 
ATOM     47  H7  GLN d   1     -14.190  38.424  28.374  0.00  0.00     0.047 H 
ATOM     48  H8  GLN d   1     -13.587  38.357  30.065  0.00  0.00     0.047 H 
BRANCH  46  49
ATOM     49  CD  GLN d   1     -15.609  39.027  29.858  0.00  0.00     0.215 C 
ATOM     50  OE1 GLN d   1     -16.763  38.596  29.847  0.00  0.00    -0.274 OA
ATOM     51  NE2 GLN d   1     -15.309  40.258  30.252  0.00  0.00    -0.370 N 
ATOM     52  H9  GLN d   1     -16.034  40.875  30.558  0.00  0.00     0.159 HD
ATOM     53  H10 GLN d   1     -14.358  40.568  30.242  0.00  0.00     0.159 HD
ENDBRANCH  46  49
ENDBRANCH  43  46
ENDBRANCH  37  43
ENDBRANCH  34  37
ENDBRANCH  31  33
BRANCH  31  54
ATOM     54  CB  PHE d   1      -9.752  37.648  26.989  0.00  0.00    -0.014 C 
ATOM     55  H13 PHE d   1     -10.283  38.601  26.847  0.00  0.00     0.043 H 
ATOM     56  H14 PHE d   1      -9.922  37.000  26.117  0.00  0.00     0.043 H 
BRANCH  54  57
ATOM     57  CG  PHE d   1      -8.283  37.935  27.085  0.00  0.00    -0.056 A 
ATOM     58  CD1 PHE d   1      -7.354  36.924  26.914  0.00  0.00    -0.077 A 
ATOM     59  CE1 PHE d   1      -6.006  37.185  27.005  0.00  0.00    -0.082 A 
ATOM     60  H15 PHE d   1      -7.692  35.915  26.706  0.00  0.00     0.084 H 
ATOM     61  CZ  PHE d   1      -5.566  38.467  27.265  0.00  0.00    -0.083 A 
ATOM     62  H17 PHE d   1      -5.289  36.383  26.872  0.00  0.00     0.083 H 
ATOM     63  CE2 PHE d   1      -6.480  39.485  27.433  0.00  0.00    -0.082 A 
ATOM     64  H19 PHE d   1      -4.504  38.673  27.337  0.00  0.00     0.083 H 
ATOM     65  CD2 PHE d   1      -7.830  39.219  27.342  0.00  0.00    -0.077 A 
ATOM     66  H18 PHE d   1      -6.138  40.493  27.636  0.00  0.00     0.083 H 
ATOM     67  H16 PHE d   1      -8.545  40.023  27.473  0.00  0.00     0.084 H 
ENDBRANCH  54  57
ENDBRANCH  31  54
ENDBRANCH  28  31
ENDBRANCH  25  27
BRANCH  25  68
ATOM     68  CB  ASP d   1      -8.473  36.807  32.586  0.00  0.00     0.043 C 
ATOM     69  H22 ASP d   1      -7.729  36.037  32.334  0.00  0.00     0.052 H 
ATOM     70  H23 ASP d   1      -9.466  36.343  32.675  0.00  0.00     0.052 H 
BRANCH  68  71
ATOM     71  CG  ASP d   1      -8.102  37.421  33.925  0.00  0.00     0.175 C 
ATOM     72  OD1 ASP d   1      -8.259  38.648  34.078  0.00  0.00    -0.648 OA
ATOM     73  OD2 ASP d   1      -7.649  36.677  34.820  0.00  0.00    -0.648 OA
ENDBRANCH  68  71
ENDBRANCH  25  68
ENDBRANCH  22  25
ENDBRANCH  19  21
BRANCH  19  74
ATOM     74  CB  LEU d   1      -5.928  41.932  31.425  0.00  0.00    -0.035 C 
ATOM     75  H26 LEU d   1      -4.939  42.408  31.349  0.00  0.00     0.037 H 
ATOM     76  H27 LEU d   1      -6.372  42.163  32.405  0.00  0.00     0.037 H 
BRANCH  74  77
ATOM     77  CG  LEU d   1      -6.825  42.553  30.352  0.00  0.00    -0.059 C 
ATOM     78  H28 LEU d   1      -7.731  41.937  30.257  0.00  0.00     0.038 H 
BRANCH  77  79
ATOM     79  CD1 LEU d   1      -7.239  43.956  30.754  0.00  0.00    -0.073 C 
ATOM     80  H29 LEU d   1      -7.882  44.386  29.973  0.00  0.00     0.028 H 
ATOM     81  H30 LEU d   1      -6.343  44.582  30.877  0.00  0.00     0.028 H 
ATOM     82  H31 LEU d   1      -7.792  43.917  31.704  0.00  0.00     0.028 H 
ENDBRANCH  77  79
BRANCH  77  83
ATOM     83  CD2 LEU d   1      -6.115  42.573  29.009  0.00  0.00    -0.073 C 
ATOM     84  H32 LEU d   1      -5.822  41.549  28.734  0.00  0.00     0.028 H 
ATOM     85  H33 LEU d   1      -5.217  43.205  29.078  0.00  0.00     0.028 H 
ATOM     86  H34 LEU d   1      -6.791  42.980  28.243  0.00  0.00     0.028 H 
ENDBRANCH  77  83
ENDBRANCH  74  77
ENDBRANCH  19  74
ENDBRANCH  16  19
ENDBRANCH  13  15
BRANCH  13  87
ATOM     87  CB  SER d   1      -4.747  38.901  35.864  0.00  0.00     0.044 C 
ATOM     88  H37 SER d   1      -3.988  38.684  36.630  0.00  0.00     0.077 H 
ATOM     89  H38 SER d   1      -5.463  38.068  35.811  0.00  0.00     0.077 H 
BRANCH  87  90
ATOM     90  OG  SER d   1      -5.442  40.084  36.225  0.00  0.00    -0.398 OA
ATOM     91  H39 SER d   1      -4.828  40.807  36.277  0.00  0.00     0.209 HD
ENDBRANCH  87  90
ENDBRANCH  13  87
ENDBRANCH  10  13
ENDBRANCH   7   9
BRANCH   7  92
ATOM     92  CB  THR d   1      -4.053  34.367  33.755  0.00  0.00     0.060 C 
ATOM     93  H42 THR d   1      -3.517  33.430  33.542  0.00  0.00     0.086 H 
BRANCH  92  94
ATOM     94  OG1 THR d   1      -5.347  34.325  33.141  0.00  0.00    -0.393 OA
ATOM     95  H43 THR d   1      -5.843  33.598  33.499  0.00  0.00     0.210 HD
ENDBRANCH  92  94
BRANCH  92  96
ATOM     96  CG2 THR d   1      -4.216  34.513  35.252  0.00  0.00    -0.050 C 
ATOM     97  H44 THR d   1      -4.790  33.660  35.643  0.00  0.00     0.031 H 
ATOM     98  H45 THR d   1      -4.752  35.448  35.473  0.00  0.00     0.031 H 
ATOM     99  H46 THR d   1      -3.225  34.538  35.728  0.00  0.00     0.031 H 
ENDBRANCH  92  96
ENDBRANCH   7  92
ENDBRANCH   4   7
ENDBRANCH   1   3
BRANCH   1 100
ATOM    100  C   BWV d   1      -4.574  34.660  29.055  0.00  0.00     0.241 C 
ATOM    101  O   BWV d   1      -4.225  34.007  28.050  0.00  0.00    -0.271 OA
ATOM    102  N   ARG d   1      -5.559  34.289  29.860  0.00  0.00    -0.346 N 
ATOM    103  H68 ARG d   1      -5.804  34.875  30.633  0.00  0.00     0.163 HD
BRANCH 102 104
ATOM    104  CA  ARG d   1      -6.292  33.053  29.649  0.00  0.00     0.089 C 
ATOM    105  H69 ARG d   1      -6.047  32.669  28.648  0.00  0.00     0.087 H 
BRANCH 104 106
ATOM    106  C   ARG d   1      -7.791  33.314  29.714  0.00  0.00     0.241 C 
ATOM    107  O   ARG d   1      -8.254  34.170  30.471  0.00  0.00    -0.271 OA
ATOM    108  N   LEU d   1      -8.542  32.583  28.899  0.00  0.00    -0.346 N 
ATOM    109  H81 LEU d   1      -8.104  31.983  28.230  0.00  0.00     0.163 HD
BRANCH 108 110
ATOM    110  CA  LEU d   1      -9.993  32.645  28.968  0.00  0.00     0.089 C 
ATOM    111  H82 LEU d   1     -10.306  33.699  28.920  0.00  0.00     0.087 H 
BRANCH 110 112
ATOM    112  C   LEU d   1     -10.472  32.049  30.285  0.00  0.00     0.241 C 
ATOM    113  O   LEU d   1      -9.950  31.033  30.754  0.00  0.00    -0.271 OA
ATOM    114  N   LYS d   1     -11.465  32.692  30.886  0.00  0.00    -0.345 N 
ATOM    115  H92 LYS d   1     -11.846  33.511  30.457  0.00  0.00     0.163 HD
BRANCH 114 116
ATOM    116  CA  LYS d   1     -12.014  32.234  32.155  0.00  0.00     0.096 C 
ATOM    117  H93 LYS d   1     -11.531  31.281  32.416  0.00  0.00     0.089 H 
BRANCH 116 118
ATOM    118  C   LYS d   1     -13.515  31.996  32.045  0.00  0.00     0.196 C 
ATOM    119  O   LYS d   1     -14.285  32.926  31.804  0.00  0.00    -0.646 OA
ATOM    120  OXT LYS d   1     -13.987  30.869  32.195  0.00  0.00    -0.646 OA
ENDBRANCH 116 118
BRANCH 116 121
ATOM    121  CB  LYS d   1     -11.718  33.246  33.265  0.00  0.00    -0.037 C 
ATOM    122  H94 LYS d   1     -12.023  34.243  32.916  0.00  0.00     0.036 H 
ATOM    123  H95 LYS d   1     -10.635  33.241  33.460  0.00  0.00     0.036 H 
BRANCH 121 124
ATOM    124  CG  LYS d   1     -12.441  32.952  34.569  0.00  0.00    -0.061 C 
ATOM    125  H96 LYS d   1     -12.100  31.980  34.953  0.00  0.00     0.033 H 
ATOM    126  H97 LYS d   1     -13.523  32.910  34.374  0.00  0.00     0.033 H 
BRANCH 124 127
ATOM    127  CD  LYS d   1     -12.172  34.018  35.620  0.00  0.00    -0.043 C 
ATOM    128  H98 LYS d   1     -12.928  33.934  36.415  0.00  0.00     0.035 H 
ATOM    129  H99 LYS d   1     -12.245  35.009  35.149  0.00  0.00     0.035 H 
BRANCH 127 130
ATOM    130  CE  LYS d   1     -10.791  33.866  36.236  0.00  0.00     0.080 C 
ATOM    131 0H10 LYS d   1     -10.033  34.134  35.486  0.00  0.00     0.075 H 
ATOM    132 1H10 LYS d   1     -10.649  32.819  36.543  0.00  0.00     0.075 H 
BRANCH 130 133
ATOM    133  NZ  LYS d   1     -10.627  34.747  37.427  0.00  0.00    -0.079 N 
ATOM    134 2H10 LYS d   1      -9.704  34.623  37.812  0.00  0.00     0.274 HD
ATOM    135 3H10 LYS d   1     -11.316  34.504  38.122  0.00  0.00     0.274 HD
ATOM    136 4H10 LYS d   1     -10.751  35.709  37.153  0.00  0.00     0.274 HD
ENDBRANCH 130 133
ENDBRANCH 127 130
ENDBRANCH 124 127
ENDBRANCH 121 124
ENDBRANCH 116 121
ENDBRANCH 114 116
ENDBRANCH 110 112
BRANCH 110 137
ATOM    137  CB  LEU d   1     -10.615  31.895  27.791  0.00  0.00    -0.035 C 
ATOM    138  H83 LEU d   1     -11.707  31.930  27.914  0.00  0.00     0.037 H 
ATOM    139  H84 LEU d   1     -10.273  30.851  27.844  0.00  0.00     0.037 H 
BRANCH 137 140
ATOM    140  CG  LEU d   1     -10.291  32.417  26.390  0.00  0.00    -0.059 C 
ATOM    141  H85 LEU d   1      -9.198  32.475  26.285  0.00  0.00     0.038 H 
BRANCH 140 142
ATOM    142  CD1 LEU d   1     -10.824  31.465  25.332  0.00  0.00    -0.073 C 
ATOM    143  H86 LEU d   1     -10.582  31.855  24.332  0.00  0.00     0.028 H 
ATOM    144  H87 LEU d   1     -11.915  31.375  25.436  0.00  0.00     0.028 H 
ATOM    145  H88 LEU d   1     -10.360  30.476  25.461  0.00  0.00     0.028 H 
ENDBRANCH 140 142
BRANCH 140 146
ATOM    146  CD2 LEU d   1     -10.866  33.810  26.194  0.00  0.00    -0.073 C 
ATOM    147  H89 LEU d   1     -10.469  34.483  26.968  0.00  0.00     0.028 H 
ATOM    148  H90 LEU d   1     -11.962  33.768  26.272  0.00  0.00     0.028 H 
ATOM    149  H91 LEU d   1     -10.583  34.187  25.200  0.00  0.00     0.028 H 
ENDBRANCH 140 146
ENDBRANCH 137 140
ENDBRANCH 110 137
ENDBRANCH 108 110
ENDBRANCH 104 106
BRANCH 104 150
ATOM    150  CB  ARG d   1      -5.886  32.001  30.684  0.00  0.00    -0.036 C 
ATOM    151  H70 ARG d   1      -6.507  31.106  30.528  0.00  0.00     0.036 H 
ATOM    152  H71 ARG d   1      -6.079  32.411  31.686  0.00  0.00     0.036 H 
BRANCH 150 153
ATOM    153  CG  ARG d   1      -4.420  31.584  30.613  0.00  0.00    -0.048 C 
ATOM    154  H72 ARG d   1      -4.211  30.883  31.434  0.00  0.00     0.035 H 
ATOM    155  H73 ARG d   1      -3.791  32.479  30.726  0.00  0.00     0.035 H 
BRANCH 153 156
ATOM    156  CD  ARG d   1      -4.077  30.906  29.288  0.00  0.00     0.009 C 
ATOM    157  H74 ARG d   1      -3.075  30.459  29.371  0.00  0.00     0.064 H 
ATOM    158  H75 ARG d   1      -4.075  31.667  28.494  0.00  0.00     0.064 H 
BRANCH 156 159
ATOM    159  NE  ARG d   1      -5.028  29.856  28.926  0.00  0.00    -0.227 N 
ATOM    160  CZ  ARG d   1      -5.007  28.618  29.413  0.00  0.00     0.665 C 
ATOM    161  NH1 ARG d   1      -4.086  28.263  30.297  0.00  0.00    -0.235 N 
ATOM    162  NH2 ARG d   1      -5.915  27.734  29.018  0.00  0.00    -0.235 N 
ATOM    163  H77 ARG d   1      -4.074  27.303  30.671  0.00  0.00     0.174 HD
ATOM    164  H78 ARG d   1      -3.382  28.947  30.610  0.00  0.00     0.174 HD
ATOM    165  H79 ARG d   1      -6.633  28.005  28.331  0.00  0.00     0.174 HD
ATOM    166  H80 ARG d   1      -5.902  26.777  29.398  0.00  0.00     0.174 HD
ATOM    167  H76 ARG d   1      -5.766  30.091  28.247  0.00  0.00     0.177 HD
ENDBRANCH 156 159
ENDBRANCH 153 156
ENDBRANCH 150 153
ENDBRANCH 104 150
ENDBRANCH 102 104
ENDBRANCH   1 100
BRANCH   1 168
ATOM    168  CB  BWV d   1      -2.538  36.052  28.708  0.00  0.00    -0.036 C 
ATOM    169  H49 BWV d   1      -2.684  35.983  27.620  0.00  0.00     0.036 H 
ATOM    170  H50 BWV d   1      -1.901  35.222  29.046  0.00  0.00     0.036 H 
BRANCH 168 171
ATOM    171  CG  BWV d   1      -1.867  37.376  29.047  0.00  0.00    -0.048 C 
ATOM    172  H51 BWV d   1      -1.684  37.445  30.130  0.00  0.00     0.035 H 
ATOM    173  H52 BWV d   1      -2.500  38.217  28.728  0.00  0.00     0.035 H 
BRANCH 171 174
ATOM    174  CD  BWV d   1      -0.547  37.390  28.286  0.00  0.00     0.009 C 
ATOM    175  H53 BWV d   1      -0.757  37.296  27.210  0.00  0.00     0.064 H 
ATOM    176  H54 BWV d   1       0.062  36.535  28.616  0.00  0.00     0.064 H 
BRANCH 174 177
ATOM    177  NE  BWV d   1       0.210  38.626  28.514  0.00  0.00    -0.227 N 
ATOM    178  CZ  BWV d   1       1.171  39.036  27.675  0.00  0.00     0.667 C 
ATOM    179  NH1 BWV d   1       1.443  38.316  26.577  0.00  0.00    -0.235 N 
ATOM    180  NH2 BWV d   1       1.849  40.166  27.911  0.00  0.00    -0.227 N 
ATOM    181  H56 BWV d   1       2.180  38.625  25.928  0.00  0.00     0.174 HD
ATOM    182  H57 BWV d   1       0.914  37.453  26.383  0.00  0.00     0.174 HD
ATOM    183  H58 BWV d   1       2.573  40.436  27.230  0.00  0.00     0.177 HD
ATOM    184  H55 BWV d   1      -0.004  39.196  29.345  0.00  0.00     0.177 HD
BRANCH 180 185
ATOM    185  C02 BWV d   1       1.640  41.050  29.065  0.00  0.00     0.009 C 
ATOM    186  H61 BWV d   1       1.826  40.497  29.997  0.00  0.00     0.064 H 
ATOM    187  H62 BWV d   1       0.607  41.429  29.063  0.00  0.00     0.064 H 
BRANCH 185 188
ATOM    188  C01 BWV d   1       2.621  42.217  28.950  0.00  0.00    -0.050 C 
ATOM    189  H59 BWV d   1       2.424  42.762  28.015  0.00  0.00     0.035 H 
ATOM    190  H60 BWV d   1       3.648  41.824  28.935  0.00  0.00     0.035 H 
BRANCH 188 191
ATOM    191  C03 BWV d   1       2.470  43.177  30.131  0.00  0.00    -0.067 C 
ATOM    192  H63 BWV d   1       2.678  42.644  31.070  0.00  0.00     0.032 H 
ATOM    193  H64 BWV d   1       1.445  43.576  30.155  0.00  0.00     0.032 H 
BRANCH 191 194
ATOM    194  C04 BWV d   1       3.466  44.326  29.961  0.00  0.00    -0.076 C 
ATOM    195  H65 BWV d   1       3.368  45.025  30.805  0.00  0.00     0.027 H 
ATOM    196  H66 BWV d   1       3.257  44.856  29.020  0.00  0.00     0.027 H 
ATOM    197  H67 BWV d   1       4.489  43.923  29.936  0.00  0.00     0.027 H 
ENDBRANCH 191 194
ENDBRANCH 188 191
ENDBRANCH 185 188
ENDBRANCH 180 185
ENDBRANCH 174 177
ENDBRANCH 171 174
ENDBRANCH 168 171
ENDBRANCH   1 168
TORSDOF 57
