REMARK  4 active torsions:
REMARK  status: ('A' for Active; 'I' for Inactive)
REMARK    1  A    between atoms: C04_5  and  C02_4 
REMARK    2  A    between atoms: C04_5  and  O05_15 
REMARK    3  A    between atoms: C07_7  and  C06_6 
REMARK    4  A    between atoms: C09_8  and  C07_7 
ROOT
ATOM      1  C10 BXS d   1      33.627  75.808  62.698  0.00  0.00    -0.066 A 
ATOM      2  C15 BXS d   1      29.577  75.035  59.779  0.00  0.00     0.046 C 
ATOM      3  C17 BXS d   1      31.549  75.966  60.776  0.00  0.00     0.103 A 
ATOM      4  C09 BXS d   1      33.594  76.827  61.746  0.00  0.00     0.017 A 
ATOM      5  C11 BXS d   1      32.598  74.848  62.696  0.00  0.00    -0.047 A 
ATOM      6  C12 BXS d   1      31.558  74.929  61.747  0.00  0.00     0.102 A 
ATOM      7  C14 BXS d   1      29.315  74.535  61.183  0.00  0.00     0.046 C 
ATOM      8  C18 BXS d   1      32.574  76.900  60.793  0.00  0.00    -0.034 A 
ATOM      9  O13 BXS d   1      30.518  74.012  61.757  0.00  0.00    -0.346 OA
ATOM     10  O16 BXS d   1      30.569  76.072  59.788  0.00  0.00    -0.346 OA
ATOM     11  H1  BXS d   1      34.429  75.757  63.425  0.00  0.00     0.085 H 
ATOM     12  H2  BXS d   1      28.642  75.433  59.357  0.00  0.00     0.078 H 
ATOM     13  H3  BXS d   1      29.933  74.200  59.158  0.00  0.00     0.078 H 
ATOM     14  H5  BXS d   1      32.605  74.046  63.425  0.00  0.00     0.087 H 
ATOM     15  H6  BXS d   1      28.554  73.741  61.150  0.00  0.00     0.078 H 
ATOM     16  H7  BXS d   1      28.950  75.367  61.802  0.00  0.00     0.078 H 
ATOM     17  H8  BXS d   1      32.584  77.697  60.058  0.00  0.00     0.089 H 
ENDROOT
BRANCH   4  18
ATOM     18  C07 BXS d   1      34.648  77.872  61.601  0.00  0.00     0.185 C 
ATOM     19  O08 BXS d   1      34.957  78.255  60.477  0.00  0.00    -0.287 OA
BRANCH  18  20
ATOM     20  C06 BXS d   1      35.376  78.355  62.766  0.00  0.00     0.005 C 
ATOM     21  C04 BXS d   1      36.275  79.360  62.635  0.00  0.00     0.146 C 
ATOM     22  H4  BXS d   1      35.198  77.908  63.743  0.00  0.00     0.094 H 
BRANCH  21  23
ATOM     23  C02 BXS d   1      37.334  79.584  63.649  0.00  0.00     0.233 C 
ATOM     24  O01 BXS d   1      38.555  79.721  63.078  0.00  0.00    -0.642 OA
ATOM     25  O03 BXS d   1      37.284  79.240  64.821  0.00  0.00    -0.642 OA
ENDBRANCH  21  23
BRANCH  21  26
ATOM     26  O05 BXS d   1      36.498  80.107  61.531  0.00  0.00    -0.355 OA
ATOM     27  H9  BXS d   1      36.769  79.542  60.817  0.00  0.00     0.218 HD
ENDBRANCH  21  26
ENDBRANCH  18  20
ENDBRANCH   4  18
TORSDOF 4
