REMARK  10 active torsions:
REMARK  status: ('A' for Active; 'I' for Inactive)
REMARK    1  A    between atoms: C5_26  and  C9_3 
REMARK    2  A    between atoms: C2_4  and  C1_6 
REMARK    3  A    between atoms: C2_4  and  C3_20 
REMARK    4  A    between atoms: N4_30  and  C2_4 
REMARK    5  A    between atoms: C16_10  and  S23_34 
REMARK    6  A    between atoms: S23_34  and  C25_16 
REMARK    7  A    between atoms: C31_22  and  C32_23 
REMARK    8  A    between atoms: C31_22  and  C33_24 
REMARK    9  A    between atoms: C31_22  and  C34_25 
REMARK   10  A    between atoms: N28_29  and  C31_22 
ROOT
ATOM      1  C9  BWY d   1      19.681  -7.200  20.076  0.00  0.00     0.122 A 
ATOM      2  C10 BWY d   1      19.414  -8.211  20.938  0.00  0.00     0.013 A 
ATOM      3  C12 BWY d   1      17.571  -7.035  20.621  0.00  0.00     0.143 A 
ATOM      4  C14 BWY d   1      16.171  -6.510  20.676  0.00  0.00     0.045 A 
ATOM      5  C15 BWY d   1      15.916  -5.225  20.206  0.00  0.00    -0.048 A 
ATOM      6  C16 BWY d   1      14.637  -4.696  20.230  0.00  0.00     0.033 A 
ATOM      7  C17 BWY d   1      13.590  -5.448  20.727  0.00  0.00    -0.062 A 
ATOM      8  C18 BWY d   1      13.811  -6.725  21.195  0.00  0.00    -0.048 A 
ATOM      9  C19 BWY d   1      15.081  -7.266  21.167  0.00  0.00     0.083 A 
ATOM     10  C21 BWY d   1      16.148  -8.622  22.751  0.00  0.00     0.041 C 
ATOM     11  C22 BWY d   1      17.492  -9.082  22.221  0.00  0.00     0.021 C 
ATOM     12  N11 BWY d   1      18.114  -8.134  21.296  0.00  0.00    -0.337 N 
ATOM     13  N13 BWY d   1      18.535  -6.507  19.910  0.00  0.00    -0.225 NA
ATOM     14  O20 BWY d   1      15.288  -8.505  21.634  0.00  0.00    -0.349 OA
ATOM     15  H3  BWY d   1      20.127  -8.959  21.283  0.00  0.00     0.115 H 
ATOM     16  H7  BWY d   1      16.732  -4.629  19.815  0.00  0.00     0.087 H 
ATOM     17  H8  BWY d   1      12.589  -5.031  20.749  0.00  0.00     0.085 H 
ATOM     18  H9  BWY d   1      12.985  -7.307  21.587  0.00  0.00     0.087 H 
ATOM     19  H10 BWY d   1      16.252  -7.649  23.253  0.00  0.00     0.077 H 
ATOM     20  H11 BWY d   1      15.748  -9.360  23.462  0.00  0.00     0.077 H 
ATOM     21  H12 BWY d   1      17.350 -10.038  21.695  0.00  0.00     0.068 H 
ATOM     22  H13 BWY d   1      18.170  -9.230  23.075  0.00  0.00     0.068 H 
ENDROOT
BRANCH   6  23
ATOM     23  S23 BWY d   1      14.340  -3.058  19.638  0.00  0.00     0.054 S 
ATOM     24  O24 BWY d   1      15.581  -2.715  19.038  0.00  0.00    -0.252 OA
BRANCH  23  25
ATOM     25  C25 BWY d   1      13.070  -3.258  18.351  0.00  0.00     0.027 C 
ATOM     26  C26 BWY d   1      11.669  -3.260  18.964  0.00  0.00    -0.028 C 
ATOM     27  C27 BWY d   1      10.660  -3.545  17.850  0.00  0.00     0.086 C 
ATOM     28  H15 BWY d   1      11.459  -2.279  19.415  0.00  0.00     0.037 H 
ATOM     29  H16 BWY d   1      11.601  -4.041  19.736  0.00  0.00     0.037 H 
ATOM     30  N28 BWY d   1      10.717  -2.503  16.812  0.00  0.00    -0.063 N 
ATOM     31  H17 BWY d   1       9.647  -3.571  18.279  0.00  0.00     0.076 H 
ATOM     32  H18 BWY d   1      10.891  -4.520  17.395  0.00  0.00     0.076 H 
ATOM     33  C29 BWY d   1      12.074  -2.339  16.259  0.00  0.00     0.086 C 
ATOM     34  H35 BWY d   1      10.490  -1.634  17.270  0.00  0.00     0.280 HD
ATOM     35  C30 BWY d   1      13.110  -2.091  17.361  0.00  0.00    -0.028 C 
ATOM     36  H19 BWY d   1      12.348  -3.253  15.711  0.00  0.00     0.076 H 
ATOM     37  H20 BWY d   1      12.076  -1.483  15.569  0.00  0.00     0.076 H 
ATOM     38  H24 BWY d   1      14.113  -2.019  16.915  0.00  0.00     0.037 H 
ATOM     39  H25 BWY d   1      12.874  -1.153  17.886  0.00  0.00     0.037 H 
ATOM     40  H14 BWY d   1      13.246  -4.205  17.819  0.00  0.00     0.061 H 
BRANCH  30  41
ATOM     41  C31 BWY d   1       9.697  -2.693  15.755  0.00  0.00     0.117 C 
BRANCH  41  42
ATOM     42  C32 BWY d   1      10.286  -3.419  14.540  0.00  0.00    -0.046 C 
ATOM     43  H26 BWY d   1       9.506  -3.545  13.774  0.00  0.00     0.030 H 
ATOM     44  H27 BWY d   1      10.659  -4.407  14.848  0.00  0.00     0.030 H 
ATOM     45  H28 BWY d   1      11.115  -2.827  14.125  0.00  0.00     0.030 H 
ENDBRANCH  41  42
BRANCH  41  46
ATOM     46  C33 BWY d   1       8.509  -3.515  16.268  0.00  0.00    -0.046 C 
ATOM     47  H29 BWY d   1       8.067  -3.014  17.142  0.00  0.00     0.030 H 
ATOM     48  H30 BWY d   1       8.855  -4.519  16.556  0.00  0.00     0.030 H 
ATOM     49  H31 BWY d   1       7.753  -3.602  15.474  0.00  0.00     0.030 H 
ENDBRANCH  41  46
BRANCH  41  50
ATOM     50  C34 BWY d   1       9.178  -1.322  15.316  0.00  0.00    -0.046 C 
ATOM     51  H32 BWY d   1      10.016  -0.715  14.944  0.00  0.00     0.030 H 
ATOM     52  H33 BWY d   1       8.710  -0.815  16.173  0.00  0.00     0.030 H 
ATOM     53  H34 BWY d   1       8.434  -1.450  14.516  0.00  0.00     0.030 H 
ENDBRANCH  41  50
ENDBRANCH  30  41
ENDBRANCH  23  25
ENDBRANCH   6  23
BRANCH   1  54
ATOM     54  C5  BWY d   1      21.019  -6.988  19.482  0.00  0.00     0.178 A 
ATOM     55  N4  BWY d   1      21.437  -6.073  18.568  0.00  0.00    -0.245 N 
ATOM     56  N8  BWY d   1      22.802  -6.331  18.363  0.00  0.00    -0.164 NA
ATOM     57  C7  BWY d   1      23.131  -7.337  19.126  0.00  0.00     0.108 A 
ATOM     58  N6  BWY d   1      22.060  -7.732  19.800  0.00  0.00    -0.219 NA
ATOM     59  H1  BWY d   1      24.123  -7.780  19.198  0.00  0.00     0.149 H 
BRANCH  55  60
ATOM     60  C2  BWY d   1      20.675  -5.019  17.892  0.00  0.00     0.030 C 
ATOM     61  H2  BWY d   1      19.782  -5.448  17.413  0.00  0.00     0.074 H 
BRANCH  60  62
ATOM     62  C1  BWY d   1      21.586  -4.376  16.845  0.00  0.00    -0.056 C 
ATOM     63  H4  BWY d   1      21.037  -3.579  16.321  0.00  0.00     0.030 H 
ATOM     64  H5  BWY d   1      21.906  -5.138  16.120  0.00  0.00     0.030 H 
ATOM     65  H6  BWY d   1      22.470  -3.948  17.341  0.00  0.00     0.030 H 
ENDBRANCH  60  62
BRANCH  60  66
ATOM     66  C3  BWY d   1      20.264  -3.939  18.893  0.00  0.00    -0.056 C 
ATOM     67  H21 BWY d   1      19.607  -4.379  19.658  0.00  0.00     0.030 H 
ATOM     68  H22 BWY d   1      19.728  -3.136  18.366  0.00  0.00     0.030 H 
ATOM     69  H23 BWY d   1      21.162  -3.525  19.375  0.00  0.00     0.030 H 
ENDBRANCH  60  66
ENDBRANCH  55  60
ENDBRANCH   1  54
TORSDOF 10
