REMARK  7 active torsions:
REMARK  status: ('A' for Active; 'I' for Inactive)
REMARK    1  A    between atoms: C26_2  and  O25_5 
REMARK    2  A    between atoms: O25_5  and  C24_6 
REMARK    3  A    between atoms: C1_11  and  N2_12 
REMARK       I    between atoms: N2_12  and  C3_13 
REMARK       I    between atoms: C3_13  and  N4_15 
REMARK    4  A    between atoms: N4_15  and  C5_16 
REMARK    5  A    between atoms: C8_19  and  O9_22 
REMARK    6  A    between atoms: O9_22  and  C10_23 
REMARK    7  A    between atoms: C13_26  and  C14_27 
ROOT
ATOM      1  C5  BXV d   1     -15.156 -11.594  18.445  0.00  0.00     0.014 C 
ATOM      2  C20 BXV d   1     -14.350 -10.303  18.580  0.00  0.00    -0.044 C 
ATOM      3  C19 BXV d   1     -13.623 -10.270  19.920  0.00  0.00    -0.038 C 
ATOM      4  C8  BXV d   1     -12.675 -11.462  20.029  0.00  0.00     0.045 C 
ATOM      5  C7  BXV d   1     -13.448 -12.762  19.827  0.00  0.00    -0.038 C 
ATOM      6  C6  BXV d   1     -14.183 -12.765  18.494  0.00  0.00    -0.044 C 
ATOM      7  H7  BXV d   1     -15.814 -11.643  19.325  0.00  0.00     0.072 H 
ATOM      8  H8  BXV d   1     -15.031  -9.442  18.516  0.00  0.00     0.036 H 
ATOM      9  H9  BXV d   1     -13.612 -10.249  17.766  0.00  0.00     0.036 H 
ATOM     10  H10 BXV d   1     -14.360 -10.315  20.735  0.00  0.00     0.036 H 
ATOM     11  H11 BXV d   1     -13.046  -9.337  19.998  0.00  0.00     0.036 H 
ATOM     12  H12 BXV d   1     -11.896 -11.369  19.258  0.00  0.00     0.084 H 
ATOM     13  H13 BXV d   1     -14.180 -12.874  20.640  0.00  0.00     0.036 H 
ATOM     14  H14 BXV d   1     -12.743 -13.606  19.849  0.00  0.00     0.036 H 
ATOM     15  H15 BXV d   1     -13.455 -12.671  17.674  0.00  0.00     0.036 H 
ATOM     16  H16 BXV d   1     -14.739 -13.708  18.384  0.00  0.00     0.036 H 
ENDROOT
BRANCH   1  17
ATOM     17  N4  BXV d   1     -16.012 -11.783  17.273  0.00  0.00    -0.338 N 
ATOM     18  C3  BXV d   1     -16.176 -10.995  16.201  0.00  0.00     0.321 C 
ATOM     19  N2  BXV d   1     -17.102 -11.388  15.308  0.00  0.00    -0.309 N 
ATOM     20  O21 BXV d   1     -15.554  -9.972  16.082  0.00  0.00    -0.247 OA
ATOM     21  H5  BXV d   1     -17.407 -12.337  15.385  0.00  0.00     0.170 HD
ATOM     22  H6  BXV d   1     -16.554 -12.623  17.272  0.00  0.00     0.164 HD
BRANCH  19  23
ATOM     23  C1  BXV d   1     -17.679 -10.656  14.310  0.00  0.00     0.036 A 
ATOM     24  C22 BXV d   1     -18.885 -11.157  13.816  0.00  0.00    -0.054 A 
ATOM     25  C23 BXV d   1     -19.612 -10.488  12.846  0.00  0.00    -0.048 A 
ATOM     26  H2  BXV d   1     -19.263 -12.097  14.203  0.00  0.00     0.087 H 
ATOM     27  C24 BXV d   1     -19.128  -9.290  12.349  0.00  0.00     0.078 A 
ATOM     28  H1  BXV d   1     -20.547 -10.897  12.481  0.00  0.00     0.087 H 
ATOM     29  C30 BXV d   1     -17.941  -8.762  12.838  0.00  0.00    -0.048 A 
ATOM     30  C31 BXV d   1     -17.223  -9.433  13.813  0.00  0.00    -0.054 A 
ATOM     31  H3  BXV d   1     -17.574  -7.817  12.454  0.00  0.00     0.087 H 
ATOM     32  H4  BXV d   1     -16.302  -9.007  14.193  0.00  0.00     0.087 H 
BRANCH  27  33
ATOM     33  O25 BXV d   1     -19.838  -8.595  11.416  0.00  0.00    -0.255 OA
BRANCH  33  34
ATOM     34  C26 BXV d   1     -20.751  -7.619  11.941  0.00  0.00     0.530 C 
ATOM     35  F29 BXV d   1     -21.684  -8.235  12.639  0.00  0.00    -0.144 F 
ATOM     36  F27 BXV d   1     -20.117  -6.774  12.741  0.00  0.00    -0.144 F 
ATOM     37  F28 BXV d   1     -21.316  -6.927  10.969  0.00  0.00    -0.144 F 
ENDBRANCH  33  34
ENDBRANCH  27  33
ENDBRANCH  19  23
ENDBRANCH   1  17
BRANCH   4  38
ATOM     38  O9  BXV d   1     -12.067 -11.529  21.309  0.00  0.00    -0.346 OA
BRANCH  38  39
ATOM     39  C10 BXV d   1     -11.299 -10.516  21.802  0.00  0.00     0.069 A 
ATOM     40  C18 BXV d   1     -10.158 -10.080  21.126  0.00  0.00    -0.050 A 
ATOM     41  C17 BXV d   1      -9.396  -9.041  21.668  0.00  0.00    -0.064 A 
ATOM     42  H17 BXV d   1      -9.866 -10.543  20.190  0.00  0.00     0.087 H 
ATOM     43  C13 BXV d   1      -9.776  -8.444  22.883  0.00  0.00     0.041 A 
ATOM     44  H18 BXV d   1      -8.509  -8.694  21.150  0.00  0.00     0.085 H 
ATOM     45  C12 BXV d   1     -10.921  -8.893  23.551  0.00  0.00    -0.064 A 
ATOM     46  C11 BXV d   1     -11.681  -9.926  23.007  0.00  0.00    -0.050 A 
ATOM     47  H19 BXV d   1     -11.216  -8.438  24.490  0.00  0.00     0.085 H 
ATOM     48  H20 BXV d   1     -12.571 -10.272  23.521  0.00  0.00     0.087 H 
BRANCH  43  49
ATOM     49  C14 BXV d   1      -8.966  -7.323  23.479  0.00  0.00     0.209 C 
ATOM     50  O16 BXV d   1      -9.463  -6.529  24.268  0.00  0.00    -0.644 OA
ATOM     51  O15 BXV d   1      -7.683  -7.180  23.154  0.00  0.00    -0.644 OA
ENDBRANCH  43  49
ENDBRANCH  38  39
ENDBRANCH   4  38
TORSDOF 7
