REMARK  8 active torsions:
REMARK  status: ('A' for Active; 'I' for Inactive)
REMARK    1  A    between atoms: C1_1  and  C2_3 
REMARK    2  A    between atoms: C2_3  and  C3_5 
REMARK    3  A    between atoms: C3_5  and  C4_6 
REMARK    4  A    between atoms: C4_6  and  C5_7 
REMARK    5  A    between atoms: C5_7  and  C6_8 
REMARK    6  A    between atoms: C6_8  and  C7_9 
REMARK    7  A    between atoms: C7_9  and  C8_10 
REMARK    8  A    between atoms: C8_10  and  C9_11 
ROOT
ATOM      1  C5  KNA d   1      14.817  65.921   9.905  0.00  0.00    -0.065 C 
ATOM      2  H7  KNA d   1      14.671  66.713  10.654  0.00  0.00     0.033 H 
ATOM      3  H8  KNA d   1      15.118  64.991  10.409  0.00  0.00     0.033 H 
ENDROOT
BRANCH   1   4
ATOM      4  C4  KNA d   1      15.948  66.349   8.963  0.00  0.00    -0.065 C 
ATOM      5  H5  KNA d   1      15.665  66.124   7.924  0.00  0.00     0.033 H 
ATOM      6  H6  KNA d   1      16.125  67.429   9.069  0.00  0.00     0.033 H 
BRANCH   4   7
ATOM      7  C3  KNA d   1      17.223  65.585   9.322  0.00  0.00    -0.056 C 
ATOM      8  H3  KNA d   1      17.882  65.523   8.444  0.00  0.00     0.033 H 
ATOM      9  H4  KNA d   1      17.750  66.099  10.140  0.00  0.00     0.033 H 
BRANCH   7  10
ATOM     10  C2  KNA d   1      16.814  64.178   9.768  0.00  0.00     0.016 C 
ATOM     11  H1  KNA d   1      16.303  64.251  10.739  0.00  0.00     0.049 H 
ATOM     12  H2  KNA d   1      16.124  63.758   9.021  0.00  0.00     0.049 H 
BRANCH  10  13
ATOM     13  C1  KNA d   1      18.009  63.237   9.913  0.00  0.00     0.172 C 
ATOM     14  O1  KNA d   1      17.896  62.205  10.623  0.00  0.00    -0.648 OA
ATOM     15  O2  KNA d   1      19.096  63.484   9.325  0.00  0.00    -0.648 OA
ENDBRANCH  10  13
ENDBRANCH   7  10
ENDBRANCH   4   7
ENDBRANCH   1   4
BRANCH   1  16
ATOM     16  C6  KNA d   1      13.482  65.675   9.195  0.00  0.00    -0.065 C 
ATOM     17  H9  KNA d   1      13.623  65.813   8.113  0.00  0.00     0.033 H 
ATOM     18  H10 KNA d   1      12.742  66.401   9.564  0.00  0.00     0.033 H 
BRANCH  16  19
ATOM     19  C7  KNA d   1      12.957  64.255   9.452  0.00  0.00    -0.065 C 
ATOM     20  H11 KNA d   1      13.323  63.907  10.429  0.00  0.00     0.033 H 
ATOM     21  H12 KNA d   1      13.329  63.586   8.662  0.00  0.00     0.033 H 
BRANCH  19  22
ATOM     22  C8  KNA d   1      11.413  64.228   9.452  0.00  0.00    -0.069 C 
ATOM     23  H13 KNA d   1      11.052  64.697   8.525  0.00  0.00     0.032 H 
ATOM     24  H14 KNA d   1      11.050  64.800  10.318  0.00  0.00     0.032 H 
BRANCH  22  25
ATOM     25  C9  KNA d   1      10.847  62.794   9.534  0.00  0.00    -0.077 C 
ATOM     26  H15 KNA d   1       9.748  62.833   9.531  0.00  0.00     0.027 H 
ATOM     27  H16 KNA d   1      11.194  62.315  10.462  0.00  0.00     0.027 H 
ATOM     28  H17 KNA d   1      11.196  62.212   8.668  0.00  0.00     0.027 H 
ENDBRANCH  22  25
ENDBRANCH  19  22
ENDBRANCH  16  19
ENDBRANCH   1  16
TORSDOF 8
