REMARK  4 active torsions:
REMARK  status: ('A' for Active; 'I' for Inactive)
REMARK    1  A    between atoms: CAM_13  and  OAO_15 
REMARK    2  A    between atoms: CAW_23  and  CAM_13 
REMARK    3  A    between atoms: OAO_15  and  CAS_19 
REMARK    4  A    between atoms: CAT_20  and  CAX_24 
ROOT
ATOM      1  CAI 8PR d   1      34.992 186.855 139.415  0.00  0.00     0.082 C 
ATOM      2  CAJ 8PR d   1      34.815 185.347 139.603  0.00  0.00    -0.035 C 
ATOM      3  CAK 8PR d   1      34.767 187.141 141.864  0.00  0.00     0.087 C 
ATOM      4  NAN 8PR d   1      35.474 187.537 140.637  0.00  0.00    -0.075 N 
ATOM      5  CAW 8PR d   1      34.654 185.608 142.012  0.00  0.00    -0.002 C 
ATOM      6  CAX 8PR d   1      34.000 185.036 140.808  0.00  0.00    -0.020 C 
ATOM      7  H8  8PR d   1      34.022 187.289 139.131  0.00  0.00     0.075 H 
ATOM      8  H9  8PR d   1      35.720 187.025 138.608  0.00  0.00     0.075 H 
ATOM      9  H10 8PR d   1      35.806 184.882 139.713  0.00  0.00     0.036 H 
ATOM     10  H11 8PR d   1      34.313 184.934 138.716  0.00  0.00     0.036 H 
ATOM     11  H12 8PR d   1      33.754 187.569 141.841  0.00  0.00     0.076 H 
ATOM     12  H13 8PR d   1      35.314 187.540 142.731  0.00  0.00     0.076 H 
ATOM     13  H18 8PR d   1      35.358 188.530 140.512  0.00  0.00     0.277 HD
ATOM     14  H19 8PR d   1      36.453 187.325 140.753  0.00  0.00     0.277 HD
ATOM     15  H20 8PR d   1      35.658 185.169 142.111  0.00  0.00     0.046 H 
ATOM     16  H21 8PR d   1      33.010 185.503 140.702  0.00  0.00     0.048 H 
ENDROOT
BRANCH   5  17
ATOM     17  CAM 8PR d   1      33.853 185.334 143.295  0.00  0.00     0.032 C 
ATOM     18  H16 8PR d   1      33.817 184.251 143.487  0.00  0.00     0.075 H 
ATOM     19  H17 8PR d   1      34.330 185.842 144.147  0.00  0.00     0.075 H 
BRANCH  17  20
ATOM     20  OAO 8PR d   1      32.537 185.834 143.113  0.00  0.00    -0.351 OA
BRANCH  20  21
ATOM     21  CAS 8PR d   1      31.672 185.719 144.303  0.00  0.00     0.071 A 
ATOM     22  CAD 8PR d   1      31.610 186.219 145.594  0.00  0.00    -0.048 A 
ATOM     23  CAG 8PR d   1      30.549 185.831 146.444  0.00  0.00    -0.045 A 
ATOM     24  H3  8PR d   1      32.371 186.904 145.950  0.00  0.00     0.087 H 
ATOM     25  CAU 8PR d   1      29.567 184.952 145.981  0.00  0.00     0.105 A 
ATOM     26  H6  8PR d   1      30.497 186.216 147.456  0.00  0.00     0.088 H 
ATOM     27  OAP 8PR d   1      28.392 184.395 146.618  0.00  0.00    -0.323 OA
ATOM     28  CAV 8PR d   1      29.633 184.450 144.676  0.00  0.00     0.107 A 
ATOM     29  CAL 8PR d   1      27.796 183.503 145.704  0.00  0.00     0.115 A 
ATOM     30  OAQ 8PR d   1      28.502 183.574 144.475  0.00  0.00    -0.323 OA
ATOM     31  H14 8PR d   1      26.745 183.784 145.544  0.00  0.00     0.118 H 
ATOM     32  H15 8PR d   1      27.845 182.478 146.101  0.00  0.00     0.118 H 
ATOM     33  CAH 8PR d   1      30.682 184.830 143.834  0.00  0.00    -0.016 A 
ATOM     34  H7  8PR d   1      30.735 184.442 142.823  0.00  0.00     0.092 H 
ENDBRANCH  20  21
ENDBRANCH  17  20
ENDBRANCH   5  17
BRANCH   6  35
ATOM     35  CAT 8PR d   1      33.803 183.461 140.894  0.00  0.00    -0.053 A 
ATOM     36  CAE 8PR d   1      34.807 182.698 140.326  0.00  0.00    -0.074 A 
ATOM     37  CAB 8PR d   1      34.707 181.325 140.351  0.00  0.00    -0.045 A 
ATOM     38  H4  8PR d   1      35.664 183.176 139.866  0.00  0.00     0.084 H 
ATOM     39  CAR 8PR d   1      33.599 180.708 140.940  0.00  0.00     0.116 A 
ATOM     40  H1  8PR d   1      35.491 180.719 139.912  0.00  0.00     0.088 H 
ATOM     41  FAA 8PR d   1      33.533 179.381 140.951  0.00  0.00    -0.206 F 
ATOM     42  CAC 8PR d   1      32.609 181.460 141.490  0.00  0.00    -0.045 A 
ATOM     43  CAF 8PR d   1      32.703 182.849 141.465  0.00  0.00    -0.074 A 
ATOM     44  H2  8PR d   1      31.750 180.981 141.946  0.00  0.00     0.088 H 
ATOM     45  H5  8PR d   1      31.911 183.452 141.894  0.00  0.00     0.084 H 
ENDBRANCH   6  35
TORSDOF 4
