REMARK  3 active torsions:
REMARK  status: ('A' for Active; 'I' for Inactive)
REMARK    1  A    between atoms: C13_7  and  C4_9 
REMARK    2  A    between atoms: C1_16  and  N11_17 
REMARK    3  A    between atoms: N11_17  and  C12_18 
ROOT
ATOM      1  C4  SRE d   1      33.715 184.274 144.026  0.00  0.00    -0.002 C 
ATOM      2  C5  SRE d   1      34.798 183.214 143.486  0.00  0.00    -0.041 A 
ATOM      3  C6  SRE d   1      35.065 182.039 144.184  0.00  0.00    -0.076 A 
ATOM      4  C7  SRE d   1      36.012 181.140 143.695  0.00  0.00    -0.082 A 
ATOM      5  C8  SRE d   1      36.700 181.419 142.503  0.00  0.00    -0.082 A 
ATOM      6  C9  SRE d   1      36.438 182.595 141.805  0.00  0.00    -0.074 A 
ATOM      7  C10 SRE d   1      35.491 183.494 142.289  0.00  0.00    -0.021 A 
ATOM      8  C1  SRE d   1      35.183 184.839 141.498  0.00  0.00     0.127 C 
ATOM      9  C2  SRE d   1      33.996 185.678 141.918  0.00  0.00    -0.034 C 
ATOM     10  C3  SRE d   1      33.699 185.635 143.405  0.00  0.00    -0.052 C 
ATOM     11  H4  SRE d   1      33.922 184.414 145.097  0.00  0.00     0.054 H 
ATOM     12  H5  SRE d   1      34.537 181.824 145.106  0.00  0.00     0.084 H 
ATOM     13  H6  SRE d   1      36.218 180.224 144.236  0.00  0.00     0.083 H 
ATOM     14  H7  SRE d   1      37.436 180.718 142.126  0.00  0.00     0.083 H 
ATOM     15  H8  SRE d   1      36.971 182.810 140.886  0.00  0.00     0.084 H 
ATOM     16  H9  SRE d   1      36.072 185.478 141.602  0.00  0.00     0.091 H 
ATOM     17  H15 SRE d   1      33.109 185.315 141.379  0.00  0.00     0.036 H 
ATOM     18  H16 SRE d   1      34.195 186.722 141.636  0.00  0.00     0.036 H 
ATOM     19  H17 SRE d   1      34.452 186.251 143.919  0.00  0.00     0.034 H 
ATOM     20  H18 SRE d   1      32.700 186.068 143.564  0.00  0.00     0.034 H 
ENDROOT
BRANCH   1  21
ATOM     21  C13 SRE d   1      32.278 183.676 143.870  0.00  0.00    -0.048 A 
ATOM     22  C18 SRE d   1      31.932 182.950 142.741  0.00  0.00    -0.074 A 
ATOM     23  C17 SRE d   1      30.654 182.428 142.613  0.00  0.00    -0.060 A 
ATOM     24  H2  SRE d   1      32.663 182.790 141.956  0.00  0.00     0.084 H 
ATOM     25  C16 SRE d   1      29.718 182.631 143.617  0.00  0.00     0.055 A 
ATOM     26  H1  SRE d   1      30.386 181.861 141.729  0.00  0.00     0.086 H 
ATOM     27 CL19 SRE d   1      28.070 181.956 143.458  0.00  0.00    -0.083 Cl
ATOM     28  C15 SRE d   1      30.067 183.361 144.744  0.00  0.00     0.056 A 
ATOM     29 CL20 SRE d   1      28.873 183.629 146.044  0.00  0.00    -0.083 Cl
ATOM     30  C14 SRE d   1      31.344 183.884 144.870  0.00  0.00    -0.053 A 
ATOM     31  H3  SRE d   1      31.611 184.456 145.751  0.00  0.00     0.087 H 
ENDBRANCH   1  21
BRANCH   8  32
ATOM     32  N11 SRE d   1      35.011 184.482 140.062  0.00  0.00    -0.071 N 
ATOM     33  H10 SRE d   1      35.791 183.918 139.762  0.00  0.00     0.277 HD
ATOM     34  H11 SRE d   1      34.974 185.325 139.510  0.00  0.00     0.277 HD
BRANCH  32  35
ATOM     35  C12 SRE d   1      33.779 183.734 139.883  0.00  0.00     0.065 C 
ATOM     36  H12 SRE d   1      33.659 183.474 138.821  0.00  0.00     0.067 H 
ATOM     37  H13 SRE d   1      32.926 184.348 140.209  0.00  0.00     0.067 H 
ATOM     38  H14 SRE d   1      33.819 182.813 140.484  0.00  0.00     0.067 H 
ENDBRANCH  32  35
ENDBRANCH   8  32
TORSDOF 3
