REMARK  12 active torsions:
REMARK  status: ('A' for Active; 'I' for Inactive)
REMARK    1  A    between atoms: C1_1  and  O2_2 
REMARK    2  A    between atoms: O2_2  and  C3_3 
REMARK    3  A    between atoms: C3_3  and  C4_4 
REMARK    4  A    between atoms: C4_4  and  C5_5 
REMARK    5  A    between atoms: C5_5  and  C6_6 
REMARK    6  A    between atoms: C6_6  and  C7_7 
REMARK    7  A    between atoms: C7_7  and  C13_13 
REMARK    8  A    between atoms: N8_8  and  O9_9 
REMARK    9  A    between atoms: O9_9  and  C10_10 
REMARK   10  A    between atoms: C10_10  and  C11_11 
REMARK   11  A    between atoms: C11_11  and  N12_12 
REMARK   12  A    between atoms: C16_16  and  C19_19 
ROOT
ATOM      1  C7  FVX d   1      33.833 186.115 142.212  0.00  0.00     0.072 C 
ATOM      2  N8  FVX d   1      34.682 187.003 142.426  0.00  0.00    -0.138 NA
ENDROOT
BRANCH   1   3
ATOM      3  C6  FVX d   1      33.965 185.177 141.010  0.00  0.00    -0.022 C 
ATOM      4  H10 FVX d   1      33.056 184.563 140.928  0.00  0.00     0.042 H 
ATOM      5  H11 FVX d   1      34.088 185.775 140.095  0.00  0.00     0.042 H 
BRANCH   3   6
ATOM      6  C5  FVX d   1      35.180 184.261 141.182  0.00  0.00    -0.058 C 
ATOM      7  H8  FVX d   1      35.158 183.473 140.415  0.00  0.00     0.033 H 
ATOM      8  H9  FVX d   1      36.103 184.850 141.076  0.00  0.00     0.033 H 
BRANCH   6   9
ATOM      9  C4  FVX d   1      35.136 183.626 142.567  0.00  0.00    -0.045 C 
ATOM     10  H6  FVX d   1      35.197 184.411 143.335  0.00  0.00     0.036 H 
ATOM     11  H7  FVX d   1      34.196 183.067 142.687  0.00  0.00     0.036 H 
BRANCH   9  12
ATOM     12  C3  FVX d   1      36.319 182.675 142.713  0.00  0.00     0.019 C 
ATOM     13  H4  FVX d   1      36.462 182.116 141.776  0.00  0.00     0.074 H 
ATOM     14  H5  FVX d   1      37.229 183.249 142.940  0.00  0.00     0.074 H 
BRANCH  12  15
ATOM     15  O2  FVX d   1      36.053 181.785 143.755  0.00  0.00    -0.396 OA
BRANCH  15  16
ATOM     16  C1  FVX d   1      35.825 180.470 143.331  0.00  0.00     0.004 C 
ATOM     17  H1  FVX d   1      35.624 179.833 144.205  0.00  0.00     0.066 H 
ATOM     18  H2  FVX d   1      36.714 180.096 142.801  0.00  0.00     0.066 H 
ATOM     19  H3  FVX d   1      34.958 180.448 142.654  0.00  0.00     0.066 H 
ENDBRANCH  15  16
ENDBRANCH  12  15
ENDBRANCH   9  12
ENDBRANCH   6   9
ENDBRANCH   3   6
ENDBRANCH   1   3
BRANCH   1  20
ATOM     20  C13 FVX d   1      32.652 185.990 143.169  0.00  0.00    -0.009 A 
ATOM     21  C14 FVX d   1      31.776 184.919 143.058  0.00  0.00    -0.070 A 
ATOM     22  C15 FVX d   1      30.703 184.816 143.932  0.00  0.00    -0.067 A 
ATOM     23  H19 FVX d   1      31.929 184.167 142.292  0.00  0.00     0.084 H 
ATOM     24  C16 FVX d   1      30.504 185.780 144.911  0.00  0.00     0.048 A 
ATOM     25  H20 FVX d   1      30.018 183.980 143.850  0.00  0.00     0.084 H 
ATOM     26  C17 FVX d   1      31.381 186.851 145.017  0.00  0.00    -0.067 A 
ATOM     27  C18 FVX d   1      32.454 186.957 144.145  0.00  0.00    -0.070 A 
ATOM     28  H21 FVX d   1      31.227 187.604 145.781  0.00  0.00     0.084 H 
ATOM     29  H22 FVX d   1      33.138 187.794 144.226  0.00  0.00     0.084 H 
BRANCH  24  30
ATOM     30  C19 FVX d   1      29.316 185.665 145.871  0.00  0.00     0.417 C 
ATOM     31  F20 FVX d   1      28.808 186.910 146.104  0.00  0.00    -0.166 F 
ATOM     32  F21 FVX d   1      28.350 184.875 145.312  0.00  0.00    -0.166 F 
ATOM     33  F22 FVX d   1      29.721 185.132 147.060  0.00  0.00    -0.166 F 
ENDBRANCH  24  30
ENDBRANCH   1  20
BRANCH   2  34
ATOM     34  O9  FVX d   1      35.782 187.162 141.576  0.00  0.00    -0.255 OA
BRANCH  34  35
ATOM     35  C10 FVX d   1      35.764 188.450 141.046  0.00  0.00     0.070 C 
ATOM     36  H12 FVX d   1      36.290 189.137 141.725  0.00  0.00     0.080 H 
ATOM     37  H13 FVX d   1      34.724 188.784 140.919  0.00  0.00     0.080 H 
BRANCH  35  38
ATOM     38  C11 FVX d   1      36.463 188.430 139.696  0.00  0.00     0.101 C 
ATOM     39  H14 FVX d   1      35.859 188.977 138.957  0.00  0.00     0.078 H 
ATOM     40  H15 FVX d   1      36.596 187.390 139.363  0.00  0.00     0.078 H 
BRANCH  38  41
ATOM     41  N12 FVX d   1      37.760 189.069 139.838  0.00  0.00    -0.077 N 
ATOM     42  H16 FVX d   1      38.236 189.063 138.950  0.00  0.00     0.274 HD
ATOM     43  H17 FVX d   1      38.310 188.566 140.517  0.00  0.00     0.274 HD
ATOM     44  H18 FVX d   1      37.634 190.021 140.146  0.00  0.00     0.274 HD
ENDBRANCH  38  41
ENDBRANCH  35  38
ENDBRANCH  34  35
ENDBRANCH   2  34
TORSDOF 12
