REMARK  2 active torsions:
REMARK  status: ('A' for Active; 'I' for Inactive)
REMARK       I    between atoms: N3_1  and  C12_16 
REMARK    1  A    between atoms: C7_4  and  C4_2 
REMARK    2  A    between atoms: C8_7  and  C9_6 
ROOT
ATOM      1  N2  C0S d   1     -11.399 -12.263 -16.409  0.00  0.00    -0.106 NA
ATOM      2  C7  C0S d   1     -12.107 -12.874 -15.396  0.00  0.00     0.189 A 
ATOM      3  C8  C0S d   1     -13.249 -13.110 -17.238  0.00  0.00     0.179 A 
ATOM      4  N1  C0S d   1     -13.323 -13.435 -15.938  0.00  0.00    -0.203 NA
ATOM      5  O1  C0S d   1     -12.103 -12.414 -17.536  0.00  0.00    -0.195 OA
ENDROOT
BRANCH   3   6
ATOM      6  C9  C0S d   1     -14.179 -13.310 -18.340  0.00  0.00     0.036 A 
ATOM      7  C10 C0S d   1     -15.362 -14.303 -18.081  0.00  0.00    -0.003 A 
ATOM      8  N3  C0S d   1     -16.275 -13.147 -18.062  0.00  0.00    -0.259 NA
ATOM      9  H7  C0S d   1     -15.546 -15.015 -18.899  0.00  0.00     0.057 H 
ATOM     10  H8  C0S d   1     -15.298 -14.848 -17.128  0.00  0.00     0.057 H 
ATOM     11  C11 C0S d   1     -15.233 -12.150 -18.367  0.00  0.00    -0.003 A 
ATOM     12  C12 C0S d   1     -17.586 -13.173 -18.643  0.00  0.00     0.153 C 
ATOM     13  H9  C0S d   1     -15.091 -11.387 -17.588  0.00  0.00     0.057 H 
ATOM     14  H10 C0S d   1     -15.345 -11.659 -19.345  0.00  0.00     0.057 H 
ATOM     15  O2  C0S d   1     -18.275 -12.144 -18.793  0.00  0.00    -0.289 OA
ATOM     16  H11 C0S d   1     -17.996 -14.129 -18.966  0.00  0.00     0.170 H 
ATOM     17  H2  C0S d   1     -13.631 -13.487 -19.277  0.00  0.00     0.056 H 
ENDBRANCH   3   6
BRANCH   2  18
ATOM     18  C4  C0S d   1     -11.716 -12.913 -13.963  0.00  0.00     0.014 A 
ATOM     19  C3  C0S d   1     -10.553 -12.220 -13.522  0.00  0.00    -0.069 A 
ATOM     20  C2  C0S d   1     -10.177 -12.277 -12.174  0.00  0.00    -0.082 A 
ATOM     21  H5  C0S d   1      -9.960 -11.650 -14.228  0.00  0.00     0.085 H 
ATOM     22  C1  C0S d   1     -10.942 -13.024 -11.259  0.00  0.00    -0.083 A 
ATOM     23  H4  C0S d   1      -9.296 -11.745 -11.835  0.00  0.00     0.083 H 
ATOM     24  C6  C0S d   1     -12.087 -13.711 -11.690  0.00  0.00    -0.082 A 
ATOM     25  H3  C0S d   1     -10.646 -13.069 -10.217  0.00  0.00     0.083 H 
ATOM     26  C5  C0S d   1     -12.476 -13.661 -13.028  0.00  0.00    -0.069 A 
ATOM     27  H1  C0S d   1     -12.672 -14.283 -10.979  0.00  0.00     0.083 H 
ATOM     28  H6  C0S d   1     -13.361 -14.195 -13.354  0.00  0.00     0.085 H 
ENDBRANCH   2  18
TORSDOF 2
