REMARK  24 active torsions:
REMARK  status: ('A' for Active; 'I' for Inactive)
REMARK    1  A    between atoms: C_1  and  CA_3 
REMARK       I    between atoms: N_11  and  C_1 
REMARK       I    between atoms: N_4  and  C1_5 
REMARK    2  A    between atoms: C1_5  and  C2_7 
REMARK    3  A    between atoms: CA_12  and  N_11 
REMARK    4  A    between atoms: C_13  and  CA_12 
REMARK    5  A    between atoms: CA_12  and  CB_15 
REMARK       I    between atoms: N_20  and  C_13 
REMARK    6  A    between atoms: CB_15  and  CG_16 
REMARK    7  A    between atoms: CG_16  and  CD1_17 
REMARK    8  A    between atoms: CG_16  and  CD2_18 
REMARK    9  A    between atoms: CA_22  and  N_20 
REMARK   10  A    between atoms: C27_25  and  C28_26 
REMARK   11  A    between atoms: C27_25  and  ND1_39 
REMARK   12  A    between atoms: C28_26  and  C29_27 
REMARK   13  A    between atoms: C29_27  and  C30_28 
REMARK   14  A    between atoms: C30_28  and  C31_29 
REMARK   15  A    between atoms: C31_29  and  C32_30 
REMARK   16  A    between atoms: C32_30  and  C33_31 
REMARK   17  A    between atoms: C33_31  and  C34_32 
REMARK   18  A    between atoms: C34_32  and  C35_33 
REMARK   19  A    between atoms: CA_44  and  CB_47 
REMARK   20  A    between atoms: CB_47  and  OG_48 
REMARK   21  A    between atoms: CA_50  and  CB_51 
REMARK   22  A    between atoms: CB_51  and  CG2_52 
REMARK   23  A    between atoms: CB_51  and  OG1_53 
REMARK   24  A    between atoms: OG1_53  and  P_54 
ROOT
ATOM      1  C   56A d   1      -9.560  23.724  71.725  0.00  0.00     0.241 C 
ATOM      2  O   56A d   1      -9.149  24.530  70.889  0.00  0.00    -0.271 OA
ATOM      3  CA  56A d   1      -9.527  24.051  73.209  0.00  0.00     0.094 C 
ATOM      4  CB  56A d   1     -10.940  24.324  73.727  0.00  0.00     0.002 C 
ATOM      5  CG  56A d   1     -11.549  25.575  73.169  0.00  0.00     0.030 A 
ATOM      6  ND1 56A d   1     -11.660  26.791  73.835  0.00  0.00    -0.345 N 
ATOM      7  CD2 56A d   1     -12.154  25.763  71.975  0.00  0.00     0.002 A 
ATOM      8  CE1 56A d   1     -12.307  27.652  73.065  0.00  0.00     0.045 A 
ATOM      9  NE2 56A d   1     -12.623  27.045  71.928  0.00  0.00    -0.351 N 
ATOM     10  H23 56A d   1      -9.110  23.194  73.758  0.00  0.00     0.088 H 
ATOM     11  H24 56A d   1     -10.898  24.416  74.822  0.00  0.00     0.046 H 
ATOM     12  H25 56A d   1     -11.581  23.473  73.455  0.00  0.00     0.046 H 
ATOM     13  H47 56A d   1     -12.251  25.019  71.185  0.00  0.00     0.114 H 
ATOM     14  H48 56A d   1     -12.540  28.684  73.321  0.00  0.00     0.141 H 
ATOM     15  H60 56A d   1     -12.657  28.028  70.071  0.00  0.00     0.064 H 
ATOM     16  H61 56A d   1     -13.973  28.483  71.205  0.00  0.00     0.064 H 
ATOM     17  H62 56A d   1     -15.187  26.498  70.779  0.00  0.00     0.035 H 
ATOM     18  H63 56A d   1     -13.767  25.683  70.042  0.00  0.00     0.035 H 
ATOM     19  H64 56A d   1     -13.875  27.067  68.116  0.00  0.00     0.033 H 
ATOM     20  H65 56A d   1     -15.120  28.118  68.873  0.00  0.00     0.033 H 
ATOM     21  H66 56A d   1     -16.037  26.645  67.164  0.00  0.00     0.035 H 
ATOM     22  H67 56A d   1     -16.732  26.343  68.792  0.00  0.00     0.035 H 
ATOM     23  H68 56A d   1     -16.230  24.319  67.350  0.00  0.00     0.064 H 
ATOM     24  H69 56A d   1     -15.589  24.310  69.028  0.00  0.00     0.064 H 
ATOM     25  N   SER d   1     -10.068  22.537  71.419  0.00  0.00    -0.344 N 
ATOM     26  CA  SER d   1     -10.117  22.035  70.066  0.00  0.00     0.109 C 
ATOM     27  C   SER d   1     -11.202  22.779  69.279  0.00  0.00     0.243 C 
ATOM     28  O   SER d   1     -11.895  23.639  69.822  0.00  0.00    -0.271 OA
ATOM     29  H49 SER d   1     -10.432  21.967  72.156  0.00  0.00     0.163 HD
ATOM     30  H50 SER d   1      -9.149  22.236  69.585  0.00  0.00     0.090 H 
ATOM     31  N   TPO d   1     -11.307  22.477  67.983  0.00  0.00    -0.344 N 
ATOM     32  CA  TPO d   1     -12.165  23.208  67.071  0.00  0.00     0.114 C 
ATOM     33  C   TPO d   1     -13.604  23.311  67.568  0.00  0.00     0.243 C 
ATOM     34  O   TPO d   1     -14.185  22.321  67.996  0.00  0.00    -0.271 OA
ATOM     35  H54 TPO d   1     -10.770  21.713  67.625  0.00  0.00     0.163 HD
ATOM     36  H55 TPO d   1     -11.772  24.232  66.988  0.00  0.00     0.091 H 
ATOM     37  H70 TPO d   1     -13.646  25.284  67.126  0.00  0.00     0.162 HD
ATOM     38  C1  AML d   1     -13.371  27.649  70.817  0.00  0.00     0.000 C 
ATOM     39  C2  AML d   1     -14.300  26.639  70.144  0.00  0.00    -0.050 C 
ATOM     40  C3  AML d   1     -14.747  27.087  68.787  0.00  0.00    -0.062 C 
ATOM     41  C4  AML d   1     -15.831  26.249  68.169  0.00  0.00    -0.050 C 
ATOM     42  C5  AML d   1     -15.503  24.777  68.036  0.00  0.00    -0.005 C 
ATOM     43  N1  AML d   1     -14.163  24.526  67.523  0.00  0.00    -0.359 N 
ENDROOT
BRANCH   3  44
ATOM     44  N   56A d   1      -8.674  25.200  73.409  0.00  0.00    -0.346 N 
ATOM     45  C   LEU d   1      -8.078  25.416  74.582  0.00  0.00     0.241 C 
ATOM     46  O   LEU d   1      -8.330  24.752  75.588  0.00  0.00    -0.271 OA
ATOM     47  H22 56A d   1      -8.528  25.843  72.657  0.00  0.00     0.163 HD
BRANCH  45  48
ATOM     48  CA  LEU d   1      -7.028  26.527  74.611  0.00  0.00     0.089 C 
ATOM     49  H12 LEU d   1      -6.063  26.042  74.819  0.00  0.00     0.087 H 
BRANCH  48  50
ATOM     50  N   LEU d   1      -6.867  27.248  73.350  0.00  0.00    -0.346 N 
ATOM     51  C   N7P d   1      -5.892  26.944  72.481  0.00  0.00     0.241 C 
ATOM     52  O   N7P d   1      -5.056  26.070  72.687  0.00  0.00    -0.271 OA
ATOM     53  H11 LEU d   1      -7.502  27.989  73.129  0.00  0.00     0.163 HD
BRANCH  51  54
ATOM     54  CA  N7P d   1      -5.868  27.742  71.177  0.00  0.00     0.091 C 
ATOM     55  N   N7P d   1      -4.504  27.990  70.688  0.00  0.00    -0.339 N 
ATOM     56  C1  N7P d   1      -3.606  28.716  71.389  0.00  0.00     0.216 C 
ATOM     57  CD  N7P d   1      -4.241  27.313  69.411  0.00  0.00    -0.001 C 
ATOM     58  O1  N7P d   1      -3.887  29.148  72.496  0.00  0.00    -0.274 OA
ATOM     59  CG  N7P d   1      -5.610  27.140  68.836  0.00  0.00    -0.048 C 
ATOM     60  H5  N7P d   1      -3.754  26.340  69.572  0.00  0.00     0.064 H 
ATOM     61  H6  N7P d   1      -3.612  27.934  68.756  0.00  0.00     0.064 H 
ATOM     62  CB  N7P d   1      -6.511  26.935  70.036  0.00  0.00    -0.036 C 
ATOM     63  H7  N7P d   1      -5.644  26.264  68.172  0.00  0.00     0.035 H 
ATOM     64  H8  N7P d   1      -5.911  28.037  68.275  0.00  0.00     0.035 H 
ATOM     65  H9  N7P d   1      -7.524  27.309  69.824  0.00  0.00     0.036 H 
ATOM     66  H10 N7P d   1      -6.561  25.869  70.301  0.00  0.00     0.036 H 
ATOM     67  H1  N7P d   1      -6.399  28.693  71.331  0.00  0.00     0.087 H 
BRANCH  56  68
ATOM     68  C2  N7P d   1      -2.253  28.922  70.777  0.00  0.00    -0.003 C 
ATOM     69  H2  N7P d   1      -1.632  29.527  71.455  0.00  0.00     0.040 H 
ATOM     70  H3  N7P d   1      -2.361  29.444  69.815  0.00  0.00     0.040 H 
ATOM     71  H4  N7P d   1      -1.773  27.946  70.612  0.00  0.00     0.040 H 
ENDBRANCH  56  68
ENDBRANCH  51  54
ENDBRANCH  48  50
BRANCH  48  72
ATOM     72  CB  LEU d   1      -7.307  27.497  75.758  0.00  0.00    -0.035 C 
ATOM     73  H13 LEU d   1      -7.509  26.907  76.664  0.00  0.00     0.037 H 
ATOM     74  H14 LEU d   1      -8.198  28.087  75.498  0.00  0.00     0.037 H 
BRANCH  72  75
ATOM     75  CG  LEU d   1      -6.175  28.462  76.065  0.00  0.00    -0.059 C 
ATOM     76  H15 LEU d   1      -5.934  29.010  75.142  0.00  0.00     0.038 H 
BRANCH  75  77
ATOM     77  CD1 LEU d   1      -6.606  29.466  77.118  0.00  0.00    -0.073 C 
ATOM     78  H16 LEU d   1      -5.776  30.156  77.328  0.00  0.00     0.028 H 
ATOM     79  H17 LEU d   1      -6.883  28.934  78.040  0.00  0.00     0.028 H 
ATOM     80  H18 LEU d   1      -7.472  30.035  76.749  0.00  0.00     0.028 H 
ENDBRANCH  75  77
BRANCH  75  81
ATOM     81  CD2 LEU d   1      -4.930  27.736  76.519  0.00  0.00    -0.073 C 
ATOM     82  H19 LEU d   1      -4.627  27.011  75.749  0.00  0.00     0.028 H 
ATOM     83  H20 LEU d   1      -5.137  27.206  77.460  0.00  0.00     0.028 H 
ATOM     84  H21 LEU d   1      -4.120  28.462  76.678  0.00  0.00     0.028 H 
ENDBRANCH  75  81
ENDBRANCH  72  75
ENDBRANCH  48  72
ENDBRANCH  45  48
ENDBRANCH   3  44
BRANCH  26  85
ATOM     85  CB  SER d   1     -10.335  20.521  70.068  0.00  0.00     0.044 C 
ATOM     86  H51 SER d   1      -9.475  20.035  70.551  0.00  0.00     0.077 H 
ATOM     87  H52 SER d   1     -10.420  20.169  69.029  0.00  0.00     0.077 H 
BRANCH  85  88
ATOM     88  OG  SER d   1     -11.521  20.174  70.774  0.00  0.00    -0.398 OA
ATOM     89  H53 SER d   1     -12.268  20.588  70.359  0.00  0.00     0.209 HD
ENDBRANCH  85  88
ENDBRANCH  26  85
BRANCH   6  90
ATOM     90  C27 56A d   1     -11.230  27.030  75.217  0.00  0.00     0.001 C 
ATOM     91  H26 56A d   1     -10.346  26.412  75.432  0.00  0.00     0.065 H 
ATOM     92  H27 56A d   1     -10.972  28.093  75.337  0.00  0.00     0.065 H 
BRANCH  90  93
ATOM     93  C28 56A d   1     -12.328  26.676  76.183  0.00  0.00    -0.050 C 
ATOM     94  H28 56A d   1     -12.709  25.674  75.938  0.00  0.00     0.035 H 
ATOM     95  H29 56A d   1     -13.140  27.411  76.084  0.00  0.00     0.035 H 
BRANCH  93  96
ATOM     96  C29 56A d   1     -11.848  26.677  77.584  0.00  0.00    -0.064 C 
ATOM     97  H30 56A d   1     -11.560  27.698  77.875  0.00  0.00     0.033 H 
ATOM     98  H31 56A d   1     -10.978  26.010  77.677  0.00  0.00     0.033 H 
BRANCH  96  99
ATOM     99  C30 56A d   1     -12.953  26.191  78.478  0.00  0.00    -0.065 C 
ATOM    100  H32 56A d   1     -13.274  25.198  78.129  0.00  0.00     0.033 H 
ATOM    101  H33 56A d   1     -13.795  26.895  78.407  0.00  0.00     0.033 H 
BRANCH  99 102
ATOM    102  C31 56A d   1     -12.545  26.082  79.906  0.00  0.00    -0.065 C 
ATOM    103  H34 56A d   1     -12.172  27.059  80.245  0.00  0.00     0.033 H 
ATOM    104  H35 56A d   1     -11.743  25.334  79.991  0.00  0.00     0.033 H 
BRANCH 102 105
ATOM    105  C32 56A d   1     -13.703  25.664  80.793  0.00  0.00    -0.065 C 
ATOM    106  H36 56A d   1     -14.563  26.317  80.585  0.00  0.00     0.033 H 
ATOM    107  H37 56A d   1     -13.403  25.777  81.845  0.00  0.00     0.033 H 
BRANCH 105 108
ATOM    108  C33 56A d   1     -14.116  24.217  80.553  0.00  0.00    -0.061 C 
ATOM    109  H38 56A d   1     -13.221  23.582  80.619  0.00  0.00     0.033 H 
ATOM    110  H39 56A d   1     -14.547  24.139  79.544  0.00  0.00     0.033 H 
BRANCH 108 111
ATOM    111  C34 56A d   1     -15.144  23.714  81.561  0.00  0.00    -0.041 C 
ATOM    112  H40 56A d   1     -15.396  22.672  81.316  0.00  0.00     0.040 H 
ATOM    113  H41 56A d   1     -16.047  24.337  81.483  0.00  0.00     0.040 H 
BRANCH 111 114
ATOM    114  C35 56A d   1     -14.642  23.767  82.986  0.00  0.00    -0.058 A 
ATOM    115  C36 56A d   1     -13.717  22.842  83.445  0.00  0.00    -0.077 A 
ATOM    116  C37 56A d   1     -13.243  22.900  84.742  0.00  0.00    -0.082 A 
ATOM    117  H42 56A d   1     -13.361  22.064  82.779  0.00  0.00     0.084 H 
ATOM    118  C38 56A d   1     -13.680  23.888  85.595  0.00  0.00    -0.083 A 
ATOM    119  H43 56A d   1     -12.525  22.165  85.088  0.00  0.00     0.083 H 
ATOM    120  C39 56A d   1     -14.592  24.817  85.151  0.00  0.00    -0.082 A 
ATOM    121  H44 56A d   1     -13.307  23.934  86.612  0.00  0.00     0.083 H 
ATOM    122  C40 56A d   1     -15.076  24.753  83.858  0.00  0.00    -0.077 A 
ATOM    123  H45 56A d   1     -14.932  25.602  85.817  0.00  0.00     0.083 H 
ATOM    124  H46 56A d   1     -15.804  25.483  83.522  0.00  0.00     0.084 H 
ENDBRANCH 111 114
ENDBRANCH 108 111
ENDBRANCH 105 108
ENDBRANCH 102 105
ENDBRANCH  99 102
ENDBRANCH  96  99
ENDBRANCH  93  96
ENDBRANCH  90  93
ENDBRANCH   6  90
BRANCH  32 125
ATOM    125  CB  TPO d   1     -12.098  22.560  65.688  0.00  0.00     0.076 C 
ATOM    126  H56 TPO d   1     -12.373  21.498  65.772  0.00  0.00     0.087 H 
BRANCH 125 127
ATOM    127  CG2 TPO d   1     -12.999  23.203  64.665  0.00  0.00    -0.049 C 
ATOM    128  H57 TPO d   1     -12.892  22.681  63.703  0.00  0.00     0.031 H 
ATOM    129  H58 TPO d   1     -12.719  24.260  64.542  0.00  0.00     0.031 H 
ATOM    130  H59 TPO d   1     -14.043  23.138  65.004  0.00  0.00     0.031 H 
ENDBRANCH 125 127
BRANCH 125 131
ATOM    131  OG1 TPO d   1     -10.716  22.685  65.278  0.00  0.00    -0.275 OA
BRANCH 131 132
ATOM    132  P   TPO d   1      -9.752  21.387  65.111  0.00  0.00     0.422 P 
ATOM    133  O1P TPO d   1      -9.711  20.679  66.458  0.00  0.00    -0.617 OA
ATOM    134  O2P TPO d   1     -10.402  20.518  64.063  0.00  0.00    -0.617 OA
ATOM    135  O3P TPO d   1      -8.400  21.923  64.668  0.00  0.00    -0.617 OA
ENDBRANCH 131 132
ENDBRANCH 125 131
ENDBRANCH  32 125
TORSDOF 24
