REMARK  4 active torsions:
REMARK  status: ('A' for Active; 'I' for Inactive)
REMARK    1  A    between atoms: C04_6  and  C02_5 
REMARK    2  A    between atoms: C06_7  and  C04_6 
REMARK    3  A    between atoms: C07_8  and  C06_7 
REMARK    4  A    between atoms: C09_9  and  C07_8 
ROOT
ATOM      1  C10 C0V d   1      34.211  77.865  63.188  0.00  0.00    -0.069 A 
ATOM      2  C13 C0V d   1      31.124  75.932  62.338  0.00  0.00    -0.072 A 
ATOM      3  C15 C0V d   1      30.080  76.945  60.395  0.00  0.00    -0.082 A 
ATOM      4  C17 C0V d   1      32.118  77.889  61.287  0.00  0.00    -0.025 A 
ATOM      5  C09 C0V d   1      34.164  78.866  62.171  0.00  0.00     0.011 A 
ATOM      6  C11 C0V d   1      33.224  76.905  63.249  0.00  0.00    -0.071 A 
ATOM      7  C12 C0V d   1      32.159  76.898  62.301  0.00  0.00    -0.026 A 
ATOM      8  C14 C0V d   1      30.113  75.956  61.415  0.00  0.00    -0.082 A 
ATOM      9  C16 C0V d   1      31.061  77.900  60.332  0.00  0.00    -0.072 A 
ATOM     10  C18 C0V d   1      33.143  78.866  61.243  0.00  0.00    -0.059 A 
ATOM     11  H1  C0V d   1      35.020  77.860  63.910  0.00  0.00     0.085 H 
ATOM     12  H2  C0V d   1      31.132  75.166  63.105  0.00  0.00     0.084 H 
ATOM     13  H3  C0V d   1      29.278  76.944  59.666  0.00  0.00     0.083 H 
ATOM     14  H6  C0V d   1      33.258  76.148  64.025  0.00  0.00     0.084 H 
ATOM     15  H7  C0V d   1      29.327  75.211  61.463  0.00  0.00     0.083 H 
ATOM     16  H8  C0V d   1      31.033  78.660  59.559  0.00  0.00     0.084 H 
ATOM     17  H9  C0V d   1      33.125  79.625  60.469  0.00  0.00     0.086 H 
ENDROOT
BRANCH   5  18
ATOM     18  C07 C0V d   1      35.192  79.919  62.095  0.00  0.00     0.167 C 
ATOM     19  O08 C0V d   1      35.413  80.460  61.015  0.00  0.00    -0.292 OA
BRANCH  18  20
ATOM     20  C06 C0V d   1      36.111  80.187  63.266  0.00  0.00     0.060 C 
ATOM     21  H4  C0V d   1      35.492  80.330  64.164  0.00  0.00     0.057 H 
ATOM     22  H5  C0V d   1      36.759  79.309  63.403  0.00  0.00     0.057 H 
BRANCH  20  23
ATOM     23  C04 C0V d   1      36.989  81.400  63.101  0.00  0.00     0.232 C 
ATOM     24  O05 C0V d   1      37.206  81.936  62.004  0.00  0.00    -0.285 OA
BRANCH  23  25
ATOM     25  C02 C0V d   1      38.110  81.529  64.075  0.00  0.00     0.247 C 
ATOM     26  O01 C0V d   1      39.279  81.444  63.673  0.00  0.00    -0.642 OA
ATOM     27  O03 C0V d   1      37.901  81.129  65.364  0.00  0.00    -0.642 OA
ENDBRANCH  23  25
ENDBRANCH  20  23
ENDBRANCH  18  20
ENDBRANCH   5  18
TORSDOF 4
