REMARK  20 active torsions:
REMARK  status: ('A' for Active; 'I' for Inactive)
REMARK    1  A    between atoms: CH_2  and  CH3_3 
REMARK       I    between atoms: NZ_4  and  CH_2 
REMARK    2  A    between atoms: CE_5  and  NZ_4 
REMARK    3  A    between atoms: CD_6  and  CE_5 
REMARK    4  A    between atoms: CG_7  and  CD_6 
REMARK    5  A    between atoms: CB_8  and  CG_7 
REMARK    6  A    between atoms: CA_9  and  CB_8 
REMARK    7  A    between atoms: CA_9  and  N_10 
REMARK    8  A    between atoms: C_11  and  CA_9 
REMARK       I    between atoms: N_13  and  C_11 
REMARK    9  A    between atoms: CA_14  and  N_13 
REMARK   10  A    between atoms: CA_14  and  CB_17 
REMARK   11  A    between atoms: C_15  and  CA_14 
REMARK       I    between atoms: N_19  and  C_15 
REMARK   12  A    between atoms: CB_17  and  OG_18 
REMARK   13  A    between atoms: CA_20  and  N_19 
REMARK   14  A    between atoms: CA_20  and  CB_23 
REMARK   15  A    between atoms: C_21  and  CA_20 
REMARK       I    between atoms: N_24  and  C_21 
REMARK   16  A    between atoms: C_26  and  CA_25 
REMARK       I    between atoms: C_26  and  N_31 
REMARK   17  A    between atoms: N_31  and  CA_32 
REMARK   18  A    between atoms: CA_32  and  CB_35 
REMARK   19  A    between atoms: CA_32  and  C_33 
REMARK   20  A    between atoms: C_33  and  OXT_36 
ROOT
ATOM      1  C   SER d   1      61.062  -2.166  29.080  0.00  0.00     0.243 C 
ATOM      2  O   SER d   1      61.648  -2.993  28.381  0.00  0.00    -0.271 OA
ATOM      3  N   ALA d   1      61.190  -0.854  28.910  0.00  0.00    -0.346 N 
ATOM      4  H22 ALA d   1      60.687  -0.234  29.512  0.00  0.00     0.163 HD
ENDROOT
BRANCH   1   5
ATOM      5  CA  SER d   1      60.136  -2.611  30.207  0.00  0.00     0.109 C 
ATOM      6  H18 SER d   1      59.435  -1.791  30.422  0.00  0.00     0.090 H 
BRANCH   5   7
ATOM      7  N   SER d   1      59.361  -3.784  29.821  0.00  0.00    -0.344 N 
ATOM      8  C   ALY d   1      58.084  -3.908  30.139  0.00  0.00     0.249 C 
ATOM      9  O   ALY d   1      57.450  -3.047  30.787  0.00  0.00    -0.271 OA
ATOM     10  H17 SER d   1      59.807  -4.513  29.302  0.00  0.00     0.163 HD
BRANCH   8  11
ATOM     11  CA  ALY d   1      57.393  -5.160  29.687  0.00  0.00     0.176 C 
ATOM     12  H13 ALY d   1      58.093  -5.774  29.101  0.00  0.00     0.099 H 
BRANCH  11  13
ATOM     13  CB  ALY d   1      56.193  -4.793  28.822  0.00  0.00    -0.030 C 
ATOM     14  H11 ALY d   1      55.645  -5.710  28.560  0.00  0.00     0.036 H 
ATOM     15  H12 ALY d   1      55.533  -4.120  29.390  0.00  0.00     0.036 H 
BRANCH  13  16
ATOM     16  CG  ALY d   1      56.635  -4.094  27.542  0.00  0.00    -0.061 C 
ATOM     17  H9  ALY d   1      56.765  -3.021  27.745  0.00  0.00     0.033 H 
ATOM     18  H10 ALY d   1      57.592  -4.523  27.210  0.00  0.00     0.033 H 
BRANCH  16  19
ATOM     19  CD  ALY d   1      55.600  -4.271  26.438  0.00  0.00    -0.050 C 
ATOM     20  H7  ALY d   1      55.435  -5.345  26.268  0.00  0.00     0.035 H 
ATOM     21  H8  ALY d   1      54.656  -3.800  26.751  0.00  0.00     0.035 H 
BRANCH  19  22
ATOM     22  CE  ALY d   1      56.072  -3.627  25.139  0.00  0.00    -0.006 C 
ATOM     23  H5  ALY d   1      56.691  -2.748  25.372  0.00  0.00     0.064 H 
ATOM     24  H6  ALY d   1      56.668  -4.354  24.568  0.00  0.00     0.064 H 
BRANCH  22  25
ATOM     25  NZ  ALY d   1      54.909  -3.205  24.330  0.00  0.00    -0.372 N 
ATOM     26  CH  ALY d   1      55.259  -2.508  23.052  0.00  0.00     0.147 C 
ATOM     27  OH  ALY d   1      56.523  -2.123  22.556  0.00  0.00    -0.178 OA
ATOM     28  H4  ALY d   1      53.965  -3.372  24.613  0.00  0.00     0.161 HD
BRANCH  26  29
ATOM     29  CH3 ALY d   1      54.096  -2.070  22.160  0.00  0.00    -0.015 C 
ATOM     30  H1  ALY d   1      53.147  -2.402  22.606  0.00  0.00     0.038 H 
ATOM     31  H2  ALY d   1      54.210  -2.519  21.162  0.00  0.00     0.038 H 
ATOM     32  H3  ALY d   1      54.095  -0.974  22.070  0.00  0.00     0.038 H 
ENDBRANCH  26  29
ENDBRANCH  22  25
ENDBRANCH  19  22
ENDBRANCH  16  19
ENDBRANCH  13  16
ENDBRANCH  11  13
BRANCH  11  33
ATOM     33  N   ALY d   1      56.944  -5.910  30.844  0.00  0.00    -0.067 N 
ATOM     34  H14 ALY d   1      57.738  -6.153  31.416  0.00  0.00     0.275 HD
ATOM     35  H15 ALY d   1      56.480  -6.751  30.540  0.00  0.00     0.275 HD
ATOM     36  H16 ALY d   1      56.303  -5.348  31.381  0.00  0.00     0.275 HD
ENDBRANCH  11  33
ENDBRANCH   8  11
ENDBRANCH   5   7
BRANCH   5  37
ATOM     37  CB  SER d   1      60.948  -2.899  31.472  0.00  0.00     0.044 C 
ATOM     38  H19 SER d   1      61.586  -2.031  31.695  0.00  0.00     0.077 H 
ATOM     39  H20 SER d   1      61.579  -3.783  31.300  0.00  0.00     0.077 H 
BRANCH  37  40
ATOM     40  OG  SER d   1      60.098  -3.145  32.579  0.00  0.00    -0.398 OA
ATOM     41  H21 SER d   1      59.547  -3.897  32.393  0.00  0.00     0.209 HD
ENDBRANCH  37  40
ENDBRANCH   5  37
ENDBRANCH   1   5
BRANCH   3  42
ATOM     42  CA  ALA d   1      62.038  -0.300  27.877  0.00  0.00     0.086 C 
ATOM     43  H23 ALA d   1      61.676  -0.647  26.898  0.00  0.00     0.086 H 
BRANCH  42  44
ATOM     44  CB  ALA d   1      61.984   1.240  27.903  0.00  0.00    -0.049 C 
ATOM     45  H24 ALA d   1      62.634   1.643  27.112  0.00  0.00     0.030 H 
ATOM     46  H25 ALA d   1      62.330   1.603  28.882  0.00  0.00     0.030 H 
ATOM     47  H26 ALA d   1      60.950   1.574  27.733  0.00  0.00     0.030 H 
ENDBRANCH  42  44
BRANCH  42  48
ATOM     48  C   ALA d   1      63.473  -0.789  28.073  0.00  0.00     0.243 C 
ATOM     49  O   ALA d   1      63.966  -0.853  29.205  0.00  0.00    -0.271 OA
ATOM     50  N   PRO d   1      64.168  -1.132  27.000  0.00  0.00    -0.337 N 
ATOM     51  CA  PRO d   1      65.484  -1.771  27.132  0.00  0.00     0.091 C 
ATOM     52  CD  PRO d   1      63.809  -0.903  25.597  0.00  0.00    -0.001 C 
ATOM     53  CB  PRO d   1      65.820  -2.182  25.694  0.00  0.00    -0.036 C 
ATOM     54  H27 PRO d   1      65.421  -2.652  27.787  0.00  0.00     0.087 H 
ATOM     55  CG  PRO d   1      65.122  -1.160  24.868  0.00  0.00    -0.048 C 
ATOM     56  H28 PRO d   1      65.440  -3.191  25.475  0.00  0.00     0.036 H 
ATOM     57  H29 PRO d   1      66.906  -2.153  25.520  0.00  0.00     0.036 H 
ATOM     58  H30 PRO d   1      65.718  -0.238  24.807  0.00  0.00     0.035 H 
ATOM     59  H31 PRO d   1      64.934  -1.543  23.854  0.00  0.00     0.035 H 
ATOM     60  H32 PRO d   1      63.464   0.129  25.439  0.00  0.00     0.064 H 
ATOM     61  H33 PRO d   1      63.029  -1.605  25.268  0.00  0.00     0.064 H 
BRANCH  51  62
ATOM     62  C   PRO d   1      66.539  -0.821  27.678  0.00  0.00     0.241 C 
ATOM     63  O   PRO d   1      66.347   0.394  27.771  0.00  0.00    -0.271 OA
ATOM     64  N   ALA d   1      67.677  -1.420  28.033  0.00  0.00    -0.345 N 
ATOM     65  H34 ALA d   1      67.702  -2.420  28.038  0.00  0.00     0.163 HD
BRANCH  64  66
ATOM     66  CA  ALA d   1      68.883  -0.702  28.413  0.00  0.00     0.090 C 
ATOM     67  H35 ALA d   1      68.594   0.151  29.045  0.00  0.00     0.088 H 
BRANCH  66  68
ATOM     68  CB  ALA d   1      69.804  -1.615  29.220  0.00  0.00    -0.048 C 
ATOM     69  H36 ALA d   1      70.712  -1.063  29.502  0.00  0.00     0.030 H 
ATOM     70  H37 ALA d   1      70.080  -2.488  28.611  0.00  0.00     0.030 H 
ATOM     71  H38 ALA d   1      69.283  -1.952  30.128  0.00  0.00     0.030 H 
ENDBRANCH  66  68
BRANCH  66  72
ATOM     72  C   ALA d   1      69.616  -0.163  27.184  0.00  0.00     0.163 C 
ATOM     73  O   ALA d   1      69.504  -0.717  26.087  0.00  0.00    -0.648 OA
BRANCH  72  74
ATOM     74  OXT ALA d   1      70.335   0.837  27.264  0.00  0.00    -0.775 OA
ATOM     75  H39 ALA d   1      71.222   0.609  27.013  0.00  0.00     0.167 HD
ENDBRANCH  72  74
ENDBRANCH  66  72
ENDBRANCH  64  66
ENDBRANCH  51  62
ENDBRANCH  42  48
ENDBRANCH   3  42
TORSDOF 20
