REMARK WARNING: 32 MAX_TORS EXCEEDED!!!
REMARK  34 active torsions:
REMARK  status: ('A' for Active; 'I' for Inactive)
REMARK    1  A    between atoms: C_1  and  CH3_3 
REMARK       I    between atoms: C_1  and  N_4 
REMARK    2  A    between atoms: N_4  and  CA_5 
REMARK    3  A    between atoms: CA_5  and  C_6 
REMARK    4  A    between atoms: CA_5  and  CB_8 
REMARK       I    between atoms: C_6  and  N_12 
REMARK    5  A    between atoms: CB_8  and  CG_9 
REMARK       I    between atoms: CG_9  and  ND2_11 
REMARK    6  A    between atoms: CA_13  and  C_14 
REMARK       I    between atoms: C_14  and  N_19 
REMARK    7  A    between atoms: N_19  and  CA_20 
REMARK    8  A    between atoms: CA_20  and  C_21 
REMARK    9  A    between atoms: CA_20  and  CB_23 
REMARK       I    between atoms: C_21  and  N_27 
REMARK   10  A    between atoms: CB_23  and  CG_24 
REMARK       I    between atoms: CG_24  and  ND2_26 
REMARK   11  A    between atoms: N_27  and  CA_28 
REMARK   12  A    between atoms: CA_28  and  C_29 
REMARK   13  A    between atoms: CA_28  and  CB_31 
REMARK       I    between atoms: C_29  and  N_32 
REMARK   14  A    between atoms: N_32  and  CA_33 
REMARK   15  A    between atoms: CA_33  and  C_34 
REMARK   16  A    between atoms: CA_33  and  CB_36 
REMARK       I    between atoms: C_34  and  N_40 
REMARK   17  A    between atoms: CB_36  and  CG_37 
REMARK       I    between atoms: CG_37  and  ND2_39 
REMARK   18  A    between atoms: CA_41  and  C_42 
REMARK       I    between atoms: C_42  and  N_47 
REMARK   19  A    between atoms: N_47  and  CA_48 
REMARK   20  A    between atoms: CA_48  and  C_49 
REMARK   21  A    between atoms: CA_48  and  CB_51 
REMARK       I    between atoms: C_49  and  N_55 
REMARK   22  A    between atoms: CB_51  and  CG_52 
REMARK       I    between atoms: CG_52  and  ND2_54 
REMARK   23  A    between atoms: N_55  and  CA_56 
REMARK   24  A    between atoms: CA_56  and  C_57 
REMARK   25  A    between atoms: CA_56  and  CB_59 
REMARK       I    between atoms: C_57  and  N_60 
REMARK   26  A    between atoms: N_60  and  CA_61 
REMARK   27  A    between atoms: CA_61  and  C_62 
REMARK   28  A    between atoms: CA_61  and  CB_64 
REMARK       I    between atoms: C_62  and  N_68 
REMARK   29  A    between atoms: CB_64  and  CG_65 
REMARK       I    between atoms: CG_65  and  ND2_67 
REMARK   30  A    between atoms: CA_69  and  C_70 
REMARK       I    between atoms: C_70  and  N_75 
REMARK   31  A    between atoms: N_75  and  CA_76 
REMARK   32  A    between atoms: CA_76  and  C_77 
REMARK   33  A    between atoms: CA_76  and  CB_79 
REMARK   34  A    between atoms: CB_79  and  CG_80 
REMARK       I    between atoms: CG_80  and  ND2_82 
ROOT
ATOM      1  C   ASN d   1      -9.873   9.022 -46.936  0.00  0.00     0.243 C 
ATOM      2  O   ASN d   1     -10.564   8.311 -47.682  0.00  0.00    -0.271 OA
ATOM      3  N   PRO d   1     -10.354  10.158 -46.409  0.00  0.00    -0.337 N 
ATOM      4  CA  PRO d   1     -11.751  10.545 -46.651  0.00  0.00     0.091 C 
ATOM      5  CB  PRO d   1     -12.141  11.228 -45.336  0.00  0.00    -0.036 C 
ATOM      6  CG  PRO d   1     -10.868  11.869 -44.879  0.00  0.00    -0.048 C 
ATOM      7  CD  PRO d   1      -9.739  10.978 -45.348  0.00  0.00    -0.001 C 
ATOM      8  H34 PRO d   1     -12.365   9.648 -46.818  0.00  0.00     0.087 H 
ATOM      9  H35 PRO d   1     -12.495  10.491 -44.601  0.00  0.00     0.036 H 
ATOM     10  H36 PRO d   1     -12.923  11.984 -45.503  0.00  0.00     0.036 H 
ATOM     11  H37 PRO d   1     -10.857  11.949 -43.782  0.00  0.00     0.035 H 
ATOM     12  H38 PRO d   1     -10.768  12.871 -45.321  0.00  0.00     0.035 H 
ATOM     13  H39 PRO d   1      -8.908  11.577 -45.748  0.00  0.00     0.064 H 
ATOM     14  H40 PRO d   1      -9.373  10.345 -44.526  0.00  0.00     0.064 H 
ENDROOT
BRANCH   1  15
ATOM     15  CA  ASN d   1      -8.440   8.598 -46.607  0.00  0.00     0.097 C 
ATOM     16  H29 ASN d   1      -7.983   9.360 -45.959  0.00  0.00     0.088 H 
BRANCH  15  17
ATOM     17  N   ASN d   1      -8.449   7.327 -45.902  0.00  0.00    -0.346 N 
ATOM     18  C   ALA d   1      -9.173   7.144 -44.803  0.00  0.00     0.240 C 
ATOM     19  O   ALA d   1      -9.886   8.023 -44.311  0.00  0.00    -0.271 OA
ATOM     20  H28 ASN d   1      -7.896   6.571 -46.253  0.00  0.00     0.163 HD
BRANCH  18  21
ATOM     21  CA  ALA d   1      -9.065   5.764 -44.165  0.00  0.00     0.086 C 
ATOM     22  H24 ALA d   1      -8.043   5.386 -44.317  0.00  0.00     0.086 H 
BRANCH  21  23
ATOM     23  N   ALA d   1      -9.317   5.853 -42.736  0.00  0.00    -0.346 N 
ATOM     24  C   ASN d   1      -8.351   6.165 -41.882  0.00  0.00     0.241 C 
ATOM     25  O   ASN d   1      -7.186   6.347 -42.248  0.00  0.00    -0.271 OA
ATOM     26  H23 ALA d   1     -10.238   5.675 -42.389  0.00  0.00     0.163 HD
BRANCH  24  27
ATOM     27  CA  ASN d   1      -8.708   6.300 -40.406  0.00  0.00     0.097 C 
ATOM     28  H18 ASN d   1      -8.644   7.365 -40.139  0.00  0.00     0.088 H 
BRANCH  27  29
ATOM     29  N   ASN d   1     -10.061   5.847 -40.113  0.00  0.00    -0.346 N 
ATOM     30  C   PRO d   1     -11.076   6.689 -39.921  0.00  0.00     0.241 C 
ATOM     31  O   PRO d   1     -10.942   7.916 -39.999  0.00  0.00    -0.271 OA
ATOM     32  H17 ASN d   1     -10.235   4.864 -40.053  0.00  0.00     0.163 HD
BRANCH  30  33
ATOM     33  CA  PRO d   1     -12.451   6.118 -39.607  0.00  0.00     0.091 C 
ATOM     34  N   PRO d   1     -12.511   4.651 -39.608  0.00  0.00    -0.337 N 
ATOM     35  C   ASN d   1     -12.636   3.990 -40.763  0.00  0.00     0.243 C 
ATOM     36  CD  PRO d   1     -12.242   4.109 -38.265  0.00  0.00    -0.001 C 
ATOM     37  O   ASN d   1     -12.674   4.571 -41.846  0.00  0.00    -0.271 OA
ATOM     38  CG  PRO d   1     -12.531   5.270 -37.346  0.00  0.00    -0.048 C 
ATOM     39  H15 PRO d   1     -11.194   3.788 -38.174  0.00  0.00     0.064 H 
ATOM     40  H16 PRO d   1     -12.905   3.260 -38.045  0.00  0.00     0.064 H 
ATOM     41  CB  PRO d   1     -12.880   6.472 -38.175  0.00  0.00    -0.036 C 
ATOM     42  H13 PRO d   1     -13.375   5.018 -36.687  0.00  0.00     0.035 H 
ATOM     43  H14 PRO d   1     -11.642   5.488 -36.736  0.00  0.00     0.035 H 
ATOM     44  H11 PRO d   1     -13.962   6.667 -38.134  0.00  0.00     0.036 H 
ATOM     45  H12 PRO d   1     -12.334   7.358 -37.818  0.00  0.00     0.036 H 
ATOM     46  H10 PRO d   1     -13.168   6.522 -40.337  0.00  0.00     0.087 H 
BRANCH  35  47
ATOM     47  CA  ASN d   1     -12.718   2.462 -40.714  0.00  0.00     0.097 C 
ATOM     48  H5  ASN d   1     -12.555   2.134 -39.677  0.00  0.00     0.088 H 
BRANCH  47  49
ATOM     49  N   ASN d   1     -14.034   2.003 -41.148  0.00  0.00    -0.348 N 
ATOM     50  C   ACE d   1     -15.057   1.725 -40.339  0.00  0.00     0.214 C 
ATOM     51  O   ACE d   1     -16.135   1.350 -40.794  0.00  0.00    -0.274 OA
ATOM     52  H4  ASN d   1     -14.180   1.888 -42.131  0.00  0.00     0.163 HD
BRANCH  50  53
ATOM     53  CH3 ACE d   1     -14.838   1.846 -38.861  0.00  0.00    -0.003 C 
ATOM     54  H1  ACE d   1     -13.812   2.195 -38.670  0.00  0.00     0.040 H 
ATOM     55  H2  ACE d   1     -14.986   0.865 -38.387  0.00  0.00     0.040 H 
ATOM     56  H3  ACE d   1     -15.555   2.567 -38.442  0.00  0.00     0.040 H 
ENDBRANCH  50  53
ENDBRANCH  47  49
BRANCH  47  57
ATOM     57  CB  ASN d   1     -11.632   1.854 -41.598  0.00  0.00     0.036 C 
ATOM     58  H6  ASN d   1     -11.777   2.208 -42.629  0.00  0.00     0.051 H 
ATOM     59  H7  ASN d   1     -11.727   0.758 -41.570  0.00  0.00     0.051 H 
BRANCH  57  60
ATOM     60  CG  ASN d   1     -10.237   2.232 -41.147  0.00  0.00     0.217 C 
ATOM     61  OD1 ASN d   1     -10.032   2.644 -40.008  0.00  0.00    -0.274 OA
ATOM     62  ND2 ASN d   1      -9.268   2.090 -42.041  0.00  0.00    -0.370 N 
ATOM     63  H8  ASN d   1      -8.326   2.324 -41.799  0.00  0.00     0.159 HD
ATOM     64  H9  ASN d   1      -9.479   1.749 -42.957  0.00  0.00     0.159 HD
ENDBRANCH  57  60
ENDBRANCH  47  57
ENDBRANCH  35  47
ENDBRANCH  30  33
ENDBRANCH  27  29
BRANCH  27  65
ATOM     65  CB  ASN d   1      -7.699   5.527 -39.554  0.00  0.00     0.036 C 
ATOM     66  H19 ASN d   1      -7.691   4.477 -39.883  0.00  0.00     0.051 H 
ATOM     67  H20 ASN d   1      -8.014   5.579 -38.501  0.00  0.00     0.051 H 
BRANCH  65  68
ATOM     68  CG  ASN d   1      -6.290   6.084 -39.669  0.00  0.00     0.217 C 
ATOM     69  OD1 ASN d   1      -6.098   7.292 -39.813  0.00  0.00    -0.274 OA
ATOM     70  ND2 ASN d   1      -5.299   5.202 -39.619  0.00  0.00    -0.370 N 
ATOM     71  H21 ASN d   1      -4.351   5.511 -39.690  0.00  0.00     0.159 HD
ATOM     72  H22 ASN d   1      -5.501   4.229 -39.511  0.00  0.00     0.159 HD
ENDBRANCH  65  68
ENDBRANCH  27  65
ENDBRANCH  24  27
ENDBRANCH  21  23
BRANCH  21  73
ATOM     73  CB  ALA d   1     -10.045   4.795 -44.830  0.00  0.00    -0.049 C 
ATOM     74  H25 ALA d   1      -9.835   4.744 -45.909  0.00  0.00     0.030 H 
ATOM     75  H26 ALA d   1     -11.075   5.149 -44.673  0.00  0.00     0.030 H 
ATOM     76  H27 ALA d   1      -9.930   3.795 -44.387  0.00  0.00     0.030 H 
ENDBRANCH  21  73
ENDBRANCH  18  21
ENDBRANCH  15  17
BRANCH  15  77
ATOM     77  CB  ASN d   1      -7.620   8.488 -47.889  0.00  0.00     0.036 C 
ATOM     78  H30 ASN d   1      -8.137   7.808 -48.581  0.00  0.00     0.051 H 
ATOM     79  H31 ASN d   1      -6.631   8.076 -47.641  0.00  0.00     0.051 H 
BRANCH  77  80
ATOM     80  CG  ASN d   1      -7.430   9.826 -48.575  0.00  0.00     0.217 C 
ATOM     81  OD1 ASN d   1      -8.243  10.739 -48.421  0.00  0.00    -0.274 OA
ATOM     82  ND2 ASN d   1      -6.349   9.950 -49.336  0.00  0.00    -0.370 N 
ATOM     83  H32 ASN d   1      -6.170  10.810 -49.814  0.00  0.00     0.159 HD
ATOM     84  H33 ASN d   1      -5.714   9.184 -49.431  0.00  0.00     0.159 HD
ENDBRANCH  77  80
ENDBRANCH  15  77
ENDBRANCH   1  15
BRANCH   4  85
ATOM     85  C   PRO d   1     -11.946  11.484 -47.833  0.00  0.00     0.241 C 
ATOM     86  O   PRO d   1     -12.997  12.125 -47.944  0.00  0.00    -0.271 OA
ATOM     87  N   ASN d   1     -10.965  11.568 -48.727  0.00  0.00    -0.346 N 
ATOM     88  H41 ASN d   1     -10.178  10.957 -48.641  0.00  0.00     0.163 HD
BRANCH  87  89
ATOM     89  CA  ASN d   1     -10.999  12.520 -49.826  0.00  0.00     0.097 C 
ATOM     90  H42 ASN d   1     -11.901  13.140 -49.719  0.00  0.00     0.088 H 
BRANCH  89  91
ATOM     91  C   ASN d   1     -11.071  11.788 -51.160  0.00  0.00     0.241 C 
ATOM     92  O   ASN d   1     -10.923  10.566 -51.240  0.00  0.00    -0.271 OA
ATOM     93  N   ALA d   1     -11.309  12.565 -52.218  0.00  0.00    -0.346 N 
ATOM     94  H47 ALA d   1     -11.464  13.544 -52.084  0.00  0.00     0.163 HD
BRANCH  93  95
ATOM     95  CA  ALA d   1     -11.347  12.012 -53.565  0.00  0.00     0.086 C 
ATOM     96  H48 ALA d   1     -11.858  11.039 -53.521  0.00  0.00     0.086 H 
BRANCH  95  97
ATOM     97  C   ALA d   1      -9.951  11.791 -54.132  0.00  0.00     0.240 C 
ATOM     98  O   ALA d   1      -9.768  10.911 -54.980  0.00  0.00    -0.271 OA
ATOM     99  N   ASN d   1      -8.970  12.565 -53.687  0.00  0.00    -0.346 N 
ATOM    100  H52 ASN d   1      -9.174  13.219 -52.958  0.00  0.00     0.163 HD
BRANCH  99 101
ATOM    101  CA  ASN d   1      -7.613  12.511 -54.205  0.00  0.00     0.097 C 
ATOM    102  H53 ASN d   1      -7.503  11.597 -54.807  0.00  0.00     0.088 H 
BRANCH 101 103
ATOM    103  C   ASN d   1      -6.616  12.472 -53.059  0.00  0.00     0.243 C 
ATOM    104  O   ASN d   1      -6.938  12.862 -51.931  0.00  0.00    -0.271 OA
ATOM    105  N   PRO d   1      -5.394  12.005 -53.312  0.00  0.00    -0.337 N 
ATOM    106  CA  PRO d   1      -4.324  12.164 -52.322  0.00  0.00     0.091 C 
ATOM    107  CD  PRO d   1      -4.964  11.172 -54.448  0.00  0.00    -0.001 C 
ATOM    108  CB  PRO d   1      -3.202  11.255 -52.840  0.00  0.00    -0.036 C 
ATOM    109  H58 PRO d   1      -4.661  11.835 -51.328  0.00  0.00     0.087 H 
ATOM    110  CG  PRO d   1      -3.839  10.378 -53.872  0.00  0.00    -0.048 C 
ATOM    111  H59 PRO d   1      -2.791  10.647 -52.020  0.00  0.00     0.036 H 
ATOM    112  H60 PRO d   1      -2.398  11.856 -53.290  0.00  0.00     0.036 H 
ATOM    113  H61 PRO d   1      -4.220   9.456 -53.408  0.00  0.00     0.035 H 
ATOM    114  H62 PRO d   1      -3.112  10.120 -54.656  0.00  0.00     0.035 H 
ATOM    115  H63 PRO d   1      -4.620  11.794 -55.287  0.00  0.00     0.064 H 
ATOM    116  H64 PRO d   1      -5.778  10.515 -54.788  0.00  0.00     0.064 H 
BRANCH 106 117
ATOM    117  C   PRO d   1      -3.869  13.615 -52.244  0.00  0.00     0.241 C 
ATOM    118  O   PRO d   1      -4.219  14.456 -53.074  0.00  0.00    -0.271 OA
ATOM    119  N   ASN d   1      -3.068  13.901 -51.222  0.00  0.00    -0.344 N 
ATOM    120  H65 ASN d   1      -2.835  13.183 -50.566  0.00  0.00     0.163 HD
BRANCH 119 121
ATOM    121  CA  ASN d   1      -2.522  15.241 -51.038  0.00  0.00     0.104 C 
ATOM    122  H66 ASN d   1      -3.203  15.960 -51.517  0.00  0.00     0.090 H 
BRANCH 121 123
ATOM    123  C   ASN d   1      -1.152  15.360 -51.698  0.00  0.00     0.197 C 
ATOM    124  O   ASN d   1      -1.011  15.986 -52.748  0.00  0.00    -0.646 OA
ATOM    125  OXT ASN d   1      -0.162  14.832 -51.193  0.00  0.00    -0.646 OA
ENDBRANCH 121 123
BRANCH 121 126
ATOM    126  CB  ASN d   1      -2.422  15.586 -49.551  0.00  0.00     0.037 C 
ATOM    127  H67 ASN d   1      -1.843  16.515 -49.443  0.00  0.00     0.051 H 
ATOM    128  H68 ASN d   1      -1.901  14.767 -49.033  0.00  0.00     0.051 H 
BRANCH 126 129
ATOM    129  CG  ASN d   1      -3.780  15.782 -48.906  0.00  0.00     0.217 C 
ATOM    130  OD1 ASN d   1      -4.305  14.883 -48.248  0.00  0.00    -0.274 OA
ATOM    131  ND2 ASN d   1      -4.361  16.962 -49.097  0.00  0.00    -0.370 N 
ATOM    132  H69 ASN d   1      -5.258  17.149 -48.696  0.00  0.00     0.159 HD
ATOM    133  H70 ASN d   1      -3.901  17.663 -49.642  0.00  0.00     0.159 HD
ENDBRANCH 126 129
ENDBRANCH 121 126
ENDBRANCH 119 121
ENDBRANCH 106 117
ENDBRANCH 101 103
BRANCH 101 134
ATOM    134  CB  ASN d   1      -7.311  13.728 -55.091  0.00  0.00     0.036 C 
ATOM    135  H54 ASN d   1      -6.307  13.607 -55.525  0.00  0.00     0.051 H 
ATOM    136  H55 ASN d   1      -7.334  14.633 -54.466  0.00  0.00     0.051 H 
BRANCH 134 137
ATOM    137  CG  ASN d   1      -8.307  13.892 -56.216  0.00  0.00     0.217 C 
ATOM    138  OD1 ASN d   1      -9.057  14.867 -56.259  0.00  0.00    -0.274 OA
ATOM    139  ND2 ASN d   1      -8.320  12.937 -57.136  0.00  0.00    -0.370 N 
ATOM    140  H56 ASN d   1      -8.958  12.992 -57.904  0.00  0.00     0.159 HD
ATOM    141  H57 ASN d   1      -7.692  12.162 -57.062  0.00  0.00     0.159 HD
ENDBRANCH 134 137
ENDBRANCH 101 134
ENDBRANCH  99 101
ENDBRANCH  95  97
BRANCH  95 142
ATOM    142  CB  ALA d   1     -12.139  12.938 -54.490  0.00  0.00    -0.049 C 
ATOM    143  H49 ALA d   1     -12.162  12.512 -55.504  0.00  0.00     0.030 H 
ATOM    144  H50 ALA d   1     -11.658  13.927 -54.519  0.00  0.00     0.030 H 
ATOM    145  H51 ALA d   1     -13.167  13.041 -54.113  0.00  0.00     0.030 H 
ENDBRANCH  95 142
ENDBRANCH  93  95
ENDBRANCH  89  91
BRANCH  89 146
ATOM    146  CB  ASN d   1      -9.772  13.442 -49.796  0.00  0.00     0.036 C 
ATOM    147  H43 ASN d   1      -9.776  14.063 -50.704  0.00  0.00     0.051 H 
ATOM    148  H44 ASN d   1      -8.865  12.820 -49.781  0.00  0.00     0.051 H 
BRANCH 146 149
ATOM    149  CG  ASN d   1      -9.754  14.354 -48.586  0.00  0.00     0.217 C 
ATOM    150  OD1 ASN d   1     -10.780  14.574 -47.944  0.00  0.00    -0.274 OA
ATOM    151  ND2 ASN d   1      -8.586  14.900 -48.275  0.00  0.00    -0.370 N 
ATOM    152  H45 ASN d   1      -8.514  15.511 -47.486  0.00  0.00     0.159 HD
ATOM    153  H46 ASN d   1      -7.778  14.701 -48.829  0.00  0.00     0.159 HD
ENDBRANCH 146 149
ENDBRANCH  89 146
ENDBRANCH  87  89
ENDBRANCH   4  85
TORSDOF 34
