REMARK WARNING: 32 MAX_TORS EXCEEDED!!!
REMARK  37 active torsions:
REMARK  status: ('A' for Active; 'I' for Inactive)
REMARK    1  A    between atoms: C_1  and  CH3_3 
REMARK       I    between atoms: C_1  and  N_4 
REMARK    2  A    between atoms: N_4  and  CA_5 
REMARK    3  A    between atoms: CA_5  and  C_6 
REMARK    4  A    between atoms: CA_5  and  CB_8 
REMARK       I    between atoms: C_6  and  N_12 
REMARK    5  A    between atoms: CB_8  and  CG_9 
REMARK       I    between atoms: CG_9  and  ND2_11 
REMARK    6  A    between atoms: CA_13  and  C_14 
REMARK       I    between atoms: C_14  and  N_19 
REMARK    7  A    between atoms: N_19  and  CA_20 
REMARK    8  A    between atoms: CA_20  and  C_21 
REMARK    9  A    between atoms: CA_20  and  CB_23 
REMARK       I    between atoms: C_21  and  N_27 
REMARK   10  A    between atoms: CB_23  and  CG_24 
REMARK       I    between atoms: CG_24  and  ND2_26 
REMARK   11  A    between atoms: N_27  and  CA_28 
REMARK   12  A    between atoms: CA_28  and  C_29 
REMARK   13  A    between atoms: CA_28  and  CB_31 
REMARK       I    between atoms: C_29  and  N_32 
REMARK   14  A    between atoms: N_32  and  CA_33 
REMARK   15  A    between atoms: CA_33  and  C_34 
REMARK   16  A    between atoms: CA_33  and  CB_36 
REMARK       I    between atoms: C_34  and  N_40 
REMARK   17  A    between atoms: CB_36  and  CG_37 
REMARK       I    between atoms: CG_37  and  ND2_39 
REMARK   18  A    between atoms: CA_41  and  C_42 
REMARK       I    between atoms: C_42  and  N_47 
REMARK   19  A    between atoms: N_47  and  CA_48 
REMARK   20  A    between atoms: CA_48  and  C_49 
REMARK   21  A    between atoms: CA_48  and  CB_51 
REMARK       I    between atoms: C_49  and  N_55 
REMARK   22  A    between atoms: CB_51  and  CG_52 
REMARK       I    between atoms: CG_52  and  ND2_54 
REMARK   23  A    between atoms: N_55  and  CA_56 
REMARK   24  A    between atoms: CA_56  and  C_57 
REMARK   25  A    between atoms: CA_56  and  CB_59 
REMARK       I    between atoms: C_57  and  N_60 
REMARK   26  A    between atoms: N_60  and  CA_61 
REMARK   27  A    between atoms: CA_61  and  C_62 
REMARK   28  A    between atoms: CA_61  and  CB_64 
REMARK       I    between atoms: C_62  and  N_68 
REMARK   29  A    between atoms: CB_64  and  CG_65 
REMARK       I    between atoms: CG_65  and  ND2_67 
REMARK   30  A    between atoms: CA_69  and  C_70 
REMARK       I    between atoms: C_70  and  N_75 
REMARK   31  A    between atoms: N_75  and  CA_76 
REMARK   32  A    between atoms: CA_76  and  C_77 
REMARK   33  A    between atoms: CA_76  and  CB_79 
REMARK       I    between atoms: C_77  and  N_83 
REMARK   34  A    between atoms: CB_79  and  CG_80 
REMARK       I    between atoms: CG_80  and  ND2_82 
REMARK   35  A    between atoms: N_83  and  CA_84 
REMARK   36  A    between atoms: CA_84  and  C_85 
REMARK   37  A    between atoms: CA_84  and  CB_87 
REMARK       I    between atoms: C_85  and  N_88 
ROOT
ATOM      1  C   ASN d   1       1.436  14.843 -43.023  0.00  0.00     0.243 C 
ATOM      2  O   ASN d   1       0.984  13.753 -42.635  0.00  0.00    -0.271 OA
ATOM      3  N   PRO d   1       2.603  14.915 -43.673  0.00  0.00    -0.337 N 
ATOM      4  CA  PRO d   1       3.363  13.684 -43.940  0.00  0.00     0.091 C 
ATOM      5  CB  PRO d   1       4.503  14.162 -44.848  0.00  0.00    -0.036 C 
ATOM      6  CG  PRO d   1       4.670  15.594 -44.527  0.00  0.00    -0.048 C 
ATOM      7  CD  PRO d   1       3.303  16.110 -44.176  0.00  0.00    -0.001 C 
ATOM      8  H34 PRO d   1       2.728  12.962 -44.474  0.00  0.00     0.087 H 
ATOM      9  H35 PRO d   1       4.235  14.031 -45.907  0.00  0.00     0.036 H 
ATOM     10  H36 PRO d   1       5.428  13.607 -44.633  0.00  0.00     0.036 H 
ATOM     11  H37 PRO d   1       5.069  16.135 -45.397  0.00  0.00     0.035 H 
ATOM     12  H38 PRO d   1       5.354  15.716 -43.674  0.00  0.00     0.035 H 
ATOM     13  H39 PRO d   1       3.363  16.886 -43.399  0.00  0.00     0.064 H 
ATOM     14  H40 PRO d   1       2.797  16.518 -45.063  0.00  0.00     0.064 H 
ENDROOT
BRANCH   4  15
ATOM     15  C   PRO d   1       3.897  13.013 -42.688  0.00  0.00     0.241 C 
ATOM     16  O   PRO d   1       4.298  11.845 -42.764  0.00  0.00    -0.271 OA
ATOM     17  N   ASN d   1       3.919  13.706 -41.547  0.00  0.00    -0.346 N 
ATOM     18  H41 ASN d   1       3.681  14.677 -41.560  0.00  0.00     0.163 HD
BRANCH  17  19
ATOM     19  CA  ASN d   1       4.282  13.079 -40.284  0.00  0.00     0.097 C 
ATOM     20  H42 ASN d   1       5.121  12.394 -40.476  0.00  0.00     0.088 H 
BRANCH  19  21
ATOM     21  C   ASN d   1       3.140  12.276 -39.680  0.00  0.00     0.241 C 
ATOM     22  O   ASN d   1       3.350  11.603 -38.665  0.00  0.00    -0.271 OA
ATOM     23  N   ALA d   1       1.942  12.338 -40.266  0.00  0.00    -0.346 N 
ATOM     24  H47 ALA d   1       1.838  12.890 -41.093  0.00  0.00     0.163 HD
BRANCH  23  25
ATOM     25  CA  ALA d   1       0.779  11.630 -39.743  0.00  0.00     0.086 C 
ATOM     26  H48 ALA d   1       1.119  10.972 -38.930  0.00  0.00     0.086 H 
BRANCH  25  27
ATOM     27  C   ALA d   1       0.134  10.762 -40.817  0.00  0.00     0.240 C 
ATOM     28  O   ALA d   1      -1.072  10.510 -40.777  0.00  0.00    -0.271 OA
ATOM     29  N   ASN d   1       0.922  10.295 -41.783  0.00  0.00    -0.346 N 
ATOM     30  H52 ASN d   1       1.883  10.572 -41.806  0.00  0.00     0.163 HD
BRANCH  29  31
ATOM     31  CA  ASN d   1       0.418   9.391 -42.806  0.00  0.00     0.097 C 
ATOM     32  H53 ASN d   1      -0.638   9.624 -43.006  0.00  0.00     0.088 H 
BRANCH  31  33
ATOM     33  C   ASN d   1       0.528   7.966 -42.282  0.00  0.00     0.243 C 
ATOM     34  O   ASN d   1       1.646   7.436 -42.198  0.00  0.00    -0.271 OA
ATOM     35  N   PRO d   1      -0.578   7.306 -41.923  0.00  0.00    -0.337 N 
ATOM     36  CA  PRO d   1      -0.470   5.945 -41.374  0.00  0.00     0.091 C 
ATOM     37  CD  PRO d   1      -1.981   7.736 -42.051  0.00  0.00    -0.001 C 
ATOM     38  CB  PRO d   1      -1.895   5.649 -40.891  0.00  0.00    -0.036 C 
ATOM     39  H58 PRO d   1       0.231   5.938 -40.526  0.00  0.00     0.087 H 
ATOM     40  CG  PRO d   1      -2.760   6.483 -41.758  0.00  0.00    -0.048 C 
ATOM     41  H59 PRO d   1      -2.014   5.932 -39.835  0.00  0.00     0.036 H 
ATOM     42  H60 PRO d   1      -2.134   4.582 -41.014  0.00  0.00     0.036 H 
ATOM     43  H61 PRO d   1      -3.697   6.730 -41.237  0.00  0.00     0.035 H 
ATOM     44  H62 PRO d   1      -2.990   5.950 -42.693  0.00  0.00     0.035 H 
ATOM     45  H63 PRO d   1      -2.190   8.100 -43.068  0.00  0.00     0.064 H 
ATOM     46  H64 PRO d   1      -2.218   8.526 -41.323  0.00  0.00     0.064 H 
BRANCH  36  47
ATOM     47  C   PRO d   1      -0.005   4.913 -42.385  0.00  0.00     0.241 C 
ATOM     48  O   PRO d   1       0.358   3.802 -41.976  0.00  0.00    -0.271 OA
ATOM     49  N   ASN d   1      -0.004   5.234 -43.679  0.00  0.00    -0.346 N 
ATOM     50  H65 ASN d   1      -0.367   6.121 -43.963  0.00  0.00     0.163 HD
BRANCH  49  51
ATOM     51  CA  ASN d   1       0.515   4.320 -44.689  0.00  0.00     0.097 C 
ATOM     52  H66 ASN d   1       0.129   3.315 -44.463  0.00  0.00     0.088 H 
BRANCH  51  53
ATOM     53  C   ASN d   1       2.035   4.249 -44.700  0.00  0.00     0.241 C 
ATOM     54  O   ASN d   1       2.591   3.378 -45.377  0.00  0.00    -0.271 OA
ATOM     55  N   ALA d   1       2.713   5.136 -43.979  0.00  0.00    -0.346 N 
ATOM     56  H71 ALA d   1       2.212   5.851 -43.492  0.00  0.00     0.163 HD
BRANCH  55  57
ATOM     57  CA  ALA d   1       4.165   5.095 -43.879  0.00  0.00     0.086 C 
ATOM     58  H72 ALA d   1       4.566   4.597 -44.775  0.00  0.00     0.086 H 
BRANCH  57  59
ATOM     59  C   ALA d   1       4.577   4.293 -42.652  0.00  0.00     0.237 C 
ATOM     60  O   ALA d   1       4.025   4.477 -41.566  0.00  0.00    -0.271 OA
ATOM     61  N   NH2 d   1       5.545   3.401 -42.830  0.00  0.00    -0.368 N 
ATOM     62  H76 NH2 d   1       5.859   2.844 -42.061  0.00  0.00     0.159 HD
ATOM     63  H77 NH2 d   1       5.960   3.287 -43.733  0.00  0.00     0.159 HD
ENDBRANCH  57  59
BRANCH  57  64
ATOM     64  CB  ALA d   1       4.734   6.505 -43.815  0.00  0.00    -0.049 C 
ATOM     65  H73 ALA d   1       5.830   6.455 -43.740  0.00  0.00     0.030 H 
ATOM     66  H74 ALA d   1       4.329   7.024 -42.934  0.00  0.00     0.030 H 
ATOM     67  H75 ALA d   1       4.454   7.055 -44.725  0.00  0.00     0.030 H 
ENDBRANCH  57  64
ENDBRANCH  55  57
ENDBRANCH  51  53
BRANCH  51  68
ATOM     68  CB  ASN d   1       0.022   4.730 -46.077  0.00  0.00     0.036 C 
ATOM     69  H67 ASN d   1       0.520   4.100 -46.829  0.00  0.00     0.051 H 
ATOM     70  H68 ASN d   1       0.286   5.784 -46.248  0.00  0.00     0.051 H 
BRANCH  68  71
ATOM     71  CG  ASN d   1      -1.474   4.574 -46.229  0.00  0.00     0.217 C 
ATOM     72  OD1 ASN d   1      -2.081   3.695 -45.619  0.00  0.00    -0.274 OA
ATOM     73  ND2 ASN d   1      -2.079   5.424 -47.047  0.00  0.00    -0.370 N 
ATOM     74  H69 ASN d   1      -3.068   5.367 -47.185  0.00  0.00     0.159 HD
ATOM     75  H70 ASN d   1      -1.547   6.122 -47.526  0.00  0.00     0.159 HD
ENDBRANCH  68  71
ENDBRANCH  51  68
ENDBRANCH  49  51
ENDBRANCH  36  47
ENDBRANCH  31  33
BRANCH  31  76
ATOM     76  CB  ASN d   1       1.206   9.545 -44.099  0.00  0.00     0.036 C 
ATOM     77  H54 ASN d   1       2.254   9.273 -43.907  0.00  0.00     0.051 H 
ATOM     78  H55 ASN d   1       1.153  10.595 -44.421  0.00  0.00     0.051 H 
BRANCH  76  79
ATOM     79  CG  ASN d   1       0.673   8.668 -45.214  0.00  0.00     0.217 C 
ATOM     80  OD1 ASN d   1      -0.059   7.707 -44.969  0.00  0.00    -0.274 OA
ATOM     81  ND2 ASN d   1       1.040   8.994 -46.453  0.00  0.00    -0.370 N 
ATOM     82  H56 ASN d   1       0.719   8.451 -47.229  0.00  0.00     0.159 HD
ATOM     83  H57 ASN d   1       1.637   9.782 -46.607  0.00  0.00     0.159 HD
ENDBRANCH  76  79
ENDBRANCH  31  76
ENDBRANCH  29  31
ENDBRANCH  25  27
BRANCH  25  84
ATOM     84  CB  ALA d   1      -0.242  12.610 -39.168  0.00  0.00    -0.049 C 
ATOM     85  H49 ALA d   1      -1.108  12.053 -38.781  0.00  0.00     0.030 H 
ATOM     86  H50 ALA d   1      -0.574  13.300 -39.958  0.00  0.00     0.030 H 
ATOM     87  H51 ALA d   1       0.220  13.183 -38.351  0.00  0.00     0.030 H 
ENDBRANCH  25  84
ENDBRANCH  23  25
ENDBRANCH  19  21
BRANCH  19  88
ATOM     88  CB  ASN d   1       4.734  14.134 -39.272  0.00  0.00     0.036 C 
ATOM     89  H43 ASN d   1       5.133  13.622 -38.384  0.00  0.00     0.051 H 
ATOM     90  H44 ASN d   1       3.864  14.742 -38.984  0.00  0.00     0.051 H 
BRANCH  88  91
ATOM     91  CG  ASN d   1       5.803  15.050 -39.825  0.00  0.00     0.217 C 
ATOM     92  OD1 ASN d   1       6.964  14.663 -39.950  0.00  0.00    -0.274 OA
ATOM     93  ND2 ASN d   1       5.417  16.278 -40.154  0.00  0.00    -0.370 N 
ATOM     94  H45 ASN d   1       6.080  16.928 -40.525  0.00  0.00     0.159 HD
ATOM     95  H46 ASN d   1       4.463  16.552 -40.031  0.00  0.00     0.159 HD
ENDBRANCH  88  91
ENDBRANCH  19  88
ENDBRANCH  17  19
ENDBRANCH   4  15
BRANCH   1  96
ATOM     96  CA  ASN d   1       0.644  16.115 -42.750  0.00  0.00     0.097 C 
ATOM     97  H29 ASN d   1       1.272  16.989 -42.979  0.00  0.00     0.088 H 
BRANCH  96  98
ATOM     98  N   ASN d   1      -0.528  16.129 -43.614  0.00  0.00    -0.346 N 
ATOM     99  C   ALA d   1      -0.520  16.745 -44.795  0.00  0.00     0.240 C 
ATOM    100  O   ALA d   1       0.449  17.381 -45.221  0.00  0.00    -0.271 OA
ATOM    101  H28 ASN d   1      -1.361  15.664 -43.313  0.00  0.00     0.163 HD
BRANCH  99 102
ATOM    102  CA  ALA d   1      -1.795  16.627 -45.622  0.00  0.00     0.086 C 
ATOM    103  H24 ALA d   1      -2.566  16.133 -45.013  0.00  0.00     0.086 H 
BRANCH 102 104
ATOM    104  N   ALA d   1      -2.273  17.952 -45.992  0.00  0.00    -0.346 N 
ATOM    105  C   ASN d   1      -3.103  18.643 -45.215  0.00  0.00     0.241 C 
ATOM    106  O   ASN d   1      -3.483  18.224 -44.115  0.00  0.00    -0.271 OA
ATOM    107  H23 ALA d   1      -1.968  18.354 -46.855  0.00  0.00     0.163 HD
BRANCH 105 108
ATOM    108  CA  ASN d   1      -3.603  19.998 -45.701  0.00  0.00     0.097 C 
ATOM    109  H18 ASN d   1      -3.355  20.746 -44.934  0.00  0.00     0.088 H 
BRANCH 108 110
ATOM    110  N   ASN d   1      -2.988  20.422 -46.953  0.00  0.00    -0.346 N 
ATOM    111  C   PRO d   1      -1.807  21.041 -46.987  0.00  0.00     0.241 C 
ATOM    112  O   PRO d   1      -1.133  21.239 -45.969  0.00  0.00    -0.271 OA
ATOM    113  H17 ASN d   1      -3.466  20.243 -47.813  0.00  0.00     0.163 HD
BRANCH 111 114
ATOM    114  CA  PRO d   1      -1.276  21.508 -48.329  0.00  0.00     0.091 C 
ATOM    115  N   PRO d   1      -1.871  20.797 -49.471  0.00  0.00    -0.337 N 
ATOM    116  C   ASN d   1      -1.674  19.484 -49.605  0.00  0.00     0.243 C 
ATOM    117  CD  PRO d   1      -2.609  21.701 -50.368  0.00  0.00    -0.001 C 
ATOM    118  O   ASN d   1      -0.961  18.836 -48.839  0.00  0.00    -0.271 OA
ATOM    119  CG  PRO d   1      -2.048  23.041 -50.033  0.00  0.00    -0.048 C 
ATOM    120  H15 PRO d   1      -3.689  21.663 -50.165  0.00  0.00     0.064 H 
ATOM    121  H16 PRO d   1      -2.425  21.448 -51.423  0.00  0.00     0.064 H 
ATOM    122  CB  PRO d   1      -1.641  22.977 -48.594  0.00  0.00    -0.036 C 
ATOM    123  H13 PRO d   1      -1.175  23.258 -50.667  0.00  0.00     0.035 H 
ATOM    124  H14 PRO d   1      -2.810  23.820 -50.179  0.00  0.00     0.035 H 
ATOM    125  H11 PRO d   1      -0.772  23.627 -48.412  0.00  0.00     0.036 H 
ATOM    126  H12 PRO d   1      -2.474  23.288 -47.946  0.00  0.00     0.036 H 
ATOM    127  H10 PRO d   1      -0.184  21.378 -48.334  0.00  0.00     0.087 H 
BRANCH 116 128
ATOM    128  CA  ASN d   1      -2.380  18.802 -50.770  0.00  0.00     0.097 C 
ATOM    129  H5  ASN d   1      -3.361  19.279 -50.909  0.00  0.00     0.088 H 
BRANCH 128 130
ATOM    130  N   ASN d   1      -1.619  18.953 -52.004  0.00  0.00    -0.348 N 
ATOM    131  C   ACE d   1      -2.217  19.083 -53.184  0.00  0.00     0.214 C 
ATOM    132  O   ACE d   1      -3.441  19.089 -53.303  0.00  0.00    -0.274 OA
ATOM    133  H4  ASN d   1      -0.620  18.959 -51.962  0.00  0.00     0.163 HD
BRANCH 131 134
ATOM    134  CH3 ACE d   1      -1.298  19.227 -54.360  0.00  0.00    -0.003 C 
ATOM    135  H1  ACE d   1      -0.254  19.193 -54.016  0.00  0.00     0.040 H 
ATOM    136  H2  ACE d   1      -1.489  20.189 -54.859  0.00  0.00     0.040 H 
ATOM    137  H3  ACE d   1      -1.477  18.405 -55.068  0.00  0.00     0.040 H 
ENDBRANCH 131 134
ENDBRANCH 128 130
BRANCH 128 138
ATOM    138  CB  ASN d   1      -2.601  17.323 -50.451  0.00  0.00     0.036 C 
ATOM    139  H6  ASN d   1      -2.995  17.238 -49.428  0.00  0.00     0.051 H 
ATOM    140  H7  ASN d   1      -1.635  16.800 -50.516  0.00  0.00     0.051 H 
BRANCH 138 141
ATOM    141  CG  ASN d   1      -3.575  16.661 -51.402  0.00  0.00     0.217 C 
ATOM    142  OD1 ASN d   1      -3.311  15.576 -51.920  0.00  0.00    -0.274 OA
ATOM    143  ND2 ASN d   1      -4.711  17.307 -51.636  0.00  0.00    -0.370 N 
ATOM    144  H8  ASN d   1      -5.390  16.915 -52.256  0.00  0.00     0.159 HD
ATOM    145  H9  ASN d   1      -4.887  18.186 -51.192  0.00  0.00     0.159 HD
ENDBRANCH 138 141
ENDBRANCH 128 138
ENDBRANCH 116 128
ENDBRANCH 111 114
ENDBRANCH 108 110
BRANCH 108 146
ATOM    146  CB  ASN d   1      -5.126  19.945 -45.858  0.00  0.00     0.036 C 
ATOM    147  H19 ASN d   1      -5.499  20.967 -46.022  0.00  0.00     0.051 H 
ATOM    148  H20 ASN d   1      -5.562  19.540 -44.933  0.00  0.00     0.051 H 
BRANCH 146 149
ATOM    149  CG  ASN d   1      -5.562  19.074 -47.024  0.00  0.00     0.217 C 
ATOM    150  OD1 ASN d   1      -4.877  18.995 -48.046  0.00  0.00    -0.274 OA
ATOM    151  ND2 ASN d   1      -6.705  18.416 -46.878  0.00  0.00    -0.370 N 
ATOM    152  H21 ASN d   1      -7.041  17.828 -47.614  0.00  0.00     0.159 HD
ATOM    153  H22 ASN d   1      -7.231  18.509 -46.032  0.00  0.00     0.159 HD
ENDBRANCH 146 149
ENDBRANCH 108 146
ENDBRANCH 105 108
ENDBRANCH 102 104
BRANCH 102 154
ATOM    154  CB  ALA d   1      -1.539  15.777 -46.866  0.00  0.00    -0.049 C 
ATOM    155  H25 ALA d   1      -1.179  14.783 -46.563  0.00  0.00     0.030 H 
ATOM    156  H26 ALA d   1      -0.780  16.266 -47.494  0.00  0.00     0.030 H 
ATOM    157  H27 ALA d   1      -2.474  15.671 -47.436  0.00  0.00     0.030 H 
ENDBRANCH 102 154
ENDBRANCH  99 102
ENDBRANCH  96  98
BRANCH  96 158
ATOM    158  CB  ASN d   1       0.234  16.176 -41.286  0.00  0.00     0.036 C 
ATOM    159  H30 ASN d   1      -0.379  15.293 -41.054  0.00  0.00     0.051 H 
ATOM    160  H31 ASN d   1      -0.360  17.087 -41.124  0.00  0.00     0.051 H 
BRANCH 158 161
ATOM    161  CG  ASN d   1       1.429  16.200 -40.346  0.00  0.00     0.217 C 
ATOM    162  OD1 ASN d   1       2.574  16.260 -40.787  0.00  0.00    -0.274 OA
ATOM    163  ND2 ASN d   1       1.166  16.154 -39.046  0.00  0.00    -0.370 N 
ATOM    164  H32 ASN d   1       1.915  16.167 -38.384  0.00  0.00     0.159 HD
ATOM    165  H33 ASN d   1       0.219  16.106 -38.729  0.00  0.00     0.159 HD
ENDBRANCH 158 161
ENDBRANCH  96 158
ENDBRANCH   1  96
TORSDOF 37
