REMARK WARNING: 32 MAX_TORS EXCEEDED!!!
REMARK  61 active torsions:
REMARK  status: ('A' for Active; 'I' for Inactive)
REMARK    1  A    between atoms: N_1  and  CA_2 
REMARK    2  A    between atoms: CA_2  and  C_3 
REMARK    3  A    between atoms: CA_2  and  CB_5 
REMARK       I    between atoms: C_3  and  N_10 
REMARK    4  A    between atoms: CB_5  and  CG_6 
REMARK    5  A    between atoms: CG_6  and  CD_7 
REMARK       I    between atoms: CD_7  and  NE2_9 
REMARK    6  A    between atoms: N_10  and  CA_11 
REMARK    7  A    between atoms: CA_11  and  C_12 
REMARK    8  A    between atoms: CA_11  and  CB_14 
REMARK       I    between atoms: C_12  and  N_21 
REMARK    9  A    between atoms: CB_14  and  CG_15 
REMARK   10  A    between atoms: N_21  and  CA_22 
REMARK   11  A    between atoms: CA_22  and  C_23 
REMARK   12  A    between atoms: CA_22  and  CB_25 
REMARK       I    between atoms: C_23  and  N_29 
REMARK   13  A    between atoms: CB_25  and  CG_26 
REMARK   14  A    between atoms: N_29  and  CA_30 
REMARK   15  A    between atoms: CA_30  and  C_31 
REMARK   16  A    between atoms: CA_30  and  CB_33 
REMARK       I    between atoms: C_31  and  N_37 
REMARK   17  A    between atoms: CB_33  and  CG_34 
REMARK   18  A    between atoms: CG_34  and  CD1_35 
REMARK   19  A    between atoms: CG_34  and  CD2_36 
REMARK   20  A    between atoms: N_37  and  CA_38 
REMARK   21  A    between atoms: CA_38  and  C_39 
REMARK   22  A    between atoms: CA_38  and  CB_41 
REMARK       I    between atoms: C_39  and  N_43 
REMARK   23  A    between atoms: CB_41  and  OG_42 
REMARK   24  A    between atoms: N_43  and  CA_44 
REMARK   25  A    between atoms: CA_44  and  C_45 
REMARK   26  A    between atoms: CA_44  and  CB_47 
REMARK       I    between atoms: C_45  and  N_50 
REMARK   27  A    between atoms: CB_47  and  OG1_48 
REMARK   28  A    between atoms: CB_47  and  CG2_49 
REMARK   29  A    between atoms: N_50  and  CA_51 
REMARK   30  A    between atoms: CA_51  and  C_52 
REMARK   31  A    between atoms: CA_51  and  CB_54 
REMARK       I    between atoms: C_52  and  N_69 
REMARK   32  A    between atoms: CB_54  and  CG_55 
REMARK   33  A    between atoms: CG_55  and  CD_56 
REMARK   34  A    between atoms: CD_56  and  NE_57 
REMARK       I    between atoms: NE_57  and  CZ_58 
REMARK       I    between atoms: CZ_58  and  NH1_59 
REMARK       I    between atoms: CZ_58  and  NH2_60 
REMARK   35  A    between atoms: NH2_60  and  C02_62 
REMARK   36  A    between atoms: C02_62  and  C01_61 
REMARK   37  A    between atoms: C01_61  and  C03_63 
REMARK   38  A    between atoms: C03_63  and  C04_64 
REMARK   39  A    between atoms: C04_64  and  C05_65 
REMARK   40  A    between atoms: C05_65  and  C06_66 
REMARK   41  A    between atoms: C06_66  and  C07_67 
REMARK   42  A    between atoms: C07_67  and  C08_68 
REMARK   43  A    between atoms: N_69  and  CA_70 
REMARK   44  A    between atoms: CA_70  and  C_71 
REMARK   45  A    between atoms: CA_70  and  CB_73 
REMARK       I    between atoms: C_71  and  N_80 
REMARK   46  A    between atoms: CB_73  and  CG_74 
REMARK   47  A    between atoms: CG_74  and  CD_75 
REMARK   48  A    between atoms: CD_75  and  NE_76 
REMARK       I    between atoms: NE_76  and  CZ_77 
REMARK       I    between atoms: CZ_77  and  NH1_78 
REMARK   49  A    between atoms: N_80  and  CA_81 
REMARK   50  A    between atoms: CA_81  and  C_82 
REMARK   51  A    between atoms: CA_81  and  CB_84 
REMARK       I    between atoms: C_82  and  N_88 
REMARK   52  A    between atoms: CB_84  and  CG_85 
REMARK   53  A    between atoms: CG_85  and  CD1_86 
REMARK   54  A    between atoms: CG_85  and  CD2_87 
REMARK   55  A    between atoms: N_88  and  CA_89 
REMARK   56  A    between atoms: CA_89  and  C_90 
REMARK   57  A    between atoms: CA_89  and  CB_92 
REMARK   58  A    between atoms: CB_92  and  CG_93 
REMARK   59  A    between atoms: CG_93  and  CD_94 
REMARK   60  A    between atoms: CD_94  and  CE_95 
REMARK   61  A    between atoms: CE_95  and  NZ_96 
ROOT
ATOM      1  CA  C1J d   1      28.160  35.723  29.829  0.00  0.00     0.089 C 
ATOM      2  H48 C1J d   1      27.596  36.590  29.454  0.00  0.00     0.087 H 
ENDROOT
BRANCH   1   3
ATOM      3  N   C1J d   1      28.221  35.826  31.255  0.00  0.00    -0.346 N 
ATOM      4  C   THR d   1      28.818  34.917  32.019  0.00  0.00     0.243 C 
ATOM      5  O   THR d   1      29.487  33.973  31.574  0.00  0.00    -0.271 OA
ATOM      6  H47 C1J d   1      27.796  36.617  31.696  0.00  0.00     0.163 HD
BRANCH   4   7
ATOM      7  CA  THR d   1      28.619  35.089  33.518  0.00  0.00     0.113 C 
ATOM      8  H41 THR d   1      29.602  35.035  34.009  0.00  0.00     0.091 H 
BRANCH   7   9
ATOM      9  N   THR d   1      28.018  36.381  33.854  0.00  0.00    -0.344 N 
ATOM     10  C   SER d   1      28.726  37.337  34.446  0.00  0.00     0.243 C 
ATOM     11  O   SER d   1      29.935  37.211  34.660  0.00  0.00    -0.271 OA
ATOM     12  H40 THR d   1      27.057  36.547  33.634  0.00  0.00     0.163 HD
BRANCH  10  13
ATOM     13  CA  SER d   1      27.999  38.616  34.856  0.00  0.00     0.109 C 
ATOM     14  H36 SER d   1      28.747  39.416  34.953  0.00  0.00     0.090 H 
BRANCH  13  15
ATOM     15  N   SER d   1      27.024  39.022  33.851  0.00  0.00    -0.344 N 
ATOM     16  C   LEU d   1      27.433  39.553  32.701  0.00  0.00     0.241 C 
ATOM     17  O   LEU d   1      28.627  39.726  32.443  0.00  0.00    -0.271 OA
ATOM     18  H35 SER d   1      26.047  38.901  34.026  0.00  0.00     0.163 HD
BRANCH  16  19
ATOM     19  CA  LEU d   1      26.382  39.955  31.677  0.00  0.00     0.089 C 
ATOM     20  H25 LEU d   1      26.737  39.639  30.685  0.00  0.00     0.087 H 
BRANCH  19  21
ATOM     21  N   LEU d   1      25.090  39.319  31.914  0.00  0.00    -0.346 N 
ATOM     22  C   ASP d   1      24.884  38.030  31.629  0.00  0.00     0.241 C 
ATOM     23  O   ASP d   1      25.787  37.256  31.293  0.00  0.00    -0.271 OA
ATOM     24  H24 LEU d   1      24.342  39.860  32.298  0.00  0.00     0.163 HD
BRANCH  22  25
ATOM     25  CA  ASP d   1      23.452  37.528  31.768  0.00  0.00     0.098 C 
ATOM     26  H21 ASP d   1      22.799  38.383  31.998  0.00  0.00     0.088 H 
BRANCH  25  27
ATOM     27  N   ASP d   1      23.023  36.936  30.505  0.00  0.00    -0.345 N 
ATOM     28  C   PHE d   1      22.053  37.442  29.741  0.00  0.00     0.241 C 
ATOM     29  O   PHE d   1      21.471  38.500  30.002  0.00  0.00    -0.271 OA
ATOM     30  H20 ASP d   1      23.482  36.104  30.194  0.00  0.00     0.163 HD
BRANCH  28  31
ATOM     31  CA  PHE d   1      21.701  36.637  28.495  0.00  0.00     0.093 C 
ATOM     32  H12 PHE d   1      22.113  35.624  28.611  0.00  0.00     0.088 H 
BRANCH  31  33
ATOM     33  N   PHE d   1      20.261  36.536  28.331  0.00  0.00    -0.346 N 
ATOM     34  C   GLN d   1      19.540  35.649  29.004  0.00  0.00     0.249 C 
ATOM     35  O   GLN d   1      19.999  34.949  29.910  0.00  0.00    -0.271 OA
ATOM     36  H11 PHE d   1      19.800  37.153  27.693  0.00  0.00     0.163 HD
BRANCH  34  37
ATOM     37  CA  GLN d   1      18.080  35.539  28.581  0.00  0.00     0.176 C 
ATOM     38  H4  GLN d   1      17.958  36.059  27.619  0.00  0.00     0.099 H 
BRANCH  37  39
ATOM     39  N   GLN d   1      17.717  34.138  28.397  0.00  0.00    -0.066 N 
ATOM     40  H1  GLN d   1      16.750  34.075  28.118  0.00  0.00     0.275 HD
ATOM     41  H2  GLN d   1      17.849  33.640  29.263  0.00  0.00     0.275 HD
ATOM     42  H3  GLN d   1      18.300  33.731  27.683  0.00  0.00     0.275 HD
ENDBRANCH  37  39
BRANCH  37  43
ATOM     43  CB  GLN d   1      17.159  36.205  29.606  0.00  0.00    -0.022 C 
ATOM     44  H5  GLN d   1      16.950  35.475  30.402  0.00  0.00     0.037 H 
ATOM     45  H6  GLN d   1      16.221  36.473  29.099  0.00  0.00     0.037 H 
BRANCH  43  46
ATOM     46  CG  GLN d   1      17.723  37.465  30.255  0.00  0.00     0.011 C 
ATOM     47  H7  GLN d   1      18.703  37.684  29.805  0.00  0.00     0.047 H 
ATOM     48  H8  GLN d   1      17.847  37.281  31.332  0.00  0.00     0.047 H 
BRANCH  46  49
ATOM     49  CD  GLN d   1      16.822  38.673  30.070  0.00  0.00     0.215 C 
ATOM     50  OE1 GLN d   1      15.895  38.650  29.260  0.00  0.00    -0.274 OA
ATOM     51  NE2 GLN d   1      17.093  39.737  30.820  0.00  0.00    -0.370 N 
ATOM     52  H9  GLN d   1      16.532  40.561  30.740  0.00  0.00     0.159 HD
ATOM     53  H10 GLN d   1      17.858  39.713  31.464  0.00  0.00     0.159 HD
ENDBRANCH  46  49
ENDBRANCH  43  46
ENDBRANCH  37  43
ENDBRANCH  34  37
ENDBRANCH  31  33
BRANCH  31  54
ATOM     54  CB  PHE d   1      22.310  37.271  27.246  0.00  0.00    -0.014 C 
ATOM     55  H13 PHE d   1      21.851  38.260  27.101  0.00  0.00     0.043 H 
ATOM     56  H14 PHE d   1      22.078  36.629  26.384  0.00  0.00     0.043 H 
BRANCH  54  57
ATOM     57  CG  PHE d   1      23.793  37.447  27.316  0.00  0.00    -0.056 A 
ATOM     58  CD1 PHE d   1      24.643  36.362  27.175  0.00  0.00    -0.077 A 
ATOM     59  CE1 PHE d   1      26.010  36.529  27.232  0.00  0.00    -0.082 A 
ATOM     60  H15 PHE d   1      24.229  35.373  27.018  0.00  0.00     0.084 H 
ATOM     61  CZ  PHE d   1      26.545  37.785  27.425  0.00  0.00    -0.083 A 
ATOM     62  H17 PHE d   1      26.665  35.672  27.125  0.00  0.00     0.083 H 
ATOM     63  CE2 PHE d   1      25.710  38.873  27.558  0.00  0.00    -0.082 A 
ATOM     64  H19 PHE d   1      27.620  37.916  27.472  0.00  0.00     0.083 H 
ATOM     65  CD2 PHE d   1      24.340  38.703  27.502  0.00  0.00    -0.077 A 
ATOM     66  H18 PHE d   1      26.128  39.862  27.706  0.00  0.00     0.083 H 
ATOM     67  H16 PHE d   1      23.688  39.563  27.605  0.00  0.00     0.084 H 
ENDBRANCH  54  57
ENDBRANCH  31  54
ENDBRANCH  28  31
ENDBRANCH  25  27
BRANCH  25  68
ATOM     68  CB  ASP d   1      23.341  36.514  32.906  0.00  0.00     0.043 C 
ATOM     69  H22 ASP d   1      23.731  35.547  32.555  0.00  0.00     0.052 H 
ATOM     70  H23 ASP d   1      22.281  36.405  33.178  0.00  0.00     0.052 H 
BRANCH  68  71
ATOM     71  CG  ASP d   1      24.117  36.931  34.140  0.00  0.00     0.175 C 
ATOM     72  OD1 ASP d   1      24.000  38.104  34.550  0.00  0.00    -0.648 OA
ATOM     73  OD2 ASP d   1      24.835  36.078  34.707  0.00  0.00    -0.648 OA
ENDBRANCH  68  71
ENDBRANCH  25  68
ENDBRANCH  22  25
ENDBRANCH  19  21
BRANCH  19  74
ATOM     74  CB  LEU d   1      26.223  41.476  31.673  0.00  0.00    -0.035 C 
ATOM     75  H26 LEU d   1      27.205  41.920  31.454  0.00  0.00     0.037 H 
ATOM     76  H27 LEU d   1      25.896  41.786  32.676  0.00  0.00     0.037 H 
BRANCH  74  77
ATOM     77  CG  LEU d   1      25.221  42.025  30.659  0.00  0.00    -0.059 C 
ATOM     78  H28 LEU d   1      24.289  41.446  30.737  0.00  0.00     0.038 H 
BRANCH  77  79
ATOM     79  CD1 LEU d   1      24.917  43.470  30.962  0.00  0.00    -0.073 C 
ATOM     80  H29 LEU d   1      24.195  43.855  30.227  0.00  0.00     0.028 H 
ATOM     81  H30 LEU d   1      25.845  44.059  30.908  0.00  0.00     0.028 H 
ATOM     82  H31 LEU d   1      24.489  43.551  31.972  0.00  0.00     0.028 H 
ENDBRANCH  77  79
BRANCH  77  83
ATOM     83  CD2 LEU d   1      25.760  41.885  29.252  0.00  0.00    -0.073 C 
ATOM     84  H32 LEU d   1      25.977  40.826  29.046  0.00  0.00     0.028 H 
ATOM     85  H33 LEU d   1      26.683  42.474  29.153  0.00  0.00     0.028 H 
ATOM     86  H34 LEU d   1      25.012  42.252  28.534  0.00  0.00     0.028 H 
ENDBRANCH  77  83
ENDBRANCH  74  77
ENDBRANCH  19  74
ENDBRANCH  16  19
ENDBRANCH  13  15
BRANCH  13  87
ATOM     87  CB  SER d   1      27.305  38.440  36.206  0.00  0.00     0.044 C 
ATOM     88  H37 SER d   1      28.063  38.241  36.978  0.00  0.00     0.077 H 
ATOM     89  H38 SER d   1      26.610  37.589  36.147  0.00  0.00     0.077 H 
BRANCH  87  90
ATOM     90  OG  SER d   1      26.582  39.607  36.554  0.00  0.00    -0.398 OA
ATOM     91  H39 SER d   1      27.179  40.344  36.609  0.00  0.00     0.209 HD
ENDBRANCH  87  90
ENDBRANCH  13  87
ENDBRANCH  10  13
ENDBRANCH   7   9
BRANCH   7  92
ATOM     92  CB  THR d   1      27.757  33.933  34.020  0.00  0.00     0.060 C 
ATOM     93  H42 THR d   1      28.162  32.985  33.636  0.00  0.00     0.086 H 
BRANCH  92  94
ATOM     94  OG1 THR d   1      26.410  34.097  33.547  0.00  0.00    -0.393 OA
ATOM     95  H43 THR d   1      26.059  34.918  33.872  0.00  0.00     0.210 HD
ENDBRANCH  92  94
BRANCH  92  96
ATOM     96  CG2 THR d   1      27.776  33.904  35.537  0.00  0.00    -0.050 C 
ATOM     97  H44 THR d   1      27.154  33.070  35.896  0.00  0.00     0.031 H 
ATOM     98  H45 THR d   1      27.378  34.852  35.927  0.00  0.00     0.031 H 
ATOM     99  H46 THR d   1      28.809  33.768  35.888  0.00  0.00     0.031 H 
ENDBRANCH  92  96
ENDBRANCH   7  92
ENDBRANCH   4   7
ENDBRANCH   1   3
BRANCH   1 100
ATOM    100  C   C1J d   1      27.434  34.476  29.417  0.00  0.00     0.241 C 
ATOM    101  O   C1J d   1      27.806  33.909  28.340  0.00  0.00    -0.271 OA
ATOM    102  N   ARG d   1      26.466  34.022  30.203  0.00  0.00    -0.346 N 
ATOM    103  H76 ARG d   1      26.235  34.528  31.034  0.00  0.00     0.163 HD
BRANCH 102 104
ATOM    104  CA  ARG d   1      25.733  32.806  29.886  0.00  0.00     0.089 C 
ATOM    105  H77 ARG d   1      26.024  32.485  28.875  0.00  0.00     0.087 H 
BRANCH 104 106
ATOM    106  C   ARG d   1      24.231  33.043  29.898  0.00  0.00     0.241 C 
ATOM    107  O   ARG d   1      23.745  33.971  30.541  0.00  0.00    -0.271 OA
ATOM    108  N   LEU d   1      23.488  32.201  29.185  0.00  0.00    -0.346 N 
ATOM    109  H89 LEU d   1      23.930  31.491  28.638  0.00  0.00     0.163 HD
BRANCH 108 110
ATOM    110  CA  LEU d   1      22.036  32.305  29.195  0.00  0.00     0.089 C 
ATOM    111  H90 LEU d   1      21.757  33.360  29.058  0.00  0.00     0.087 H 
BRANCH 110 112
ATOM    112  C   LEU d   1      21.490  31.828  30.537  0.00  0.00     0.241 C 
ATOM    113  O   LEU d   1      21.901  30.784  31.051  0.00  0.00    -0.271 OA
ATOM    114  N   LYS d   1      20.573  32.598  31.111  0.00  0.00    -0.345 N 
ATOM    115 0H10 LYS d   1      20.215  33.391  30.618  0.00  0.00     0.163 HD
BRANCH 114 116
ATOM    116  CA  LYS d   1      20.081  32.302  32.451  0.00  0.00     0.096 C 
ATOM    117 1H10 LYS d   1      20.478  31.321  32.752  0.00  0.00     0.089 H 
BRANCH 116 118
ATOM    118  C   LYS d   1      18.560  32.230  32.491  0.00  0.00     0.196 C 
ATOM    119  O   LYS d   1      17.975  31.175  32.244  0.00  0.00    -0.646 OA
ATOM    120  OXT LYS d   1      17.892  33.226  32.771  0.00  0.00    -0.646 OA
ENDBRANCH 116 118
BRANCH 116 121
ATOM    121  CB  LYS d   1      20.584  33.353  33.444  0.00  0.00    -0.037 C 
ATOM    122 2H10 LYS d   1      20.005  34.276  33.291  0.00  0.00     0.036 H 
ATOM    123 3H10 LYS d   1      21.646  33.547  33.232  0.00  0.00     0.036 H 
BRANCH 121 124
ATOM    124  CG  LYS d   1      20.457  32.948  34.905  0.00  0.00    -0.061 C 
ATOM    125 4H10 LYS d   1      20.384  31.852  34.972  0.00  0.00     0.033 H 
ATOM    126 5H10 LYS d   1      19.550  33.403  35.330  0.00  0.00     0.033 H 
BRANCH 124 127
ATOM    127  CD  LYS d   1      21.672  33.420  35.694  0.00  0.00    -0.043 C 
ATOM    128 6H10 LYS d   1      21.811  34.497  35.517  0.00  0.00     0.035 H 
ATOM    129 7H10 LYS d   1      22.558  32.873  35.339  0.00  0.00     0.035 H 
BRANCH 127 130
ATOM    130  CE  LYS d   1      21.521  33.186  37.190  0.00  0.00     0.080 C 
ATOM    131 8H10 LYS d   1      22.522  33.118  37.642  0.00  0.00     0.075 H 
ATOM    132 9H10 LYS d   1      20.982  32.240  37.349  0.00  0.00     0.075 H 
BRANCH 130 133
ATOM    133  NZ  LYS d   1      20.767  34.287  37.853  0.00  0.00    -0.079 N 
ATOM    134 0H11 LYS d   1      20.689  34.094  38.839  0.00  0.00     0.274 HD
ATOM    135 1H11 LYS d   1      19.846  34.353  37.450  0.00  0.00     0.274 HD
ATOM    136 2H11 LYS d   1      21.256  35.158  37.718  0.00  0.00     0.274 HD
ENDBRANCH 130 133
ENDBRANCH 127 130
ENDBRANCH 124 127
ENDBRANCH 121 124
ENDBRANCH 116 121
ENDBRANCH 114 116
ENDBRANCH 110 112
BRANCH 110 137
ATOM    137  CB  LEU d   1      21.442  31.494  28.046  0.00  0.00    -0.035 C 
ATOM    138  H91 LEU d   1      20.347  31.589  28.089  0.00  0.00     0.037 H 
ATOM    139  H92 LEU d   1      21.725  30.440  28.188  0.00  0.00     0.037 H 
BRANCH 137 140
ATOM    140  CG  LEU d   1      21.904  31.929  26.655  0.00  0.00    -0.059 C 
ATOM    141  H93 LEU d   1      23.000  31.841  26.613  0.00  0.00     0.038 H 
BRANCH 140 142
ATOM    142  CD1 LEU d   1      21.314  31.023  25.586  0.00  0.00    -0.073 C 
ATOM    143  H94 LEU d   1      21.658  31.353  24.595  0.00  0.00     0.028 H 
ATOM    144  H95 LEU d   1      20.216  31.073  25.628  0.00  0.00     0.028 H 
ATOM    145  H96 LEU d   1      21.641  29.988  25.762  0.00  0.00     0.028 H 
ENDBRANCH 140 142
BRANCH 140 146
ATOM    146  CD2 LEU d   1      21.534  33.385  26.402  0.00  0.00    -0.073 C 
ATOM    147  H97 LEU d   1      21.973  34.017  27.188  0.00  0.00     0.028 H 
ATOM    148  H98 LEU d   1      20.439  33.492  26.414  0.00  0.00     0.028 H 
ATOM    149  H99 LEU d   1      21.923  33.697  25.422  0.00  0.00     0.028 H 
ENDBRANCH 140 146
ENDBRANCH 137 140
ENDBRANCH 110 137
ENDBRANCH 108 110
ENDBRANCH 104 106
BRANCH 104 150
ATOM    150  CB  ARG d   1      26.088  31.690  30.870  0.00  0.00    -0.036 C 
ATOM    151  H78 ARG d   1      25.434  30.829  30.667  0.00  0.00     0.036 H 
ATOM    152  H79 ARG d   1      25.905  32.057  31.891  0.00  0.00     0.036 H 
BRANCH 150 153
ATOM    153  CG  ARG d   1      27.530  31.226  30.781  0.00  0.00    -0.048 C 
ATOM    154  H80 ARG d   1      27.726  30.513  31.595  0.00  0.00     0.035 H 
ATOM    155  H81 ARG d   1      28.193  32.097  30.889  0.00  0.00     0.035 H 
BRANCH 153 156
ATOM    156  CD  ARG d   1      27.820  30.548  29.450  0.00  0.00     0.009 C 
ATOM    157  H82 ARG d   1      28.839  30.135  29.476  0.00  0.00     0.064 H 
ATOM    158  H83 ARG d   1      27.748  31.296  28.647  0.00  0.00     0.064 H 
BRANCH 156 159
ATOM    159  NE  ARG d   1      26.879  29.466  29.173  0.00  0.00    -0.227 N 
ATOM    160  CZ  ARG d   1      26.945  28.257  29.722  0.00  0.00     0.665 C 
ATOM    161  NH1 ARG d   1      27.906  27.969  30.590  0.00  0.00    -0.235 N 
ATOM    162  NH2 ARG d   1      26.046  27.335  29.407  0.00  0.00    -0.235 N 
ATOM    163  H85 ARG d   1      27.954  27.031  31.013  0.00  0.00     0.174 HD
ATOM    164  H86 ARG d   1      28.605  28.683  30.841  0.00  0.00     0.174 HD
ATOM    165  H87 ARG d   1      25.298  27.554  28.734  0.00  0.00     0.174 HD
ATOM    166  H88 ARG d   1      26.096  26.400  29.836  0.00  0.00     0.174 HD
ATOM    167  H84 ARG d   1      26.114  29.652  28.509  0.00  0.00     0.177 HD
ENDBRANCH 156 159
ENDBRANCH 153 156
ENDBRANCH 150 153
ENDBRANCH 104 150
ENDBRANCH 102 104
ENDBRANCH   1 100
BRANCH   1 168
ATOM    168  CB  C1J d   1      29.545  35.751  29.189  0.00  0.00    -0.036 C 
ATOM    169  H49 C1J d   1      29.452  35.597  28.104  0.00  0.00     0.036 H 
ATOM    170  H50 C1J d   1      30.165  34.952  29.620  0.00  0.00     0.036 H 
BRANCH 168 171
ATOM    171  CG  C1J d   1      30.195  37.099  29.457  0.00  0.00    -0.048 C 
ATOM    172  H51 C1J d   1      30.741  37.060  30.411  0.00  0.00     0.035 H 
ATOM    173  H52 C1J d   1      29.419  37.876  29.510  0.00  0.00     0.035 H 
BRANCH 171 174
ATOM    174  CD  C1J d   1      31.148  37.422  28.351  0.00  0.00     0.009 C 
ATOM    175  H53 C1J d   1      30.579  37.664  27.441  0.00  0.00     0.064 H 
ATOM    176  H54 C1J d   1      31.792  36.551  28.161  0.00  0.00     0.064 H 
BRANCH 174 177
ATOM    177  NE  C1J d   1      31.983  38.569  28.718  0.00  0.00    -0.227 N 
ATOM    178  CZ  C1J d   1      33.122  38.844  27.976  0.00  0.00     0.667 C 
ATOM    179  NH1 C1J d   1      33.511  38.072  26.893  0.00  0.00    -0.235 N 
ATOM    180  NH2 C1J d   1      33.976  39.889  28.239  0.00  0.00    -0.227 N 
ATOM    181  H56 C1J d   1      34.365  38.312  26.369  0.00  0.00     0.174 HD
ATOM    182  H57 C1J d   1      32.946  37.258  26.611  0.00  0.00     0.174 HD
ATOM    183  H58 C1J d   1      34.814  40.036  27.658  0.00  0.00     0.177 HD
ATOM    184  H55 C1J d   1      31.727  39.164  29.518  0.00  0.00     0.177 HD
BRANCH 180 185
ATOM    185  C02 C1J d   1      33.679  40.795  29.361  0.00  0.00     0.009 C 
ATOM    186  H61 C1J d   1      32.641  40.641  29.691  0.00  0.00     0.064 H 
ATOM    187  H62 C1J d   1      33.809  41.837  29.034  0.00  0.00     0.064 H 
BRANCH 185 188
ATOM    188  C01 C1J d   1      34.615  40.508  30.503  0.00  0.00    -0.050 C 
ATOM    189  H59 C1J d   1      34.525  39.449  30.788  0.00  0.00     0.035 H 
ATOM    190  H60 C1J d   1      34.346  41.143  31.360  0.00  0.00     0.035 H 
BRANCH 188 191
ATOM    191  C03 C1J d   1      36.041  40.794  30.102  0.00  0.00    -0.064 C 
ATOM    192  H63 C1J d   1      36.140  41.862  29.858  0.00  0.00     0.033 H 
ATOM    193  H64 C1J d   1      36.295  40.191  29.218  0.00  0.00     0.033 H 
BRANCH 191 194
ATOM    194  C04 C1J d   1      37.015  40.445  31.251  0.00  0.00    -0.065 C 
ATOM    195  H65 C1J d   1      37.813  41.201  31.288  0.00  0.00     0.033 H 
ATOM    196  H66 C1J d   1      37.456  39.455  31.061  0.00  0.00     0.033 H 
BRANCH 194 197
ATOM    197  C05 C1J d   1      36.280  40.419  32.610  0.00  0.00    -0.065 C 
ATOM    198  H67 C1J d   1      35.231  40.716  32.464  0.00  0.00     0.033 H 
ATOM    199  H68 C1J d   1      36.767  41.121  33.303  0.00  0.00     0.033 H 
BRANCH 197 200
ATOM    200  C06 C1J d   1      36.331  39.040  33.184  0.00  0.00    -0.065 C 
ATOM    201  H69 C1J d   1      37.196  38.951  33.858  0.00  0.00     0.033 H 
ATOM    202  H70 C1J d   1      36.422  38.304  32.372  0.00  0.00     0.033 H 
BRANCH 200 203
ATOM    203  C07 C1J d   1      35.040  38.786  33.966  0.00  0.00    -0.069 C 
ATOM    204  H71 C1J d   1      34.179  38.859  33.286  0.00  0.00     0.032 H 
ATOM    205  H72 C1J d   1      34.941  39.536  34.764  0.00  0.00     0.032 H 
BRANCH 203 206
ATOM    206  C08 C1J d   1      35.084  37.407  34.575  0.00  0.00    -0.077 C 
ATOM    207  H73 C1J d   1      34.156  37.225  35.137  0.00  0.00     0.027 H 
ATOM    208  H74 C1J d   1      35.945  37.334  35.255  0.00  0.00     0.027 H 
ATOM    209  H75 C1J d   1      35.183  36.657  33.777  0.00  0.00     0.027 H 
ENDBRANCH 203 206
ENDBRANCH 200 203
ENDBRANCH 197 200
ENDBRANCH 194 197
ENDBRANCH 191 194
ENDBRANCH 188 191
ENDBRANCH 185 188
ENDBRANCH 180 185
ENDBRANCH 174 177
ENDBRANCH 171 174
ENDBRANCH 168 171
ENDBRANCH   1 168
TORSDOF 61
