REMARK  3 active torsions:
REMARK  status: ('A' for Active; 'I' for Inactive)
REMARK    1  A    between atoms: C_8  and  C2_11 
REMARK    2  A    between atoms: C_8  and  O1_13 
REMARK    3  A    between atoms: O1_13  and  C1_10 
ROOT
ATOM      1  C4  C2Y d   1      20.762 -32.158  -9.323  0.00  0.00     0.043 A 
ATOM      2  C5  C2Y d   1      20.159 -30.925  -9.643  0.00  0.00     0.008 A 
ATOM      3  C6  C2Y d   1      20.225 -30.469 -10.956  0.00  0.00    -0.070 A 
ATOM      4  C7  C2Y d   1      20.896 -31.220 -11.914  0.00  0.00    -0.082 A 
ATOM      5  C8  C2Y d   1      21.500 -32.423 -11.576  0.00  0.00    -0.081 A 
ATOM      6  C9  C2Y d   1      21.435 -32.909 -10.282  0.00  0.00    -0.056 A 
ATOM      7  N   C2Y d   1      20.563 -32.402  -7.984  0.00  0.00    -0.364 N 
ATOM      8  C2  C2Y d   1      19.593 -30.415  -8.401  0.00  0.00     0.067 A 
ATOM      9  C3  C2Y d   1      19.861 -31.357  -7.441  0.00  0.00    -0.006 A 
ATOM     10  H1  C2Y d   1      19.755 -29.532 -11.231  0.00  0.00     0.084 H 
ATOM     11  H2  C2Y d   1      20.948 -30.862 -12.936  0.00  0.00     0.083 H 
ATOM     12  H3  C2Y d   1      22.029 -32.989 -12.335  0.00  0.00     0.083 H 
ATOM     13  H4  C2Y d   1      21.898 -33.854 -10.021  0.00  0.00     0.086 H 
ATOM     14  H5  C2Y d   1      20.889 -33.235  -7.472  0.00  0.00     0.165 HD
ATOM     15  H9  C2Y d   1      19.559 -31.285  -6.397  0.00  0.00     0.112 H 
ENDROOT
BRANCH   8  16
ATOM     16  C   C2Y d   1      18.959 -29.098  -8.153  0.00  0.00     0.295 C 
ATOM     17  O   C2Y d   1      18.629 -28.696  -7.068  0.00  0.00    -0.259 OA
BRANCH  16  18
ATOM     18  O1  C2Y d   1      18.824 -28.389  -9.268  0.00  0.00    -0.322 OA
BRANCH  18  19
ATOM     19  C1  C2Y d   1      18.295 -27.047  -9.107  0.00  0.00     0.013 C 
ATOM     20  H6  C2Y d   1      18.228 -26.559 -10.091  0.00  0.00     0.067 H 
ATOM     21  H7  C2Y d   1      18.962 -26.466  -8.454  0.00  0.00     0.067 H 
ATOM     22  H8  C2Y d   1      17.294 -27.099  -8.655  0.00  0.00     0.067 H 
ENDBRANCH  18  19
ENDBRANCH  16  18
ENDBRANCH   8  16
TORSDOF 3
