REMARK  6 active torsions:
REMARK  status: ('A' for Active; 'I' for Inactive)
REMARK    1  A    between atoms: C5_2  and  C3_10 
REMARK    2  A    between atoms: N15_28  and  C12_7 
REMARK       I    between atoms: C3_10  and  N2_9 
REMARK    3  A    between atoms: N2_9  and  C1_11 
REMARK    4  A    between atoms: C22_18  and  C31_25 
REMARK    5  A    between atoms: C23_19  and  C25_21 
REMARK    6  A    between atoms: N28_30  and  C30_24 
ROOT
ATOM      1  C16 C3J d   1      16.492   0.720  23.034  0.00  0.00     0.001 C 
ATOM      2  C17 C3J d   1      17.722  -0.051  23.482  0.00  0.00    -0.046 C 
ATOM      3  C18 C3J d   1      18.283  -0.852  22.304  0.00  0.00    -0.037 C 
ATOM      4  C19 C3J d   1      18.299  -0.083  21.001  0.00  0.00    -0.030 A 
ATOM      5  C20 C3J d   1      17.552   1.066  20.820  0.00  0.00     0.042 A 
ATOM      6  C21 C3J d   1      17.575   1.722  19.620  0.00  0.00    -0.044 A 
ATOM      7  C22 C3J d   1      18.349   1.253  18.549  0.00  0.00     0.019 A 
ATOM      8  C23 C3J d   1      19.134   0.080  18.716  0.00  0.00    -0.011 A 
ATOM      9  C24 C3J d   1      19.087  -0.578  19.948  0.00  0.00    -0.063 A 
ATOM     10  N15 C3J d   1      16.743   1.581  21.853  0.00  0.00    -0.346 N 
ATOM     11  H9  C3J d   1      16.155   1.356  23.866  0.00  0.00     0.065 H 
ATOM     12  H10 C3J d   1      15.700  -0.001  22.780  0.00  0.00     0.065 H 
ATOM     13  H11 C3J d   1      17.447  -0.739  24.295  0.00  0.00     0.035 H 
ATOM     14  H12 C3J d   1      18.485   0.654  23.842  0.00  0.00     0.035 H 
ATOM     15  H13 C3J d   1      17.665  -1.752  22.169  0.00  0.00     0.040 H 
ATOM     16  H14 C3J d   1      19.314  -1.149  22.545  0.00  0.00     0.040 H 
ATOM     17  H15 C3J d   1      16.983   2.622  19.495  0.00  0.00     0.088 H 
ATOM     18  H16 C3J d   1      19.666  -1.483  20.093  0.00  0.00     0.085 H 
ENDROOT
BRANCH  10  19
ATOM     19  C12 C3J d   1      15.957   2.737  21.646  0.00  0.00     0.035 A 
ATOM     20  C11 C3J d   1      14.579   2.555  21.537  0.00  0.00    -0.044 A 
ATOM     21  C10 C3J d   1      13.814   3.673  21.330  0.00  0.00     0.010 A 
ATOM     22  H3  C3J d   1      14.132   1.571  21.613  0.00  0.00     0.088 H 
ATOM     23  C5  C3J d   1      12.368   3.932  21.145  0.00  0.00     0.059 A 
ATOM     24  C9  C3J d   1      14.430   4.946  21.261  0.00  0.00     0.043 A 
ATOM     25  C6  C3J d   1      12.235   5.290  20.965  0.00  0.00    -0.006 A 
ATOM     26  N7  C3J d   1      13.461   5.879  21.032  0.00  0.00    -0.364 N 
ATOM     27  H2  C3J d   1      11.295   5.813  20.795  0.00  0.00     0.112 H 
ATOM     28  H23 C3J d   1      13.633   6.889  20.925  0.00  0.00     0.165 HD
ATOM     29  C14 C3J d   1      15.818   5.132  21.392  0.00  0.00    -0.054 A 
ATOM     30  C13 C3J d   1      16.554   3.995  21.555  0.00  0.00    -0.055 A 
ATOM     31  H1  C3J d   1      16.273   6.115  21.365  0.00  0.00     0.087 H 
ATOM     32  H4  C3J d   1      17.634   4.071  21.616  0.00  0.00     0.087 H 
BRANCH  23  33
ATOM     33  C3  C3J d   1      11.239   3.049  21.022  0.00  0.00     0.253 C 
ATOM     34  N2  C3J d   1      11.437   1.718  21.032  0.00  0.00    -0.361 N 
ATOM     35  H5  C3J d   1      12.360   1.370  21.194  0.00  0.00     0.162 HD
ATOM     36  O4  C3J d   1      10.123   3.521  20.730  0.00  0.00    -0.268 OA
BRANCH  34  37
ATOM     37  C1  C3J d   1      10.354   0.763  20.815  0.00  0.00    -0.018 C 
ATOM     38  H6  C3J d   1      10.752  -0.261  20.868  0.00  0.00     0.056 H 
ATOM     39  H7  C3J d   1       9.909   0.933  19.824  0.00  0.00     0.056 H 
ATOM     40  H8  C3J d   1       9.585   0.898  21.590  0.00  0.00     0.056 H 
ENDBRANCH  34  37
ENDBRANCH  23  33
ENDBRANCH  10  19
BRANCH   7  41
ATOM     41  C31 C3J d   1      18.359   2.039  17.255  0.00  0.00     0.234 C 
ATOM     42  F32 C3J d   1      17.453   1.516  16.346  0.00  0.00    -0.209 F 
ATOM     43  F33 C3J d   1      18.036   3.350  17.499  0.00  0.00    -0.209 F 
ATOM     44  H22 C3J d   1      19.369   1.991  16.821  0.00  0.00     0.153 H 
ENDBRANCH   7  41
BRANCH   8  45
ATOM     45  C25 C3J d   1      19.977  -0.491  17.630  0.00  0.00     0.011 A 
ATOM     46  C26 C3J d   1      19.583  -0.626  16.278  0.00  0.00     0.034 A 
ATOM     47  N27 C3J d   1      20.584  -1.145  15.572  0.00  0.00    -0.185 NA
ATOM     48  H17 C3J d   1      18.610  -0.348  15.877  0.00  0.00     0.118 H 
ATOM     49  N28 C3J d   1      21.634  -1.414  16.410  0.00  0.00    -0.285 N 
ATOM     50  C29 C3J d   1      21.272  -0.997  17.676  0.00  0.00     0.010 A 
ATOM     51  H18 C3J d   1      21.898  -1.055  18.565  0.00  0.00     0.115 H 
BRANCH  49  52
ATOM     52  C30 C3J d   1      22.870  -2.029  15.916  0.00  0.00     0.002 C 
ATOM     53  H19 C3J d   1      22.779  -2.219  14.836  0.00  0.00     0.059 H 
ATOM     54  H20 C3J d   1      23.043  -2.979  16.442  0.00  0.00     0.059 H 
ATOM     55  H21 C3J d   1      23.716  -1.350  16.098  0.00  0.00     0.059 H 
ENDBRANCH  49  52
ENDBRANCH   8  45
TORSDOF 6
