REMARK  5 active torsions:
REMARK  status: ('A' for Active; 'I' for Inactive)
REMARK    1  A    between atoms: C7_4  and  C4_1 
REMARK    2  A    between atoms: C12_8  and  C13_9 
REMARK    3  A    between atoms: N2_10  and  C1_12 
REMARK    4  A    between atoms: C20_16  and  N16_26 
REMARK    5  A    between atoms: N26_27  and  C30_23 
ROOT
ATOM      1  C11 C3V d   1       0.359   3.339  -1.793  0.00  0.00    -0.044 A 
ATOM      2  C7  C3V d   1      -1.247   4.354  -0.276  0.00  0.00    -0.011 A 
ATOM      3  C8  C3V d   1      -1.268   3.165   0.473  0.00  0.00    -0.063 A 
ATOM      4  C9  C3V d   1      -0.483   2.067   0.085  0.00  0.00    -0.030 A 
ATOM      5  C10 C3V d   1       0.300   2.152  -1.069  0.00  0.00     0.042 A 
ATOM      6  C12 C3V d   1      -0.425   4.431  -1.428  0.00  0.00     0.019 A 
ATOM      7  C17 C3V d   1       1.227  -0.112  -0.543  0.00  0.00     0.001 C 
ATOM      8  C18 C3V d   1      -0.103  -0.451   0.126  0.00  0.00    -0.046 C 
ATOM      9  C19 C3V d   1      -0.568   0.787   0.916  0.00  0.00    -0.037 C 
ATOM     10  N16 C3V d   1       1.117   1.054  -1.417  0.00  0.00    -0.346 N 
ATOM     11  H2  C3V d   1       1.021   3.414  -2.648  0.00  0.00     0.088 H 
ATOM     12  H3  C3V d   1      -1.894   3.095   1.355  0.00  0.00     0.085 H 
ATOM     13  H9  C3V d   1       1.554  -0.975  -1.141  0.00  0.00     0.065 H 
ATOM     14  H10 C3V d   1       1.974   0.098   0.237  0.00  0.00     0.065 H 
ATOM     15  H11 C3V d   1       0.029  -1.302   0.810  0.00  0.00     0.035 H 
ATOM     16  H12 C3V d   1      -0.851  -0.708  -0.639  0.00  0.00     0.035 H 
ATOM     17  H13 C3V d   1      -1.612   0.636   1.229  0.00  0.00     0.040 H 
ATOM     18  H14 C3V d   1       0.069   0.899   1.806  0.00  0.00     0.040 H 
ENDROOT
BRANCH  10  19
ATOM     19  C20 C3V d   1       2.088   1.178  -2.438  0.00  0.00     0.037 A 
ATOM     20  C21 C3V d   1       1.718   1.206  -3.792  0.00  0.00    -0.056 A 
ATOM     21  C22 C3V d   1       2.685   1.386  -4.765  0.00  0.00    -0.062 A 
ATOM     22  H15 C3V d   1       0.678   1.087  -4.074  0.00  0.00     0.087 H 
ATOM     23  C23 C3V d   1       4.018   1.480  -4.366  0.00  0.00     0.037 A 
ATOM     24  H16 C3V d   1       2.413   1.452  -5.812  0.00  0.00     0.085 H 
ATOM     25  C24 C3V d   1       4.422   1.440  -3.023  0.00  0.00     0.057 A 
ATOM     26  S29 C3V d   1       5.452   1.699  -5.336  0.00  0.00    -0.027 SA
ATOM     27  C25 C3V d   1       3.425   1.322  -2.039  0.00  0.00    -0.030 A 
ATOM     28  N26 C3V d   1       5.790   1.642  -2.844  0.00  0.00    -0.311 N 
ATOM     29  H17 C3V d   1       3.686   1.342  -0.987  0.00  0.00     0.090 H 
ATOM     30  C27 C3V d   1       6.543   1.840  -3.933  0.00  0.00     0.291 A 
ATOM     31  O28 C3V d   1       7.727   2.078  -3.984  0.00  0.00    -0.259 OA
BRANCH  28  32
ATOM     32  C30 C3V d   1       6.418   1.745  -1.496  0.00  0.00    -0.010 C 
ATOM     33  H18 C3V d   1       5.659   1.554  -0.723  0.00  0.00     0.057 H 
ATOM     34  H19 C3V d   1       6.833   2.755  -1.361  0.00  0.00     0.057 H 
ATOM     35  H20 C3V d   1       7.224   1.002  -1.409  0.00  0.00     0.057 H 
ENDBRANCH  28  32
ENDBRANCH  10  19
BRANCH   6  36
ATOM     36  C13 C3V d   1      -0.354   5.670  -2.263  0.00  0.00     0.234 C 
ATOM     37  F14 C3V d   1       0.056   5.312  -3.543  0.00  0.00    -0.209 F 
ATOM     38  F15 C3V d   1       0.602   6.561  -1.800  0.00  0.00    -0.209 F 
ATOM     39  H4  C3V d   1      -1.341   6.154  -2.288  0.00  0.00     0.153 H 
ENDBRANCH   6  36
BRANCH   2  40
ATOM     40  C4  C3V d   1      -2.073   5.512   0.189  0.00  0.00     0.011 A 
ATOM     41  C5  C3V d   1      -1.726   6.893   0.185  0.00  0.00     0.034 A 
ATOM     42  N6  C3V d   1      -2.685   7.616   0.690  0.00  0.00    -0.185 NA
ATOM     43  H1  C3V d   1      -0.785   7.292  -0.190  0.00  0.00     0.118 H 
ATOM     44  N2  C3V d   1      -3.675   6.716   1.103  0.00  0.00    -0.285 N 
ATOM     45  C3  C3V d   1      -3.301   5.443   0.786  0.00  0.00     0.010 A 
ATOM     46  H5  C3V d   1      -3.876   4.537   0.974  0.00  0.00     0.115 H 
BRANCH  44  47
ATOM     47  C1  C3V d   1      -4.948   7.096   1.735  0.00  0.00     0.002 C 
ATOM     48  H6  C3V d   1      -4.978   8.187   1.872  0.00  0.00     0.059 H 
ATOM     49  H7  C3V d   1      -5.034   6.601   2.713  0.00  0.00     0.059 H 
ATOM     50  H8  C3V d   1      -5.784   6.784   1.092  0.00  0.00     0.059 H 
ENDBRANCH  44  47
ENDBRANCH   2  40
TORSDOF 5
