REMARK  4 active torsions:
REMARK  status: ('A' for Active; 'I' for Inactive)
REMARK    1  A    between atoms: C1_1  and  O1_10 
REMARK    2  A    between atoms: C7_7  and  C4_4 
REMARK    3  A    between atoms: C11_9  and  N1_13 
REMARK       I    between atoms: N1_13  and  C12_14 
REMARK    4  A    between atoms: C12_14  and  C13_16 
ROOT
ATOM      1  C7  C2J d   1     -18.535 -36.223  -1.654  0.00  0.00    -0.024 A 
ATOM      2  C8  C2J d   1     -18.596 -36.056  -0.248  0.00  0.00    -0.071 A 
ATOM      3  C11 C2J d   1     -21.252 -38.803   0.413  0.00  0.00     0.137 A 
ATOM      4  C9  C2J d   1     -19.463 -36.833   0.530  0.00  0.00    -0.066 A 
ATOM      5  C10 C2J d   1     -20.273 -37.825  -0.065  0.00  0.00     0.040 A 
ATOM      6  N2  C2J d   1     -21.681 -39.467  -0.660  0.00  0.00    -0.261 N 
ATOM      7  N3  C2J d   1     -21.088 -39.025  -1.747  0.00  0.00    -0.172 NA
ATOM      8  C16 C2J d   1     -20.217 -38.018  -1.454  0.00  0.00     0.091 A 
ATOM      9  C17 C2J d   1     -19.348 -37.215  -2.245  0.00  0.00    -0.042 A 
ATOM     10  H5  C2J d   1     -17.963 -35.318   0.231  0.00  0.00     0.084 H 
ATOM     11  H7  C2J d   1     -19.513 -36.671   1.601  0.00  0.00     0.085 H 
ATOM     12  H12 C2J d   1     -22.381 -40.222  -0.640  0.00  0.00     0.191 HD
ATOM     13  H13 C2J d   1     -19.310 -37.367  -3.318  0.00  0.00     0.088 H 
ENDROOT
BRANCH   1  14
ATOM     14  C4  C2J d   1     -17.569 -35.393  -2.452  0.00  0.00    -0.026 A 
ATOM     15  C3  C2J d   1     -16.897 -35.994  -3.533  0.00  0.00    -0.070 A 
ATOM     16  C2  C2J d   1     -15.981 -35.274  -4.296  0.00  0.00    -0.050 A 
ATOM     17  H2  C2J d   1     -17.095 -37.032  -3.775  0.00  0.00     0.085 H 
ATOM     18  C1  C2J d   1     -15.692 -33.957  -3.967  0.00  0.00     0.065 A 
ATOM     19  H1  C2J d   1     -15.495 -35.741  -5.145  0.00  0.00     0.087 H 
ATOM     20  C6  C2J d   1     -16.330 -33.364  -2.869  0.00  0.00    -0.050 A 
ATOM     21  C5  C2J d   1     -17.264 -34.074  -2.112  0.00  0.00    -0.070 A 
ATOM     22  H4  C2J d   1     -16.095 -32.340  -2.604  0.00  0.00     0.087 H 
ATOM     23  H3  C2J d   1     -17.750 -33.603  -1.265  0.00  0.00     0.085 H 
BRANCH  18  24
ATOM     24  O1  C2J d   1     -14.766 -33.272  -4.719  0.00  0.00    -0.361 OA
ATOM     25  H6  C2J d   1     -15.174 -32.501  -5.096  0.00  0.00     0.217 HD
ENDBRANCH  18  24
ENDBRANCH   1  14
BRANCH   3  26
ATOM     26  N1  C2J d   1     -21.663 -39.022   1.779  0.00  0.00    -0.307 N 
ATOM     27  C12 C2J d   1     -20.680 -39.065   2.831  0.00  0.00     0.253 C 
ATOM     28  O2  C2J d   1     -19.495 -38.926   2.612  0.00  0.00    -0.268 OA
ATOM     29  H8  C2J d   1     -22.632 -39.144   1.996  0.00  0.00     0.170 HD
BRANCH  27  30
ATOM     30  C13 C2J d   1     -20.985 -39.304   4.257  0.00  0.00     0.010 A 
ATOM     31  C14 C2J d   1     -20.926 -38.895   5.580  0.00  0.00    -0.087 A 
ATOM     32  C15 C2J d   1     -21.314 -40.202   5.234  0.00  0.00    -0.020 A 
ATOM     33  H9  C2J d   1     -20.727 -38.130   6.330  0.00  0.00     0.078 H 
ATOM     34  H10 C2J d   1     -20.647 -41.049   5.450  0.00  0.00     0.046 H 
ATOM     35  H11 C2J d   1     -22.360 -40.517   5.362  0.00  0.00     0.046 H 
ENDBRANCH  27  30
ENDBRANCH   3  26
TORSDOF 4
