REMARK  7 active torsions:
REMARK  status: ('A' for Active; 'I' for Inactive)
REMARK    1  A    between atoms: C07_7  and  C10_1 
REMARK    2  A    between atoms: C17_3  and  N20_13 
REMARK    3  A    between atoms: C02_4  and  O01_14 
REMARK    4  A    between atoms: C03_5  and  O04_15 
REMARK    5  A    between atoms: O13_20  and  C05_6 
REMARK    6  A    between atoms: C08_8  and  O09_17 
REMARK    7  A    between atoms: C14_9  and  O13_20 
ROOT
ATOM      1  C02 C3G d   1      20.072  15.863  17.889  0.00  0.00     0.092 C 
ATOM      2  C03 C3G d   1      20.217  15.262  16.446  0.00  0.00     0.110 C 
ATOM      3  C05 C3G d   1      21.332  16.022  15.619  0.00  0.00     0.165 C 
ATOM      4  C07 C3G d   1      22.466  16.745  17.639  0.00  0.00     0.152 C 
ATOM      5  C08 C3G d   1      21.479  15.998  18.597  0.00  0.00     0.097 C 
ATOM      6  O06 C3G d   1      22.508  16.084  16.357  0.00  0.00    -0.340 OA
ATOM      7  H2  C3G d   1      19.612  16.860  17.816  0.00  0.00     0.091 H 
ATOM      8  H3  C3G d   1      20.452  14.190  16.519  0.00  0.00     0.094 H 
ATOM      9  H4  C3G d   1      20.984  17.050  15.438  0.00  0.00     0.134 H 
ATOM     10  H5  C3G d   1      22.115  17.776  17.486  0.00  0.00     0.104 H 
ATOM     11  H6  C3G d   1      21.879  15.002  18.837  0.00  0.00     0.091 H 
ENDROOT
BRANCH   3  12
ATOM     12  O13 C3G d   1      21.562  15.386  14.316  0.00  0.00    -0.318 OA
BRANCH  12  13
ATOM     13  C14 C3G d   1      22.224  16.059  13.313  0.00  0.00     0.072 A 
ATOM     14  C15 C3G d   1      23.601  16.385  13.396  0.00  0.00    -0.048 A 
ATOM     15  C16 C3G d   1      24.273  17.066  12.375  0.00  0.00    -0.048 A 
ATOM     16  H1  C3G d   1      24.154  16.096  14.283  0.00  0.00     0.087 H 
ATOM     17  C17 C3G d   1      23.571  17.453  11.217  0.00  0.00     0.103 A 
ATOM     18  H7  C3G d   1      25.328  17.294  12.475  0.00  0.00     0.087 H 
ATOM     19  C18 C3G d   1      22.204  17.152  11.092  0.00  0.00    -0.048 A 
ATOM     20  C19 C3G d   1      21.542  16.469  12.123  0.00  0.00    -0.048 A 
ATOM     21  H8  C3G d   1      21.662  17.447  10.201  0.00  0.00     0.087 H 
ATOM     22  H9  C3G d   1      20.487  16.246  12.016  0.00  0.00     0.087 H 
BRANCH  17  23
ATOM     23  N20 C3G d   1      24.247  18.178  10.096  0.00  0.00    -0.116 N 
ATOM     24  O21 C3G d   1      23.663  18.547   9.113  0.00  0.00    -0.532 OA
ATOM     25  O22 C3G d   1      25.450  18.371  10.232  0.00  0.00    -0.532 OA
ENDBRANCH  17  23
ENDBRANCH  12  13
ENDBRANCH   3  12
BRANCH   2  26
ATOM     26  O04 C3G d   1      19.035  15.465  15.707  0.00  0.00    -0.388 OA
ATOM     27  H11 C3G d   1      18.858  16.396  15.644  0.00  0.00     0.210 HD
ENDBRANCH   2  26
BRANCH   1  28
ATOM     28  O01 C3G d   1      19.245  15.023  18.660  0.00  0.00    -0.390 OA
ATOM     29  H10 C3G d   1      18.398  14.940  18.237  0.00  0.00     0.210 HD
ENDBRANCH   1  28
BRANCH   4  30
ATOM     30  C10 C3G d   1      23.946  16.787  18.378  0.00  0.00     0.206 C 
ATOM     31  O11 C3G d   1      24.895  16.509  17.625  0.00  0.00    -0.646 OA
ATOM     32  O12 C3G d   1      23.979  17.080  19.574  0.00  0.00    -0.646 OA
ENDBRANCH   4  30
BRANCH   5  33
ATOM     33  O09 C3G d   1      21.297  16.737  19.777  0.00  0.00    -0.390 OA
ATOM     34  H12 C3G d   1      22.134  16.845  20.214  0.00  0.00     0.210 HD
ENDBRANCH   5  33
TORSDOF 7
