REMARK WARNING: 32 MAX_TORS EXCEEDED!!!
REMARK  37 active torsions:
REMARK  status: ('A' for Active; 'I' for Inactive)
REMARK    1  A    between atoms: CA_2  and  CB_5 
REMARK    2  A    between atoms: CB_5  and  CG_6 
REMARK    3  A    between atoms: CG_6  and  CD_7 
REMARK       I    between atoms: CD_7  and  NE2_9 
REMARK    4  A    between atoms: CA_11  and  CB_14 
REMARK    5  A    between atoms: CB_14  and  CG_15 
REMARK    6  A    between atoms: CA_22  and  CB_25 
REMARK    7  A    between atoms: CB_25  and  CG_26 
REMARK    8  A    between atoms: CA_30  and  CB_33 
REMARK    9  A    between atoms: CB_33  and  CG_34 
REMARK   10  A    between atoms: CG_34  and  CD1_35 
REMARK   11  A    between atoms: CG_34  and  CD2_36 
REMARK   12  A    between atoms: CA_38  and  CB_41 
REMARK   13  A    between atoms: CB_41  and  OG_42 
REMARK   14  A    between atoms: CA_44  and  CB_47 
REMARK   15  A    between atoms: CB_47  and  OG1_48 
REMARK   16  A    between atoms: CB_47  and  CG2_49 
REMARK   17  A    between atoms: CA_51  and  CB_54 
REMARK   18  A    between atoms: CB_54  and  CG_55 
REMARK   19  A    between atoms: CG_55  and  CD_56 
REMARK   20  A    between atoms: CD_56  and  NE_57 
REMARK       I    between atoms: NE_57  and  CZ_58 
REMARK       I    between atoms: CZ_58  and  NH1_59 
REMARK       I    between atoms: CZ_58  and  NH2_60 
REMARK   21  A    between atoms: NH2_60  and  C02_62 
REMARK   22  A    between atoms: C02_62  and  C01_61 
REMARK   23  A    between atoms: C01_61  and  C03_63 
REMARK   24  A    between atoms: C03_63  and  N01_64 
REMARK   25  A    between atoms: CA_66  and  CB_69 
REMARK   26  A    between atoms: CB_69  and  CG_70 
REMARK   27  A    between atoms: CG_70  and  CD_71 
REMARK   28  A    between atoms: CD_71  and  NE_72 
REMARK       I    between atoms: NE_72  and  CZ_73 
REMARK       I    between atoms: CZ_73  and  NH1_74 
REMARK   29  A    between atoms: CA_77  and  CB_80 
REMARK   30  A    between atoms: CB_80  and  CG_81 
REMARK   31  A    between atoms: CG_81  and  CD1_82 
REMARK   32  A    between atoms: CG_81  and  CD2_83 
REMARK   33  A    between atoms: CA_85  and  CB_88 
REMARK   34  A    between atoms: CB_88  and  CG_89 
REMARK   35  A    between atoms: CG_89  and  CD_90 
REMARK   36  A    between atoms: CD_90  and  CE_91 
REMARK   37  A    between atoms: CE_91  and  NZ_92 
ROOT
ATOM      1  N   GLN d   1      17.745  34.480  29.230  0.00  0.00    -0.348 N 
ATOM      2  CA  GLN d   1      18.344  35.790  29.033  0.00  0.00     0.089 C 
ATOM      3  C   GLN d   1      19.839  35.733  29.249  0.00  0.00     0.241 C 
ATOM      4  O   GLN d   1      20.334  34.955  30.061  0.00  0.00    -0.271 OA
ATOM      5  H1  GLN d   1      17.463  34.065  30.095  0.00  0.00     0.163 HD
ATOM      6  H2  GLN d   1      18.154  36.101  27.995  0.00  0.00     0.087 H 
ATOM      7  N   PHE d   1      20.559  36.574  28.516  0.00  0.00    -0.346 N 
ATOM      8  CA  PHE d   1      22.008  36.573  28.568  0.00  0.00     0.093 C 
ATOM      9  C   PHE d   1      22.485  37.377  29.769  0.00  0.00     0.241 C 
ATOM     10  O   PHE d   1      21.971  38.468  30.045  0.00  0.00    -0.271 OA
ATOM     11  H9  PHE d   1      20.092  37.222  27.915  0.00  0.00     0.163 HD
ATOM     12  H10 PHE d   1      22.356  35.535  28.680  0.00  0.00     0.088 H 
ATOM     13  N   ASP d   1      23.476  36.836  30.479  0.00  0.00    -0.345 N 
ATOM     14  CA  ASP d   1      23.954  37.404  31.734  0.00  0.00     0.098 C 
ATOM     15  C   ASP d   1      25.332  38.026  31.527  0.00  0.00     0.241 C 
ATOM     16  O   ASP d   1      26.275  37.330  31.144  0.00  0.00    -0.271 OA
ATOM     17  H18 ASP d   1      23.911  36.004  30.135  0.00  0.00     0.163 HD
ATOM     18  H19 ASP d   1      23.255  38.192  32.051  0.00  0.00     0.088 H 
ATOM     19  N   LEU d   1      25.445  39.328  31.831  0.00  0.00    -0.346 N 
ATOM     20  CA  LEU d   1      26.683  40.074  31.601  0.00  0.00     0.089 C 
ATOM     21  C   LEU d   1      27.804  39.648  32.542  0.00  0.00     0.241 C 
ATOM     22  O   LEU d   1      28.983  39.769  32.188  0.00  0.00    -0.271 OA
ATOM     23  N   LEU d   1      23.896  32.190  29.152  0.00  0.00    -0.346 N 
ATOM     24  CA  LEU d   1      22.448  32.292  29.220  0.00  0.00     0.089 C 
ATOM     25  C   LEU d   1      21.966  31.760  30.564  0.00  0.00     0.241 C 
ATOM     26  O   LEU d   1      22.435  30.716  31.036  0.00  0.00    -0.271 OA
ATOM     27  H22 LEU d   1      24.659  39.803  32.227  0.00  0.00     0.163 HD
ATOM     28  H23 LEU d   1      27.012  39.878  30.570  0.00  0.00     0.087 H 
ATOM     29  H79 LEU d   1      24.320  31.454  28.624  0.00  0.00     0.163 HD
ATOM     30  H80 LEU d   1      22.166  33.352  29.137  0.00  0.00     0.087 H 
ATOM     31  N   SER d   1      27.466  39.164  33.743  0.00  0.00    -0.344 N 
ATOM     32  CA  SER d   1      28.509  38.787  34.693  0.00  0.00     0.109 C 
ATOM     33  C   SER d   1      29.272  37.549  34.228  0.00  0.00     0.243 C 
ATOM     34  O   SER d   1      30.506  37.507  34.303  0.00  0.00    -0.271 OA
ATOM     35  H33 SER d   1      26.502  39.061  33.989  0.00  0.00     0.163 HD
ATOM     36  H34 SER d   1      29.224  39.620  34.764  0.00  0.00     0.090 H 
ATOM     37  N   THR d   1      28.556  36.548  33.709  0.00  0.00    -0.344 N 
ATOM     38  CA  THR d   1      29.123  35.252  33.327  0.00  0.00     0.113 C 
ATOM     39  C   THR d   1      29.236  34.987  31.819  0.00  0.00     0.243 C 
ATOM     40  O   THR d   1      29.864  33.994  31.417  0.00  0.00    -0.271 OA
ATOM     41  H38 THR d   1      27.576  36.691  33.573  0.00  0.00     0.163 HD
ATOM     42  H39 THR d   1      30.135  35.203  33.755  0.00  0.00     0.091 H 
ATOM     43  N   C4G d   1      28.610  35.850  31.011  0.00  0.00    -0.346 N 
ATOM     44  CA  C4G d   1      28.462  35.675  29.660  0.00  0.00     0.089 C 
ATOM     45  C   C4G d   1      27.815  34.485  29.290  0.00  0.00     0.241 C 
ATOM     46  O   C4G d   1      28.110  33.925  28.198  0.00  0.00    -0.271 OA
ATOM     47  H45 C4G d   1      28.225  36.677  31.420  0.00  0.00     0.163 HD
ATOM     48  H46 C4G d   1      27.847  36.513  29.299  0.00  0.00     0.087 H 
ATOM     49  N   ARG d   1      26.893  34.002  30.113  0.00  0.00    -0.346 N 
ATOM     50  CA  ARG d   1      26.159  32.798  29.783  0.00  0.00     0.089 C 
ATOM     51  C   ARG d   1      24.656  33.069  29.788  0.00  0.00     0.241 C 
ATOM     52  O   ARG d   1      24.182  34.072  30.338  0.00  0.00    -0.271 OA
ATOM     53  H66 ARG d   1      26.702  34.476  30.973  0.00  0.00     0.163 HD
ATOM     54  H67 ARG d   1      26.449  32.479  28.771  0.00  0.00     0.087 H 
ATOM     55  N   LYS d   1      21.058  32.504  31.190  0.00  0.00    -0.346 N 
ATOM     56  CA  LYS d   1      20.468  32.157  32.482  0.00  0.00     0.089 C 
ATOM     57  C   LYS d   1      18.971  31.989  32.296  0.00  0.00     0.240 C 
ATOM     58  O   LYS d   1      18.369  32.715  31.514  0.00  0.00    -0.271 OA
ATOM     59  H90 LYS d   1      20.761  33.352  30.750  0.00  0.00     0.163 HD
ATOM     60  H91 LYS d   1      20.899  31.208  32.833  0.00  0.00     0.087 H 
ATOM     61  C5  011 d   1      16.538  30.440  30.392  0.00  0.00    -0.064 C 
ATOM     62  C4  011 d   1      16.986  30.397  28.972  0.00  0.00    -0.065 C 
ATOM     63  O   011 d   1      17.969  34.284  26.839  0.00  0.00    -0.274 OA
ATOM     64  C6  011 d   1      17.589  29.809  31.244  0.00  0.00    -0.050 C 
ATOM     65  C3  011 d   1      17.760  31.621  28.596  0.00  0.00    -0.057 C 
ATOM     66  C7  011 d   1      17.346  30.217  32.663  0.00  0.00    -0.005 C 
ATOM     67  C2  011 d   1      16.836  32.725  28.198  0.00  0.00     0.009 C 
ATOM     68  N   011 d   1      18.345  31.155  33.119  0.00  0.00    -0.359 N 
ATOM     69  C1  011 d   1      17.653  33.952  28.009  0.00  0.00     0.218 C 
ATOM     70 3H10 011 d   1      15.593  29.887  30.499  0.00  0.00     0.033 H 
ATOM     71 4H10 011 d   1      16.388  31.485  30.702  0.00  0.00     0.033 H 
ATOM     72 5H10 011 d   1      16.102  30.321  28.322  0.00  0.00     0.033 H 
ATOM     73 6H10 011 d   1      17.625  29.513  28.827  0.00  0.00     0.033 H 
ATOM     74 7H10 011 d   1      18.584  30.151  30.923  0.00  0.00     0.035 H 
ATOM     75 8H10 011 d   1      17.532  28.714  31.156  0.00  0.00     0.035 H 
ATOM     76 9H10 011 d   1      18.424  31.384  27.752  0.00  0.00     0.033 H 
ATOM     77 0H11 011 d   1      18.363  31.947  29.457  0.00  0.00     0.033 H 
ATOM     78 1H11 011 d   1      17.376  29.323  33.303  0.00  0.00     0.064 H 
ATOM     79 2H11 011 d   1      16.354  30.687  32.736  0.00  0.00     0.064 H 
ATOM     80 3H11 011 d   1      16.088  32.891  28.988  0.00  0.00     0.047 H 
ATOM     81 4H11 011 d   1      16.326  32.466  27.258  0.00  0.00     0.047 H 
ATOM     82 5H11 011 d   1      18.574  31.178  34.092  0.00  0.00     0.162 HD
ENDROOT
BRANCH  44  83
ATOM     83  CB  C4G d   1      29.802  35.718  28.924  0.00  0.00    -0.036 C 
ATOM     84  H47 C4G d   1      29.643  35.571  27.846  0.00  0.00     0.036 H 
ATOM     85  H48 C4G d   1      30.466  34.929  29.307  0.00  0.00     0.036 H 
BRANCH  83  86
ATOM     86  CG  C4G d   1      30.419  37.080  29.175  0.00  0.00    -0.048 C 
ATOM     87  H49 C4G d   1      30.837  37.124  30.192  0.00  0.00     0.035 H 
ATOM     88  H50 C4G d   1      29.660  37.867  29.056  0.00  0.00     0.035 H 
BRANCH  86  89
ATOM     89  CD  C4G d   1      31.564  37.267  28.111  0.00  0.00     0.009 C 
ATOM     90  H51 C4G d   1      31.138  37.407  27.107  0.00  0.00     0.064 H 
ATOM     91  H52 C4G d   1      32.233  36.394  28.107  0.00  0.00     0.064 H 
BRANCH  89  92
ATOM     92  NE  C4G d   1      32.266  38.427  28.517  0.00  0.00    -0.227 N 
ATOM     93  CZ  C4G d   1      33.388  38.803  27.903  0.00  0.00     0.667 C 
ATOM     94  NH1 C4G d   1      33.835  38.020  26.875  0.00  0.00    -0.235 N 
ATOM     95  NH2 C4G d   1      34.270  39.864  28.062  0.00  0.00    -0.227 N 
ATOM     96  H54 C4G d   1      34.698  38.273  26.372  0.00  0.00     0.174 HD
ATOM     97  H55 C4G d   1      33.309  37.177  26.603  0.00  0.00     0.174 HD
ATOM     98  H56 C4G d   1      35.092  39.959  27.448  0.00  0.00     0.177 HD
ATOM     99  H53 C4G d   1      31.904  38.990  29.300  0.00  0.00     0.177 HD
BRANCH  95 100
ATOM    100  C02 C4G d   1      34.016  40.824  29.095  0.00  0.00     0.011 C 
ATOM    101  H59 C4G d   1      33.034  40.628  29.550  0.00  0.00     0.064 H 
ATOM    102  H60 C4G d   1      34.027  41.838  28.669  0.00  0.00     0.064 H 
BRANCH 100 103
ATOM    103  C01 C4G d   1      35.075  40.703  30.123  0.00  0.00    -0.028 C 
ATOM    104  H57 C4G d   1      35.091  39.679  30.525  0.00  0.00     0.037 H 
ATOM    105  H58 C4G d   1      34.886  41.415  30.940  0.00  0.00     0.037 H 
BRANCH 103 106
ATOM    106  C03 C4G d   1      36.368  41.010  29.479  0.00  0.00     0.081 C 
ATOM    107  H61 C4G d   1      36.712  42.000  29.814  0.00  0.00     0.075 H 
ATOM    108  H62 C4G d   1      36.234  41.019  28.387  0.00  0.00     0.075 H 
BRANCH 106 109
ATOM    109  N01 C4G d   1      37.393  39.989  29.838  0.00  0.00    -0.079 N 
ATOM    110  H63 C4G d   1      38.266  40.217  29.389  0.00  0.00     0.274 HD
ATOM    111  H64 C4G d   1      37.084  39.080  29.530  0.00  0.00     0.274 HD
ATOM    112  H65 C4G d   1      37.522  39.979  30.838  0.00  0.00     0.274 HD
ENDBRANCH 106 109
ENDBRANCH 103 106
ENDBRANCH 100 103
ENDBRANCH  95 100
ENDBRANCH  89  92
ENDBRANCH  86  89
ENDBRANCH  83  86
ENDBRANCH  44  83
BRANCH  38 113
ATOM    113  CB  THR d   1      28.278  34.108  33.909  0.00  0.00     0.060 C 
ATOM    114  H40 THR d   1      28.740  33.146  33.642  0.00  0.00     0.086 H 
BRANCH 113 115
ATOM    115  OG1 THR d   1      26.951  34.164  33.353  0.00  0.00    -0.393 OA
ATOM    116  H41 THR d   1      26.552  34.998  33.572  0.00  0.00     0.210 HD
ENDBRANCH 113 115
BRANCH 113 117
ATOM    117  CG2 THR d   1      28.216  34.224  35.434  0.00  0.00    -0.050 C 
ATOM    118  H42 THR d   1      27.609  33.401  35.840  0.00  0.00     0.031 H 
ATOM    119  H43 THR d   1      27.760  35.186  35.710  0.00  0.00     0.031 H 
ATOM    120  H44 THR d   1      29.234  34.168  35.848  0.00  0.00     0.031 H 
ENDBRANCH 113 117
ENDBRANCH  38 113
BRANCH  50 121
ATOM    121  CB  ARG d   1      26.518  31.677  30.764  0.00  0.00    -0.036 C 
ATOM    122  H68 ARG d   1      25.910  30.794  30.519  0.00  0.00     0.036 H 
ATOM    123  H69 ARG d   1      26.278  32.017  31.782  0.00  0.00     0.036 H 
BRANCH 121 124
ATOM    124  CG  ARG d   1      27.998  31.273  30.724  0.00  0.00    -0.048 C 
ATOM    125  H70 ARG d   1      28.209  30.615  31.580  0.00  0.00     0.035 H 
ATOM    126  H71 ARG d   1      28.615  32.181  30.798  0.00  0.00     0.035 H 
BRANCH 124 127
ATOM    127  CD  ARG d   1      28.364  30.530  29.426  0.00  0.00     0.009 C 
ATOM    128  H72 ARG d   1      29.342  30.044  29.555  0.00  0.00     0.064 H 
ATOM    129  H73 ARG d   1      28.421  31.256  28.602  0.00  0.00     0.064 H 
BRANCH 127 130
ATOM    130  NE  ARG d   1      27.370  29.516  29.097  0.00  0.00    -0.227 N 
ATOM    131  CZ  ARG d   1      27.196  28.376  29.769  0.00  0.00     0.665 C 
ATOM    132  NH1 ARG d   1      27.980  28.073  30.804  0.00  0.00    -0.235 N 
ATOM    133  NH2 ARG d   1      26.234  27.532  29.396  0.00  0.00    -0.235 N 
ATOM    134  H75 ARG d   1      27.838  27.191  31.317  0.00  0.00     0.174 HD
ATOM    135  H76 ARG d   1      28.727  28.721  31.091  0.00  0.00     0.174 HD
ATOM    136  H77 ARG d   1      25.627  27.764  28.597  0.00  0.00     0.174 HD
ATOM    137  H78 ARG d   1      26.098  26.648  29.907  0.00  0.00     0.174 HD
ATOM    138  H74 ARG d   1      26.758  29.692  28.288  0.00  0.00     0.177 HD
ENDBRANCH 127 130
ENDBRANCH 124 127
ENDBRANCH 121 124
ENDBRANCH  50 121
BRANCH  32 139
ATOM    139  CB  SER d   1      27.899  38.558  36.079  0.00  0.00     0.044 C 
ATOM    140  H35 SER d   1      28.705  38.328  36.792  0.00  0.00     0.077 H 
ATOM    141  H36 SER d   1      27.201  37.709  36.028  0.00  0.00     0.077 H 
BRANCH 139 142
ATOM    142  OG  SER d   1      27.197  39.708  36.529  0.00  0.00    -0.398 OA
ATOM    143  H37 SER d   1      27.796  40.444  36.579  0.00  0.00     0.209 HD
ENDBRANCH 139 142
ENDBRANCH  32 139
BRANCH  24 144
ATOM    144  CB  LEU d   1      21.788  31.524  28.072  0.00  0.00    -0.035 C 
ATOM    145  H81 LEU d   1      20.702  31.543  28.245  0.00  0.00     0.037 H 
ATOM    146  H82 LEU d   1      22.149  30.486  28.121  0.00  0.00     0.037 H 
BRANCH 144 147
ATOM    147  CG  LEU d   1      22.033  32.027  26.645  0.00  0.00    -0.059 C 
ATOM    148  H83 LEU d   1      23.119  32.082  26.480  0.00  0.00     0.038 H 
BRANCH 147 149
ATOM    149  CD1 LEU d   1      21.441  31.048  25.628  0.00  0.00    -0.073 C 
ATOM    150  H84 LEU d   1      21.624  31.422  24.610  0.00  0.00     0.028 H 
ATOM    151  H85 LEU d   1      20.358  30.956  25.795  0.00  0.00     0.028 H 
ATOM    152  H86 LEU d   1      21.916  30.063  25.748  0.00  0.00     0.028 H 
ENDBRANCH 147 149
BRANCH 147 153
ATOM    153  CD2 LEU d   1      21.450  33.425  26.456  0.00  0.00    -0.073 C 
ATOM    154  H87 LEU d   1      21.890  34.109  27.197  0.00  0.00     0.028 H 
ATOM    155  H88 LEU d   1      20.359  33.389  26.593  0.00  0.00     0.028 H 
ATOM    156  H89 LEU d   1      21.681  33.785  25.442  0.00  0.00     0.028 H 
ENDBRANCH 147 153
ENDBRANCH 144 147
ENDBRANCH  24 144
BRANCH  20 157
ATOM    157  CB  LEU d   1      26.420  41.574  31.751  0.00  0.00    -0.035 C 
ATOM    158  H24 LEU d   1      27.369  42.119  31.637  0.00  0.00     0.037 H 
ATOM    159  H25 LEU d   1      26.003  41.768  32.750  0.00  0.00     0.037 H 
BRANCH 157 160
ATOM    160  CG  LEU d   1      25.430  42.065  30.692  0.00  0.00    -0.059 C 
ATOM    161  H26 LEU d   1      24.538  41.423  30.739  0.00  0.00     0.038 H 
BRANCH 160 162
ATOM    162  CD1 LEU d   1      24.979  43.500  30.932  0.00  0.00    -0.073 C 
ATOM    163  H27 LEU d   1      24.272  43.799  30.144  0.00  0.00     0.028 H 
ATOM    164  H28 LEU d   1      25.853  44.167  30.912  0.00  0.00     0.028 H 
ATOM    165  H29 LEU d   1      24.486  43.570  31.913  0.00  0.00     0.028 H 
ENDBRANCH 160 162
BRANCH 160 166
ATOM    166  CD2 LEU d   1      26.051  41.918  29.310  0.00  0.00    -0.073 C 
ATOM    167  H30 LEU d   1      26.368  40.876  29.160  0.00  0.00     0.028 H 
ATOM    168  H31 LEU d   1      26.924  42.583  29.228  0.00  0.00     0.028 H 
ATOM    169  H32 LEU d   1      25.310  42.190  28.544  0.00  0.00     0.028 H 
ENDBRANCH 160 166
ENDBRANCH 157 160
ENDBRANCH  20 157
BRANCH  56 170
ATOM    170  CB  LYS d   1      20.753  33.241  33.521  0.00  0.00    -0.038 C 
ATOM    171  H92 LYS d   1      20.000  34.034  33.398  0.00  0.00     0.036 H 
ATOM    172  H93 LYS d   1      21.753  33.650  33.318  0.00  0.00     0.036 H 
BRANCH 170 173
ATOM    173  CG  LYS d   1      20.720  32.787  34.962  0.00  0.00    -0.061 C 
ATOM    174  H94 LYS d   1      21.393  31.927  35.089  0.00  0.00     0.033 H 
ATOM    175  H95 LYS d   1      19.694  32.492  35.228  0.00  0.00     0.033 H 
BRANCH 173 176
ATOM    176  CD  LYS d   1      21.170  33.915  35.871  0.00  0.00    -0.043 C 
ATOM    177  H96 LYS d   1      20.316  34.578  36.073  0.00  0.00     0.035 H 
ATOM    178  H97 LYS d   1      21.967  34.485  35.371  0.00  0.00     0.035 H 
BRANCH 176 179
ATOM    179  CE  LYS d   1      21.694  33.372  37.176  0.00  0.00     0.080 C 
ATOM    180  H98 LYS d   1      22.713  32.987  37.023  0.00  0.00     0.075 H 
ATOM    181  H99 LYS d   1      21.041  32.555  37.515  0.00  0.00     0.075 H 
BRANCH 179 182
ATOM    182  NZ  LYS d   1      21.725  34.440  38.222  0.00  0.00    -0.079 N 
ATOM    183 0H10 LYS d   1      22.078  34.056  39.084  0.00  0.00     0.274 HD
ATOM    184 1H10 LYS d   1      20.793  34.794  38.369  0.00  0.00     0.274 HD
ATOM    185 2H10 LYS d   1      22.325  35.191  37.918  0.00  0.00     0.274 HD
ENDBRANCH 179 182
ENDBRANCH 176 179
ENDBRANCH 173 176
ENDBRANCH 170 173
ENDBRANCH  56 170
BRANCH  14 186
ATOM    186  CB  ASP d   1      24.011  36.339  32.826  0.00  0.00     0.043 C 
ATOM    187  H20 ASP d   1      24.756  35.581  32.542  0.00  0.00     0.052 H 
ATOM    188  H21 ASP d   1      23.021  35.867  32.912  0.00  0.00     0.052 H 
BRANCH 186 189
ATOM    189  CG  ASP d   1      24.391  36.913  34.165  0.00  0.00     0.175 C 
ATOM    190  OD1 ASP d   1      24.129  38.111  34.379  0.00  0.00    -0.648 OA
ATOM    191  OD2 ASP d   1      24.967  36.182  34.994  0.00  0.00    -0.648 OA
ENDBRANCH 186 189
ENDBRANCH  14 186
BRANCH   8 192
ATOM    192  CB  PHE d   1      22.585  37.141  27.274  0.00  0.00    -0.014 C 
ATOM    193  H11 PHE d   1      22.117  38.118  27.085  0.00  0.00     0.043 H 
ATOM    194  H12 PHE d   1      22.339  36.452  26.453  0.00  0.00     0.043 H 
BRANCH 192 195
ATOM    195  CG  PHE d   1      24.065  37.327  27.304  0.00  0.00    -0.056 A 
ATOM    196  CD1 PHE d   1      24.913  36.243  27.162  0.00  0.00    -0.077 A 
ATOM    197  CE1 PHE d   1      26.285  36.421  27.182  0.00  0.00    -0.082 A 
ATOM    198  H13 PHE d   1      24.500  35.249  27.034  0.00  0.00     0.084 H 
ATOM    199  CZ  PHE d   1      26.831  37.697  27.352  0.00  0.00    -0.083 A 
ATOM    200  H15 PHE d   1      26.941  35.566  27.065  0.00  0.00     0.083 H 
ATOM    201  CE2 PHE d   1      26.000  38.776  27.495  0.00  0.00    -0.082 A 
ATOM    202  H17 PHE d   1      27.907  37.831  27.370  0.00  0.00     0.083 H 
ATOM    203  CD2 PHE d   1      24.614  38.588  27.471  0.00  0.00    -0.077 A 
ATOM    204  H16 PHE d   1      26.413  39.769  27.626  0.00  0.00     0.083 H 
ATOM    205  H14 PHE d   1      23.958  39.444  27.585  0.00  0.00     0.084 H 
ENDBRANCH 192 195
ENDBRANCH   8 192
BRANCH   2 206
ATOM    206  CB  GLN d   1      17.724  36.826  29.966  0.00  0.00    -0.030 C 
ATOM    207  H3  GLN d   1      18.479  37.594  30.189  0.00  0.00     0.037 H 
ATOM    208  H4  GLN d   1      17.425  36.324  30.898  0.00  0.00     0.037 H 
BRANCH 206 209
ATOM    209  CG  GLN d   1      16.514  37.500  29.373  0.00  0.00     0.011 C 
ATOM    210  H5  GLN d   1      15.608  37.005  29.752  0.00  0.00     0.047 H 
ATOM    211  H6  GLN d   1      16.553  37.406  28.278  0.00  0.00     0.047 H 
BRANCH 209 212
ATOM    212  CD  GLN d   1      16.461  38.956  29.735  0.00  0.00     0.215 C 
ATOM    213  OE1 GLN d   1      17.131  39.392  30.674  0.00  0.00    -0.274 OA
ATOM    214  NE2 GLN d   1      15.676  39.731  28.988  0.00  0.00    -0.370 N 
ATOM    215  H7  GLN d   1      15.604  40.709  29.186  0.00  0.00     0.159 HD
ATOM    216  H8  GLN d   1      15.159  39.335  28.229  0.00  0.00     0.159 HD
ENDBRANCH 209 212
ENDBRANCH 206 209
ENDBRANCH   2 206
TORSDOF 37
