REMARK WARNING: 32 MAX_TORS EXCEEDED!!!
REMARK  37 active torsions:
REMARK  status: ('A' for Active; 'I' for Inactive)
REMARK    1  A    between atoms: CA_2  and  CB_5 
REMARK    2  A    between atoms: CB_5  and  CG_6 
REMARK    3  A    between atoms: CG_6  and  CD_7 
REMARK       I    between atoms: CD_7  and  NE2_9 
REMARK    4  A    between atoms: CA_11  and  CB_14 
REMARK    5  A    between atoms: CB_14  and  CG_15 
REMARK    6  A    between atoms: CA_22  and  CB_25 
REMARK    7  A    between atoms: CB_25  and  CG_26 
REMARK    8  A    between atoms: CA_30  and  CB_33 
REMARK    9  A    between atoms: CB_33  and  CG_34 
REMARK   10  A    between atoms: CG_34  and  CD1_35 
REMARK   11  A    between atoms: CG_34  and  CD2_36 
REMARK   12  A    between atoms: CA_38  and  CB_41 
REMARK   13  A    between atoms: CB_41  and  OG_42 
REMARK   14  A    between atoms: CA_44  and  CB_47 
REMARK   15  A    between atoms: CB_47  and  OG1_48 
REMARK   16  A    between atoms: CB_47  and  CG2_49 
REMARK   17  A    between atoms: CA_51  and  CB_54 
REMARK   18  A    between atoms: CB_54  and  CG_55 
REMARK   19  A    between atoms: CG_55  and  CD_56 
REMARK   20  A    between atoms: CD_56  and  NE_57 
REMARK       I    between atoms: NE_57  and  CZ_58 
REMARK       I    between atoms: CZ_58  and  NH1_59 
REMARK       I    between atoms: CZ_58  and  NH2_60 
REMARK   21  A    between atoms: NH2_60  and  C02_62 
REMARK   22  A    between atoms: C02_62  and  C01_61 
REMARK   23  A    between atoms: C01_61  and  C03_63 
REMARK   24  A    between atoms: C03_63  and  O2_64 
REMARK   25  A    between atoms: CA_66  and  CB_69 
REMARK   26  A    between atoms: CB_69  and  CG_70 
REMARK   27  A    between atoms: CG_70  and  CD_71 
REMARK   28  A    between atoms: CD_71  and  NE_72 
REMARK       I    between atoms: NE_72  and  CZ_73 
REMARK       I    between atoms: CZ_73  and  NH1_74 
REMARK   29  A    between atoms: CA_77  and  CB_80 
REMARK   30  A    between atoms: CB_80  and  CG_81 
REMARK   31  A    between atoms: CG_81  and  CD1_82 
REMARK   32  A    between atoms: CG_81  and  CD2_83 
REMARK   33  A    between atoms: CA_85  and  CB_88 
REMARK   34  A    between atoms: CB_88  and  CG_89 
REMARK   35  A    between atoms: CG_89  and  CD_90 
REMARK   36  A    between atoms: CD_90  and  CE_91 
REMARK   37  A    between atoms: CE_91  and  NZ_92 
ROOT
ATOM      1  N   GLN d   1     -17.765  34.264 -29.014  0.00  0.00    -0.348 N 
ATOM      2  CA  GLN d   1     -18.306  35.617 -29.115  0.00  0.00     0.089 C 
ATOM      3  C   GLN d   1     -19.821  35.619 -29.347  0.00  0.00     0.241 C 
ATOM      4  O   GLN d   1     -20.332  34.882 -30.191  0.00  0.00    -0.271 OA
ATOM      5  H1  GLN d   1     -17.585  33.759 -29.858  0.00  0.00     0.163 HD
ATOM      6  H2  GLN d   1     -18.104  36.138 -28.168  0.00  0.00     0.087 H 
ATOM      7  N   PHE d   1     -20.526  36.467 -28.602  0.00  0.00    -0.346 N 
ATOM      8  CA  PHE d   1     -21.979  36.542 -28.675  0.00  0.00     0.093 C 
ATOM      9  C   PHE d   1     -22.416  37.331 -29.910  0.00  0.00     0.241 C 
ATOM     10  O   PHE d   1     -21.886  38.411 -30.193  0.00  0.00    -0.271 OA
ATOM     11  H9  PHE d   1     -20.042  37.073 -27.971  0.00  0.00     0.163 HD
ATOM     12  H10 PHE d   1     -22.380  35.521 -28.755  0.00  0.00     0.088 H 
ATOM     13  N   ASP d   1     -23.393  36.786 -30.636  0.00  0.00    -0.345 N 
ATOM     14  CA  ASP d   1     -23.888  37.359 -31.884  0.00  0.00     0.098 C 
ATOM     15  C   ASP d   1     -25.271  37.952 -31.645  0.00  0.00     0.241 C 
ATOM     16  O   ASP d   1     -26.211  37.221 -31.315  0.00  0.00    -0.271 OA
ATOM     17  H18 ASP d   1     -23.809  35.938 -30.307  0.00  0.00     0.163 HD
ATOM     18  H19 ASP d   1     -23.206  38.160 -32.205  0.00  0.00     0.088 H 
ATOM     19  N   LEU d   1     -25.396  39.271 -31.841  0.00  0.00    -0.346 N 
ATOM     20  CA  LEU d   1     -26.660  39.968 -31.615  0.00  0.00     0.089 C 
ATOM     21  C   LEU d   1     -27.753  39.554 -32.595  0.00  0.00     0.241 C 
ATOM     22  O   LEU d   1     -28.939  39.650 -32.257  0.00  0.00    -0.271 OA
ATOM     23  N   LEU d   1     -23.776  32.167 -29.184  0.00  0.00    -0.346 N 
ATOM     24  CA  LEU d   1     -22.328  32.205 -29.294  0.00  0.00     0.089 C 
ATOM     25  C   LEU d   1     -21.908  31.681 -30.659  0.00  0.00     0.241 C 
ATOM     26  O   LEU d   1     -22.440  30.684 -31.151  0.00  0.00    -0.271 OA
ATOM     27  H22 LEU d   1     -24.602  39.794 -32.151  0.00  0.00     0.163 HD
ATOM     28  H23 LEU d   1     -27.006  39.719 -30.601  0.00  0.00     0.087 H 
ATOM     29  H77 LEU d   1     -24.210  31.540 -28.537  0.00  0.00     0.163 HD
ATOM     30  H78 LEU d   1     -21.993  33.248 -29.195  0.00  0.00     0.087 H 
ATOM     31  N   SER d   1     -27.386  39.094 -33.794  0.00  0.00    -0.344 N 
ATOM     32  CA  SER d   1     -28.390  38.696 -34.777  0.00  0.00     0.109 C 
ATOM     33  C   SER d   1     -29.142  37.443 -34.339  0.00  0.00     0.243 C 
ATOM     34  O   SER d   1     -30.357  37.342 -34.542  0.00  0.00    -0.271 OA
ATOM     35  H33 SER d   1     -26.415  39.022 -34.021  0.00  0.00     0.163 HD
ATOM     36  H34 SER d   1     -29.118  39.515 -34.874  0.00  0.00     0.090 H 
ATOM     37  N   THR d   1     -28.446  36.488 -33.729  0.00  0.00    -0.344 N 
ATOM     38  CA  THR d   1     -29.035  35.188 -33.405  0.00  0.00     0.113 C 
ATOM     39  C   THR d   1     -29.153  34.934 -31.907  0.00  0.00     0.243 C 
ATOM     40  O   THR d   1     -29.800  33.971 -31.489  0.00  0.00    -0.271 OA
ATOM     41  H38 THR d   1     -27.492  36.663 -33.484  0.00  0.00     0.163 HD
ATOM     42  H39 THR d   1     -30.045  35.162 -33.840  0.00  0.00     0.091 H 
ATOM     43  N   C6D d   1     -28.513  35.798 -31.121  0.00  0.00    -0.346 N 
ATOM     44  CA  C6D d   1     -28.428  35.652 -29.670  0.00  0.00     0.089 C 
ATOM     45  C   C6D d   1     -27.737  34.336 -29.315  0.00  0.00     0.241 C 
ATOM     46  O   C6D d   1     -28.080  33.692 -28.330  0.00  0.00    -0.271 OA
ATOM     47  H45 C6D d   1     -28.068  36.587 -31.546  0.00  0.00     0.163 HD
ATOM     48  H46 C6D d   1     -27.823  36.481 -29.275  0.00  0.00     0.087 H 
ATOM     49  N   ARG d   1     -26.762  33.949 -30.124  0.00  0.00    -0.346 N 
ATOM     50  CA  ARG d   1     -26.029  32.718 -29.886  0.00  0.00     0.089 C 
ATOM     51  C   ARG d   1     -24.524  32.961 -29.939  0.00  0.00     0.241 C 
ATOM     52  O   ARG d   1     -24.049  33.859 -30.635  0.00  0.00    -0.271 OA
ATOM     53  H64 ARG d   1     -26.526  34.515 -30.914  0.00  0.00     0.163 HD
ATOM     54  H65 ARG d   1     -26.286  32.353 -28.881  0.00  0.00     0.087 H 
ATOM     55  N   LYS d   1     -20.953  32.369 -31.270  0.00  0.00    -0.346 N 
ATOM     56  CA  LYS d   1     -20.432  32.016 -32.582  0.00  0.00     0.089 C 
ATOM     57  C   LYS d   1     -18.925  31.842 -32.442  0.00  0.00     0.240 C 
ATOM     58  O   LYS d   1     -18.299  32.548 -31.654  0.00  0.00    -0.271 OA
ATOM     59  H88 LYS d   1     -20.572  33.169 -30.807  0.00  0.00     0.163 HD
ATOM     60  H89 LYS d   1     -20.878  31.065 -32.908  0.00  0.00     0.087 H 
ATOM     61  C5  011 d   1     -16.383  30.312 -30.686  0.00  0.00    -0.064 C 
ATOM     62  C4  011 d   1     -16.861  30.258 -29.278  0.00  0.00    -0.065 C 
ATOM     63  O   011 d   1     -17.776  34.193 -26.734  0.00  0.00    -0.274 OA
ATOM     64  C6  011 d   1     -17.342  29.592 -31.573  0.00  0.00    -0.050 C 
ATOM     65  C3  011 d   1     -17.640  31.478 -28.905  0.00  0.00    -0.057 C 
ATOM     66  C7  011 d   1     -17.239  30.156 -32.949  0.00  0.00    -0.005 C 
ATOM     67  C2  011 d   1     -16.863  32.325 -27.951  0.00  0.00     0.009 C 
ATOM     68  N   011 d   1     -18.325  31.033 -33.310  0.00  0.00    -0.359 N 
ATOM     69  C1  011 d   1     -17.501  33.673 -27.853  0.00  0.00     0.218 C 
ATOM     70 1H10 011 d   1     -15.394  29.835 -30.755  0.00  0.00     0.033 H 
ATOM     71 2H10 011 d   1     -16.307  31.362 -31.006  0.00  0.00     0.033 H 
ATOM     72 3H10 011 d   1     -15.991  30.174 -28.610  0.00  0.00     0.033 H 
ATOM     73 4H10 011 d   1     -17.504  29.374 -29.155  0.00  0.00     0.033 H 
ATOM     74 5H10 011 d   1     -18.366  29.724 -31.195  0.00  0.00     0.035 H 
ATOM     75 6H10 011 d   1     -17.094  28.520 -31.593  0.00  0.00     0.035 H 
ATOM     76 7H10 011 d   1     -18.585  31.173 -28.431  0.00  0.00     0.033 H 
ATOM     77 8H10 011 d   1     -17.856  32.061 -29.813  0.00  0.00     0.033 H 
ATOM     78 9H10 011 d   1     -17.218  29.320 -33.664  0.00  0.00     0.064 H 
ATOM     79 0H11 011 d   1     -16.299  30.723 -33.020  0.00  0.00     0.064 H 
ATOM     80 1H11 011 d   1     -15.830  32.433 -28.313  0.00  0.00     0.047 H 
ATOM     81 2H11 011 d   1     -16.856  31.849 -26.959  0.00  0.00     0.047 H 
ATOM     82 3H11 011 d   1     -18.642  31.033 -34.258  0.00  0.00     0.162 HD
ENDROOT
BRANCH  44  83
ATOM     83  CB  C6D d   1     -29.825  35.718 -29.014  0.00  0.00    -0.036 C 
ATOM     84  H47 C6D d   1     -29.697  35.695 -27.922  0.00  0.00     0.036 H 
ATOM     85  H48 C6D d   1     -30.401  34.837 -29.334  0.00  0.00     0.036 H 
BRANCH  83  86
ATOM     86  CG  C6D d   1     -30.617  36.967 -29.378  0.00  0.00    -0.048 C 
ATOM     87  H49 C6D d   1     -31.117  36.813 -30.346  0.00  0.00     0.035 H 
ATOM     88  H50 C6D d   1     -29.933  37.825 -29.451  0.00  0.00     0.035 H 
BRANCH  86  89
ATOM     89  CD  C6D d   1     -31.655  37.242 -28.315  0.00  0.00     0.009 C 
ATOM     90  H51 C6D d   1     -31.143  37.422 -27.358  0.00  0.00     0.064 H 
ATOM     91  H52 C6D d   1     -32.308  36.362 -28.221  0.00  0.00     0.064 H 
BRANCH  89  92
ATOM     92  NE  C6D d   1     -32.472  38.399 -28.634  0.00  0.00    -0.227 N 
ATOM     93  CZ  C6D d   1     -33.499  38.788 -27.898  0.00  0.00     0.667 C 
ATOM     94  NH1 C6D d   1     -33.784  38.068 -26.824  0.00  0.00    -0.235 N 
ATOM     95  NH2 C6D d   1     -34.232  39.853 -28.204  0.00  0.00    -0.227 N 
ATOM     96  H54 C6D d   1     -34.576  38.334 -26.221  0.00  0.00     0.174 HD
ATOM     97  H55 C6D d   1     -33.214  37.242 -26.591  0.00  0.00     0.174 HD
ATOM     98  H56 C6D d   1     -35.019  40.111 -27.592  0.00  0.00     0.177 HD
ATOM     99  H53 C6D d   1     -32.240  38.944 -29.476  0.00  0.00     0.177 HD
BRANCH  95 100
ATOM    100  C02 C6D d   1     -33.955  40.667 -29.381  0.00  0.00     0.011 C 
ATOM    101  H59 C6D d   1     -33.696  40.017 -30.230  0.00  0.00     0.065 H 
ATOM    102  H60 C6D d   1     -33.117  41.349 -29.173  0.00  0.00     0.065 H 
BRANCH 100 103
ATOM    103  C01 C6D d   1     -35.188  41.461 -29.706  0.00  0.00    -0.030 C 
ATOM    104  H57 C6D d   1     -35.534  41.978 -28.799  0.00  0.00     0.038 H 
ATOM    105  H58 C6D d   1     -35.974  40.779 -30.062  0.00  0.00     0.038 H 
BRANCH 103 106
ATOM    106  C03 C6D d   1     -34.897  42.474 -30.770  0.00  0.00     0.018 C 
ATOM    107  H61 C6D d   1     -35.597  42.340 -31.607  0.00  0.00     0.074 H 
ATOM    108  H62 C6D d   1     -33.866  42.344 -31.130  0.00  0.00     0.074 H 
BRANCH 106 109
ATOM    109  O2  C6D d   1     -35.047  43.753 -30.236  0.00  0.00    -0.401 OA
ATOM    110  H63 C6D d   1     -35.938  43.863 -29.925  0.00  0.00     0.209 HD
ENDBRANCH 106 109
ENDBRANCH 103 106
ENDBRANCH 100 103
ENDBRANCH  95 100
ENDBRANCH  89  92
ENDBRANCH  86  89
ENDBRANCH  83  86
ENDBRANCH  44  83
BRANCH  38 111
ATOM    111  CB  THR d   1     -28.207  34.042 -34.011  0.00  0.00     0.060 C 
ATOM    112  H40 THR d   1     -28.704  33.084 -33.798  0.00  0.00     0.086 H 
BRANCH 111 113
ATOM    113  OG1 THR d   1     -26.896  34.038 -33.422  0.00  0.00    -0.393 OA
ATOM    114  H41 THR d   1     -26.468  34.867 -33.599  0.00  0.00     0.210 HD
ENDBRANCH 111 113
BRANCH 111 115
ATOM    115  CG2 THR d   1     -28.091  34.220 -35.517  0.00  0.00    -0.050 C 
ATOM    116  H42 THR d   1     -27.497  33.396 -35.939  0.00  0.00     0.031 H 
ATOM    117  H43 THR d   1     -27.596  35.178 -35.736  0.00  0.00     0.031 H 
ATOM    118  H44 THR d   1     -29.096  34.215 -35.965  0.00  0.00     0.031 H 
ENDBRANCH 111 115
ENDBRANCH  38 111
BRANCH  50 119
ATOM    119  CB  ARG d   1     -26.428  31.647 -30.906  0.00  0.00    -0.036 C 
ATOM    120  H66 ARG d   1     -25.800  30.760 -30.736  0.00  0.00     0.036 H 
ATOM    121  H67 ARG d   1     -26.236  32.044 -31.914  0.00  0.00     0.036 H 
BRANCH 119 122
ATOM    122  CG  ARG d   1     -27.890  31.215 -30.835  0.00  0.00    -0.048 C 
ATOM    123  H68 ARG d   1     -28.105  30.547 -31.682  0.00  0.00     0.035 H 
ATOM    124  H69 ARG d   1     -28.529  32.108 -30.900  0.00  0.00     0.035 H 
BRANCH 122 125
ATOM    125  CD  ARG d   1     -28.201  30.481 -29.538  0.00  0.00     0.009 C 
ATOM    126  H70 ARG d   1     -29.190  30.008 -29.624  0.00  0.00     0.064 H 
ATOM    127  H71 ARG d   1     -28.212  31.206 -28.711  0.00  0.00     0.064 H 
BRANCH 125 128
ATOM    128  NE  ARG d   1     -27.206  29.452 -29.253  0.00  0.00    -0.227 N 
ATOM    129  CZ  ARG d   1     -27.175  28.251 -29.827  0.00  0.00     0.665 C 
ATOM    130  NH1 ARG d   1     -28.092  27.907 -30.727  0.00  0.00    -0.235 N 
ATOM    131  NH2 ARG d   1     -26.216  27.393 -29.498  0.00  0.00    -0.235 N 
ATOM    132  H73 ARG d   1     -28.059  26.976 -31.165  0.00  0.00     0.174 HD
ATOM    133  H74 ARG d   1     -28.835  28.572 -30.986  0.00  0.00     0.174 HD
ATOM    134  H75 ARG d   1     -25.505  27.658 -28.801  0.00  0.00     0.174 HD
ATOM    135  H76 ARG d   1     -26.183  26.463 -29.940  0.00  0.00     0.174 HD
ATOM    136  H72 ARG d   1     -26.477  29.670 -28.559  0.00  0.00     0.177 HD
ENDBRANCH 125 128
ENDBRANCH 122 125
ENDBRANCH 119 122
ENDBRANCH  50 119
BRANCH  32 137
ATOM    137  CB  SER d   1     -27.731  38.473 -36.139  0.00  0.00     0.044 C 
ATOM    138  H35 SER d   1     -28.499  38.163 -36.863  0.00  0.00     0.077 H 
ATOM    139  H36 SER d   1     -26.974  37.681 -36.046  0.00  0.00     0.077 H 
BRANCH 137 140
ATOM    140  OG  SER d   1     -27.107  39.657 -36.604  0.00  0.00    -0.398 OA
ATOM    141  H37 SER d   1     -27.758  40.344 -36.690  0.00  0.00     0.209 HD
ENDBRANCH 137 140
ENDBRANCH  32 137
BRANCH  24 142
ATOM    142  CB  LEU d   1     -21.679  31.376 -28.184  0.00  0.00    -0.035 C 
ATOM    143  H79 LEU d   1     -20.594  31.360 -28.365  0.00  0.00     0.037 H 
ATOM    144  H80 LEU d   1     -22.077  30.353 -28.250  0.00  0.00     0.037 H 
BRANCH 142 145
ATOM    145  CG  LEU d   1     -21.910  31.879 -26.756  0.00  0.00    -0.059 C 
ATOM    146  H81 LEU d   1     -22.996  31.950 -26.594  0.00  0.00     0.038 H 
BRANCH 145 147
ATOM    147  CD1 LEU d   1     -21.344  30.896 -25.744  0.00  0.00    -0.073 C 
ATOM    148  H82 LEU d   1     -21.520  31.275 -24.727  0.00  0.00     0.028 H 
ATOM    149  H83 LEU d   1     -20.263  30.780 -25.910  0.00  0.00     0.028 H 
ATOM    150  H84 LEU d   1     -21.840  29.921 -25.863  0.00  0.00     0.028 H 
ENDBRANCH 145 147
BRANCH 145 151
ATOM    151  CD2 LEU d   1     -21.313  33.262 -26.546  0.00  0.00    -0.073 C 
ATOM    152  H85 LEU d   1     -21.733  33.959 -27.286  0.00  0.00     0.028 H 
ATOM    153  H86 LEU d   1     -20.221  33.212 -26.668  0.00  0.00     0.028 H 
ATOM    154  H87 LEU d   1     -21.553  33.615 -25.532  0.00  0.00     0.028 H 
ENDBRANCH 145 151
ENDBRANCH 142 145
ENDBRANCH  24 142
BRANCH  20 155
ATOM    155  CB  LEU d   1     -26.433  41.477 -31.691  0.00  0.00    -0.035 C 
ATOM    156  H24 LEU d   1     -27.388  41.989 -31.504  0.00  0.00     0.037 H 
ATOM    157  H25 LEU d   1     -26.072  41.731 -32.698  0.00  0.00     0.037 H 
BRANCH 155 158
ATOM    158  CG  LEU d   1     -25.408  41.956 -30.665  0.00  0.00    -0.059 C 
ATOM    159  H26 LEU d   1     -24.603  41.209 -30.600  0.00  0.00     0.038 H 
BRANCH 158 160
ATOM    160  CD1 LEU d   1     -24.805  43.270 -31.090  0.00  0.00    -0.073 C 
ATOM    161  H27 LEU d   1     -24.071  43.597 -30.339  0.00  0.00     0.028 H 
ATOM    162  H28 LEU d   1     -25.599  44.026 -31.180  0.00  0.00     0.028 H 
ATOM    163  H29 LEU d   1     -24.305  43.147 -32.062  0.00  0.00     0.028 H 
ENDBRANCH 158 160
BRANCH 158 164
ATOM    164  CD2 LEU d   1     -26.059  42.080 -29.304  0.00  0.00    -0.073 C 
ATOM    165  H30 LEU d   1     -26.491  41.111 -29.015  0.00  0.00     0.028 H 
ATOM    166  H31 LEU d   1     -26.854  42.839 -29.346  0.00  0.00     0.028 H 
ATOM    167  H32 LEU d   1     -25.304  42.380 -28.562  0.00  0.00     0.028 H 
ENDBRANCH 158 164
ENDBRANCH 155 158
ENDBRANCH  20 155
BRANCH  56 168
ATOM    168  CB  LYS d   1     -20.778  33.094 -33.612  0.00  0.00    -0.038 C 
ATOM    169  H90 LYS d   1     -20.088  33.939 -33.467  0.00  0.00     0.036 H 
ATOM    170  H91 LYS d   1     -21.810  33.427 -33.425  0.00  0.00     0.036 H 
BRANCH 168 171
ATOM    171  CG  LYS d   1     -20.682  32.652 -35.056  0.00  0.00    -0.061 C 
ATOM    172  H92 LYS d   1     -21.281  31.741 -35.198  0.00  0.00     0.033 H 
ATOM    173  H93 LYS d   1     -19.631  32.442 -35.303  0.00  0.00     0.033 H 
BRANCH 171 174
ATOM    174  CD  LYS d   1     -21.206  33.747 -35.977  0.00  0.00    -0.043 C 
ATOM    175  H94 LYS d   1     -20.583  34.645 -35.851  0.00  0.00     0.035 H 
ATOM    176  H95 LYS d   1     -22.244  33.979 -35.698  0.00  0.00     0.035 H 
BRANCH 174 177
ATOM    177  CE  LYS d   1     -21.172  33.328 -37.432  0.00  0.00     0.080 C 
ATOM    178  H96 LYS d   1     -21.857  32.479 -37.575  0.00  0.00     0.075 H 
ATOM    179  H97 LYS d   1     -20.148  33.020 -37.690  0.00  0.00     0.075 H 
BRANCH 177 180
ATOM    180  NZ  LYS d   1     -21.586  34.441 -38.338  0.00  0.00    -0.079 N 
ATOM    181  H98 LYS d   1     -21.551  34.126 -39.295  0.00  0.00     0.274 HD
ATOM    182  H99 LYS d   1     -20.960  35.222 -38.218  0.00  0.00     0.274 HD
ATOM    183 0H10 LYS d   1     -22.526  34.726 -38.112  0.00  0.00     0.274 HD
ENDBRANCH 177 180
ENDBRANCH 174 177
ENDBRANCH 171 174
ENDBRANCH 168 171
ENDBRANCH  56 168
BRANCH  14 184
ATOM    184  CB  ASP d   1     -23.943  36.294 -32.980  0.00  0.00     0.043 C 
ATOM    185  H20 ASP d   1     -24.603  35.480 -32.646  0.00  0.00     0.052 H 
ATOM    186  H21 ASP d   1     -22.928  35.901 -33.138  0.00  0.00     0.052 H 
BRANCH 184 187
ATOM    187  CG  ASP d   1     -24.465  36.829 -34.298  0.00  0.00     0.175 C 
ATOM    188  OD1 ASP d   1     -24.495  38.062 -34.489  0.00  0.00    -0.648 OA
ATOM    189  OD2 ASP d   1     -24.850  36.009 -35.154  0.00  0.00    -0.648 OA
ENDBRANCH 184 187
ENDBRANCH  14 184
BRANCH   8 190
ATOM    190  CB  PHE d   1     -22.529  37.184 -27.399  0.00  0.00    -0.014 C 
ATOM    191  H11 PHE d   1     -22.070  38.177 -27.285  0.00  0.00     0.043 H 
ATOM    192  H12 PHE d   1     -22.249  36.551 -26.544  0.00  0.00     0.043 H 
BRANCH 190 193
ATOM    193  CG  PHE d   1     -24.020  37.349 -27.396  0.00  0.00    -0.056 A 
ATOM    194  CD1 PHE d   1     -24.845  36.253 -27.223  0.00  0.00    -0.077 A 
ATOM    195  CE1 PHE d   1     -26.215  36.396 -27.211  0.00  0.00    -0.082 A 
ATOM    196  H13 PHE d   1     -24.408  35.269 -27.095  0.00  0.00     0.084 H 
ATOM    197  CZ  PHE d   1     -26.789  37.643 -27.376  0.00  0.00    -0.083 A 
ATOM    198  H15 PHE d   1     -26.847  35.526 -27.071  0.00  0.00     0.083 H 
ATOM    199  CE2 PHE d   1     -25.985  38.746 -27.548  0.00  0.00    -0.082 A 
ATOM    200  H17 PHE d   1     -27.868  37.751 -27.370  0.00  0.00     0.083 H 
ATOM    201  CD2 PHE d   1     -24.600  38.599 -27.555  0.00  0.00    -0.077 A 
ATOM    202  H16 PHE d   1     -26.428  39.727 -27.678  0.00  0.00     0.083 H 
ATOM    203  H14 PHE d   1     -23.969  39.471 -27.686  0.00  0.00     0.084 H 
ENDBRANCH 190 193
ENDBRANCH   8 190
BRANCH   2 204
ATOM    204  CB  GLN d   1     -17.606  36.372 -30.247  0.00  0.00    -0.030 C 
ATOM    205  H3  GLN d   1     -17.756  35.804 -31.177  0.00  0.00     0.037 H 
ATOM    206  H4  GLN d   1     -16.532  36.414 -30.013  0.00  0.00     0.037 H 
BRANCH 204 207
ATOM    207  CG  GLN d   1     -18.091  37.795 -30.483  0.00  0.00     0.011 C 
ATOM    208  H5  GLN d   1     -19.022  37.949 -29.918  0.00  0.00     0.047 H 
ATOM    209  H6  GLN d   1     -18.288  37.927 -31.557  0.00  0.00     0.047 H 
BRANCH 207 210
ATOM    210  CD  GLN d   1     -17.079  38.830 -30.044  0.00  0.00     0.215 C 
ATOM    211  OE1 GLN d   1     -16.264  38.584 -29.151  0.00  0.00    -0.274 OA
ATOM    212  NE2 GLN d   1     -17.125  39.998 -30.672  0.00  0.00    -0.370 N 
ATOM    213  H7  GLN d   1     -16.482  40.723 -30.427  0.00  0.00     0.159 HD
ATOM    214  H8  GLN d   1     -17.803  40.153 -31.391  0.00  0.00     0.159 HD
ENDBRANCH 207 210
ENDBRANCH 204 207
ENDBRANCH   2 204
TORSDOF 37
