REMARK WARNING: 32 MAX_TORS EXCEEDED!!!
REMARK  56 active torsions:
REMARK  status: ('A' for Active; 'I' for Inactive)
REMARK    1  A    between atoms: N_1  and  CA_2 
REMARK    2  A    between atoms: CA_2  and  C_3 
REMARK    3  A    between atoms: CA_2  and  CB_5 
REMARK       I    between atoms: C_3  and  N_10 
REMARK    4  A    between atoms: CB_5  and  CG_6 
REMARK    5  A    between atoms: CG_6  and  CD_7 
REMARK       I    between atoms: CD_7  and  NE2_9 
REMARK    6  A    between atoms: N_10  and  CA_11 
REMARK    7  A    between atoms: CA_11  and  C_12 
REMARK    8  A    between atoms: CA_11  and  CB_14 
REMARK       I    between atoms: C_12  and  N_21 
REMARK    9  A    between atoms: CB_14  and  CG_15 
REMARK   10  A    between atoms: N_21  and  CA_22 
REMARK   11  A    between atoms: CA_22  and  C_23 
REMARK   12  A    between atoms: CA_22  and  CB_25 
REMARK       I    between atoms: C_23  and  N_29 
REMARK   13  A    between atoms: CB_25  and  CG_26 
REMARK   14  A    between atoms: N_29  and  CA_30 
REMARK   15  A    between atoms: CA_30  and  C_31 
REMARK   16  A    between atoms: CA_30  and  CB_33 
REMARK       I    between atoms: C_31  and  N_37 
REMARK   17  A    between atoms: CB_33  and  CG_34 
REMARK   18  A    between atoms: CG_34  and  CD1_35 
REMARK   19  A    between atoms: CG_34  and  CD2_36 
REMARK   20  A    between atoms: N_37  and  CA_38 
REMARK   21  A    between atoms: CA_38  and  C_39 
REMARK   22  A    between atoms: CA_38  and  CB_41 
REMARK       I    between atoms: C_39  and  N_43 
REMARK   23  A    between atoms: CB_41  and  OG_42 
REMARK   24  A    between atoms: N_43  and  CA_44 
REMARK   25  A    between atoms: CA_44  and  C_45 
REMARK   26  A    between atoms: CA_44  and  CB_47 
REMARK       I    between atoms: C_45  and  N_50 
REMARK   27  A    between atoms: CB_47  and  OG1_48 
REMARK   28  A    between atoms: CB_47  and  CG2_49 
REMARK   29  A    between atoms: N_50  and  CA_51 
REMARK   30  A    between atoms: CA_51  and  C_52 
REMARK   31  A    between atoms: CA_51  and  CB_54 
REMARK       I    between atoms: C_52  and  N_66 
REMARK   32  A    between atoms: CB_54  and  CG_55 
REMARK   33  A    between atoms: CG_55  and  CD_56 
REMARK   34  A    between atoms: CD_56  and  NE_57 
REMARK       I    between atoms: NE_57  and  CZ_58 
REMARK       I    between atoms: CZ_58  and  NH1_59 
REMARK       I    between atoms: CZ_58  and  NH2_60 
REMARK   35  A    between atoms: NH2_60  and  C02_62 
REMARK   36  A    between atoms: C02_62  and  C01_61 
REMARK   37  A    between atoms: C01_61  and  C03_63 
REMARK   38  A    between atoms: N_66  and  CA_67 
REMARK   39  A    between atoms: CA_67  and  C_68 
REMARK   40  A    between atoms: CA_67  and  CB_70 
REMARK       I    between atoms: C_68  and  N_77 
REMARK   41  A    between atoms: CB_70  and  CG_71 
REMARK   42  A    between atoms: CG_71  and  CD_72 
REMARK   43  A    between atoms: CD_72  and  NE_73 
REMARK       I    between atoms: NE_73  and  CZ_74 
REMARK       I    between atoms: CZ_74  and  NH1_75 
REMARK   44  A    between atoms: N_77  and  CA_78 
REMARK   45  A    between atoms: CA_78  and  C_79 
REMARK   46  A    between atoms: CA_78  and  CB_81 
REMARK       I    between atoms: C_79  and  N_85 
REMARK   47  A    between atoms: CB_81  and  CG_82 
REMARK   48  A    between atoms: CG_82  and  CD1_83 
REMARK   49  A    between atoms: CG_82  and  CD2_84 
REMARK   50  A    between atoms: N_85  and  CA_86 
REMARK   51  A    between atoms: CA_86  and  C_87 
REMARK   52  A    between atoms: CA_86  and  CB_89 
REMARK   53  A    between atoms: CB_89  and  CG_90 
REMARK   54  A    between atoms: CG_90  and  CD_91 
REMARK   55  A    between atoms: CD_91  and  CE_92 
REMARK   56  A    between atoms: CE_92  and  NZ_93 
ROOT
ATOM      1  C   THR d   1     -29.052  34.951 -32.146  0.00  0.00     0.243 C 
ATOM      2  O   THR d   1     -29.757  34.025 -31.750  0.00  0.00    -0.271 OA
ATOM      3  N   C67 d   1     -28.451  35.815 -31.333  0.00  0.00    -0.346 N 
ATOM      4  H47 C67 d   1     -27.946  36.577 -31.737  0.00  0.00     0.163 HD
ENDROOT
BRANCH   3   5
ATOM      5  CA  C67 d   1     -28.496  35.699 -29.837  0.00  0.00     0.089 C 
ATOM      6  H48 C67 d   1     -27.956  36.560 -29.416  0.00  0.00     0.087 H 
BRANCH   5   7
ATOM      7  C   C67 d   1     -27.786  34.403 -29.405  0.00  0.00     0.241 C 
ATOM      8  O   C67 d   1     -28.120  33.774 -28.416  0.00  0.00    -0.271 OA
ATOM      9  N   ARG d   1     -26.777  34.019 -30.175  0.00  0.00    -0.346 N 
ATOM     10  H63 ARG d   1     -26.530  34.567 -30.974  0.00  0.00     0.163 HD
BRANCH   9  11
ATOM     11  CA  ARG d   1     -26.024  32.812 -29.874  0.00  0.00     0.089 C 
ATOM     12  H64 ARG d   1     -26.314  32.466 -28.871  0.00  0.00     0.087 H 
BRANCH  11  13
ATOM     13  C   ARG d   1     -24.528  33.089 -29.872  0.00  0.00     0.241 C 
ATOM     14  O   ARG d   1     -24.061  34.030 -30.513  0.00  0.00    -0.271 OA
ATOM     15  N   LEU d   1     -23.782  32.277 -29.130  0.00  0.00    -0.346 N 
ATOM     16  H76 LEU d   1     -24.221  31.632 -28.505  0.00  0.00     0.163 HD
BRANCH  15  17
ATOM     17  CA  LEU d   1     -22.330  32.321 -29.222  0.00  0.00     0.089 C 
ATOM     18  H77 LEU d   1     -22.001  33.369 -29.161  0.00  0.00     0.087 H 
BRANCH  17  19
ATOM     19  C   LEU d   1     -21.893  31.746 -30.564  0.00  0.00     0.241 C 
ATOM     20  O   LEU d   1     -22.413  30.723 -31.018  0.00  0.00    -0.271 OA
ATOM     21  N   LYS d   1     -20.951  32.421 -31.214  0.00  0.00    -0.345 N 
ATOM     22  H87 LYS d   1     -20.556  33.239 -30.796  0.00  0.00     0.163 HD
BRANCH  21  23
ATOM     23  CA  LYS d   1     -20.484  31.989 -32.526  0.00  0.00     0.096 C 
ATOM     24  H88 LYS d   1     -21.100  31.136 -32.847  0.00  0.00     0.089 H 
BRANCH  23  25
ATOM     25  C   LYS d   1     -19.030  31.532 -32.463  0.00  0.00     0.196 C 
ATOM     26  O   LYS d   1     -18.144  32.307 -32.112  0.00  0.00    -0.646 OA
ATOM     27  OXT LYS d   1     -18.721  30.381 -32.762  0.00  0.00    -0.646 OA
ENDBRANCH  23  25
BRANCH  23  28
ATOM     28  CB  LYS d   1     -20.645  33.114 -33.554  0.00  0.00    -0.037 C 
ATOM     29  H89 LYS d   1     -19.743  33.743 -33.522  0.00  0.00     0.036 H 
ATOM     30  H90 LYS d   1     -21.522  33.716 -33.273  0.00  0.00     0.036 H 
BRANCH  28  31
ATOM     31  CG  LYS d   1     -20.838  32.626 -34.985  0.00  0.00    -0.061 C 
ATOM     32  H91 LYS d   1     -21.660  31.896 -35.005  0.00  0.00     0.033 H 
ATOM     33  H92 LYS d   1     -19.910  32.143 -35.325  0.00  0.00     0.033 H 
BRANCH  31  34
ATOM     34  CD  LYS d   1     -21.173  33.775 -35.930  0.00  0.00    -0.043 C 
ATOM     35  H93 LYS d   1     -20.294  34.429 -36.024  0.00  0.00     0.035 H 
ATOM     36  H94 LYS d   1     -22.014  34.348 -35.513  0.00  0.00     0.035 H 
BRANCH  34  37
ATOM     37  CE  LYS d   1     -21.559  33.261 -37.310  0.00  0.00     0.080 C 
ATOM     38  H95 LYS d   1     -22.490  32.682 -37.226  0.00  0.00     0.075 H 
ATOM     39  H96 LYS d   1     -20.755  32.610 -37.684  0.00  0.00     0.075 H 
BRANCH  37  40
ATOM     40  NZ  LYS d   1     -21.770  34.373 -38.281  0.00  0.00    -0.079 N 
ATOM     41  H97 LYS d   1     -22.023  33.991 -39.179  0.00  0.00     0.274 HD
ATOM     42  H98 LYS d   1     -20.920  34.907 -38.370  0.00  0.00     0.274 HD
ATOM     43  H99 LYS d   1     -22.510  34.972 -37.950  0.00  0.00     0.274 HD
ENDBRANCH  37  40
ENDBRANCH  34  37
ENDBRANCH  31  34
ENDBRANCH  28  31
ENDBRANCH  23  28
ENDBRANCH  21  23
ENDBRANCH  17  19
BRANCH  17  44
ATOM     44  CB  LEU d   1     -21.697  31.542 -28.066  0.00  0.00    -0.035 C 
ATOM     45  H78 LEU d   1     -20.605  31.622 -28.169  0.00  0.00     0.037 H 
ATOM     46  H79 LEU d   1     -21.999  30.489 -28.169  0.00  0.00     0.037 H 
BRANCH  44  47
ATOM     47  CG  LEU d   1     -22.064  31.994 -26.645  0.00  0.00    -0.059 C 
ATOM     48  H80 LEU d   1     -23.161  32.047 -26.582  0.00  0.00     0.038 H 
BRANCH  47  49
ATOM     49  CD1 LEU d   1     -21.582  30.992 -25.598  0.00  0.00    -0.073 C 
ATOM     50  H81 LEU d   1     -21.861  31.347 -24.595  0.00  0.00     0.028 H 
ATOM     51  H82 LEU d   1     -20.488  30.894 -25.661  0.00  0.00     0.028 H 
ATOM     52  H83 LEU d   1     -22.049  30.014 -25.784  0.00  0.00     0.028 H 
ENDBRANCH  47  49
BRANCH  47  53
ATOM     53  CD2 LEU d   1     -21.509  33.381 -26.351  0.00  0.00    -0.073 C 
ATOM     54  H84 LEU d   1     -21.866  34.088 -27.114  0.00  0.00     0.028 H 
ATOM     55  H85 LEU d   1     -20.410  33.347 -26.368  0.00  0.00     0.028 H 
ATOM     56  H86 LEU d   1     -21.850  33.710 -25.358  0.00  0.00     0.028 H 
ENDBRANCH  47  53
ENDBRANCH  44  47
ENDBRANCH  17  44
ENDBRANCH  15  17
ENDBRANCH  11  13
BRANCH  11  57
ATOM     57  CB  ARG d   1     -26.354  31.707 -30.882  0.00  0.00    -0.036 C 
ATOM     58  H65 ARG d   1     -25.710  30.841 -30.667  0.00  0.00     0.036 H 
ATOM     59  H66 ARG d   1     -26.135  32.085 -31.891  0.00  0.00     0.036 H 
BRANCH  57  60
ATOM     60  CG  ARG d   1     -27.803  31.242 -30.852  0.00  0.00    -0.048 C 
ATOM     61  H67 ARG d   1     -27.969  30.543 -31.685  0.00  0.00     0.035 H 
ATOM     62  H68 ARG d   1     -28.459  32.117 -30.971  0.00  0.00     0.035 H 
BRANCH  60  63
ATOM     63  CD  ARG d   1     -28.149  30.540 -29.543  0.00  0.00     0.009 C 
ATOM     64  H69 ARG d   1     -29.161  30.116 -29.624  0.00  0.00     0.064 H 
ATOM     65  H70 ARG d   1     -28.125  31.278 -28.727  0.00  0.00     0.064 H 
BRANCH  63  66
ATOM     66  NE  ARG d   1     -27.210  29.464 -29.234  0.00  0.00    -0.227 N 
ATOM     67  CZ  ARG d   1     -27.244  28.255 -29.785  0.00  0.00     0.665 C 
ATOM     68  NH1 ARG d   1     -28.173  27.955 -30.686  0.00  0.00    -0.235 N 
ATOM     69  NH2 ARG d   1     -26.344  27.344 -29.438  0.00  0.00    -0.235 N 
ATOM     70  H72 ARG d   1     -28.195  27.017 -31.110  0.00  0.00     0.174 HD
ATOM     71  H73 ARG d   1     -28.871  28.661 -30.960  0.00  0.00     0.174 HD
ATOM     72  H74 ARG d   1     -25.622  27.573 -28.740  0.00  0.00     0.174 HD
ATOM     73  H75 ARG d   1     -26.367  26.408 -29.867  0.00  0.00     0.174 HD
ATOM     74  H71 ARG d   1     -26.471  29.655 -28.542  0.00  0.00     0.177 HD
ENDBRANCH  63  66
ENDBRANCH  60  63
ENDBRANCH  57  60
ENDBRANCH  11  57
ENDBRANCH   9  11
ENDBRANCH   5   7
BRANCH   5  75
ATOM     75  CB  C67 d   1     -29.914  35.695 -29.252  0.00  0.00    -0.036 C 
ATOM     76  H49 C67 d   1     -29.843  35.491 -28.174  0.00  0.00     0.036 H 
ATOM     77  H50 C67 d   1     -30.488  34.894 -29.740  0.00  0.00     0.036 H 
BRANCH  75  78
ATOM     78  CG  C67 d   1     -30.664  37.009 -29.444  0.00  0.00    -0.048 C 
ATOM     79  H51 C67 d   1     -31.023  37.078 -30.482  0.00  0.00     0.035 H 
ATOM     80  H52 C67 d   1     -29.989  37.851 -29.233  0.00  0.00     0.035 H 
BRANCH  78  81
ATOM     81  CD  C67 d   1     -31.856  37.059 -28.488  0.00  0.00     0.009 C 
ATOM     82  H53 C67 d   1     -31.485  37.043 -27.453  0.00  0.00     0.064 H 
ATOM     83  H54 C67 d   1     -32.492  36.179 -28.663  0.00  0.00     0.064 H 
BRANCH  81  84
ATOM     84  NE  C67 d   1     -32.674  38.304 -28.696  0.00  0.00    -0.227 N 
ATOM     85  CZ  C67 d   1     -33.559  38.696 -27.921  0.00  0.00     0.667 C 
ATOM     86  NH1 C67 d   1     -33.826  38.036 -26.876  0.00  0.00    -0.235 N 
ATOM     87  NH2 C67 d   1     -34.296  39.923 -28.220  0.00  0.00    -0.226 N 
ATOM     88  H56 C67 d   1     -34.562  38.364 -26.234  0.00  0.00     0.174 HD
ATOM     89  H57 C67 d   1     -33.308  37.171 -26.667  0.00  0.00     0.174 HD
ATOM     90  H58 C67 d   1     -35.030  40.245 -27.574  0.00  0.00     0.177 HD
ATOM     91  H55 C67 d   1     -32.487  38.868 -29.537  0.00  0.00     0.177 HD
BRANCH  87  92
ATOM     92  C02 C67 d   1     -34.004  40.697 -29.423  0.00  0.00     0.018 C 
ATOM     93  H61 C67 d   1     -33.293  40.142 -30.052  0.00  0.00     0.065 H 
ATOM     94  H62 C67 d   1     -33.564  41.664 -29.138  0.00  0.00     0.065 H 
BRANCH  92  95
ATOM     95  C01 C67 d   1     -35.302  40.937 -30.208  0.00  0.00     0.031 C 
ATOM     96  H59 C67 d   1     -36.115  40.406 -29.691  0.00  0.00     0.051 H 
ATOM     97  H60 C67 d   1     -35.172  40.517 -31.216  0.00  0.00     0.051 H 
BRANCH  95  98
ATOM     98  C03 C67 d   1     -35.701  42.354 -30.352  0.00  0.00     0.174 C 
ATOM     99  O02 C67 d   1     -34.766  43.273 -30.307  0.00  0.00    -0.648 OA
ATOM    100  O03 C67 d   1     -36.856  42.660 -30.507  0.00  0.00    -0.648 OA
ENDBRANCH  95  98
ENDBRANCH  92  95
ENDBRANCH  87  92
ENDBRANCH  81  84
ENDBRANCH  78  81
ENDBRANCH  75  78
ENDBRANCH   5  75
ENDBRANCH   3   5
BRANCH   1 101
ATOM    101  CA  THR d   1     -28.819  35.160 -33.639  0.00  0.00     0.113 C 
ATOM    102  H41 THR d   1     -29.789  35.082 -34.151  0.00  0.00     0.091 H 
BRANCH 101 103
ATOM    103  N   THR d   1     -28.257  36.470 -33.953  0.00  0.00    -0.344 N 
ATOM    104  C   SER d   1     -28.991  37.443 -34.486  0.00  0.00     0.243 C 
ATOM    105  O   SER d   1     -30.216  37.342 -34.631  0.00  0.00    -0.271 OA
ATOM    106  H40 THR d   1     -27.291  36.641 -33.762  0.00  0.00     0.163 HD
BRANCH 104 107
ATOM    107  CA  SER d   1     -28.269  38.720 -34.903  0.00  0.00     0.109 C 
ATOM    108  H36 SER d   1     -29.018  39.520 -35.001  0.00  0.00     0.090 H 
BRANCH 107 109
ATOM    109  N   SER d   1     -27.289  39.133 -33.904  0.00  0.00    -0.344 N 
ATOM    110  C   LEU d   1     -27.686  39.519 -32.690  0.00  0.00     0.241 C 
ATOM    111  O   LEU d   1     -28.877  39.531 -32.359  0.00  0.00    -0.271 OA
ATOM    112  H35 SER d   1     -26.315  39.127 -34.130  0.00  0.00     0.163 HD
BRANCH 110 113
ATOM    113  CA  LEU d   1     -26.619  39.963 -31.698  0.00  0.00     0.089 C 
ATOM    114  H25 LEU d   1     -26.959  39.689 -30.689  0.00  0.00     0.087 H 
BRANCH 113 115
ATOM    115  N   LEU d   1     -25.330  39.314 -31.931  0.00  0.00    -0.346 N 
ATOM    116  C   ASP d   1     -25.172  37.997 -31.756  0.00  0.00     0.241 C 
ATOM    117  O   ASP d   1     -26.109  37.224 -31.528  0.00  0.00    -0.271 OA
ATOM    118  H24 LEU d   1     -24.550  39.866 -32.227  0.00  0.00     0.163 HD
BRANCH 116 119
ATOM    119  CA  ASP d   1     -23.751  37.465 -31.884  0.00  0.00     0.098 C 
ATOM    120  H21 ASP d   1     -23.083  38.301 -32.137  0.00  0.00     0.088 H 
BRANCH 119 121
ATOM    121  N   ASP d   1     -23.324  36.894 -30.609  0.00  0.00    -0.345 N 
ATOM    122  C   PHE d   1     -22.345  37.413 -29.867  0.00  0.00     0.241 C 
ATOM    123  O   PHE d   1     -21.793  38.483 -30.137  0.00  0.00    -0.271 OA
ATOM    124  H20 ASP d   1     -23.789  36.074 -30.276  0.00  0.00     0.163 HD
BRANCH 122 125
ATOM    125  CA  PHE d   1     -21.954  36.616 -28.626  0.00  0.00     0.093 C 
ATOM    126  H12 PHE d   1     -22.359  35.598 -28.727  0.00  0.00     0.088 H 
BRANCH 125 127
ATOM    127  N   PHE d   1     -20.506  36.523 -28.480  0.00  0.00    -0.346 N 
ATOM    128  C   GLN d   1     -19.777  35.630 -29.148  0.00  0.00     0.249 C 
ATOM    129  O   GLN d   1     -20.234  34.924 -30.046  0.00  0.00    -0.271 OA
ATOM    130  H11 PHE d   1     -20.043  37.153 -27.856  0.00  0.00     0.163 HD
BRANCH 128 131
ATOM    131  CA  GLN d   1     -18.300  35.539 -28.750  0.00  0.00     0.176 C 
ATOM    132  H4  GLN d   1     -18.170  36.078 -27.800  0.00  0.00     0.099 H 
BRANCH 131 133
ATOM    133  N   GLN d   1     -17.872  34.156 -28.547  0.00  0.00    -0.066 N 
ATOM    134  H1  GLN d   1     -16.898  34.140 -28.287  0.00  0.00     0.275 HD
ATOM    135  H2  GLN d   1     -18.001  33.636 -29.401  0.00  0.00     0.275 HD
ATOM    136  H3  GLN d   1     -18.422  33.738 -27.813  0.00  0.00     0.275 HD
ENDBRANCH 131 133
BRANCH 131 137
ATOM    137  CB  GLN d   1     -17.429  36.215 -29.810  0.00  0.00    -0.022 C 
ATOM    138  H5  GLN d   1     -17.411  35.573 -30.703  0.00  0.00     0.037 H 
ATOM    139  H6  GLN d   1     -16.410  36.314 -29.409  0.00  0.00     0.037 H 
BRANCH 137 140
ATOM    140  CG  GLN d   1     -17.916  37.594 -30.222  0.00  0.00     0.011 C 
ATOM    141  H7  GLN d   1     -18.929  37.743 -29.820  0.00  0.00     0.047 H 
ATOM    142  H8  GLN d   1     -17.947  37.642 -31.320  0.00  0.00     0.047 H 
BRANCH 140 143
ATOM    143  CD  GLN d   1     -17.025  38.710 -29.715  0.00  0.00     0.215 C 
ATOM    144  OE1 GLN d   1     -16.275  38.537 -28.754  0.00  0.00    -0.274 OA
ATOM    145  NE2 GLN d   1     -17.098  39.865 -30.367  0.00  0.00    -0.370 N 
ATOM    146  H9  GLN d   1     -16.534  40.639 -30.079  0.00  0.00     0.159 HD
ATOM    147  H10 GLN d   1     -17.717  39.961 -31.146  0.00  0.00     0.159 HD
ENDBRANCH 140 143
ENDBRANCH 137 140
ENDBRANCH 131 137
ENDBRANCH 128 131
ENDBRANCH 125 127
BRANCH 125 148
ATOM    148  CB  PHE d   1     -22.556  37.262 -27.377  0.00  0.00    -0.014 C 
ATOM    149  H13 PHE d   1     -22.107  38.258 -27.252  0.00  0.00     0.043 H 
ATOM    150  H14 PHE d   1     -22.305  36.635 -26.508  0.00  0.00     0.043 H 
BRANCH 148 151
ATOM    151  CG  PHE d   1     -24.045  37.420 -27.430  0.00  0.00    -0.056 A 
ATOM    152  CD1 PHE d   1     -24.877  36.321 -27.287  0.00  0.00    -0.077 A 
ATOM    153  CE1 PHE d   1     -26.250  36.464 -27.328  0.00  0.00    -0.082 A 
ATOM    154  H15 PHE d   1     -24.445  35.337 -27.141  0.00  0.00     0.084 H 
ATOM    155  CZ  PHE d   1     -26.811  37.716 -27.512  0.00  0.00    -0.083 A 
ATOM    156  H17 PHE d   1     -26.889  35.595 -27.216  0.00  0.00     0.083 H 
ATOM    157  CE2 PHE d   1     -25.996  38.818 -27.651  0.00  0.00    -0.082 A 
ATOM    158  H19 PHE d   1     -27.889  37.829 -27.547  0.00  0.00     0.083 H 
ATOM    159  CD2 PHE d   1     -24.617  38.670 -27.606  0.00  0.00    -0.077 A 
ATOM    160  H18 PHE d   1     -26.432  39.800 -27.795  0.00  0.00     0.083 H 
ATOM    161  H16 PHE d   1     -23.980  39.541 -27.710  0.00  0.00     0.084 H 
ENDBRANCH 148 151
ENDBRANCH 125 148
ENDBRANCH 122 125
ENDBRANCH 119 121
BRANCH 119 162
ATOM    162  CB  ASP d   1     -23.664  36.420 -32.999  0.00  0.00     0.043 C 
ATOM    163  H22 ASP d   1     -24.198  35.515 -32.675  0.00  0.00     0.052 H 
ATOM    164  H23 ASP d   1     -22.605  36.178 -33.173  0.00  0.00     0.052 H 
BRANCH 162 165
ATOM    165  CG  ASP d   1     -24.271  36.901 -34.300  0.00  0.00     0.175 C 
ATOM    166  OD1 ASP d   1     -23.953  38.032 -34.726  0.00  0.00    -0.648 OA
ATOM    167  OD2 ASP d   1     -25.056  36.141 -34.905  0.00  0.00    -0.648 OA
ENDBRANCH 162 165
ENDBRANCH 119 162
ENDBRANCH 116 119
ENDBRANCH 113 115
BRANCH 113 168
ATOM    168  CB  LEU d   1     -26.453  41.480 -31.758  0.00  0.00    -0.035 C 
ATOM    169  H26 LEU d   1     -27.436  41.945 -31.595  0.00  0.00     0.037 H 
ATOM    170  H27 LEU d   1     -26.081  41.751 -32.757  0.00  0.00     0.037 H 
BRANCH 168 171
ATOM    171  CG  LEU d   1     -25.481  42.026 -30.716  0.00  0.00    -0.059 C 
ATOM    172  H28 LEU d   1     -24.572  41.407 -30.726  0.00  0.00     0.038 H 
BRANCH 171 173
ATOM    173  CD1 LEU d   1     -25.096  43.446 -31.049  0.00  0.00    -0.073 C 
ATOM    174  H29 LEU d   1     -24.396  43.824 -30.289  0.00  0.00     0.028 H 
ATOM    175  H30 LEU d   1     -25.997  44.077 -31.063  0.00  0.00     0.028 H 
ATOM    176  H31 LEU d   1     -24.614  43.473 -32.037  0.00  0.00     0.028 H 
ENDBRANCH 171 173
BRANCH 171 177
ATOM    177  CD2 LEU d   1     -26.103  41.946 -29.335  0.00  0.00    -0.073 C 
ATOM    178  H32 LEU d   1     -26.375  40.903 -29.115  0.00  0.00     0.028 H 
ATOM    179  H33 LEU d   1     -27.005  42.575 -29.302  0.00  0.00     0.028 H 
ATOM    180  H34 LEU d   1     -25.380  42.302 -28.586  0.00  0.00     0.028 H 
ENDBRANCH 171 177
ENDBRANCH 168 171
ENDBRANCH 113 168
ENDBRANCH 110 113
ENDBRANCH 107 109
BRANCH 107 181
ATOM    181  CB  SER d   1     -27.587  38.528 -36.257  0.00  0.00     0.044 C 
ATOM    182  H37 SER d   1     -28.331  38.177 -36.987  0.00  0.00     0.077 H 
ATOM    183  H38 SER d   1     -26.791  37.776 -36.154  0.00  0.00     0.077 H 
BRANCH 181 184
ATOM    184  OG  SER d   1     -27.020  39.741 -36.722  0.00  0.00    -0.398 OA
ATOM    185  H39 SER d   1     -27.704  40.393 -36.816  0.00  0.00     0.209 HD
ENDBRANCH 181 184
ENDBRANCH 107 181
ENDBRANCH 104 107
ENDBRANCH 101 103
BRANCH 101 186
ATOM    186  CB  THR d   1     -27.904  34.033 -34.148  0.00  0.00     0.060 C 
ATOM    187  H42 THR d   1     -28.372  33.062 -33.927  0.00  0.00     0.086 H 
BRANCH 186 188
ATOM    188  OG1 THR d   1     -26.634  34.110 -33.486  0.00  0.00    -0.393 OA
ATOM    189  H43 THR d   1     -26.233  34.951 -33.670  0.00  0.00     0.210 HD
ENDBRANCH 186 188
BRANCH 186 190
ATOM    190  CG2 THR d   1     -27.693  34.155 -35.648  0.00  0.00    -0.050 C 
ATOM    191  H44 THR d   1     -27.037  33.342 -35.993  0.00  0.00     0.031 H 
ATOM    192  H45 THR d   1     -27.226  35.124 -35.875  0.00  0.00     0.031 H 
ATOM    193  H46 THR d   1     -28.663  34.087 -36.162  0.00  0.00     0.031 H 
ENDBRANCH 186 190
ENDBRANCH 101 186
ENDBRANCH   1 101
TORSDOF 56
