REMARK  7 active torsions:
REMARK  status: ('A' for Active; 'I' for Inactive)
REMARK    1  A    between atoms: C2_2  and  O_19 
REMARK       I    between atoms: N3_3  and  C10_27 
REMARK    2  A    between atoms: C5_5  and  C4_4 
REMARK    3  A    between atoms: C4_4  and  N_21 
REMARK       I    between atoms: N1_23  and  C5_5 
REMARK    4  A    between atoms: C11_9  and  C12_10 
REMARK    5  A    between atoms: C10_27  and  C11_9 
REMARK    6  A    between atoms: N_21  and  C3_18 
REMARK    7  A    between atoms: N2_25  and  C8_26 
ROOT
ATOM      1  C5  C8G d   1      -7.182  11.129  13.879  0.00  0.00     0.237 C 
ATOM      2  C6  C8G d   1      -7.940  10.388  11.670  0.00  0.00     0.020 C 
ATOM      3  C7  C8G d   1      -7.462   9.207  10.821  0.00  0.00     0.099 C 
ATOM      4  C14 C8G d   1      -7.667   7.673  12.758  0.00  0.00     0.099 C 
ATOM      5  O2  C8G d   1      -6.851  12.208  13.398  0.00  0.00    -0.272 OA
ATOM      6  N1  C8G d   1      -7.634  10.138  13.106  0.00  0.00    -0.348 N 
ATOM      7  C15 C8G d   1      -8.046   8.841  13.660  0.00  0.00     0.020 C 
ATOM      8  N2  C8G d   1      -7.922   7.905  11.345  0.00  0.00    -0.061 N 
ATOM      9  H3  C8G d   1      -9.026  10.511  11.545  0.00  0.00     0.066 H 
ATOM     10  H4  C8G d   1      -7.427  11.304  11.342  0.00  0.00     0.066 H 
ATOM     11  H5  C8G d   1      -6.362   9.210  10.802  0.00  0.00     0.078 H 
ATOM     12  H6  C8G d   1      -7.847   9.330   9.798  0.00  0.00     0.078 H 
ATOM     13  H16 C8G d   1      -8.245   6.792  13.073  0.00  0.00     0.078 H 
ATOM     14  H17 C8G d   1      -6.593   7.472  12.886  0.00  0.00     0.078 H 
ATOM     15  H22 C8G d   1      -7.559   8.704  14.637  0.00  0.00     0.066 H 
ATOM     16  H23 C8G d   1      -9.138   8.845  13.792  0.00  0.00     0.066 H 
ATOM     17  H24 C8G d   1      -8.919   8.056  11.338  0.00  0.00     0.280 HD
ENDROOT
BRANCH   1  18
ATOM     18  C4  C8G d   1      -7.072  10.827  15.371  0.00  0.00     0.066 C 
ATOM     19  H1  C8G d   1      -6.051  10.495  15.608  0.00  0.00     0.078 H 
ATOM     20  H2  C8G d   1      -7.787  10.037  15.644  0.00  0.00     0.078 H 
BRANCH  18  21
ATOM     21  N   C8G d   1      -7.378  12.047  16.113  0.00  0.00    -0.379 N 
ATOM     22  H21 C8G d   1      -6.624  12.645  16.480  0.00  0.00     0.160 HD
BRANCH  21  23
ATOM     23  C3  C8G d   1      -8.677  12.371  16.306  0.00  0.00     0.063 A 
ATOM     24  C2  C8G d   1      -9.007  13.456  17.232  0.00  0.00     0.093 A 
ATOM     25  C1  C8G d   1     -10.334  13.782  17.489  0.00  0.00    -0.026 A 
ATOM     26  C   C8G d   1     -11.307  13.135  16.785  0.00  0.00     0.058 A 
ATOM     27  H20 C8G d   1     -10.589  14.531  18.230  0.00  0.00     0.090 H 
ATOM     28  C17 C8G d   1     -11.018  12.055  15.876  0.00  0.00     0.058 A 
ATOM     29 CL   C8G d   1     -13.008  13.500  16.984  0.00  0.00    -0.082 Cl
ATOM     30  C16 C8G d   1      -9.713  11.712  15.647  0.00  0.00    -0.032 A 
ATOM     31 CL1  C8G d   1     -12.256  11.074  15.036  0.00  0.00    -0.082 Cl
ATOM     32  H18 C8G d   1      -9.483  10.919  14.945  0.00  0.00     0.089 H 
BRANCH  24  33
ATOM     33  O   C8G d   1      -8.035  14.091  17.933  0.00  0.00    -0.358 OA
ATOM     34  H19 C8G d   1      -8.427  14.762  18.480  0.00  0.00     0.217 HD
ENDBRANCH  24  33
ENDBRANCH  21  23
ENDBRANCH  18  21
ENDBRANCH   1  18
BRANCH   8  35
ATOM     35  C8  C8G d   1      -7.830   6.665  10.544  0.00  0.00     0.134 A 
ATOM     36  C9  C8G d   1      -6.388   6.434   9.982  0.00  0.00     0.026 A 
ATOM     37  N3  C8G d   1      -6.982   6.645   8.663  0.00  0.00    -0.348 N 
ATOM     38  H7  C8G d   1      -5.645   7.188  10.283  0.00  0.00     0.067 H 
ATOM     39  H8  C8G d   1      -5.979   5.427  10.152  0.00  0.00     0.067 H 
ATOM     40  C13 C8G d   1      -8.349   6.849   9.160  0.00  0.00     0.026 A 
ATOM     41  C10 C8G d   1      -6.568   6.282   7.427  0.00  0.00     0.219 C 
ATOM     42  H14 C8G d   1      -9.069   6.082   8.838  0.00  0.00     0.067 H 
ATOM     43  H15 C8G d   1      -8.762   7.848   8.958  0.00  0.00     0.067 H 
ATOM     44  O1  C8G d   1      -7.375   6.187   6.494  0.00  0.00    -0.273 OA
ATOM     45  H25 C8G d   1      -8.258   5.813  11.092  0.00  0.00     0.089 H 
BRANCH  41  46
ATOM     46  C11 C8G d   1      -5.127   5.910   7.199  0.00  0.00     0.006 C 
ATOM     47  H9  C8G d   1      -4.713   6.505   6.372  0.00  0.00     0.046 H 
ATOM     48  H10 C8G d   1      -4.543   6.096   8.113  0.00  0.00     0.046 H 
BRANCH  46  49
ATOM     49  C12 C8G d   1      -5.080   4.422   6.845  0.00  0.00    -0.068 C 
ATOM     50  H11 C8G d   1      -4.037   4.119   6.672  0.00  0.00     0.028 H 
ATOM     51  H12 C8G d   1      -5.670   4.243   5.934  0.00  0.00     0.028 H 
ATOM     52  H13 C8G d   1      -5.500   3.834   7.675  0.00  0.00     0.028 H 
ENDBRANCH  46  49
ENDBRANCH  41  46
ENDBRANCH   8  35
TORSDOF 7
