REMARK  4 active torsions:
REMARK  status: ('A' for Active; 'I' for Inactive)
REMARK    1  A    between atoms: C13_1  and  C14_20 
REMARK    2  A    between atoms: C27_28  and  C28_7 
REMARK       I    between atoms: N03_10  and  C02_9 
REMARK    3  A    between atoms: C02_9  and  C27_28 
REMARK    4  A    between atoms: C07_14  and  N06_13 
ROOT
ATOM      1  C13 8ZG d   1     -10.440   9.199  15.666  0.00  0.00     0.001 A 
ATOM      2  C21 8ZG d   1      -9.988   9.271  14.383  0.00  0.00     0.046 A 
ATOM      3  C22 8ZG d   1      -9.200   8.374  13.811  0.00  0.00    -0.045 A 
ATOM      4  C07 8ZG d   1      -7.918   6.205  14.011  0.00  0.00     0.139 C 
ATOM      5  N08 8ZG d   1      -7.467   5.213  14.883  0.00  0.00    -0.224 NA
ATOM      6  C09 8ZG d   1      -7.908   5.162  16.114  0.00  0.00     0.089 C 
ATOM      7  N10 8ZG d   1      -8.700   6.143  16.631  0.00  0.00    -0.241 NA
ATOM      8  C11 8ZG d   1      -9.198   7.136  15.808  0.00  0.00     0.073 A 
ATOM      9  C12 8ZG d   1     -10.004   8.104  16.383  0.00  0.00    -0.042 A 
ATOM     10  C23 8ZG d   1      -8.731   7.276  14.517  0.00  0.00     0.040 A 
ATOM     11 CL24 8ZG d   1     -10.408  10.700  13.375  0.00  0.00    -0.083 Cl
ATOM     12  H3  8ZG d   1      -8.916   8.500  12.772  0.00  0.00     0.087 H 
ATOM     13  H13 8ZG d   1      -7.636   4.318  16.738  0.00  0.00     0.146 H 
ATOM     14  H14 8ZG d   1     -10.299   7.999  17.421  0.00  0.00     0.088 H 
ENDROOT
BRANCH   4  15
ATOM     15  N06 8ZG d   1      -7.498   6.067  12.718  0.00  0.00    -0.362 N 
ATOM     16  C05 8ZG d   1      -6.539   5.053  12.377  0.00  0.00     0.011 C 
ATOM     17  C04 8ZG d   1      -5.991   5.481  11.051  0.00  0.00     0.013 C 
ATOM     18  H11 8ZG d   1      -5.739   5.006  13.131  0.00  0.00     0.066 H 
ATOM     19  H12 8ZG d   1      -7.026   4.070  12.297  0.00  0.00     0.066 H 
ATOM     20  N03 8ZG d   1      -7.041   5.446  10.010  0.00  0.00    -0.349 N 
ATOM     21  H9  8ZG d   1      -5.602   6.506  11.136  0.00  0.00     0.066 H 
ATOM     22  H10 8ZG d   1      -5.175   4.802  10.762  0.00  0.00     0.066 H 
ATOM     23  C26 8ZG d   1      -8.412   5.630  10.531  0.00  0.00     0.013 C 
ATOM     24  C02 8ZG d   1      -6.768   5.260   8.708  0.00  0.00     0.219 C 
ATOM     25  C25 8ZG d   1      -8.361   6.599  11.660  0.00  0.00     0.011 C 
ATOM     26  H4  8ZG d   1      -8.807   4.667  10.886  0.00  0.00     0.066 H 
ATOM     27  H5  8ZG d   1      -9.062   6.021   9.735  0.00  0.00     0.066 H 
ATOM     28  H17 8ZG d   1      -9.375   6.754  12.057  0.00  0.00     0.066 H 
ATOM     29  H18 8ZG d   1      -7.956   7.558  11.303  0.00  0.00     0.066 H 
ATOM     30  O01 8ZG d   1      -7.747   5.281   7.911  0.00  0.00    -0.273 OA
BRANCH  24  31
ATOM     31  C27 8ZG d   1      -5.373   5.051   8.143  0.00  0.00     0.006 C 
ATOM     32  H19 8ZG d   1      -5.189   5.781   7.341  0.00  0.00     0.046 H 
ATOM     33  H20 8ZG d   1      -4.629   5.188   8.942  0.00  0.00     0.046 H 
BRANCH  31  34
ATOM     34  C28 8ZG d   1      -5.260   3.641   7.581  0.00  0.00    -0.068 C 
ATOM     35  H6  8ZG d   1      -4.250   3.489   7.172  0.00  0.00     0.028 H 
ATOM     36  H7  8ZG d   1      -6.004   3.504   6.782  0.00  0.00     0.028 H 
ATOM     37  H8  8ZG d   1      -5.444   2.911   8.383  0.00  0.00     0.028 H 
ENDBRANCH  31  34
ENDBRANCH  24  31
ENDBRANCH   4  15
BRANCH   1  38
ATOM     38  C14 8ZG d   1     -11.316  10.245  16.292  0.00  0.00     0.014 A 
ATOM     39  C15 8ZG d   1     -10.799  10.990  17.289  0.00  0.00    -0.069 A 
ATOM     40  C16 8ZG d   1     -11.576  11.963  17.918  0.00  0.00    -0.082 A 
ATOM     41  H1  8ZG d   1      -9.774  10.832  17.604  0.00  0.00     0.085 H 
ATOM     42  C17 8ZG d   1     -12.882  12.157  17.472  0.00  0.00    -0.080 A 
ATOM     43  H15 8ZG d   1     -11.174  12.553  18.733  0.00  0.00     0.083 H 
ATOM     44  C18 8ZG d   1     -13.393  11.484  16.411  0.00  0.00    -0.045 A 
ATOM     45  H2  8ZG d   1     -13.511  12.871  17.991  0.00  0.00     0.083 H 
ATOM     46  C19 8ZG d   1     -12.597  10.514  15.796  0.00  0.00     0.127 A 
ATOM     47  H16 8ZG d   1     -14.393  11.693  16.049  0.00  0.00     0.088 H 
ATOM     48  F20 8ZG d   1     -13.077   9.759  14.789  0.00  0.00    -0.205 F 
ENDBRANCH   1  38
TORSDOF 4
