REMARK  7 active torsions:
REMARK  status: ('A' for Active; 'I' for Inactive)
REMARK    1  A    between atoms: C2_14  and  C4_1 
REMARK    2  A    between atoms: C15_8  and  N14_17 
REMARK    3  A    between atoms: N21_22  and  C22_10 
REMARK    4  A    between atoms: C24_11  and  C28_12 
REMARK    5  A    between atoms: C2_14  and  C1_13 
REMARK    6  A    between atoms: N14_17  and  C2_14 
REMARK    7  A    between atoms: C19_20  and  N21_22 
ROOT
ATOM      1  C15 C7Y d   1      12.591 -14.690  15.499  0.00  0.00     0.724 A 
ATOM      2  C17 C7Y d   1      11.362 -15.465  17.291  0.00  0.00     0.025 A 
ATOM      3  N16 C7Y d   1      11.441 -14.789  16.155  0.00  0.00    -0.075 NA
ATOM      4  C18 C7Y d   1      12.499 -16.072  17.791  0.00  0.00    -0.020 A 
ATOM      5  C19 C7Y d   1      13.698 -15.957  17.076  0.00  0.00     0.149 A 
ATOM      6  N20 C7Y d   1      13.701 -15.258  15.946  0.00  0.00    -0.045 NA
ATOM      7  H5  C7Y d   1      10.419 -15.541  17.821  0.00  0.00     0.115 H 
ATOM      8  H13 C7Y d   1      12.463 -16.628  18.721  0.00  0.00     0.091 H 
ENDROOT
BRANCH   1   9
ATOM      9  N14 C7Y d   1      12.633 -13.977  14.313  0.00  0.00    -0.213 N 
ATOM     10  H12 C7Y d   1      11.842 -13.373  14.049  0.00  0.00     0.178 HD
BRANCH   9  11
ATOM     11  C2  C7Y d   1      13.797 -14.079  13.435  0.00  0.00     0.065 C 
ATOM     12  H10 C7Y d   1      14.276 -15.059  13.574  0.00  0.00     0.082 H 
BRANCH  11  13
ATOM     13  C4  C7Y d   1      14.782 -12.984  13.749  0.00  0.00     0.058 A 
ATOM     14  C5  C7Y d   1      14.473 -12.006  14.688  0.00  0.00    -0.055 A 
ATOM     15  C6  C7Y d   1      15.397 -11.009  14.956  0.00  0.00    -0.053 A 
ATOM     16  H1  C7Y d   1      13.520 -12.024  15.204  0.00  0.00     0.086 H 
ATOM     17  C7  C7Y d   1      16.611 -11.027  14.262  0.00  0.00     0.061 A 
ATOM     18  H2  C7Y d   1      15.184 -10.235  15.685  0.00  0.00     0.087 H 
ATOM     19  C8  C7Y d   1      16.849 -12.051  13.325  0.00  0.00     0.085 A 
ATOM     20  N12 C7Y d   1      17.729 -10.222  14.267  0.00  0.00    -0.364 N 
ATOM     21  C10 C7Y d   1      18.181 -11.798  12.775  0.00  0.00    -0.038 A 
ATOM     22  N9  C7Y d   1      15.929 -12.984  13.109  0.00  0.00    -0.249 NA
ATOM     23  C11 C7Y d   1      18.652 -10.691  13.374  0.00  0.00    -0.020 A 
ATOM     24  H3  C7Y d   1      18.694 -12.394  12.022  0.00  0.00     0.089 H 
ATOM     25  H11 C7Y d   1      19.622 -10.236  13.178  0.00  0.00     0.111 H 
ATOM     26  H4  C7Y d   1      17.852  -9.387  14.858  0.00  0.00     0.165 HD
ENDBRANCH  11  13
BRANCH  11  27
ATOM     27  C1  C7Y d   1      13.350 -13.920  11.981  0.00  0.00    -0.052 C 
ATOM     28  H7  C7Y d   1      12.629 -14.712  11.730  0.00  0.00     0.030 H 
ATOM     29  H8  C7Y d   1      14.224 -13.998  11.318  0.00  0.00     0.030 H 
ATOM     30  H9  C7Y d   1      12.876 -12.937  11.849  0.00  0.00     0.030 H 
ENDBRANCH  11  27
ENDBRANCH   9  11
ENDBRANCH   1   9
BRANCH   5  31
ATOM     31  N21 C7Y d   1      14.844 -16.560  17.578  0.00  0.00    -0.325 N 
ATOM     32  H14 C7Y d   1      14.842 -16.795  18.581  0.00  0.00     0.169 HD
BRANCH  31  33
ATOM     33  C22 C7Y d   1      16.007 -16.882  16.854  0.00  0.00     0.125 A 
ATOM     34  C23 C7Y d   1      16.394 -16.494  15.551  0.00  0.00    -0.013 A 
ATOM     35  C24 C7Y d   1      17.605 -17.052  15.290  0.00  0.00     0.062 A 
ATOM     36  H15 C7Y d   1      15.822 -15.860  14.875  0.00  0.00     0.092 H 
ATOM     37  N25 C7Y d   1      17.965 -17.757  16.382  0.00  0.00    -0.177 NA
ATOM     38  N27 C7Y d   1      16.959 -17.640  17.342  0.00  0.00    -0.262 N 
ATOM     39  H16 C7Y d   1      16.964 -18.075  18.276  0.00  0.00     0.191 HD
BRANCH  35  40
ATOM     40  C28 C7Y d   1      18.445 -16.946  14.031  0.00  0.00    -0.010 A 
ATOM     41  C29 C7Y d   1      17.818 -16.384  12.752  0.00  0.00    -0.056 A 
ATOM     42  C30 C7Y d   1      18.853 -15.560  13.523  0.00  0.00    -0.056 A 
ATOM     43  H17 C7Y d   1      16.762 -16.075  12.747  0.00  0.00     0.034 H 
ATOM     44  H18 C7Y d   1      18.078 -16.818  11.775  0.00  0.00     0.034 H 
ATOM     45  H19 C7Y d   1      19.856 -15.402  13.100  0.00  0.00     0.034 H 
ATOM     46  H20 C7Y d   1      18.541 -14.659  14.072  0.00  0.00     0.034 H 
ATOM     47  H6  C7Y d   1      19.151 -17.788  13.979  0.00  0.00     0.049 H 
ENDBRANCH  35  40
ENDBRANCH  31  33
ENDBRANCH   5  31
TORSDOF 7
