REMARK  4 active torsions:
REMARK  status: ('A' for Active; 'I' for Inactive)
REMARK    1  A    between atoms: C6_3  and  C7_5 
REMARK    2  A    between atoms: N1_4  and  C9_8 
REMARK    3  A    between atoms: C12_11  and  O_19 
REMARK    4  A    between atoms: N_17  and  C_18 
ROOT
ATOM      1  C4  C9J d   1     -42.494  41.497  11.716  0.00  0.00    -0.068 A 
ATOM      2  C5  C9J d   1     -42.015  41.010  10.514  0.00  0.00    -0.052 A 
ATOM      3  C6  C9J d   1     -41.633  41.934   9.551  0.00  0.00     0.089 A 
ATOM      4  C15 C9J d   1     -42.148  43.736  10.909  0.00  0.00     0.135 A 
ATOM      5  N4  C9J d   1     -41.683  43.261   9.733  0.00  0.00    -0.240 NA
ATOM      6  N   C9J d   1     -42.673  45.668  12.291  0.00  0.00    -0.327 N 
ATOM      7  C1  C9J d   1     -43.080  44.812  13.295  0.00  0.00    -0.017 A 
ATOM      8  C16 C9J d   1     -42.188  45.210  11.050  0.00  0.00     0.276 A 
ATOM      9  C2  C9J d   1     -43.046  43.481  13.174  0.00  0.00    -0.056 A 
ATOM     10  C3  C9J d   1     -42.572  42.880  11.956  0.00  0.00    -0.000 A 
ATOM     11  O1  C9J d   1     -41.833  46.003  10.185  0.00  0.00    -0.265 OA
ATOM     12  H1  C9J d   1     -42.814  40.803  12.484  0.00  0.00     0.085 H 
ATOM     13  H2  C9J d   1     -41.940  39.944  10.330  0.00  0.00     0.087 H 
ATOM     14  H11 C9J d   1     -43.445  45.240  14.227  0.00  0.00     0.111 H 
ATOM     15  H12 C9J d   1     -43.377  42.851  13.998  0.00  0.00     0.086 H 
ENDROOT
BRANCH   3  16
ATOM     16  C7  C9J d   1     -41.052  41.537   8.268  0.00  0.00     0.127 A 
ATOM     17  C8  C9J d   1     -40.556  40.319   7.890  0.00  0.00     0.038 A 
ATOM     18  N1  C9J d   1     -40.080  40.518   6.650  0.00  0.00    -0.224 N 
ATOM     19  H3  C9J d   1     -40.549  39.395   8.466  0.00  0.00     0.118 H 
ATOM     20  N2  C9J d   1     -40.225  41.809   6.269  0.00  0.00    -0.060 NA
ATOM     21  N3  C9J d   1     -40.793  42.430   7.270  0.00  0.00    -0.128 NA
BRANCH  18  22
ATOM     22  C9  C9J d   1     -39.468  39.591   5.757  0.00  0.00     0.062 A 
ATOM     23  C10 C9J d   1     -38.714  38.529   6.240  0.00  0.00    -0.052 A 
ATOM     24  C11 C9J d   1     -38.111  37.642   5.366  0.00  0.00    -0.046 A 
ATOM     25  H4  C9J d   1     -38.597  38.394   7.309  0.00  0.00     0.087 H 
ATOM     26  C12 C9J d   1     -38.255  37.801   3.995  0.00  0.00     0.104 A 
ATOM     27  H5  C9J d   1     -37.523  36.818   5.754  0.00  0.00     0.087 H 
ATOM     28  C13 C9J d   1     -39.015  38.892   3.557  0.00  0.00     0.151 A 
ATOM     29  C14 C9J d   1     -39.618  39.783   4.391  0.00  0.00    -0.015 A 
ATOM     30  F   C9J d   1     -39.165  39.069   2.223  0.00  0.00    -0.203 F 
ATOM     31  H6  C9J d   1     -40.195  40.614   4.002  0.00  0.00     0.091 H 
BRANCH  26  32
ATOM     32  O   C9J d   1     -37.669  36.912   3.156  0.00  0.00    -0.358 OA
ATOM     33  H10 C9J d   1     -38.336  36.491   2.627  0.00  0.00     0.217 HD
ENDBRANCH  26  32
ENDBRANCH  18  22
ENDBRANCH   3  16
BRANCH   6  34
ATOM     34  C   C9J d   1     -42.735  47.118  12.490  0.00  0.00    -0.011 C 
ATOM     35  H7  C9J d   1     -43.129  47.334  13.494  0.00  0.00     0.057 H 
ATOM     36  H8  C9J d   1     -43.397  47.564  11.733  0.00  0.00     0.057 H 
ATOM     37  H9  C9J d   1     -41.726  47.545  12.393  0.00  0.00     0.057 H 
ENDBRANCH   6  34
TORSDOF 4
