REMARK  5 active torsions:
REMARK  status: ('A' for Active; 'I' for Inactive)
REMARK       I    between atoms: C14_2  and  N15_3 
REMARK    1  A    between atoms: C14_2  and  C13_10 
REMARK    2  A    between atoms: C16_7  and  C20_8 
REMARK    3  A    between atoms: C13_10  and  N12_11 
REMARK    4  A    between atoms: N12_11  and  C7_12 
REMARK    5  A    between atoms: C3_20  and  O4_21 
ROOT
ATOM      1  C7  LF7 d   1      40.255  51.894  36.079  0.00  0.00     0.130 C 
ATOM      2  C8  LF7 d   1      39.677  51.413  37.436  0.00  0.00    -0.030 C 
ATOM      3  C1  LF7 d   1      40.833  51.249  38.439  0.00  0.00    -0.049 C 
ATOM      4  C2  LF7 d   1      41.926  50.301  37.900  0.00  0.00    -0.058 C 
ATOM      5  C10 LF7 d   1      42.494  50.843  36.582  0.00  0.00    -0.049 C 
ATOM      6  C9  LF7 d   1      41.301  50.877  35.589  0.00  0.00    -0.030 C 
ATOM      7  C5  LF7 d   1      43.054  52.257  36.818  0.00  0.00    -0.033 C 
ATOM      8  C21 LF7 d   1      41.437  52.638  38.681  0.00  0.00    -0.033 C 
ATOM      9  C3  LF7 d   1      41.978  53.195  37.367  0.00  0.00     0.061 C 
ATOM     10  C6  LF7 d   1      40.868  53.290  36.310  0.00  0.00    -0.005 C 
ATOM     11  H14 LF7 d   1      39.167  50.448  37.299  0.00  0.00     0.037 H 
ATOM     12  H15 LF7 d   1      38.960  52.156  37.816  0.00  0.00     0.037 H 
ATOM     13  H16 LF7 d   1      40.441  50.843  39.383  0.00  0.00     0.040 H 
ATOM     14  H17 LF7 d   1      41.491  49.306  37.726  0.00  0.00     0.034 H 
ATOM     15  H18 LF7 d   1      42.736  50.223  38.640  0.00  0.00     0.034 H 
ATOM     16  H19 LF7 d   1      43.291  50.187  36.202  0.00  0.00     0.040 H 
ATOM     17  H20 LF7 d   1      41.661  51.173  34.593  0.00  0.00     0.037 H 
ATOM     18  H21 LF7 d   1      40.843  49.879  35.532  0.00  0.00     0.037 H 
ATOM     19  H22 LF7 d   1      43.427  52.659  35.864  0.00  0.00     0.037 H 
ATOM     20  H23 LF7 d   1      43.882  52.199  37.540  0.00  0.00     0.037 H 
ATOM     21  H24 LF7 d   1      42.257  52.559  39.410  0.00  0.00     0.037 H 
ATOM     22  H25 LF7 d   1      40.661  53.312  39.073  0.00  0.00     0.037 H 
ATOM     23  H27 LF7 d   1      40.086  53.980  36.661  0.00  0.00     0.041 H 
ATOM     24  H28 LF7 d   1      41.292  53.665  35.367  0.00  0.00     0.041 H 
ENDROOT
BRANCH   1  25
ATOM     25  N12 LF7 d   1      39.200  52.009  35.019  0.00  0.00    -0.058 N 
ATOM     26  H12 LF7 d   1      38.646  52.830  35.207  0.00  0.00     0.278 HD
ATOM     27  H13 LF7 d   1      39.655  52.108  34.125  0.00  0.00     0.278 HD
BRANCH  25  28
ATOM     28  C13 LF7 d   1      38.286  50.823  34.958  0.00  0.00     0.155 C 
ATOM     29  H10 LF7 d   1      37.994  50.660  33.910  0.00  0.00     0.090 H 
ATOM     30  H11 LF7 d   1      38.831  49.942  35.328  0.00  0.00     0.090 H 
BRANCH  28  31
ATOM     31  C14 LF7 d   1      37.033  50.996  35.785  0.00  0.00     0.246 C 
ATOM     32  O20 LF7 d   1      36.773  52.042  36.379  0.00  0.00    -0.272 OA
ATOM     33  N15 LF7 d   1      36.224  49.883  35.812  0.00  0.00    -0.341 N 
ATOM     34  C19 LF7 d   1      36.491  48.633  35.098  0.00  0.00    -0.002 C 
ATOM     35  C16 LF7 d   1      34.935  49.851  36.488  0.00  0.00     0.046 C 
ATOM     36  C18 LF7 d   1      35.200  47.810  35.272  0.00  0.00    -0.048 C 
ATOM     37  H1  LF7 d   1      37.350  48.108  35.541  0.00  0.00     0.064 H 
ATOM     38  H2  LF7 d   1      36.688  48.827  34.033  0.00  0.00     0.064 H 
ATOM     39  C17 LF7 d   1      34.150  48.863  35.632  0.00  0.00    -0.040 C 
ATOM     40  H3  LF7 d   1      35.310  47.072  36.081  0.00  0.00     0.035 H 
ATOM     41  H4  LF7 d   1      34.934  47.293  34.338  0.00  0.00     0.035 H 
ATOM     42  H5  LF7 d   1      33.322  48.417  36.202  0.00  0.00     0.036 H 
ATOM     43  H6  LF7 d   1      33.753  49.350  34.729  0.00  0.00     0.036 H 
ATOM     44  H7  LF7 d   1      34.450  50.837  36.440  0.00  0.00     0.081 H 
BRANCH  35  45
ATOM     45  C20 LF7 d   1      35.111  49.497  37.956  0.00  0.00    -0.005 C 
ATOM     46  N2  LF7 d   1      35.917  48.666  38.503  0.00  0.00    -0.314 NA
ATOM     47  H9  LF7 d   1      35.912  48.543  39.503  0.00  0.00     0.185 HD
ATOM     48  H8  LF7 d   1      34.455  50.029  38.644  0.00  0.00     0.110 H 
ENDBRANCH  35  45
ENDBRANCH  28  31
ENDBRANCH  25  28
ENDBRANCH   1  25
BRANCH   9  49
ATOM     49  O4  LF7 d   1      42.503  54.477  37.643  0.00  0.00    -0.390 OA
ATOM     50  H26 LF7 d   1      42.850  54.855  36.843  0.00  0.00     0.210 HD
ENDBRANCH   9  49
TORSDOF 5
