REMARK  3 active torsions:
REMARK  status: ('A' for Active; 'I' for Inactive)
REMARK    1  A    between atoms: SAP_2  and  OAL_5 
REMARK    2  A    between atoms: OAL_5  and  NAK_6 
REMARK    3  A    between atoms: NAK_6  and  CAN_7 
REMARK       I    between atoms: NAO_13  and  CAG_14 
ROOT
ATOM      1  CAN C8Y d   1     -11.873  -1.917   2.501  0.00  0.00     0.147 C 
ATOM      2  CAI C8Y d   1     -12.940  -0.828   2.149  0.00  0.00    -0.031 C 
ATOM      3  CAH C8Y d   1     -12.431   0.635   1.964  0.00  0.00    -0.032 C 
ATOM      4  CAM C8Y d   1     -11.571   1.064   3.119  0.00  0.00     0.098 C 
ATOM      5  CAF C8Y d   1     -12.022   1.037   4.491  0.00  0.00     0.084 C 
ATOM      6  NAA C8Y d   1     -12.381   1.017   5.597  0.00  0.00    -0.195 NA
ATOM      7  NAO C8Y d   1     -10.375   0.060   3.048  0.00  0.00    -0.340 N 
ATOM      8  CAG C8Y d   1      -9.133   0.507   2.888  0.00  0.00     0.172 C 
ATOM      9  OAB C8Y d   1      -8.795   1.611   2.295  0.00  0.00    -0.283 OA
ATOM     10  CAJ C8Y d   1     -10.644  -1.389   3.241  0.00  0.00     0.028 C 
ATOM     11  H3  C8Y d   1     -12.332  -2.761   3.036  0.00  0.00     0.091 H 
ATOM     12  H4  C8Y d   1     -13.684  -0.820   2.959  0.00  0.00     0.036 H 
ATOM     13  H5  C8Y d   1     -13.425  -1.131   1.209  0.00  0.00     0.036 H 
ATOM     14  H6  C8Y d   1     -13.297   1.309   1.892  0.00  0.00     0.037 H 
ATOM     15  H7  C8Y d   1     -11.842   0.695   1.037  0.00  0.00     0.037 H 
ATOM     16  H8  C8Y d   1     -11.236   2.091   2.914  0.00  0.00     0.096 H 
ATOM     17  H9  C8Y d   1      -8.329  -0.107   3.290  0.00  0.00     0.180 H 
ATOM     18  H10 C8Y d   1      -9.766  -1.950   2.889  0.00  0.00     0.067 H 
ATOM     19  H11 C8Y d   1     -10.788  -1.570   4.316  0.00  0.00     0.067 H 
ENDROOT
BRANCH   1  20
ATOM     20  NAK C8Y d   1     -11.289  -2.290   1.172  0.00  0.00     0.061 N 
ATOM     21  H1  C8Y d   1     -10.536  -2.925   1.386  0.00  0.00     0.316 HD
ATOM     22  H2  C8Y d   1     -12.023  -2.789   0.695  0.00  0.00     0.316 HD
BRANCH  20  23
ATOM     23  OAL C8Y d   1     -10.750  -1.390   0.189  0.00  0.00    -0.054 OA
BRANCH  23  24
ATOM     24  SAP C8Y d   1      -9.385  -1.582  -0.510  0.00  0.00     0.279 S 
ATOM     25  OAE C8Y d   1      -9.199  -2.958  -0.990  0.00  0.00    -0.571 OA
ATOM     26  OAC C8Y d   1      -9.298  -0.615  -1.611  0.00  0.00    -0.571 OA
ATOM     27  OAD C8Y d   1      -8.313  -1.320   0.425  0.00  0.00    -0.571 OA
ENDBRANCH  23  24
ENDBRANCH  20  23
ENDBRANCH   1  20
TORSDOF 3
