REMARK  6 active torsions:
REMARK  status: ('A' for Active; 'I' for Inactive)
REMARK    1  A    between atoms: SAZ_2  and  OAS_5 
REMARK    2  A    between atoms: OAS_5  and  NAR_6 
REMARK    3  A    between atoms: NAR_6  and  CAV_7 
REMARK       I    between atoms: N_11  and  CAG_12 
REMARK    4  A    between atoms: CA_14  and  C_15 
REMARK       I    between atoms: C_15  and  NAQ_17 
REMARK    5  A    between atoms: NAQ_17  and  NAP_18 
REMARK       I    between atoms: NAP_18  and  CAT_19 
REMARK    6  A    between atoms: CAT_19  and  CAW_21 
ROOT
ATOM      1  CAV C8V d   1     -11.472  -2.174   2.271  0.00  0.00     0.147 C 
ATOM      2  CAK C8V d   1     -12.655  -1.289   1.876  0.00  0.00    -0.032 C 
ATOM      3  CB  C8V d   1     -12.248   0.082   1.569  0.00  0.00    -0.036 C 
ATOM      4  CAN C8V d   1     -10.569  -1.486   3.325  0.00  0.00     0.027 C 
ATOM      5  N   C8V d   1     -10.314  -0.053   2.908  0.00  0.00    -0.344 N 
ATOM      6  CAG C8V d   1      -9.064   0.394   2.615  0.00  0.00     0.171 C 
ATOM      7  OAA C8V d   1      -8.785   1.487   2.122  0.00  0.00    -0.284 OA
ATOM      8  CA  C8V d   1     -11.538   0.701   2.768  0.00  0.00     0.093 C 
ATOM      9  H3  C8V d   1     -11.877  -3.070   2.764  0.00  0.00     0.091 H 
ATOM     10  H4  C8V d   1     -13.373  -1.266   2.709  0.00  0.00     0.036 H 
ATOM     11  H5  C8V d   1     -13.138  -1.721   0.988  0.00  0.00     0.036 H 
ATOM     12  H6  C8V d   1     -13.139   0.680   1.326  0.00  0.00     0.036 H 
ATOM     13  H7  C8V d   1     -11.565   0.074   0.707  0.00  0.00     0.036 H 
ATOM     14  H8  C8V d   1      -9.612  -2.024   3.396  0.00  0.00     0.067 H 
ATOM     15  H9  C8V d   1     -11.071  -1.500   4.304  0.00  0.00     0.067 H 
ATOM     16  H10 C8V d   1      -8.234  -0.276   2.837  0.00  0.00     0.180 H 
ATOM     17  H11 C8V d   1     -11.212   1.683   2.395  0.00  0.00     0.087 H 
ENDROOT
BRANCH   8  18
ATOM     18  C   C8V d   1     -12.227   1.070   3.939  0.00  0.00     0.259 C 
ATOM     19  O   C8V d   1     -11.805   0.764   5.083  0.00  0.00    -0.269 OA
ATOM     20  NAQ C8V d   1     -13.482   1.559   3.773  0.00  0.00    -0.266 N 
ATOM     21  H12 C8V d   1     -13.907   1.560   2.868  0.00  0.00     0.190 HD
BRANCH  20  22
ATOM     22  NAP C8V d   1     -14.156   2.047   4.845  0.00  0.00    -0.267 N 
ATOM     23  CAT C8V d   1     -13.882   3.347   5.151  0.00  0.00     0.241 C 
ATOM     24  OAB C8V d   1     -12.931   3.990   4.722  0.00  0.00    -0.271 OA
ATOM     25  H13 C8V d   1     -14.804   1.495   5.370  0.00  0.00     0.190 HD
BRANCH  23  26
ATOM     26  CAW C8V d   1     -14.895   4.064   6.083  0.00  0.00     0.048 C 
ATOM     27  CAJ C8V d   1     -16.199   4.154   5.332  0.00  0.00    -0.051 C 
ATOM     28  CAH C8V d   1     -16.126   5.039   4.104  0.00  0.00    -0.042 C 
ATOM     29  H15 C8V d   1     -16.964   4.560   6.010  0.00  0.00     0.034 H 
ATOM     30  H16 C8V d   1     -16.490   3.142   5.015  0.00  0.00     0.034 H 
ATOM     31  CAI C8V d   1     -15.706   6.448   4.564  0.00  0.00     0.082 C 
ATOM     32  H17 C8V d   1     -17.110   5.083   3.615  0.00  0.00     0.035 H 
ATOM     33  H18 C8V d   1     -15.383   4.639   3.398  0.00  0.00     0.035 H 
ATOM     34  NAO C8V d   1     -14.392   6.322   5.240  0.00  0.00    -0.074 N 
ATOM     35  H19 C8V d   1     -16.452   6.852   5.264  0.00  0.00     0.075 H 
ATOM     36  H20 C8V d   1     -15.619   7.117   3.695  0.00  0.00     0.075 H 
ATOM     37  CAM C8V d   1     -14.471   5.463   6.458  0.00  0.00     0.093 C 
ATOM     38  H21 C8V d   1     -14.075   7.240   5.509  0.00  0.00     0.277 HD
ATOM     39  H22 C8V d   1     -13.732   5.914   4.596  0.00  0.00     0.277 HD
ATOM     40  H23 C8V d   1     -13.483   5.426   6.941  0.00  0.00     0.076 H 
ATOM     41  H24 C8V d   1     -15.205   5.890   7.157  0.00  0.00     0.076 H 
ATOM     42  H14 C8V d   1     -15.025   3.471   7.001  0.00  0.00     0.057 H 
ENDBRANCH  23  26
ENDBRANCH  20  22
ENDBRANCH   8  18
BRANCH   1  43
ATOM     43  NAR C8V d   1     -10.813  -2.645   1.003  0.00  0.00     0.061 N 
ATOM     44  H1  C8V d   1      -9.929  -3.062   1.249  0.00  0.00     0.316 HD
ATOM     45  H2  C8V d   1     -11.408  -3.342   0.585  0.00  0.00     0.316 HD
BRANCH  43  46
ATOM     46  OAS C8V d   1     -10.559  -1.607  -0.001  0.00  0.00    -0.054 OA
BRANCH  46  47
ATOM     47  SAZ C8V d   1      -9.131  -1.664  -0.634  0.00  0.00     0.279 S 
ATOM     48  OAF C8V d   1      -9.165  -0.546  -1.627  0.00  0.00    -0.571 OA
ATOM     49  OAD C8V d   1      -8.126  -1.393   0.416  0.00  0.00    -0.571 OA
ATOM     50  OAE C8V d   1      -9.035  -3.041  -1.179  0.00  0.00    -0.571 OA
ENDBRANCH  46  47
ENDBRANCH  43  46
ENDBRANCH   1  43
TORSDOF 6
