REMARK  6 active torsions:
REMARK  status: ('A' for Active; 'I' for Inactive)
REMARK    1  A    between atoms: C3_2  and  O13_13 
REMARK    2  A    between atoms: C4_3  and  C12_12 
REMARK    3  A    between atoms: C12_12  and  N1_8 
REMARK    4  A    between atoms: C9_9  and  O22_22 
REMARK    5  A    between atoms: C12_12  and  C14_14 
REMARK       I    between atoms: C14_14  and  N16_16 
REMARK    6  A    between atoms: C15_15  and  C23_23 
ROOT
ATOM      1  C2  C8S d   1       5.363   2.152  33.005  0.00  0.00    -0.027 C 
ATOM      2  C3  C8S d   1       6.810   2.608  33.316  0.00  0.00     0.062 C 
ATOM      3  C4  C8S d   1       5.176   0.690  33.486  0.00  0.00     0.002 C 
ATOM      4  C5  C8S d   1       7.811   1.710  32.557  0.00  0.00    -0.033 C 
ATOM      5  C6  C8S d   1       6.245  -0.202  32.774  0.00  0.00    -0.052 C 
ATOM      6  C7  C8S d   1       7.682   0.279  33.062  0.00  0.00    -0.048 C 
ATOM      7  C8  C8S d   1       5.516   0.648  35.010  0.00  0.00    -0.027 C 
ATOM      8  C9  C8S d   1       6.934   1.186  35.333  0.00  0.00     0.062 C 
ATOM      9  C10 C8S d   1       7.065   2.649  34.859  0.00  0.00    -0.008 C 
ATOM     10  C11 C8S d   1       7.920   0.269  34.586  0.00  0.00    -0.033 C 
ATOM     11  H1  C8S d   1       5.184   2.209  31.921  0.00  0.00     0.038 H 
ATOM     12  H2  C8S d   1       4.650   2.806  33.529  0.00  0.00     0.038 H 
ATOM     13  H3  C8S d   1       8.835   2.071  32.732  0.00  0.00     0.037 H 
ATOM     14  H4  C8S d   1       7.590   1.741  31.480  0.00  0.00     0.037 H 
ATOM     15  H5  C8S d   1       6.070  -0.168  31.689  0.00  0.00     0.034 H 
ATOM     16  H6  C8S d   1       6.139  -1.237  33.131  0.00  0.00     0.034 H 
ATOM     17  H7  C8S d   1       8.412  -0.373  32.559  0.00  0.00     0.040 H 
ATOM     18  H8  C8S d   1       5.450  -0.395  35.355  0.00  0.00     0.038 H 
ATOM     19  H9  C8S d   1       4.778   1.260  35.550  0.00  0.00     0.038 H 
ATOM     20  H13 C8S d   1       6.317   3.284  35.356  0.00  0.00     0.042 H 
ATOM     21  H14 C8S d   1       8.073   3.034  35.073  0.00  0.00     0.042 H 
ATOM     22  H15 C8S d   1       8.945   0.613  34.787  0.00  0.00     0.037 H 
ATOM     23  H16 C8S d   1       7.798  -0.759  34.957  0.00  0.00     0.037 H 
ENDROOT
BRANCH   3  24
ATOM     24  C12 C8S d   1       3.724   0.096  33.273  0.00  0.00     0.183 C 
ATOM     25  H17 C8S d   1       3.707  -0.907  33.724  0.00  0.00     0.100 H 
BRANCH  24  26
ATOM     26  N1  C8S d   1       3.356  -0.036  31.832  0.00  0.00    -0.066 N 
ATOM     27  H10 C8S d   1       2.426  -0.417  31.756  0.00  0.00     0.275 HD
ATOM     28  H11 C8S d   1       4.010  -0.651  31.373  0.00  0.00     0.275 HD
ATOM     29  H12 C8S d   1       3.384   0.871  31.394  0.00  0.00     0.275 HD
ENDBRANCH  24  26
BRANCH  24  30
ATOM     30  C14 C8S d   1       2.659   0.956  33.964  0.00  0.00     0.252 C 
ATOM     31  N16 C8S d   1       2.190   0.578  35.192  0.00  0.00    -0.336 N 
ATOM     32  C15 C8S d   1       1.068   1.243  35.811  0.00  0.00     0.047 C 
ATOM     33  C18 C8S d   1       2.546  -0.614  35.944  0.00  0.00     0.019 A 
ATOM     34  C17 C8S d   1       0.345   0.275  36.696  0.00  0.00    -0.036 C 
ATOM     35  H19 C8S d   1       0.401   1.584  35.005  0.00  0.00     0.081 H 
ATOM     36  C19 C8S d   1       1.418  -0.740  36.990  0.00  0.00    -0.030 A 
ATOM     37  H20 C8S d   1      -0.507  -0.184  36.174  0.00  0.00     0.037 H 
ATOM     38  H21 C8S d   1      -0.008   0.762  37.617  0.00  0.00     0.037 H 
ATOM     39  C20 C8S d   1       2.852  -0.556  37.424  0.00  0.00    -0.040 A 
ATOM     40  H23 C8S d   1       0.943  -1.696  37.255  0.00  0.00     0.043 H 
ATOM     41  H24 C8S d   1       3.167   0.394  37.880  0.00  0.00     0.036 H 
ATOM     42  H25 C8S d   1       3.388  -1.388  37.904  0.00  0.00     0.036 H 
ATOM     43  H22 C8S d   1       2.954  -1.422  35.319  0.00  0.00     0.073 H 
ATOM     44  O21 C8S d   1       2.250   1.970  33.421  0.00  0.00    -0.271 OA
BRANCH  32  45
ATOM     45  C23 C8S d   1       1.395   2.493  36.757  0.00  0.00    -0.005 C 
ATOM     46  N24 C8S d   1       2.611   3.066  36.565  0.00  0.00    -0.314 NA
ATOM     47  H28 C8S d   1       2.889   3.858  37.123  0.00  0.00     0.185 HD
ATOM     48  H27 C8S d   1       0.691   2.858  37.503  0.00  0.00     0.110 H 
ENDBRANCH  32  45
ENDBRANCH  24  30
ENDBRANCH   3  24
BRANCH   2  49
ATOM     49  O13 C8S d   1       7.031   3.889  32.769  0.00  0.00    -0.390 OA
ATOM     50  H18 C8S d   1       7.933   4.146  32.921  0.00  0.00     0.210 HD
ENDBRANCH   2  49
BRANCH   8  51
ATOM     51  O22 C8S d   1       7.186   1.102  36.759  0.00  0.00    -0.390 OA
ATOM     52  H26 C8S d   1       7.103   0.199  37.041  0.00  0.00     0.210 HD
ENDBRANCH   8  51
TORSDOF 6
