REMARK  3 active torsions:
REMARK  status: ('A' for Active; 'I' for Inactive)
REMARK       I    between atoms: N_6  and  CAG_7 
REMARK    1  A    between atoms: CA_9  and  C_10 
REMARK       I    between atoms: C_10  and  NAQ_12 
REMARK    2  A    between atoms: NAQ_12  and  NAP_13 
REMARK       I    between atoms: NAP_13  and  CAT_14 
REMARK    3  A    between atoms: CAT_14  and  CAW_16 
ROOT
ATOM      1  C   C8V d   1      12.320   0.884  -3.907  0.00  0.00     0.259 C 
ATOM      2  O   C8V d   1      11.956   0.665  -5.075  0.00  0.00    -0.269 OA
ATOM      3  NAQ C8V d   1      13.548   1.364  -3.621  0.00  0.00    -0.266 N 
ATOM      4  H10 C8V d   1      13.919   1.324  -2.693  0.00  0.00     0.190 HD
ENDROOT
BRANCH   3   5
ATOM      5  NAP C8V d   1      14.254   1.899  -4.635  0.00  0.00    -0.267 N 
ATOM      6  CAT C8V d   1      14.021   3.176  -4.999  0.00  0.00     0.241 C 
ATOM      7  OAB C8V d   1      13.015   3.778  -4.669  0.00  0.00    -0.271 OA
ATOM      8  H11 C8V d   1      14.944   1.355  -5.113  0.00  0.00     0.190 HD
BRANCH   6   9
ATOM      9  CAW C8V d   1      15.081   3.823  -5.907  0.00  0.00     0.048 C 
ATOM     10  CAJ C8V d   1      16.371   4.130  -5.165  0.00  0.00    -0.051 C 
ATOM     11  CAH C8V d   1      16.115   5.111  -4.045  0.00  0.00    -0.042 C 
ATOM     12  H13 C8V d   1      17.098   4.564  -5.867  0.00  0.00     0.034 H 
ATOM     13  H14 C8V d   1      16.778   3.198  -4.745  0.00  0.00     0.034 H 
ATOM     14  CAI C8V d   1      15.597   6.380  -4.719  0.00  0.00     0.082 C 
ATOM     15  H15 C8V d   1      17.046   5.320  -3.498  0.00  0.00     0.035 H 
ATOM     16  H16 C8V d   1      15.362   4.711  -3.349  0.00  0.00     0.035 H 
ATOM     17  NAO C8V d   1      14.371   6.163  -5.490  0.00  0.00    -0.074 N 
ATOM     18  H17 C8V d   1      16.375   6.758  -5.398  0.00  0.00     0.075 H 
ATOM     19  H18 C8V d   1      15.393   7.131  -3.941  0.00  0.00     0.075 H 
ATOM     20  CAM C8V d   1      14.581   5.126  -6.511  0.00  0.00     0.093 C 
ATOM     21  H19 C8V d   1      14.107   7.024  -5.942  0.00  0.00     0.277 HD
ATOM     22  H20 C8V d   1      13.635   5.870  -4.867  0.00  0.00     0.277 HD
ATOM     23  H21 C8V d   1      13.627   4.936  -7.025  0.00  0.00     0.076 H 
ATOM     24  H22 C8V d   1      15.323   5.488  -7.237  0.00  0.00     0.076 H 
ATOM     25  H12 C8V d   1      15.303   3.117  -6.721  0.00  0.00     0.057 H 
ENDBRANCH   6   9
ENDBRANCH   3   5
BRANCH   1  26
ATOM     26  CA  C8V d   1      11.554   0.412  -2.831  0.00  0.00     0.093 C 
ATOM     27  CB  C8V d   1      12.100  -0.116  -1.570  0.00  0.00    -0.033 C 
ATOM     28  CAK C8V d   1      12.505  -1.552  -1.805  0.00  0.00    -0.025 C 
ATOM     29  H4  C8V d   1      12.977   0.475  -1.266  0.00  0.00     0.037 H 
ATOM     30  H5  C8V d   1      11.334  -0.068  -0.782  0.00  0.00     0.037 H 
ATOM     31  CAV C8V d   1      11.579  -2.241  -2.608  0.00  0.00     0.021 C 
ATOM     32  H2  C8V d   1      13.486  -1.566  -2.303  0.00  0.00     0.042 H 
ATOM     33  H3  C8V d   1      12.580  -2.062  -0.833  0.00  0.00     0.042 H 
ATOM     34  NAR C8V d   1      11.632  -3.550  -2.485  0.00  0.00    -0.307 NA
ATOM     35  CAN C8V d   1      10.598  -1.693  -3.481  0.00  0.00     0.034 C 
ATOM     36  H1  C8V d   1      12.315  -3.972  -1.875  0.00  0.00     0.186 HD
ATOM     37  N   C8V d   1      10.358  -0.273  -3.073  0.00  0.00    -0.340 N 
ATOM     38  H6  C8V d   1       9.664  -2.268  -3.400  0.00  0.00     0.073 H 
ATOM     39  H7  C8V d   1      10.961  -1.727  -4.519  0.00  0.00     0.073 H 
ATOM     40  CAG C8V d   1       9.133   0.219  -2.831  0.00  0.00     0.172 C 
ATOM     41  OAA C8V d   1       8.862   1.162  -2.126  0.00  0.00    -0.284 OA
ATOM     42  H8  C8V d   1       8.299  -0.282  -3.320  0.00  0.00     0.180 H 
ATOM     43  H9  C8V d   1      11.175   1.384  -2.484  0.00  0.00     0.087 H 
ENDBRANCH   1  26
TORSDOF 3
