REMARK  6 active torsions:
REMARK  status: ('A' for Active; 'I' for Inactive)
REMARK    1  A    between atoms: SAY_2  and  OAR_5 
REMARK    2  A    between atoms: OAR_5  and  NAQ_6 
REMARK    3  A    between atoms: NAQ_6  and  CAU_7 
REMARK       I    between atoms: N_11  and  CAG_12 
REMARK    4  A    between atoms: CA_14  and  C_15 
REMARK       I    between atoms: C_15  and  NAP_17 
REMARK    5  A    between atoms: NAP_17  and  NAO_18 
REMARK       I    between atoms: NAO_18  and  CAS_19 
REMARK    6  A    between atoms: CAS_19  and  CAV_21 
ROOT
ATOM      1  CAU C9D d   1     -11.544  -2.128   2.197  0.00  0.00     0.147 C 
ATOM      2  CAJ C9D d   1     -12.719  -1.202   1.938  0.00  0.00    -0.032 C 
ATOM      3  CB  C9D d   1     -12.266   0.174   1.616  0.00  0.00    -0.036 C 
ATOM      4  CAM C9D d   1     -10.616  -1.460   3.279  0.00  0.00     0.027 C 
ATOM      5  N   C9D d   1     -10.324  -0.023   2.920  0.00  0.00    -0.344 N 
ATOM      6  CAG C9D d   1      -9.087   0.425   2.640  0.00  0.00     0.171 C 
ATOM      7  OAA C9D d   1      -8.782   1.469   2.085  0.00  0.00    -0.284 OA
ATOM      8  CA  C9D d   1     -11.524   0.777   2.825  0.00  0.00     0.093 C 
ATOM      9  H3  C9D d   1     -11.966  -3.032   2.660  0.00  0.00     0.091 H 
ATOM     10  H4  C9D d   1     -13.353  -1.169   2.837  0.00  0.00     0.036 H 
ATOM     11  H5  C9D d   1     -13.303  -1.593   1.092  0.00  0.00     0.036 H 
ATOM     12  H6  C9D d   1     -13.139   0.799   1.375  0.00  0.00     0.036 H 
ATOM     13  H7  C9D d   1     -11.588   0.142   0.751  0.00  0.00     0.036 H 
ATOM     14  H8  C9D d   1      -9.669  -2.017   3.336  0.00  0.00     0.067 H 
ATOM     15  H9  C9D d   1     -11.120  -1.492   4.256  0.00  0.00     0.067 H 
ATOM     16  H10 C9D d   1      -8.262  -0.218   2.943  0.00  0.00     0.180 H 
ATOM     17  H11 C9D d   1     -11.195   1.768   2.479  0.00  0.00     0.087 H 
ENDROOT
BRANCH   8  18
ATOM     18  C   C9D d   1     -12.154   1.080   4.003  0.00  0.00     0.259 C 
ATOM     19  O   C9D d   1     -11.728   0.726   5.118  0.00  0.00    -0.269 OA
ATOM     20  NAP C9D d   1     -13.388   1.621   3.873  0.00  0.00    -0.266 N 
ATOM     21  H12 C9D d   1     -13.798   1.766   2.973  0.00  0.00     0.190 HD
BRANCH  20  22
ATOM     22  NAO C9D d   1     -14.069   1.971   5.046  0.00  0.00    -0.267 N 
ATOM     23  CAS C9D d   1     -14.056   3.277   5.387  0.00  0.00     0.241 C 
ATOM     24  OAB C9D d   1     -13.202   4.084   5.046  0.00  0.00    -0.271 OA
ATOM     25  H13 C9D d   1     -14.541   1.288   5.603  0.00  0.00     0.190 HD
BRANCH  23  26
ATOM     26  CAV C9D d   1     -15.051   3.636   6.504  0.00  0.00     0.050 C 
ATOM     27  CAI C9D d   1     -16.321   4.190   5.896  0.00  0.00    -0.030 C 
ATOM     28  CAH C9D d   1     -16.017   5.634   5.689  0.00  0.00     0.083 C 
ATOM     29  H15 C9D d   1     -17.171   4.063   6.582  0.00  0.00     0.036 H 
ATOM     30  H16 C9D d   1     -16.545   3.696   4.939  0.00  0.00     0.036 H 
ATOM     31  NAN C9D d   1     -14.976   5.999   6.685  0.00  0.00    -0.074 N 
ATOM     32  H17 C9D d   1     -16.922   6.239   5.848  0.00  0.00     0.075 H 
ATOM     33  H18 C9D d   1     -15.640   5.800   4.669  0.00  0.00     0.075 H 
ATOM     34  CAL C9D d   1     -14.549   4.773   7.360  0.00  0.00     0.093 C 
ATOM     35  H19 C9D d   1     -15.358   6.645   7.358  0.00  0.00     0.277 HD
ATOM     36  H20 C9D d   1     -14.190   6.425   6.219  0.00  0.00     0.277 HD
ATOM     37  H21 C9D d   1     -13.452   4.740   7.436  0.00  0.00     0.076 H 
ATOM     38  H22 C9D d   1     -14.988   4.717   8.367  0.00  0.00     0.076 H 
ATOM     39  H14 C9D d   1     -15.256   2.746   7.116  0.00  0.00     0.057 H 
ENDBRANCH  23  26
ENDBRANCH  20  22
ENDBRANCH   8  18
BRANCH   1  40
ATOM     40  NAQ C9D d   1     -10.808  -2.617   1.001  0.00  0.00     0.061 N 
ATOM     41  H1  C9D d   1      -9.908  -2.958   1.300  0.00  0.00     0.316 HD
ATOM     42  H2  C9D d   1     -11.335  -3.373   0.592  0.00  0.00     0.316 HD
BRANCH  40  43
ATOM     43  OAR C9D d   1     -10.595  -1.598  -0.024  0.00  0.00    -0.054 OA
BRANCH  43  44
ATOM     44  SAY C9D d   1      -9.211  -1.652  -0.651  0.00  0.00     0.279 S 
ATOM     45  OAF C9D d   1      -8.863  -3.010  -1.187  0.00  0.00    -0.571 OA
ATOM     46  OAD C9D d   1      -8.135  -1.479   0.379  0.00  0.00    -0.571 OA
ATOM     47  OAE C9D d   1      -9.144  -0.609  -1.716  0.00  0.00    -0.571 OA
ENDBRANCH  43  44
ENDBRANCH  40  43
ENDBRANCH   1  40
TORSDOF 6
