REMARK WARNING: 32 MAX_TORS EXCEEDED!!!
REMARK  36 active torsions:
REMARK  status: ('A' for Active; 'I' for Inactive)
REMARK    1  A    between atoms: N_1  and  CA_2 
REMARK    2  A    between atoms: CA_2  and  C_3 
REMARK    3  A    between atoms: CA_2  and  CB_5 
REMARK       I    between atoms: C_3  and  N_10 
REMARK    4  A    between atoms: CB_5  and  CG_6 
REMARK    5  A    between atoms: CG_6  and  CD_7 
REMARK    6  A    between atoms: CA_11  and  C_12 
REMARK       I    between atoms: C_12  and  N_17 
REMARK    7  A    between atoms: N_17  and  CA_18 
REMARK    8  A    between atoms: CA_18  and  C_19 
REMARK    9  A    between atoms: CA_18  and  CB_21 
REMARK       I    between atoms: C_19  and  N_26 
REMARK   10  A    between atoms: CB_21  and  CG_22 
REMARK   11  A    between atoms: CG_22  and  CD_23 
REMARK   12  A    between atoms: N_26  and  CA_27 
REMARK   13  A    between atoms: CA_27  and  C_28 
REMARK   14  A    between atoms: CA_27  and  CB_30 
REMARK       I    between atoms: C_28  and  N_34 
REMARK   15  A    between atoms: CB_30  and  CG1_31 
REMARK   16  A    between atoms: CB_30  and  CG2_32 
REMARK   17  A    between atoms: CG1_31  and  CD1_33 
REMARK   18  A    between atoms: CA_35  and  C_36 
REMARK       I    between atoms: C_36  and  N_41 
REMARK   19  A    between atoms: N_41  and  CA_42 
REMARK   20  A    between atoms: CA_42  and  C_43 
REMARK   21  A    between atoms: CA_42  and  CB_45 
REMARK       I    between atoms: C_43  and  N_49 
REMARK   22  A    between atoms: CB_45  and  CG_46 
REMARK   23  A    between atoms: CG_46  and  CD1_47 
REMARK   24  A    between atoms: CG_46  and  CD2_48 
REMARK   25  A    between atoms: N_49  and  CA_50 
REMARK   26  A    between atoms: CA_50  and  C_51 
REMARK   27  A    between atoms: CA_50  and  CB_53 
REMARK       I    between atoms: C_51  and  N_55 
REMARK   28  A    between atoms: CB_53  and  OG_54 
REMARK   29  A    between atoms: CA_56  and  C_57 
REMARK       I    between atoms: C_57  and  N_62 
REMARK   30  A    between atoms: N_62  and  CA_63 
REMARK   31  A    between atoms: CA_63  and  C_64 
REMARK   32  A    between atoms: CA_63  and  CB_66 
REMARK       I    between atoms: C_64  and  N_73 
REMARK   33  A    between atoms: CB_66  and  CG_67 
REMARK   34  A    between atoms: CG_67  and  CD_68 
REMARK   35  A    between atoms: CD_68  and  NE_69 
REMARK       I    between atoms: NE_69  and  CZ_70 
REMARK       I    between atoms: CZ_70  and  NH1_71 
REMARK   36  A    between atoms: CA_74  and  C_75 
ROOT
ATOM      1  C   PRO d   1      13.744  50.242  23.452  0.00  0.00     0.241 C 
ATOM      2  O   PRO d   1      13.722  49.224  22.724  0.00  0.00    -0.271 OA
ATOM      3  N   LEU d   1      12.957  50.489  24.518  0.00  0.00    -0.346 N 
ATOM      4  H40 LEU d   1      13.125  51.308  25.066  0.00  0.00     0.163 HD
ENDROOT
BRANCH   3   5
ATOM      5  CA  LEU d   1      11.847  49.579  24.902  0.00  0.00     0.089 C 
ATOM      6  H41 LEU d   1      12.187  48.548  24.725  0.00  0.00     0.087 H 
BRANCH   5   7
ATOM      7  C   LEU d   1      10.663  49.822  24.067  0.00  0.00     0.241 C 
ATOM      8  O   LEU d   1       9.833  48.918  23.882  0.00  0.00    -0.271 OA
ATOM      9  N   SER d   1      10.610  51.016  23.472  0.00  0.00    -0.344 N 
ATOM     10  H51 SER d   1      11.319  51.690  23.677  0.00  0.00     0.163 HD
BRANCH   9  11
ATOM     11  CA  SER d   1       9.585  51.358  22.563  0.00  0.00     0.109 C 
ATOM     12  H52 SER d   1       8.645  51.129  23.086  0.00  0.00     0.090 H 
BRANCH  11  13
ATOM     13  C   SER d   1       9.548  50.545  21.303  0.00  0.00     0.245 C 
ATOM     14  O   SER d   1      10.584  50.077  20.800  0.00  0.00    -0.271 OA
ATOM     15  N   PRO d   1       8.348  50.379  20.719  0.00  0.00    -0.337 N 
ATOM     16  CA  PRO d   1       8.250  49.551  19.510  0.00  0.00     0.091 C 
ATOM     17  CD  PRO d   1       7.003  50.732  21.215  0.00  0.00    -0.001 C 
ATOM     18  CB  PRO d   1       6.746  49.531  19.188  0.00  0.00    -0.036 C 
ATOM     19  H56 PRO d   1       8.619  48.541  19.740  0.00  0.00     0.087 H 
ATOM     20  CG  PRO d   1       6.111  49.819  20.454  0.00  0.00    -0.048 C 
ATOM     21  H57 PRO d   1       6.440  48.543  18.813  0.00  0.00     0.036 H 
ATOM     22  H58 PRO d   1       6.496  50.300  18.442  0.00  0.00     0.036 H 
ATOM     23  H59 PRO d   1       5.962  48.886  21.018  0.00  0.00     0.035 H 
ATOM     24  H60 PRO d   1       5.138  50.304  20.283  0.00  0.00     0.035 H 
ATOM     25  H61 PRO d   1       6.767  51.785  21.000  0.00  0.00     0.064 H 
ATOM     26  H62 PRO d   1       6.922  50.552  22.297  0.00  0.00     0.064 H 
BRANCH  16  27
ATOM     27  C   PRO d   1       8.952  50.043  18.273  0.00  0.00     0.241 C 
ATOM     28  O   PRO d   1       9.037  51.229  18.057  0.00  0.00    -0.271 OA
ATOM     29  N   ARG d   1       9.396  49.118  17.427  0.00  0.00    -0.346 N 
ATOM     30  H63 ARG d   1       9.310  48.150  17.662  0.00  0.00     0.163 HD
BRANCH  29  31
ATOM     31  CA  ARG d   1      10.004  49.502  16.166  0.00  0.00     0.092 C 
ATOM     32  H64 ARG d   1      10.766  50.278  16.333  0.00  0.00     0.088 H 
BRANCH  31  33
ATOM     33  C   ARG d   1       8.867  50.038  15.333  0.00  0.00     0.243 C 
ATOM     34  O   ARG d   1       7.748  49.622  15.593  0.00  0.00    -0.271 OA
ATOM     35  N   PRO d   1       9.147  50.934  14.350  0.00  0.00    -0.336 N 
ATOM     36  CA  PRO d   1       8.170  51.512  13.421  0.00  0.00     0.098 C 
ATOM     37  CD  PRO d   1      10.414  51.708  14.317  0.00  0.00    -0.001 C 
ATOM     38  CB  PRO d   1       9.019  52.512  12.613  0.00  0.00    -0.035 C 
ATOM     39  H74 PRO d   1       7.383  52.036  13.984  0.00  0.00     0.089 H 
ATOM     40  CG  PRO d   1      10.059  52.967  13.587  0.00  0.00    -0.048 C 
ATOM     41  H75 PRO d   1       8.406  53.359  12.270  0.00  0.00     0.036 H 
ATOM     42  H76 PRO d   1       9.483  52.020  11.745  0.00  0.00     0.036 H 
ATOM     43  H77 PRO d   1       9.652  53.721  14.276  0.00  0.00     0.035 H 
ATOM     44  H78 PRO d   1      10.934  53.381  13.065  0.00  0.00     0.035 H 
ATOM     45  H79 PRO d   1      11.196  51.153  13.779  0.00  0.00     0.064 H 
ATOM     46  H80 PRO d   1      10.760  51.933  15.337  0.00  0.00     0.064 H 
BRANCH  36  47
ATOM     47  C   PRO d   1       7.510  50.507  12.500  0.00  0.00     0.196 C 
ATOM     48  O   PRO d   1       8.230  49.888  11.764  0.00  0.00    -0.646 OA
ATOM     49  OXT PRO d   1       6.315  50.403  12.574  0.00  0.00    -0.646 OA
ENDBRANCH  36  47
ENDBRANCH  31  33
BRANCH  31  50
ATOM     50  CB  ARG d   1      10.631  48.332  15.454  0.00  0.00    -0.021 C 
ATOM     51  H65 ARG d   1      10.601  48.527  14.372  0.00  0.00     0.042 H 
ATOM     52  H66 ARG d   1      10.043  47.431  15.681  0.00  0.00     0.042 H 
BRANCH  50  53
ATOM     53  CG  ARG d   1      12.081  48.076  15.858  0.00  0.00    -0.085 C 
ATOM     54  H67 ARG d   1      12.849  48.832  16.014  0.00  0.00     0.079 H 
BRANCH  53  55
ATOM     55  CD  ARG d   1      12.249  46.638  15.996  0.00  0.00    -0.009 C 
ATOM     56  H68 ARG d   1      11.414  45.947  15.892  0.00  0.00     0.111 H 
BRANCH  55  57
ATOM     57  NE  ARG d   1      13.584  46.184  16.278  0.00  0.00    -0.203 N 
ATOM     58  CZ  ARG d   1      14.045  45.825  17.480  0.00  0.00     0.669 C 
ATOM     59  NH1 ARG d   1      13.331  45.953  18.629  0.00  0.00    -0.235 N 
ATOM     60  NH2 ARG d   1      15.229  45.255  17.525  0.00  0.00    -0.235 N 
ATOM     61  H70 ARG d   1      13.742  45.658  19.526  0.00  0.00     0.174 HD
ATOM     62  H71 ARG d   1      12.379  46.345  18.603  0.00  0.00     0.174 HD
ATOM     63  H72 ARG d   1      15.783  45.150  16.663  0.00  0.00     0.174 HD
ATOM     64  H73 ARG d   1      15.602  44.913  18.422  0.00  0.00     0.174 HD
ATOM     65  H69 ARG d   1      14.241  46.131  15.486  0.00  0.00     0.183 HD
ENDBRANCH  55  57
ENDBRANCH  53  55
ENDBRANCH  50  53
ENDBRANCH  31  50
ENDBRANCH  29  31
ENDBRANCH  16  27
ENDBRANCH  11  13
BRANCH  11  66
ATOM     66  CB  SER d   1       9.548  52.883  22.264  0.00  0.00     0.044 C 
ATOM     67  H53 SER d   1       9.617  53.434  23.213  0.00  0.00     0.077 H 
ATOM     68  H54 SER d   1       8.598  53.126  21.767  0.00  0.00     0.077 H 
BRANCH  66  69
ATOM     69  OG  SER d   1      10.622  53.278  21.423  0.00  0.00    -0.398 OA
ATOM     70  H55 SER d   1      10.569  54.213  21.261  0.00  0.00     0.209 HD
ENDBRANCH  66  69
ENDBRANCH  11  66
ENDBRANCH   9  11
ENDBRANCH   5   7
BRANCH   5  71
ATOM     71  CB  LEU d   1      11.474  49.697  26.353  0.00  0.00    -0.035 C 
ATOM     72  H42 LEU d   1      10.699  48.942  26.551  0.00  0.00     0.037 H 
ATOM     73  H43 LEU d   1      11.052  50.702  26.499  0.00  0.00     0.037 H 
BRANCH  71  74
ATOM     74  CG  LEU d   1      12.550  49.512  27.389  0.00  0.00    -0.059 C 
ATOM     75  H44 LEU d   1      13.319  50.288  27.258  0.00  0.00     0.038 H 
BRANCH  74  76
ATOM     76  CD1 LEU d   1      11.942  49.653  28.762  0.00  0.00    -0.073 C 
ATOM     77  H45 LEU d   1      12.723  49.519  29.524  0.00  0.00     0.028 H 
ATOM     78  H46 LEU d   1      11.162  48.889  28.898  0.00  0.00     0.028 H 
ATOM     79  H47 LEU d   1      11.497  50.654  28.865  0.00  0.00     0.028 H 
ENDBRANCH  74  76
BRANCH  74  80
ATOM     80  CD2 LEU d   1      13.196  48.140  27.205  0.00  0.00    -0.073 C 
ATOM     81  H48 LEU d   1      13.629  48.071  26.196  0.00  0.00     0.028 H 
ATOM     82  H49 LEU d   1      12.435  47.356  27.332  0.00  0.00     0.028 H 
ATOM     83  H50 LEU d   1      13.990  48.005  27.954  0.00  0.00     0.028 H 
ENDBRANCH  74  80
ENDBRANCH  71  74
ENDBRANCH   5  71
ENDBRANCH   3   5
BRANCH   1  84
ATOM     84  CA  PRO d   1      14.777  51.338  23.210  0.00  0.00     0.091 C 
ATOM     85  N   PRO d   1      16.072  50.822  22.774  0.00  0.00    -0.337 N 
ATOM     86  C   ILE d   1      16.714  50.006  23.587  0.00  0.00     0.243 C 
ATOM     87  CD  PRO d   1      16.487  51.409  21.470  0.00  0.00    -0.001 C 
ATOM     88  O   ILE d   1      16.257  49.605  24.680  0.00  0.00    -0.271 OA
ATOM     89  CG  PRO d   1      15.627  52.609  21.290  0.00  0.00    -0.048 C 
ATOM     90  H38 PRO d   1      16.322  50.690  20.654  0.00  0.00     0.064 H 
ATOM     91  H39 PRO d   1      17.549  51.696  21.497  0.00  0.00     0.064 H 
ATOM     92  CB  PRO d   1      14.329  52.201  22.028  0.00  0.00    -0.036 C 
ATOM     93  H36 PRO d   1      16.083  53.498  21.749  0.00  0.00     0.035 H 
ATOM     94  H37 PRO d   1      15.434  52.804  20.225  0.00  0.00     0.035 H 
ATOM     95  H34 PRO d   1      13.795  53.093  22.386  0.00  0.00     0.036 H 
ATOM     96  H35 PRO d   1      13.673  51.624  21.359  0.00  0.00     0.036 H 
ATOM     97  H33 PRO d   1      14.890  51.940  24.124  0.00  0.00     0.087 H 
BRANCH  86  98
ATOM     98  CA  ILE d   1      18.133  49.628  23.178  0.00  0.00     0.092 C 
ATOM     99  H23 ILE d   1      18.519  50.326  22.421  0.00  0.00     0.088 H 
BRANCH  98 100
ATOM    100  N   ILE d   1      18.917  49.738  24.436  0.00  0.00    -0.346 N 
ATOM    101  C   GLU d   1      19.104  50.899  25.069  0.00  0.00     0.241 C 
ATOM    102  O   GLU d   1      18.727  51.952  24.631  0.00  0.00    -0.271 OA
ATOM    103  H22 ILE d   1      19.321  48.909  24.824  0.00  0.00     0.163 HD
BRANCH 101 104
ATOM    104  CA  GLU d   1      19.758  50.825  26.479  0.00  0.00     0.090 C 
ATOM    105  H17 GLU d   1      20.250  49.847  26.583  0.00  0.00     0.087 H 
BRANCH 104 106
ATOM    106  N   GLU d   1      20.756  51.866  26.696  0.00  0.00    -0.346 N 
ATOM    107  C   PRO d   1      21.829  51.921  25.934  0.00  0.00     0.241 C 
ATOM    108  O   PRO d   1      22.213  50.987  25.225  0.00  0.00    -0.271 OA
ATOM    109  H16 GLU d   1      20.626  52.539  27.424  0.00  0.00     0.163 HD
BRANCH 107 110
ATOM    110  CA  PRO d   1      22.659  53.192  26.044  0.00  0.00     0.091 C 
ATOM    111  N   PRO d   1      24.047  52.941  25.685  0.00  0.00    -0.337 N 
ATOM    112  C   GLU d   1      24.836  52.113  26.381  0.00  0.00     0.251 C 
ATOM    113  CD  PRO d   1      24.409  53.641  24.434  0.00  0.00    -0.001 C 
ATOM    114  O   GLU d   1      24.426  51.480  27.310  0.00  0.00    -0.271 OA
ATOM    115  CG  PRO d   1      23.420  54.743  24.388  0.00  0.00    -0.048 C 
ATOM    116  H14 PRO d   1      24.306  52.977  23.563  0.00  0.00     0.064 H 
ATOM    117  H15 PRO d   1      25.437  54.030  24.479  0.00  0.00     0.064 H 
ATOM    118  CB  PRO d   1      22.177  54.177  24.983  0.00  0.00    -0.036 C 
ATOM    119  H12 PRO d   1      23.773  55.603  24.977  0.00  0.00     0.035 H 
ATOM    120  H13 PRO d   1      23.242  55.058  23.349  0.00  0.00     0.035 H 
ATOM    121  H10 PRO d   1      21.571  54.972  25.441  0.00  0.00     0.036 H 
ATOM    122  H11 PRO d   1      21.583  53.659  24.216  0.00  0.00     0.036 H 
ATOM    123  H9  PRO d   1      22.580  53.613  27.057  0.00  0.00     0.087 H 
BRANCH 112 124
ATOM    124  CA  GLU d   1      26.318  52.013  25.978  0.00  0.00     0.176 C 
ATOM    125  H4  GLU d   1      26.452  52.577  25.043  0.00  0.00     0.099 H 
BRANCH 124 126
ATOM    126  N   GLU d   1      27.206  52.616  27.006  0.00  0.00    -0.066 N 
ATOM    127  H1  GLU d   1      28.166  52.533  26.711  0.00  0.00     0.275 HD
ATOM    128  H2  GLU d   1      27.081  52.134  27.882  0.00  0.00     0.275 HD
ATOM    129  H3  GLU d   1      26.973  53.590  27.122  0.00  0.00     0.275 HD
ENDBRANCH 124 126
BRANCH 124 130
ATOM    130  CB  GLU d   1      26.710  50.556  25.714  0.00  0.00    -0.021 C 
ATOM    131  H5  GLU d   1      26.394  49.945  26.572  0.00  0.00     0.037 H 
ATOM    132  H6  GLU d   1      27.803  50.499  25.606  0.00  0.00     0.037 H 
BRANCH 130 133
ATOM    133  CG  GLU d   1      26.071  50.000  24.463  0.00  0.00     0.018 C 
ATOM    134  H7  GLU d   1      25.869  50.836  23.777  0.00  0.00     0.049 H 
ATOM    135  H8  GLU d   1      25.122  49.519  24.744  0.00  0.00     0.049 H 
BRANCH 133 136
ATOM    136  CD  GLU d   1      26.930  48.975  23.731  0.00  0.00     0.172 C 
ATOM    137  OE1 GLU d   1      28.215  49.069  23.643  0.00  0.00    -0.648 OA
ATOM    138  OE2 GLU d   1      26.274  48.059  23.215  0.00  0.00    -0.648 OA
ENDBRANCH 133 136
ENDBRANCH 130 133
ENDBRANCH 124 130
ENDBRANCH 112 124
ENDBRANCH 107 110
ENDBRANCH 104 106
BRANCH 104 139
ATOM    139  CB  GLU d   1      18.644  50.951  27.555  0.00  0.00    -0.029 C 
ATOM    140  H18 GLU d   1      17.978  51.779  27.270  0.00  0.00     0.037 H 
ATOM    141  H19 GLU d   1      19.118  51.178  28.521  0.00  0.00     0.037 H 
BRANCH 139 142
ATOM    142  CG  GLU d   1      17.798  49.681  27.716  0.00  0.00     0.018 C 
ATOM    143  H20 GLU d   1      18.476  48.843  27.936  0.00  0.00     0.049 H 
ATOM    144  H21 GLU d   1      17.279  49.492  26.765  0.00  0.00     0.049 H 
BRANCH 142 145
ATOM    145  CD  GLU d   1      16.744  49.750  28.831  0.00  0.00     0.172 C 
ATOM    146  OE1 GLU d   1      16.213  50.853  29.154  0.00  0.00    -0.648 OA
ATOM    147  OE2 GLU d   1      16.411  48.661  29.342  0.00  0.00    -0.648 OA
ENDBRANCH 142 145
ENDBRANCH 139 142
ENDBRANCH 104 139
ENDBRANCH 101 104
ENDBRANCH  98 100
BRANCH  98 148
ATOM    148  CB  ILE d   1      18.169  48.233  22.629  0.00  0.00    -0.030 C 
ATOM    149  H24 ILE d   1      17.915  47.540  23.445  0.00  0.00     0.043 H 
BRANCH 148 150
ATOM    150  CG1 ILE d   1      19.591  47.905  22.136  0.00  0.00    -0.063 C 
ATOM    151  H25 ILE d   1      20.317  48.216  22.901  0.00  0.00     0.033 H 
ATOM    152  H26 ILE d   1      19.784  48.455  21.203  0.00  0.00     0.033 H 
BRANCH 150 153
ATOM    153  CD1 ILE d   1      19.747  46.448  21.882  0.00  0.00    -0.076 C 
ATOM    154  H30 ILE d   1      20.770  46.244  21.532  0.00  0.00     0.027 H 
ATOM    155  H31 ILE d   1      19.026  46.130  21.114  0.00  0.00     0.027 H 
ATOM    156  H32 ILE d   1      19.560  45.892  22.812  0.00  0.00     0.027 H 
ENDBRANCH 150 153
ENDBRANCH 148 150
BRANCH 148 157
ATOM    157  CG2 ILE d   1      17.179  48.027  21.524  0.00  0.00    -0.071 C 
ATOM    158  H27 ILE d   1      16.169  48.264  21.888  0.00  0.00     0.028 H 
ATOM    159  H28 ILE d   1      17.212  46.979  21.192  0.00  0.00     0.028 H 
ATOM    160  H29 ILE d   1      17.429  48.687  20.680  0.00  0.00     0.028 H 
ENDBRANCH 148 157
ENDBRANCH  98 148
ENDBRANCH  86  98
ENDBRANCH   1  84
TORSDOF 36
