REMARK  5 active torsions:
REMARK  status: ('A' for Active; 'I' for Inactive)
REMARK    1  A    between atoms: N1_5  and  C10_10 
REMARK    2  A    between atoms: C7_6  and  C8_7 
REMARK    3  A    between atoms: C13_14  and  O4_26 
REMARK    4  A    between atoms: N_18  and  C1_20 
REMARK    5  A    between atoms: C1_20  and  C_19 
ROOT
ATOM      1  O3  C9Y d   1     -25.157  48.538 -19.264  0.00  0.00    -0.265 OA
ATOM      2  C4  C9Y d   1     -22.986  49.579 -16.512  0.00  0.00    -0.000 A 
ATOM      3  C5  C9Y d   1     -22.786  49.281 -15.158  0.00  0.00    -0.068 A 
ATOM      4  C6  C9Y d   1     -23.558  48.328 -14.519  0.00  0.00    -0.052 A 
ATOM      5  C7  C9Y d   1     -24.536  47.671 -15.261  0.00  0.00     0.089 A 
ATOM      6  N4  C9Y d   1     -24.759  47.937 -16.564  0.00  0.00    -0.240 NA
ATOM      7  N   C9Y d   1     -23.488  50.084 -19.231  0.00  0.00    -0.323 N 
ATOM      8  C16 C9Y d   1     -24.004  48.868 -17.188  0.00  0.00     0.136 A 
ATOM      9  C17 C9Y d   1     -24.293  49.114 -18.623  0.00  0.00     0.277 A 
ATOM     10  C2  C9Y d   1     -22.504  50.762 -18.550  0.00  0.00    -0.016 A 
ATOM     11  C3  C9Y d   1     -22.237  50.550 -17.260  0.00  0.00    -0.056 A 
ATOM     12  H1  C9Y d   1     -22.016  49.804 -14.604  0.00  0.00     0.085 H 
ATOM     13  H2  C9Y d   1     -23.406  48.099 -13.470  0.00  0.00     0.087 H 
ATOM     14  H12 C9Y d   1     -21.917  51.505 -19.088  0.00  0.00     0.111 H 
ATOM     15  H13 C9Y d   1     -21.446  51.117 -16.771  0.00  0.00     0.086 H 
ENDROOT
BRANCH   5  16
ATOM     16  C8  C9Y d   1     -25.399  46.645 -14.642  0.00  0.00     0.127 A 
ATOM     17  C9  C9Y d   1     -25.281  46.016 -13.427  0.00  0.00     0.038 A 
ATOM     18  N1  C9Y d   1     -26.333  45.168 -13.348  0.00  0.00    -0.224 N 
ATOM     19  H3  C9Y d   1     -24.502  46.168 -12.681  0.00  0.00     0.118 H 
ATOM     20  N2  C9Y d   1     -27.089  45.262 -14.471  0.00  0.00    -0.060 NA
ATOM     21  N3  C9Y d   1     -26.521  46.156 -15.249  0.00  0.00    -0.128 NA
BRANCH  18  22
ATOM     22  C10 C9Y d   1     -26.722  44.274 -12.292  0.00  0.00     0.062 A 
ATOM     23  C11 C9Y d   1     -25.783  43.665 -11.457  0.00  0.00    -0.052 A 
ATOM     24  C12 C9Y d   1     -26.200  42.810 -10.443  0.00  0.00    -0.046 A 
ATOM     25  H4  C9Y d   1     -24.726  43.859 -11.600  0.00  0.00     0.087 H 
ATOM     26  C13 C9Y d   1     -27.561  42.547 -10.237  0.00  0.00     0.104 A 
ATOM     27  H5  C9Y d   1     -25.462  42.340  -9.803  0.00  0.00     0.087 H 
ATOM     28  C14 C9Y d   1     -28.468  43.181 -11.101  0.00  0.00     0.151 A 
ATOM     29  C15 C9Y d   1     -28.082  44.029 -12.105  0.00  0.00    -0.015 A 
ATOM     30  F   C9Y d   1     -29.783  42.937 -10.902  0.00  0.00    -0.203 F 
ATOM     31  H6  C9Y d   1     -28.820  44.501 -12.743  0.00  0.00     0.091 H 
BRANCH  26  32
ATOM     32  O4  C9Y d   1     -27.958  41.711  -9.247  0.00  0.00    -0.358 OA
ATOM     33  H14 C9Y d   1     -28.524  42.181  -8.645  0.00  0.00     0.217 HD
ENDBRANCH  26  32
ENDBRANCH  18  22
ENDBRANCH   5  16
BRANCH   7  34
ATOM     34  C1  C9Y d   1     -23.710  50.386 -20.649  0.00  0.00    -0.001 C 
ATOM     35  H10 C9Y d   1     -23.364  51.411 -20.850  0.00  0.00     0.064 H 
ATOM     36  H11 C9Y d   1     -24.787  50.314 -20.861  0.00  0.00     0.064 H 
BRANCH  34  37
ATOM     37  C   C9Y d   1     -22.971  49.436 -21.566  0.00  0.00    -0.061 C 
ATOM     38  H7  C9Y d   1     -23.172  49.707 -22.613  0.00  0.00     0.029 H 
ATOM     39  H8  C9Y d   1     -23.314  48.407 -21.381  0.00  0.00     0.029 H 
ATOM     40  H9  C9Y d   1     -21.891  49.504 -21.370  0.00  0.00     0.029 H 
ENDBRANCH  34  37
ENDBRANCH   7  34
TORSDOF 5
