REMARK  6 active torsions:
REMARK  status: ('A' for Active; 'I' for Inactive)
REMARK    1  A    between atoms: C6_2  and  C5_1 
REMARK    2  A    between atoms: N12_5  and  C10_4 
REMARK    3  A    between atoms: C13_6  and  N12_5 
REMARK    4  A    between atoms: C19_20  and  C15_7 
REMARK    5  A    between atoms: C3_12  and  S23_22 
REMARK    6  A    between atoms: S23_22  and  N26_25 
ROOT
ATOM      1  C6  CJJ d   1      87.801  77.465  29.367  0.00  0.00     0.168 A 
ATOM      2  C8  CJJ d   1      88.468  77.048  31.530  0.00  0.00     0.029 A 
ATOM      3  C10 CJJ d   1      87.654  75.269  30.119  0.00  0.00     0.155 A 
ATOM      4  N7  CJJ d   1      88.266  77.900  30.529  0.00  0.00    -0.238 NA
ATOM      5  C9  CJJ d   1      88.180  75.695  31.368  0.00  0.00     0.097 A 
ATOM      6  N11 CJJ d   1      87.488  76.195  29.175  0.00  0.00    -0.208 NA
ATOM      7 CL22 CJJ d   1      88.460  74.650  32.732  0.00  0.00    -0.079 Cl
ATOM      8  H1  CJJ d   1      88.858  77.408  32.475  0.00  0.00     0.117 H 
ENDROOT
BRANCH   3   9
ATOM      9  N12 CJJ d   1      87.314  73.944  29.827  0.00  0.00    -0.323 N 
ATOM     10  H2  CJJ d   1      87.377  73.235  30.572  0.00  0.00     0.169 HD
BRANCH   9  11
ATOM     11  C13 CJJ d   1      86.887  73.551  28.539  0.00  0.00     0.151 A 
ATOM     12  C14 CJJ d   1      86.423  74.406  27.538  0.00  0.00    -0.013 A 
ATOM     13  C15 CJJ d   1      86.116  73.696  26.446  0.00  0.00     0.035 A 
ATOM     14  H9  CJJ d   1      86.326  75.487  27.631  0.00  0.00     0.092 H 
ATOM     15  N16 CJJ d   1      86.352  72.404  26.721  0.00  0.00    -0.280 N 
ATOM     16  N18 CJJ d   1      86.833  72.337  28.039  0.00  0.00    -0.156 NA
ATOM     17  H10 CJJ d   1      86.207  71.608  26.083  0.00  0.00     0.189 HD
BRANCH  13  18
ATOM     18  C19 CJJ d   1      85.576  74.319  25.196  0.00  0.00    -0.012 A 
ATOM     19  C20 CJJ d   1      85.789  73.633  23.856  0.00  0.00    -0.056 A 
ATOM     20  C21 CJJ d   1      84.411  73.610  24.527  0.00  0.00    -0.056 A 
ATOM     21  H3  CJJ d   1      85.950  74.234  22.949  0.00  0.00     0.034 H 
ATOM     22  H4  CJJ d   1      86.389  72.713  23.797  0.00  0.00     0.034 H 
ATOM     23  H5  CJJ d   1      84.020  72.673  24.950  0.00  0.00     0.034 H 
ATOM     24  H6  CJJ d   1      83.582  74.194  24.102  0.00  0.00     0.034 H 
ATOM     25  H11 CJJ d   1      85.610  75.416  25.268  0.00  0.00     0.049 H 
ENDBRANCH  13  18
ENDBRANCH   9  11
ENDBRANCH   3   9
BRANCH   1  26
ATOM     26  C5  CJJ d   1      87.522  78.401  28.286  0.00  0.00     0.054 A 
ATOM     27  C1  CJJ d   1      88.253  79.479  27.942  0.00  0.00    -0.061 A 
ATOM     28  C2  CJJ d   1      87.724  80.192  26.896  0.00  0.00    -0.052 A 
ATOM     29  H7  CJJ d   1      89.177  79.758  28.447  0.00  0.00     0.085 H 
ATOM     30  C3  CJJ d   1      86.574  79.703  26.418  0.00  0.00     0.120 A 
ATOM     31  H8  CJJ d   1      88.201  81.082  26.488  0.00  0.00     0.086 H 
ATOM     32  S4  CJJ d   1      86.087  78.264  27.293  0.00  0.00    -0.073 SA
BRANCH  30  33
ATOM     33  S23 CJJ d   1      85.645  80.384  25.094  0.00  0.00     0.263 S 
ATOM     34  O24 CJJ d   1      84.384  80.726  25.660  0.00  0.00    -0.200 OA
ATOM     35  O25 CJJ d   1      86.514  81.308  24.436  0.00  0.00    -0.200 OA
BRANCH  33  36
ATOM     36  N26 CJJ d   1      85.339  79.156  24.020  0.00  0.00    -0.324 N 
ATOM     37  H12 CJJ d   1      84.816  79.339  23.187  0.00  0.00     0.169 HD
ATOM     38  H13 CJJ d   1      85.677  78.233  24.206  0.00  0.00     0.169 HD
ENDBRANCH  33  36
ENDBRANCH  30  33
ENDBRANCH   1  26
TORSDOF 6
