REMARK  6 active torsions:
REMARK  status: ('A' for Active; 'I' for Inactive)
REMARK    1  A    between atoms: C6_2  and  C5_1 
REMARK    2  A    between atoms: N12_5  and  C10_4 
REMARK    3  A    between atoms: C13_6  and  N12_5 
REMARK    4  A    between atoms: C19_20  and  C15_7 
REMARK    5  A    between atoms: C3_12  and  S23_22 
REMARK    6  A    between atoms: S23_22  and  N26_25 
ROOT
ATOM      1  C6  CJJ d   1     -19.840 -37.670 -10.857  0.00  0.00     0.168 A 
ATOM      2  C8  CJJ d   1     -20.529 -36.320  -9.106  0.00  0.00     0.029 A 
ATOM      3  C10 CJJ d   1     -18.409 -35.963 -10.189  0.00  0.00     0.155 A 
ATOM      4  N7  CJJ d   1     -20.738 -37.355  -9.921  0.00  0.00    -0.238 NA
ATOM      5  C9  CJJ d   1     -19.341 -35.594  -9.209  0.00  0.00     0.097 A 
ATOM      6  N11 CJJ d   1     -18.706 -36.991 -10.974  0.00  0.00    -0.208 NA
ATOM      7 CL22 CJJ d   1     -18.974 -34.272  -8.141  0.00  0.00    -0.079 Cl
ATOM      8  H1  CJJ d   1     -21.276 -36.045  -8.370  0.00  0.00     0.117 H 
ENDROOT
BRANCH   3   9
ATOM      9  N12 CJJ d   1     -17.209 -35.268 -10.318  0.00  0.00    -0.323 N 
ATOM     10  H2  CJJ d   1     -17.037 -34.483  -9.674  0.00  0.00     0.169 HD
BRANCH   9  11
ATOM     11  C13 CJJ d   1     -16.216 -35.566 -11.270  0.00  0.00     0.151 A 
ATOM     12  C14 CJJ d   1     -15.979 -36.784 -11.931  0.00  0.00    -0.013 A 
ATOM     13  C15 CJJ d   1     -14.912 -36.624 -12.743  0.00  0.00     0.035 A 
ATOM     14  H9  CJJ d   1     -16.557 -37.699 -11.809  0.00  0.00     0.092 H 
ATOM     15  N16 CJJ d   1     -14.473 -35.359 -12.608  0.00  0.00    -0.280 N 
ATOM     16  N18 CJJ d   1     -15.298 -34.726 -11.676  0.00  0.00    -0.156 NA
ATOM     17  H10 CJJ d   1     -13.675 -34.935 -13.102  0.00  0.00     0.189 HD
BRANCH  13  18
ATOM     18  C19 CJJ d   1     -14.283 -37.656 -13.637  0.00  0.00    -0.012 A 
ATOM     19  C20 CJJ d   1     -15.139 -38.794 -14.192  0.00  0.00    -0.056 A 
ATOM     20  C21 CJJ d   1     -14.746 -37.618 -15.088  0.00  0.00    -0.056 A 
ATOM     21  H3  CJJ d   1     -14.695 -39.786 -14.359  0.00  0.00     0.034 H 
ATOM     22  H4  CJJ d   1     -16.182 -38.910 -13.862  0.00  0.00     0.034 H 
ATOM     23  H5  CJJ d   1     -15.507 -36.889 -15.403  0.00  0.00     0.034 H 
ATOM     24  H6  CJJ d   1     -14.020 -37.765 -15.901  0.00  0.00     0.034 H 
ATOM     25  H11 CJJ d   1     -13.231 -37.828 -13.364  0.00  0.00     0.049 H 
ENDBRANCH  13  18
ENDBRANCH   9  11
ENDBRANCH   3   9
BRANCH   1  26
ATOM     26  C5  CJJ d   1     -20.022 -38.774 -11.811  0.00  0.00     0.054 A 
ATOM     27  C1  CJJ d   1     -21.085 -39.589 -11.947  0.00  0.00    -0.061 A 
ATOM     28  C2  CJJ d   1     -20.950 -40.535 -12.944  0.00  0.00    -0.052 A 
ATOM     29  H7  CJJ d   1     -21.975 -39.509 -11.324  0.00  0.00     0.085 H 
ATOM     30  C3  CJJ d   1     -19.795 -40.505 -13.631  0.00  0.00     0.120 A 
ATOM     31  H8  CJJ d   1     -21.732 -41.261 -13.161  0.00  0.00     0.086 H 
ATOM     32  S4  CJJ d   1     -18.809 -39.191 -13.009  0.00  0.00    -0.073 SA
BRANCH  30  33
ATOM     33  S23 CJJ d   1     -19.329 -41.572 -14.972  0.00  0.00     0.263 S 
ATOM     34  O24 CJJ d   1     -18.965 -42.850 -14.439  0.00  0.00    -0.200 OA
ATOM     35  O25 CJJ d   1     -20.344 -41.401 -15.960  0.00  0.00    -0.200 OA
BRANCH  33  36
ATOM     36  N26 CJJ d   1     -17.934 -40.939 -15.624  0.00  0.00    -0.324 N 
ATOM     37  H12 CJJ d   1     -17.495 -41.391 -16.401  0.00  0.00     0.169 HD
ATOM     38  H13 CJJ d   1     -17.535 -40.107 -15.239  0.00  0.00     0.169 HD
ENDBRANCH  33  36
ENDBRANCH  30  33
ENDBRANCH   1  26
TORSDOF 6
