REMARK  12 active torsions:
REMARK  status: ('A' for Active; 'I' for Inactive)
REMARK    1  A    between atoms: C9_14  and  C6_3 
REMARK    2  A    between atoms: C20_7  and  C9_14 
REMARK       I    between atoms: N22_25  and  C20_7 
REMARK    3  A    between atoms: C26_9  and  SI_29 
REMARK    4  A    between atoms: O2_12  and  C1_11 
REMARK    5  A    between atoms: C3_13  and  O2_12 
REMARK    6  A    between atoms: C9_14  and  N10_15 
REMARK    7  A    between atoms: N10_15  and  C11_16 
REMARK       I    between atoms: N10_15  and  C12_17 
REMARK    8  A    between atoms: C12_17  and  C14_19 
REMARK    9  A    between atoms: N22_25  and  C23_26 
REMARK   10  A    between atoms: SI_29  and  C30_30 
REMARK   11  A    between atoms: SI_29  and  C31_31 
REMARK   12  A    between atoms: SI_29  and  C32_32 
ROOT
ATOM      1  C9  CFG d   1      -9.650  25.509  -1.480  0.00  0.00     0.117 C 
ATOM      2  H11 CFG d   1      -9.031  24.997  -0.728  0.00  0.00     0.095 H 
ENDROOT
BRANCH   1   3
ATOM      3  C6  CFG d   1     -10.968  25.953  -0.869  0.00  0.00    -0.026 A 
ATOM      4  C5  CFG d   1     -11.201  25.728   0.488  0.00  0.00    -0.072 A 
ATOM      5  C4  CFG d   1     -12.398  26.139   1.068  0.00  0.00    -0.050 A 
ATOM      6  H2  CFG d   1     -10.449  25.233   1.091  0.00  0.00     0.084 H 
ATOM      7  C3  CFG d   1     -13.376  26.790   0.308  0.00  0.00     0.068 A 
ATOM      8  H1  CFG d   1     -12.575  25.952   2.121  0.00  0.00     0.087 H 
ATOM      9  C8  CFG d   1     -13.140  27.035  -1.053  0.00  0.00    -0.050 A 
ATOM     10  C7  CFG d   1     -11.942  26.626  -1.628  0.00  0.00    -0.072 A 
ATOM     11  H4  CFG d   1     -13.888  27.541  -1.653  0.00  0.00     0.087 H 
ATOM     12  H3  CFG d   1     -11.756  26.829  -2.676  0.00  0.00     0.084 H 
BRANCH   7  13
ATOM     13  O2  CFG d   1     -14.527  27.183   0.934  0.00  0.00    -0.356 OA
BRANCH  13  14
ATOM     14  C1  CFG d   1     -15.720  27.518   0.212  0.00  0.00     0.010 C 
ATOM     15  H8  CFG d   1     -16.511  27.803   0.922  0.00  0.00     0.066 H 
ATOM     16  H9  CFG d   1     -16.050  26.648  -0.375  0.00  0.00     0.066 H 
ATOM     17  H10 CFG d   1     -15.515  28.360  -0.465  0.00  0.00     0.066 H 
ENDBRANCH  13  14
ENDBRANCH   7  13
ENDBRANCH   1   3
BRANCH   1  18
ATOM     18  C20 CFG d   1      -9.056  26.867  -1.814  0.00  0.00     0.249 C 
ATOM     19  O21 CFG d   1      -9.337  27.434  -2.857  0.00  0.00    -0.270 OA
ATOM     20  N22 CFG d   1      -8.220  27.428  -0.911  0.00  0.00    -0.325 N 
ATOM     21  H16 CFG d   1      -7.979  26.854  -0.128  0.00  0.00     0.169 HD
BRANCH  20  22
ATOM     22  C23 CFG d   1      -7.647  28.707  -0.927  0.00  0.00     0.034 A 
ATOM     23  C24 CFG d   1      -7.059  29.118   0.280  0.00  0.00    -0.056 A 
ATOM     24  C25 CFG d   1      -6.518  30.389   0.404  0.00  0.00    -0.070 A 
ATOM     25  H6  CFG d   1      -7.028  28.436   1.122  0.00  0.00     0.086 H 
ATOM     26  C26 CFG d   1      -6.580  31.271  -0.678  0.00  0.00    -0.026 A 
ATOM     27  H17 CFG d   1      -6.051  30.696   1.333  0.00  0.00     0.084 H 
ATOM     28  C27 CFG d   1      -7.196  30.899  -1.867  0.00  0.00    -0.070 A 
ATOM     29  C28 CFG d   1      -7.738  29.616  -1.991  0.00  0.00    -0.056 A 
ATOM     30  H18 CFG d   1      -7.256  31.599  -2.693  0.00  0.00     0.084 H 
ATOM     31  H7  CFG d   1      -8.230  29.323  -2.912  0.00  0.00     0.086 H 
BRANCH  26  32
ATOM     32 SI   CFG d   1      -5.892  32.985  -0.464  0.00  0.00     0.000 Si
BRANCH  32  33
ATOM     33  C30 CFG d   1      -4.773  33.503  -1.856  0.00  0.00    -0.080 C 
ATOM     34  H19 CFG d   1      -4.402  34.521  -1.669  0.00  0.00     0.027 H 
ATOM     35  H20 CFG d   1      -5.333  33.485  -2.803  0.00  0.00     0.027 H 
ATOM     36  H21 CFG d   1      -3.922  32.809  -1.920  0.00  0.00     0.027 H 
ENDBRANCH  32  33
BRANCH  32  37
ATOM     37  C31 CFG d   1      -7.360  34.109  -0.397  0.00  0.00    -0.080 C 
ATOM     38  H22 CFG d   1      -8.020  33.801   0.427  0.00  0.00     0.027 H 
ATOM     39  H23 CFG d   1      -7.909  34.052  -1.348  0.00  0.00     0.027 H 
ATOM     40  H24 CFG d   1      -7.023  35.143  -0.230  0.00  0.00     0.027 H 
ENDBRANCH  32  37
BRANCH  32  41
ATOM     41  C32 CFG d   1      -5.030  33.107   1.182  0.00  0.00    -0.080 C 
ATOM     42  H25 CFG d   1      -4.147  32.450   1.183  0.00  0.00     0.027 H 
ATOM     43  H26 CFG d   1      -5.719  32.796   1.981  0.00  0.00     0.027 H 
ATOM     44  H27 CFG d   1      -4.714  34.146   1.354  0.00  0.00     0.027 H 
ENDBRANCH  32  41
ENDBRANCH  26  32
ENDBRANCH  20  22
ENDBRANCH   1  18
BRANCH   1  45
ATOM     45  N10 CFG d   1      -9.797  24.587  -2.639  0.00  0.00    -0.333 N 
ATOM     46  C12 CFG d   1      -8.765  24.443  -3.515  0.00  0.00     0.280 C 
ATOM     47  O13 CFG d   1      -7.744  25.084  -3.331  0.00  0.00    -0.265 OA
BRANCH  45  48
ATOM     48  C11 CFG d   1     -11.037  23.815  -2.833  0.00  0.00    -0.015 C 
ATOM     49  H12 CFG d   1     -10.947  23.198  -3.739  0.00  0.00     0.056 H 
ATOM     50  H13 CFG d   1     -11.886  24.506  -2.943  0.00  0.00     0.056 H 
ATOM     51  H14 CFG d   1     -11.204  23.164  -1.962  0.00  0.00     0.056 H 
ENDBRANCH  45  48
BRANCH  46  52
ATOM     52  C14 CFG d   1      -8.753  23.604  -4.741  0.00  0.00     0.170 A 
ATOM     53  C15 CFG d   1      -7.802  22.706  -5.113  0.00  0.00     0.011 A 
ATOM     54  C16 CFG d   1      -8.205  22.220  -6.381  0.00  0.00     0.201 A 
ATOM     55  H5  CFG d   1      -6.914  22.420  -4.552  0.00  0.00     0.095 H 
ATOM     56  O17 CFG d   1      -7.561  21.283  -7.131  0.00  0.00    -0.170 OA
ATOM     57  N18 CFG d   1      -9.311  22.851  -6.666  0.00  0.00    -0.236 N 
ATOM     58  O19 CFG d   1      -9.615  23.631  -5.782  0.00  0.00    -0.230 OA
ATOM     59  H15 CFG d   1      -9.841  22.712  -7.503  0.00  0.00     0.197 HD
ENDBRANCH  46  52
ENDBRANCH   1  45
TORSDOF 12
