REMARK  11 active torsions:
REMARK  status: ('A' for Active; 'I' for Inactive)
REMARK    1  A    between atoms: N3_1  and  C2_15 
REMARK    2  A    between atoms: N8_16  and  C7_5 
REMARK    3  A    between atoms: C12_20  and  C13_6 
REMARK    4  A    between atoms: C15_7  and  C14_21 
REMARK       I    between atoms: N17_23  and  C15_7 
REMARK    5  A    between atoms: C2_15  and  C1_14 
REMARK       I    between atoms: C9_17  and  N8_16 
REMARK    6  A    between atoms: C11_19  and  C9_17 
REMARK    7  A    between atoms: C12_20  and  C11_19 
REMARK    8  A    between atoms: C14_21  and  C12_20 
REMARK    9  A    between atoms: N17_23  and  C18_24 
REMARK   10  A    between atoms: N31_31  and  C32_32 
REMARK   11  A    between atoms: C32_32  and  C33_33 
ROOT
ATOM      1  C20 CFJ d   1      32.080  -6.015  -1.775  0.00  0.00    -0.059 A 
ATOM      2  C21 CFJ d   1      31.638  -7.329  -2.069  0.00  0.00     0.066 A 
ATOM      3  C22 CFJ d   1      32.542  -8.413  -2.271  0.00  0.00     0.101 C 
ATOM      4  C24 CFJ d   1      30.267  -7.636  -2.181  0.00  0.00     0.057 A 
ATOM      5  C26 CFJ d   1      29.348  -6.612  -1.982  0.00  0.00    -0.035 A 
ATOM      6  C18 CFJ d   1      29.775  -5.297  -1.694  0.00  0.00     0.036 A 
ATOM      7  C19 CFJ d   1      31.140  -5.000  -1.581  0.00  0.00    -0.056 A 
ATOM      8  N23 CFJ d   1      33.252  -9.278  -2.435  0.00  0.00    -0.191 NA
ATOM      9 CL   CFJ d   1      29.788  -9.290  -2.547  0.00  0.00    -0.083 Cl
ATOM     10  H6  CFJ d   1      33.140  -5.799  -1.701  0.00  0.00     0.086 H 
ATOM     11  H7  CFJ d   1      28.288  -6.826  -2.049  0.00  0.00     0.089 H 
ATOM     12  H20 CFJ d   1      31.463  -3.993  -1.345  0.00  0.00     0.087 H 
ENDROOT
BRANCH   6  13
ATOM     13  N17 CFJ d   1      28.880  -4.245  -1.488  0.00  0.00    -0.327 N 
ATOM     14  C15 CFJ d   1      27.509  -4.351  -1.398  0.00  0.00     0.222 C 
ATOM     15  O16 CFJ d   1      26.909  -5.418  -1.477  0.00  0.00    -0.273 OA
ATOM     16  H19 CFJ d   1      29.271  -3.329  -1.397  0.00  0.00     0.169 HD
BRANCH  14  17
ATOM     17  C14 CFJ d   1      26.700  -3.100  -1.110  0.00  0.00     0.013 C 
ATOM     18  H17 CFJ d   1      25.659  -3.372  -0.884  0.00  0.00     0.047 H 
ATOM     19  H18 CFJ d   1      26.723  -2.431  -1.983  0.00  0.00     0.047 H 
BRANCH  17  20
ATOM     20  C12 CFJ d   1      27.333  -2.395   0.107  0.00  0.00    -0.042 C 
ATOM     21  H16 CFJ d   1      28.417  -2.351  -0.075  0.00  0.00     0.040 H 
BRANCH  20  22
ATOM     22  C13 CFJ d   1      26.816  -0.949   0.072  0.00  0.00    -0.072 C 
ATOM     23  H3  CFJ d   1      27.235  -0.389   0.921  0.00  0.00     0.028 H 
ATOM     24  H4  CFJ d   1      25.718  -0.950   0.139  0.00  0.00     0.028 H 
ATOM     25  H5  CFJ d   1      27.125  -0.472  -0.870  0.00  0.00     0.028 H 
ENDBRANCH  20  22
BRANCH  20  26
ATOM     26  C11 CFJ d   1      27.180  -3.149   1.480  0.00  0.00     0.013 C 
ATOM     27  H14 CFJ d   1      27.342  -2.448   2.312  0.00  0.00     0.047 H 
ATOM     28  H15 CFJ d   1      26.172  -3.583   1.558  0.00  0.00     0.047 H 
BRANCH  26  29
ATOM     29  C9  CFJ d   1      28.229  -4.259   1.524  0.00  0.00     0.222 C 
ATOM     30  N8  CFJ d   1      27.852  -5.572   1.397  0.00  0.00    -0.327 N 
ATOM     31  H13 CFJ d   1      26.871  -5.765   1.376  0.00  0.00     0.169 HD
ATOM     32  O10 CFJ d   1      29.414  -3.950   1.628  0.00  0.00    -0.273 OA
BRANCH  30  33
ATOM     33  C7  CFJ d   1      28.729  -6.677   1.293  0.00  0.00     0.035 A 
ATOM     34  C6  CFJ d   1      28.211  -7.931   0.946  0.00  0.00    -0.055 A 
ATOM     35  C5  CFJ d   1      29.038  -9.030   0.783  0.00  0.00    -0.054 A 
ATOM     36  H2  CFJ d   1      27.142  -8.044   0.802  0.00  0.00     0.087 H 
ATOM     37  C4  CFJ d   1      30.429  -8.899   0.930  0.00  0.00     0.054 A 
ATOM     38  H1  CFJ d   1      28.610  -9.996   0.541  0.00  0.00     0.087 H 
ATOM     39  N3  CFJ d   1      31.336  -9.960   0.719  0.00  0.00    -0.299 N 
ATOM     40  C28 CFJ d   1      30.968  -7.622   1.243  0.00  0.00     0.061 A 
ATOM     41  C34 CFJ d   1      32.685  -9.748   0.810  0.00  0.00     0.332 A 
ATOM     42  N31 CFJ d   1      33.245  -8.539   1.130  0.00  0.00    -0.266 N 
ATOM     43  O35 CFJ d   1      33.429 -10.694   0.598  0.00  0.00    -0.246 OA
ATOM     44  C29 CFJ d   1      32.444  -7.449   1.370  0.00  0.00     0.264 A 
ATOM     45  O30 CFJ d   1      32.913  -6.340   1.638  0.00  0.00    -0.267 OA
ATOM     46  C27 CFJ d   1      30.109  -6.537   1.415  0.00  0.00    -0.040 A 
ATOM     47  H21 CFJ d   1      30.525  -5.564   1.649  0.00  0.00     0.088 H 
BRANCH  39  48
ATOM     48  C2  CFJ d   1      30.852 -11.295   0.356  0.00  0.00     0.001 C 
ATOM     49  H11 CFJ d   1      31.657 -11.863  -0.133  0.00  0.00     0.064 H 
ATOM     50  H12 CFJ d   1      29.996 -11.208  -0.329  0.00  0.00     0.064 H 
BRANCH  48  51
ATOM     51  C1  CFJ d   1      30.420 -12.007   1.636  0.00  0.00    -0.061 C 
ATOM     52  H8  CFJ d   1      30.052 -13.014   1.389  0.00  0.00     0.029 H 
ATOM     53  H9  CFJ d   1      29.618 -11.432   2.122  0.00  0.00     0.029 H 
ATOM     54  H10 CFJ d   1      31.279 -12.088   2.318  0.00  0.00     0.029 H 
ENDBRANCH  48  51
ENDBRANCH  39  48
BRANCH  42  55
ATOM     55  C32 CFJ d   1      34.719  -8.425   1.240  0.00  0.00     0.004 C 
ATOM     56  H22 CFJ d   1      35.152  -9.436   1.242  0.00  0.00     0.064 H 
ATOM     57  H23 CFJ d   1      34.965  -7.919   2.185  0.00  0.00     0.064 H 
BRANCH  55  58
ATOM     58  C33 CFJ d   1      35.328  -7.635   0.090  0.00  0.00    -0.060 C 
ATOM     59  H24 CFJ d   1      36.419  -7.581   0.220  0.00  0.00     0.029 H 
ATOM     60  H25 CFJ d   1      34.909  -6.618   0.081  0.00  0.00     0.029 H 
ATOM     61  H26 CFJ d   1      35.096  -8.135  -0.862  0.00  0.00     0.029 H 
ENDBRANCH  55  58
ENDBRANCH  42  55
ENDBRANCH  30  33
ENDBRANCH  26  29
ENDBRANCH  20  26
ENDBRANCH  17  20
ENDBRANCH  14  17
ENDBRANCH   6  13
TORSDOF 11
