REMARK  8 active torsions:
REMARK  status: ('A' for Active; 'I' for Inactive)
REMARK    1  A    between atoms: N9_16  and  C8_4 
REMARK       I    between atoms: N12_6  and  C10_5 
REMARK       I    between atoms: C10_5  and  N9_16 
REMARK    2  A    between atoms: N20_23  and  C21_9 
REMARK    3  A    between atoms: C2_13  and  C1_12 
REMARK    4  A    between atoms: C2_13  and  C3_14 
REMARK    5  A    between atoms: N4_15  and  C2_13 
REMARK    6  A    between atoms: C18_21  and  C16_20 
REMARK       I    between atoms: C18_21  and  N20_23 
REMARK    7  A    between atoms: N34_34  and  C35_35 
REMARK    8  A    between atoms: C35_35  and  C36_36 
ROOT
ATOM      1  C21 CF7 d   1     -30.537 110.634  -1.960  0.00  0.00     0.036 A 
ATOM      2  C22 CF7 d   1     -30.034 111.940  -1.886  0.00  0.00    -0.056 A 
ATOM      3  C24 CF7 d   1     -27.813 111.179  -2.514  0.00  0.00     0.066 A 
ATOM      4  C23 CF7 d   1     -28.694 112.216  -2.164  0.00  0.00    -0.059 A 
ATOM      5  C25 CF7 d   1     -26.413 111.369  -2.829  0.00  0.00     0.101 C 
ATOM      6  N26 CF7 d   1     -25.295 111.500  -3.079  0.00  0.00    -0.191 NA
ATOM      7  C27 CF7 d   1     -28.326 109.864  -2.598  0.00  0.00     0.057 A 
ATOM      8 CL   CF7 d   1     -27.280 108.538  -3.051  0.00  0.00    -0.083 Cl
ATOM      9  C29 CF7 d   1     -29.659 109.604  -2.313  0.00  0.00    -0.035 A 
ATOM     10  H7  CF7 d   1     -30.698 112.751  -1.608  0.00  0.00     0.087 H 
ATOM     11  H20 CF7 d   1     -28.331 113.236  -2.110  0.00  0.00     0.086 H 
ATOM     12  H21 CF7 d   1     -30.026 108.585  -2.365  0.00  0.00     0.089 H 
ENDROOT
BRANCH   1  13
ATOM     13  N20 CF7 d   1     -31.895 110.381  -1.625  0.00  0.00    -0.325 N 
ATOM     14  C18 CF7 d   1     -32.617 109.227  -1.836  0.00  0.00     0.252 C 
ATOM     15  O19 CF7 d   1     -32.114 108.261  -2.380  0.00  0.00    -0.270 OA
ATOM     16  H19 CF7 d   1     -32.386 111.132  -1.183  0.00  0.00     0.169 HD
BRANCH  14  17
ATOM     17  C16 CF7 d   1     -34.062 109.123  -1.367  0.00  0.00     0.131 C 
ATOM     18  C17 CF7 d   1     -34.170 108.365   0.002  0.00  0.00     0.032 C 
ATOM     19  N12 CF7 d   1     -33.791 109.405   0.987  0.00  0.00    -0.329 N 
ATOM     20  H5  CF7 d   1     -35.196 108.009   0.177  0.00  0.00     0.069 H 
ATOM     21  H6  CF7 d   1     -33.475 107.513   0.039  0.00  0.00     0.069 H 
ATOM     22  C10 CF7 d   1     -32.504 109.641   1.381  0.00  0.00     0.323 C 
ATOM     23  C13 CF7 d   1     -34.881 110.355   1.273  0.00  0.00     0.019 C 
ATOM     24  N9  CF7 d   1     -31.545 108.764   0.983  0.00  0.00    -0.309 N 
ATOM     25  O11 CF7 d   1     -32.245 110.596   2.101  0.00  0.00    -0.247 OA
ATOM     26  H15 CF7 d   1     -31.892 107.895   0.630  0.00  0.00     0.170 HD
ATOM     27  C14 CF7 d   1     -35.383 110.850  -0.111  0.00  0.00     0.036 C 
ATOM     28  H3  CF7 d   1     -34.506 111.200   1.869  0.00  0.00     0.067 H 
ATOM     29  H4  CF7 d   1     -35.694 109.853   1.818  0.00  0.00     0.067 H 
ATOM     30  O15 CF7 d   1     -34.530 110.477  -1.227  0.00  0.00    -0.373 OA
ATOM     31  H16 CF7 d   1     -35.450 111.948  -0.081  0.00  0.00     0.076 H 
ATOM     32  H17 CF7 d   1     -36.383 110.427  -0.286  0.00  0.00     0.076 H 
ATOM     33  H18 CF7 d   1     -34.662 108.591  -2.120  0.00  0.00     0.101 H 
BRANCH  24  34
ATOM     34  C8  CF7 d   1     -30.170 108.878   0.987  0.00  0.00     0.037 C 
ATOM     35  C7  CF7 d   1     -29.352 107.799   0.626  0.00  0.00    -0.055 C 
ATOM     36  C6  CF7 d   1     -27.979 108.006   0.495  0.00  0.00    -0.054 C 
ATOM     37  H2  CF7 d   1     -29.780 106.818   0.451  0.00  0.00     0.087 H 
ATOM     38  C5  CF7 d   1     -27.415 109.305   0.642  0.00  0.00     0.055 A 
ATOM     39  H1  CF7 d   1     -27.331 107.165   0.278  0.00  0.00     0.087 H 
ATOM     40  N4  CF7 d   1     -26.032 109.552   0.498  0.00  0.00    -0.294 N 
ATOM     41  C31 CF7 d   1     -28.279 110.417   0.924  0.00  0.00     0.061 A 
ATOM     42  C39 CF7 d   1     -25.541 110.849   0.651  0.00  0.00     0.332 A 
ATOM     43  N34 CF7 d   1     -26.364 111.928   0.944  0.00  0.00    -0.265 N 
ATOM     44  O40 CF7 d   1     -24.315 111.039   0.533  0.00  0.00    -0.246 OA
ATOM     45  C32 CF7 d   1     -27.701 111.779   1.096  0.00  0.00     0.264 A 
ATOM     46  O33 CF7 d   1     -28.388 112.754   1.370  0.00  0.00    -0.267 OA
ATOM     47  C30 CF7 d   1     -29.653 110.183   1.055  0.00  0.00    -0.040 C 
ATOM     48  H22 CF7 d   1     -30.326 111.018   1.211  0.00  0.00     0.088 H 
BRANCH  40  49
ATOM     49  C2  CF7 d   1     -25.171 108.362   0.192  0.00  0.00     0.015 C 
ATOM     50  H11 CF7 d   1     -25.869 107.591  -0.166  0.00  0.00     0.072 H 
BRANCH  49  51
ATOM     51  C1  CF7 d   1     -24.539 107.774   1.470  0.00  0.00    -0.057 C 
ATOM     52  H8  CF7 d   1     -23.917 106.906   1.206  0.00  0.00     0.030 H 
ATOM     53  H9  CF7 d   1     -25.335 107.458   2.161  0.00  0.00     0.030 H 
ATOM     54  H10 CF7 d   1     -23.914 108.538   1.955  0.00  0.00     0.030 H 
ENDBRANCH  49  51
BRANCH  49  55
ATOM     55  C3  CF7 d   1     -24.178 108.549  -0.965  0.00  0.00    -0.057 C 
ATOM     56  H12 CF7 d   1     -24.703 108.970  -1.835  0.00  0.00     0.030 H 
ATOM     57  H13 CF7 d   1     -23.743 107.576  -1.236  0.00  0.00     0.030 H 
ATOM     58  H14 CF7 d   1     -23.377 109.235  -0.653  0.00  0.00     0.030 H 
ENDBRANCH  49  55
ENDBRANCH  40  49
BRANCH  43  59
ATOM     59  C35 CF7 d   1     -25.896 113.318   1.152  0.00  0.00     0.011 C 
ATOM     60  H23 CF7 d   1     -25.226 113.318   2.024  0.00  0.00     0.065 H 
ATOM     61  H24 CF7 d   1     -26.778 113.939   1.368  0.00  0.00     0.065 H 
BRANCH  59  62
ATOM     62  C36 CF7 d   1     -25.145 113.968  -0.010  0.00  0.00    -0.038 A 
ATOM     63  C37 CF7 d   1     -25.974 114.717  -1.037  0.00  0.00    -0.060 A 
ATOM     64  C38 CF7 d   1     -25.144 115.496  -0.009  0.00  0.00    -0.060 A 
ATOM     65  H26 CF7 d   1     -27.072 114.712  -0.967  0.00  0.00     0.033 H 
ATOM     66  H27 CF7 d   1     -25.674 114.712  -2.095  0.00  0.00     0.033 H 
ATOM     67  H28 CF7 d   1     -24.247 116.047  -0.328  0.00  0.00     0.033 H 
ATOM     68  H29 CF7 d   1     -25.645 116.047   0.800  0.00  0.00     0.033 H 
ATOM     69  H25 CF7 d   1     -24.260 113.383  -0.302  0.00  0.00     0.042 H 
ENDBRANCH  59  62
ENDBRANCH  43  59
ENDBRANCH  24  34
ENDBRANCH  14  17
ENDBRANCH   1  13
TORSDOF 8
