REMARK  6 active torsions:
REMARK  status: ('A' for Active; 'I' for Inactive)
REMARK    1  A    between atoms: C02_7  and  C01_6 
REMARK    2  A    between atoms: C02_7  and  C03_8 
REMARK    3  A    between atoms: C04_9  and  C02_7 
REMARK    4  A    between atoms: C08_13  and  C07_12 
REMARK    5  A    between atoms: C09_14  and  C08_13 
REMARK       I    between atoms: N10_21  and  C09_14 
REMARK    6  A    between atoms: C14_17  and  N13_22 
ROOT
ATOM      1  C17 7DQ d   1     -35.510  -6.976 -17.815  0.00  0.00     0.159 A 
ATOM      2  C20 7DQ d   1     -34.185  -7.401 -17.680  0.00  0.00    -0.039 A 
ATOM      3  C21 7DQ d   1     -33.834  -8.068 -16.494  0.00  0.00    -0.034 A 
ATOM      4  C14 7DQ d   1     -34.851  -8.244 -15.549  0.00  0.00     0.148 A 
ATOM      5  C18 7DQ d   1     -35.943  -6.264 -19.077  0.00  0.00     0.121 C 
ATOM      6  N15 7DQ d   1     -36.057  -7.807 -15.755  0.00  0.00    -0.131 NA
ATOM      7  N16 7DQ d   1     -36.391  -7.185 -16.881  0.00  0.00    -0.137 NA
ATOM      8  N19 7DQ d   1     -36.241  -5.732 -20.020  0.00  0.00    -0.190 NA
ATOM      9  H1  7DQ d   1     -33.455  -7.223 -18.462  0.00  0.00     0.088 H 
ATOM     10  H2  7DQ d   1     -32.826  -8.428 -16.320  0.00  0.00     0.089 H 
ENDROOT
BRANCH   4  11
ATOM     11  N13 7DQ d   1     -34.554  -8.917 -14.315  0.00  0.00    -0.361 N 
ATOM     12  C22 7DQ d   1     -33.159  -9.054 -13.840  0.00  0.00     0.011 C 
ATOM     13  C23 7DQ d   1     -32.987 -10.270 -12.952  0.00  0.00     0.013 C 
ATOM     14  H3  7DQ d   1     -32.494  -9.151 -14.711  0.00  0.00     0.066 H 
ATOM     15  H4  7DQ d   1     -32.887  -8.154 -13.269  0.00  0.00     0.066 H 
ATOM     16  N10 7DQ d   1     -34.054 -10.517 -12.063  0.00  0.00    -0.349 N 
ATOM     17  H21 7DQ d   1     -32.073 -10.131 -12.357  0.00  0.00     0.066 H 
ATOM     18  H22 7DQ d   1     -32.872 -11.152 -13.600  0.00  0.00     0.066 H 
ATOM     19  C09 7DQ d   1     -33.800 -10.881 -10.709  0.00  0.00     0.224 C 
ATOM     20  C11 7DQ d   1     -35.373 -10.407 -12.548  0.00  0.00     0.013 C 
ATOM     21  O24 7DQ d   1     -34.717 -11.096 -10.000  0.00  0.00    -0.273 OA
ATOM     22  C12 7DQ d   1     -35.571  -9.078 -13.236  0.00  0.00     0.011 C 
ATOM     23  H17 7DQ d   1     -35.564 -11.219 -13.265  0.00  0.00     0.066 H 
ATOM     24  H18 7DQ d   1     -36.077 -10.488 -11.706  0.00  0.00     0.066 H 
ATOM     25  H19 7DQ d   1     -35.459  -8.266 -12.503  0.00  0.00     0.066 H 
ATOM     26  H20 7DQ d   1     -36.579  -9.039 -13.674  0.00  0.00     0.066 H 
BRANCH  19  27
ATOM     27  C08 7DQ d   1     -32.354 -10.987 -10.254  0.00  0.00     0.033 C 
ATOM     28  H15 7DQ d   1     -31.755 -11.429 -11.064  0.00  0.00     0.054 H 
ATOM     29  H16 7DQ d   1     -31.976  -9.979 -10.026  0.00  0.00     0.054 H 
BRANCH  27  30
ATOM     30  C07 7DQ d   1     -32.225 -11.856  -9.013  0.00  0.00    -0.049 A 
ATOM     31  C06 7DQ d   1     -32.228 -13.240  -9.132  0.00  0.00    -0.076 A 
ATOM     32  C05 7DQ d   1     -32.094 -14.049  -8.018  0.00  0.00    -0.076 A 
ATOM     33  H14 7DQ d   1     -32.337 -13.692 -10.111  0.00  0.00     0.084 H 
ATOM     34  C04 7DQ d   1     -31.977 -13.462  -6.762  0.00  0.00    -0.055 A 
ATOM     35  H13 7DQ d   1     -32.080 -15.128  -8.122  0.00  0.00     0.084 H 
ATOM     36  C26 7DQ d   1     -31.988 -12.076  -6.643  0.00  0.00    -0.076 A 
ATOM     37  C25 7DQ d   1     -32.113 -11.271  -7.761  0.00  0.00    -0.076 A 
ATOM     38  H5  7DQ d   1     -31.898 -11.622  -5.663  0.00  0.00     0.084 H 
ATOM     39  H23 7DQ d   1     -32.123 -10.192  -7.659  0.00  0.00     0.084 H 
BRANCH  34  40
ATOM     40  C02 7DQ d   1     -31.859 -14.329  -5.509  0.00  0.00    -0.036 C 
ATOM     41  H9  7DQ d   1     -31.736 -13.667  -4.639  0.00  0.00     0.046 H 
BRANCH  40  42
ATOM     42  C01 7DQ d   1     -30.637 -15.239  -5.577  0.00  0.00    -0.069 C 
ATOM     43  H6  7DQ d   1     -30.582 -15.848  -4.662  0.00  0.00     0.028 H 
ATOM     44  H7  7DQ d   1     -29.728 -14.626  -5.665  0.00  0.00     0.028 H 
ATOM     45  H8  7DQ d   1     -30.720 -15.900  -6.453  0.00  0.00     0.028 H 
ENDBRANCH  40  42
BRANCH  40  46
ATOM     46  C03 7DQ d   1     -33.151 -15.116  -5.331  0.00  0.00    -0.069 C 
ATOM     47  H10 7DQ d   1     -34.001 -14.420  -5.287  0.00  0.00     0.028 H 
ATOM     48  H11 7DQ d   1     -33.102 -15.694  -4.396  0.00  0.00     0.028 H 
ATOM     49  H12 7DQ d   1     -33.282 -15.802  -6.181  0.00  0.00     0.028 H 
ENDBRANCH  40  46
ENDBRANCH  34  40
ENDBRANCH  27  30
ENDBRANCH  19  27
ENDBRANCH   4  11
TORSDOF 6
