REMARK  17 active torsions:
REMARK  status: ('A' for Active; 'I' for Inactive)
REMARK    1  A    between atoms: C8_2  and  O_3 
REMARK       I    between atoms: C8_2  and  N_5 
REMARK    2  A    between atoms: O_3  and  C9_4 
REMARK    3  A    between atoms: N_5  and  C7_6 
REMARK    4  A    between atoms: C6_10  and  C5_11 
REMARK    5  A    between atoms: C5_11  and  C4_14 
REMARK    6  A    between atoms: C5_11  and  C14_21 
REMARK    7  A    between atoms: N2_26  and  C17_27 
REMARK    8  A    between atoms: C17_27  and  C18_28 
REMARK    9  A    between atoms: N3_31  and  C20_32 
REMARK   10  A    between atoms: C23_37  and  S_38 
REMARK   11  A    between atoms: S_38  and  C24_41 
REMARK       I    between atoms: N4_43  and  C26_45 
REMARK   12  A    between atoms: C26_45  and  C27_47 
REMARK   13  A    between atoms: C27_47  and  C28_48 
REMARK   14  A    between atoms: C28_48  and  C29_49 
REMARK   15  A    between atoms: C29_49  and  N5_50 
REMARK   16  A    between atoms: N5_50  and  C30_51 
REMARK   17  A    between atoms: N5_50  and  C31_52 
ROOT
ATOM      1  C5  CJV d   1       8.603 -19.907  19.350  0.00  0.00     0.085 C 
ATOM      2  C13 CJV d   1       7.269 -19.326  19.296  0.00  0.00     0.075 C 
ATOM      3  N1  CJV d   1       6.250 -18.808  19.292  0.00  0.00    -0.196 NA
ENDROOT
BRANCH   1   4
ATOM      4  C6  CJV d   1       8.367 -21.377  19.914  0.00  0.00    -0.010 C 
ATOM      5  C7  CJV d   1       9.589 -22.319  20.220  0.00  0.00     0.019 C 
ATOM      6  C10 CJV d   1       8.968 -23.712  20.399  0.00  0.00    -0.046 C 
ATOM      7  H5  CJV d   1      10.292 -22.301  19.374  0.00  0.00     0.073 H 
ATOM      8  C11 CJV d   1       7.606 -23.635  19.718  0.00  0.00    -0.063 C 
ATOM      9  H6  CJV d   1       8.852 -23.948  21.467  0.00  0.00     0.036 H 
ATOM     10  H7  CJV d   1       9.595 -24.478  19.920  0.00  0.00     0.036 H 
ATOM     11  C12 CJV d   1       7.649 -22.309  18.928  0.00  0.00    -0.058 C 
ATOM     12  H8  CJV d   1       6.798 -23.618  20.464  0.00  0.00     0.033 H 
ATOM     13  H9  CJV d   1       7.461 -24.488  19.039  0.00  0.00     0.033 H 
ATOM     14  H10 CJV d   1       6.636 -21.946  18.700  0.00  0.00     0.033 H 
ATOM     15  H11 CJV d   1       8.219 -22.418  17.993  0.00  0.00     0.033 H 
ATOM     16  H12 CJV d   1       7.771 -21.256  20.831  0.00  0.00     0.046 H 
BRANCH   5  17
ATOM     17  N   CJV d   1      10.318 -22.003  21.464  0.00  0.00    -0.332 N 
ATOM     18  C8  CJV d   1      11.722 -21.967  21.436  0.00  0.00     0.360 C 
ATOM     19  O1  CJV d   1      12.410 -21.974  20.392  0.00  0.00    -0.239 OA
ATOM     20  H4  CJV d   1       9.821 -21.818  22.312  0.00  0.00     0.165 HD
BRANCH  18  21
ATOM     21  O   CJV d   1      12.352 -21.898  22.672  0.00  0.00    -0.309 OA
BRANCH  21  22
ATOM     22  C9  CJV d   1      11.651 -21.837  23.892  0.00  0.00     0.015 C 
ATOM     23  H1  CJV d   1      12.368 -21.789  24.725  0.00  0.00     0.067 H 
ATOM     24  H2  CJV d   1      11.024 -22.734  24.000  0.00  0.00     0.067 H 
ATOM     25  H3  CJV d   1      11.014 -20.940  23.904  0.00  0.00     0.067 H 
ENDBRANCH  21  22
ENDBRANCH  18  21
ENDBRANCH   5  17
ENDBRANCH   1   4
BRANCH   1  26
ATOM     26  C4  CJV d   1       9.186 -19.950  17.903  0.00  0.00    -0.032 A 
ATOM     27  C38 CJV d   1      10.549 -20.264  17.730  0.00  0.00    -0.038 A 
ATOM     28  C   CJV d   1      11.073 -20.330  16.439  0.00  0.00     0.117 A 
ATOM     29  H13 CJV d   1      11.182 -20.452  18.590  0.00  0.00     0.089 H 
ATOM     30  F   CJV d   1      12.362 -20.487  16.348  0.00  0.00    -0.206 F 
ATOM     31  C1  CJV d   1      10.305 -20.161  15.274  0.00  0.00    -0.046 A 
ATOM     32  C2  CJV d   1       8.954 -19.850  15.421  0.00  0.00    -0.080 A 
ATOM     33  H14 CJV d   1      10.750 -20.269  14.291  0.00  0.00     0.088 H 
ATOM     34  C3  CJV d   1       8.396 -19.724  16.702  0.00  0.00    -0.075 A 
ATOM     35  H15 CJV d   1       8.334 -19.705  14.544  0.00  0.00     0.083 H 
ATOM     36  H16 CJV d   1       7.351 -19.452  16.799  0.00  0.00     0.084 H 
ENDBRANCH   1  26
BRANCH   1  37
ATOM     37  C14 CJV d   1       9.193 -18.780  20.338  0.00  0.00    -0.027 C 
ATOM     38  C15 CJV d   1      10.577 -18.183  19.993  0.00  0.00    -0.037 C 
ATOM     39  C16 CJV d   1      10.793 -16.938  20.866  0.00  0.00     0.084 C 
ATOM     40  H18 CJV d   1      10.607 -17.902  18.930  0.00  0.00     0.036 H 
ATOM     41  H19 CJV d   1      11.364 -18.923  20.199  0.00  0.00     0.036 H 
ATOM     42  N2  CJV d   1      10.775 -17.357  22.291  0.00  0.00    -0.071 N 
ATOM     43  H20 CJV d   1       9.988 -16.211  20.682  0.00  0.00     0.076 H 
ATOM     44  H21 CJV d   1      11.764 -16.479  20.626  0.00  0.00     0.076 H 
ATOM     45  C36 CJV d   1       9.463 -17.870  22.673  0.00  0.00     0.084 C 
ATOM     46  H26 CJV d   1      11.368 -18.171  22.324  0.00  0.00     0.279 HD
ATOM     47  C37 CJV d   1       9.165 -19.108  21.830  0.00  0.00    -0.037 C 
ATOM     48  H24 CJV d   1       9.466 -18.139  23.740  0.00  0.00     0.076 H 
ATOM     49  H25 CJV d   1       8.697 -17.103  22.490  0.00  0.00     0.076 H 
ATOM     50  H22 CJV d   1       9.922 -19.878  22.043  0.00  0.00     0.036 H 
ATOM     51  H23 CJV d   1       8.168 -19.491  22.095  0.00  0.00     0.036 H 
ATOM     52  H17 CJV d   1       8.489 -17.944  20.217  0.00  0.00     0.043 H 
BRANCH  42  53
ATOM     53  C17 CJV d   1      11.460 -16.400  23.207  0.00  0.00     0.090 C 
ATOM     54  H27 CJV d   1      11.740 -15.533  22.591  0.00  0.00     0.076 H 
ATOM     55  H28 CJV d   1      12.370 -16.909  23.558  0.00  0.00     0.076 H 
BRANCH  53  56
ATOM     56  C18 CJV d   1      10.779 -15.834  24.456  0.00  0.00     0.000 C 
ATOM     57  C19 CJV d   1      11.796 -15.056  25.350  0.00  0.00     0.002 C 
ATOM     58  N3  CJV d   1      10.772 -14.021  25.477  0.00  0.00    -0.380 N 
ATOM     59  H30 CJV d   1      12.713 -14.736  24.834  0.00  0.00     0.065 H 
ATOM     60  H31 CJV d   1      12.062 -15.559  26.291  0.00  0.00     0.065 H 
ATOM     61  C35 CJV d   1      10.050 -14.487  24.257  0.00  0.00     0.002 C 
ATOM     62  H32 CJV d   1       8.956 -14.534  24.357  0.00  0.00     0.065 H 
ATOM     63  H33 CJV d   1      10.311 -13.952  23.332  0.00  0.00     0.065 H 
ATOM     64  H29 CJV d   1      10.189 -16.614  24.960  0.00  0.00     0.047 H 
BRANCH  58  65
ATOM     65  C20 CJV d   1      10.930 -12.724  25.943  0.00  0.00     0.030 A 
ATOM     66  C21 CJV d   1      10.245 -11.630  25.399  0.00  0.00    -0.056 A 
ATOM     67  C22 CJV d   1      10.416 -10.397  25.955  0.00  0.00    -0.060 A 
ATOM     68  H34 CJV d   1       9.588 -11.762  24.547  0.00  0.00     0.087 H 
ATOM     69  C23 CJV d   1      11.266 -10.153  27.065  0.00  0.00     0.059 A 
ATOM     70  H35 CJV d   1       9.875  -9.560  25.527  0.00  0.00     0.085 H 
ATOM     71  C33 CJV d   1      11.942 -11.251  27.598  0.00  0.00    -0.060 A 
ATOM     72  C34 CJV d   1      11.802 -12.512  27.072  0.00  0.00    -0.056 A 
ATOM     73  H37 CJV d   1      12.595 -11.105  28.450  0.00  0.00     0.085 H 
ATOM     74  H36 CJV d   1      12.345 -13.345  27.504  0.00  0.00     0.087 H 
BRANCH  69  75
ATOM     75  S   CJV d   1      11.483  -8.667  27.694  0.00  0.00     0.181 S 
ATOM     76  O4  CJV d   1      12.888  -8.354  27.785  0.00  0.00    -0.222 OA
ATOM     77  O3  CJV d   1      10.553  -7.735  27.078  0.00  0.00    -0.222 OA
BRANCH  75  78
ATOM     78  C24 CJV d   1      10.978  -8.677  29.338  0.00  0.00     0.072 C 
ATOM     79  C25 CJV d   1      10.337  -9.901  30.056  0.00  0.00     0.003 C 
ATOM     80  N4  CJV d   1       9.722  -8.865  30.942  0.00  0.00    -0.251 NA
ATOM     81  H39 CJV d   1      11.046 -10.583  30.549  0.00  0.00     0.058 H 
ATOM     82  H40 CJV d   1       9.628 -10.485  29.451  0.00  0.00     0.058 H 
ATOM     83  C32 CJV d   1       9.685  -7.936  29.752  0.00  0.00     0.003 C 
ATOM     84  C26 CJV d   1      10.146  -8.531  32.248  0.00  0.00     0.199 C 
ATOM     85  H41 CJV d   1       8.828  -8.069  29.076  0.00  0.00     0.058 H 
ATOM     86  H42 CJV d   1       9.807  -6.868  29.983  0.00  0.00     0.058 H 
ATOM     87  O2  CJV d   1      10.574  -9.421  32.989  0.00  0.00    -0.280 OA
ATOM     88  H38 CJV d   1      11.853  -8.313  29.896  0.00  0.00     0.068 H 
BRANCH  84  89
ATOM     89  C27 CJV d   1      10.037  -7.058  32.568  0.00  0.00     0.006 C 
ATOM     90  H43 CJV d   1       9.104  -6.704  32.105  0.00  0.00     0.046 H 
ATOM     91  H44 CJV d   1      10.895  -6.567  32.086  0.00  0.00     0.046 H 
BRANCH  89  92
ATOM     92  C28 CJV d   1      10.015  -6.568  34.032  0.00  0.00    -0.035 C 
ATOM     93  H45 CJV d   1       9.361  -5.685  34.077  0.00  0.00     0.036 H 
ATOM     94  H46 CJV d   1      11.041  -6.278  34.301  0.00  0.00     0.036 H 
BRANCH  92  95
ATOM     95  C29 CJV d   1       9.516  -7.578  35.104  0.00  0.00     0.083 C 
ATOM     96  H47 CJV d   1      10.378  -8.029  35.617  0.00  0.00     0.075 H 
ATOM     97  H48 CJV d   1       8.923  -8.368  34.620  0.00  0.00     0.075 H 
BRANCH  95  98
ATOM     98  N5  CJV d   1       8.662  -6.844  36.102  0.00  0.00    -0.079 N 
ATOM     99  H49 CJV d   1       9.008  -5.901  36.184  0.00  0.00     0.278 HD
BRANCH  98 100
ATOM    100  C30 CJV d   1       8.719  -7.484  37.452  0.00  0.00     0.066 C 
ATOM    101  H50 CJV d   1       8.084  -6.921  38.152  0.00  0.00     0.068 H 
ATOM    102  H51 CJV d   1       9.757  -7.481  37.816  0.00  0.00     0.068 H 
ATOM    103  H52 CJV d   1       8.357  -8.521  37.382  0.00  0.00     0.068 H 
ENDBRANCH  98 100
BRANCH  98 104
ATOM    104  C31 CJV d   1       7.249  -6.796  35.610  0.00  0.00     0.066 C 
ATOM    105  H53 CJV d   1       7.222  -6.323  34.617  0.00  0.00     0.068 H 
ATOM    106  H54 CJV d   1       6.636  -6.211  36.311  0.00  0.00     0.068 H 
ATOM    107  H55 CJV d   1       6.850  -7.819  35.540  0.00  0.00     0.068 H 
ENDBRANCH  98 104
ENDBRANCH  95  98
ENDBRANCH  92  95
ENDBRANCH  89  92
ENDBRANCH  84  89
ENDBRANCH  75  78
ENDBRANCH  69  75
ENDBRANCH  58  65
ENDBRANCH  53  56
ENDBRANCH  42  53
ENDBRANCH   1  37
TORSDOF 17
