REMARK  12 active torsions:
REMARK  status: ('A' for Active; 'I' for Inactive)
REMARK    1  A    between atoms: C1_1  and  O11_7 
REMARK    2  A    between atoms: C2_2  and  O12_12 
REMARK    3  A    between atoms: C3_3  and  O13_17 
REMARK    4  A    between atoms: C4_4  and  O14_22 
REMARK    5  A    between atoms: C5_5  and  O15_27 
REMARK    6  A    between atoms: C6_6  and  O16_32 
REMARK    7  A    between atoms: O11_7  and  P1_8 
REMARK    8  A    between atoms: O12_12  and  P2_13 
REMARK    9  A    between atoms: O13_17  and  P3_18 
REMARK   10  A    between atoms: O14_22  and  P4_23 
REMARK   11  A    between atoms: O15_27  and  P5_28 
REMARK   12  A    between atoms: O16_32  and  P6_33 
ROOT
ATOM      1  C1  IHP d   1     120.606 -13.060 110.606  0.00  0.00     0.107 C 
ATOM      2  C2  IHP d   1     121.329 -11.887 111.244  0.00  0.00     0.107 C 
ATOM      3  C3  IHP d   1     120.363 -10.730 111.417  0.00  0.00     0.107 C 
ATOM      4  C4  IHP d   1     119.206 -11.147 112.306  0.00  0.00     0.107 C 
ATOM      5  C5  IHP d   1     118.479 -12.347 111.726  0.00  0.00     0.107 C 
ATOM      6  C6  IHP d   1     119.442 -13.492 111.479  0.00  0.00     0.107 C 
ATOM      7  H1  IHP d   1     120.242 -12.772 109.609  0.00  0.00     0.092 H 
ATOM      8  H2  IHP d   1     122.170 -11.579 110.606  0.00  0.00     0.092 H 
ATOM      9  H3  IHP d   1     119.983 -10.418 110.433  0.00  0.00     0.092 H 
ATOM     10  H4  IHP d   1     119.578 -11.389 113.313  0.00  0.00     0.092 H 
ATOM     11  H5  IHP d   1     117.976 -12.068 110.789  0.00  0.00     0.092 H 
ATOM     12  H6  IHP d   1     119.828 -13.855 112.443  0.00  0.00     0.092 H 
ENDROOT
BRANCH   1  13
ATOM     13  O11 IHP d   1     121.511 -14.181 110.501  0.00  0.00    -0.272 OA
BRANCH  13  14
ATOM     14  P1  IHP d   1     122.625 -14.374 109.393  0.00  0.00     0.422 P 
ATOM     15  O21 IHP d   1     123.343 -15.643 109.669  0.00  0.00    -0.617 OA
ATOM     16  O31 IHP d   1     121.914 -14.368 108.048  0.00  0.00    -0.617 OA
ATOM     17  O41 IHP d   1     123.527 -13.142 109.487  0.00  0.00    -0.617 OA
ENDBRANCH  13  14
ENDBRANCH   1  13
BRANCH   2  18
ATOM     18  O12 IHP d   1     121.819 -12.278 112.546  0.00  0.00    -0.272 OA
BRANCH  18  19
ATOM     19  P2  IHP d   1     123.332 -12.464 113.017  0.00  0.00     0.422 P 
ATOM     20  O22 IHP d   1     124.198 -12.651 111.816  0.00  0.00    -0.617 OA
ATOM     21  O32 IHP d   1     123.719 -11.223 113.837  0.00  0.00    -0.617 OA
ATOM     22  O42 IHP d   1     123.344 -13.667 113.963  0.00  0.00    -0.617 OA
ENDBRANCH  18  19
ENDBRANCH   2  18
BRANCH   6  23
ATOM     23  O16 IHP d   1     118.732 -14.554 110.805  0.00  0.00    -0.272 OA
BRANCH  23  24
ATOM     24  P6  IHP d   1     118.667 -16.046 111.359  0.00  0.00     0.422 P 
ATOM     25  O26 IHP d   1     119.639 -16.233 112.449  0.00  0.00    -0.617 OA
ATOM     26  O36 IHP d   1     117.230 -16.248 111.821  0.00  0.00    -0.617 OA
ATOM     27  O46 IHP d   1     118.959 -16.952 110.162  0.00  0.00    -0.617 OA
ENDBRANCH  23  24
ENDBRANCH   6  23
BRANCH   3  28
ATOM     28  O13 IHP d   1     121.043  -9.626 112.054  0.00  0.00    -0.272 OA
BRANCH  28  29
ATOM     29  P3  IHP d   1     121.663  -8.369 111.307  0.00  0.00     0.422 P 
ATOM     30  O23 IHP d   1     122.628  -8.809 110.271  0.00  0.00    -0.617 OA
ATOM     31  O33 IHP d   1     122.308  -7.534 112.414  0.00  0.00    -0.617 OA
ATOM     32  O43 IHP d   1     120.506  -7.582 110.712  0.00  0.00    -0.617 OA
ENDBRANCH  28  29
ENDBRANCH   3  28
BRANCH   5  33
ATOM     33  O15 IHP d   1     117.520 -12.789 112.710  0.00  0.00    -0.272 OA
BRANCH  33  34
ATOM     34  P5  IHP d   1     115.956 -12.859 112.554  0.00  0.00     0.422 P 
ATOM     35  O25 IHP d   1     115.443 -11.584 111.978  0.00  0.00    -0.617 OA
ATOM     36  O35 IHP d   1     115.389 -13.148 113.947  0.00  0.00    -0.617 OA
ATOM     37  O45 IHP d   1     115.712 -14.073 111.654  0.00  0.00    -0.617 OA
ENDBRANCH  33  34
ENDBRANCH   5  33
BRANCH   4  38
ATOM     38  O14 IHP d   1     118.276 -10.045 112.365  0.00  0.00    -0.272 OA
BRANCH  38  39
ATOM     39  P4  IHP d   1     118.096  -8.988 113.517  0.00  0.00     0.422 P 
ATOM     40  O24 IHP d   1     118.797  -9.391 114.758  0.00  0.00    -0.617 OA
ATOM     41  O34 IHP d   1     118.603  -7.662 112.941  0.00  0.00    -0.617 OA
ATOM     42  O44 IHP d   1     116.577  -8.889 113.716  0.00  0.00    -0.617 OA
ENDBRANCH  38  39
ENDBRANCH   4  38
TORSDOF 12
