REMARK  10 active torsions:
REMARK  status: ('A' for Active; 'I' for Inactive)
REMARK    1  A    between atoms: C2_2  and  C1_1 
REMARK    2  A    between atoms: C9_13  and  C8_12 
REMARK    3  A    between atoms: C13_17  and  O2_20 
REMARK    4  A    between atoms: O2_20  and  C14_18 
REMARK    5  A    between atoms: O4_22  and  C28_21 
REMARK    6  A    between atoms: C21_23  and  O4_22 
REMARK    7  A    between atoms: C23_25  and  C26_26 
REMARK       I    between atoms: C26_26  and  N5_28 
REMARK    8  A    between atoms: N5_28  and  C27_29 
REMARK    9  A    between atoms: N4_33  and  C20_32 
REMARK   10  A    between atoms: N4_33  and  C19_34 
ROOT
ATOM      1  N2  CQ7 d   1       0.744  30.741  11.365  0.00  0.00    -0.349 N 
ATOM      2  N3  CQ7 d   1       0.636  34.582  10.206  0.00  0.00    -0.037 NA
ATOM      3  C9  CQ7 d   1       1.744  32.082  12.757  0.00  0.00     0.008 A 
ATOM      4  C10 CQ7 d   1       1.419  30.817  12.512  0.00  0.00    -0.009 A 
ATOM      5  C11 CQ7 d   1       0.625  31.955  10.847  0.00  0.00     0.162 A 
ATOM      6  C12 CQ7 d   1       1.245  32.848  11.697  0.00  0.00     0.076 A 
ATOM      7  C13 CQ7 d   1       1.236  34.190  11.343  0.00  0.00     0.199 A 
ATOM      8  C19 CQ7 d   1       0.033  33.686   9.397  0.00  0.00     0.731 A 
ATOM      9  N6  CQ7 d   1       0.033  32.387   9.730  0.00  0.00    -0.044 NA
ATOM     10  H6  CQ7 d   1       0.373  29.875  10.947  0.00  0.00     0.167 HD
ATOM     11  H8  CQ7 d   1       1.667  29.971  13.151  0.00  0.00     0.112 H 
ENDROOT
BRANCH   8  12
ATOM     12  N4  CQ7 d   1      -0.578  34.019   8.246  0.00  0.00    -0.185 N 
ATOM     13  H22 CQ7 d   1      -0.930  33.252   7.656  0.00  0.00     0.184 HD
BRANCH  12  14
ATOM     14  C20 CQ7 d   1      -0.764  35.276   7.807  0.00  0.00     0.082 A 
ATOM     15  C21 CQ7 d   1      -0.963  35.497   6.436  0.00  0.00     0.096 A 
ATOM     16  C22 CQ7 d   1      -1.182  36.785   5.960  0.00  0.00    -0.033 A 
ATOM     17  C23 CQ7 d   1      -1.192  37.865   6.833  0.00  0.00     0.034 A 
ATOM     18  H15 CQ7 d   1      -1.346  36.947   4.901  0.00  0.00     0.089 H 
ATOM     19  C24 CQ7 d   1      -0.999  37.650   8.194  0.00  0.00    -0.065 A 
ATOM     20  C25 CQ7 d   1      -0.792  36.362   8.682  0.00  0.00    -0.053 A 
ATOM     21  H20 CQ7 d   1      -1.010  38.490   8.879  0.00  0.00     0.085 H 
ATOM     22  H21 CQ7 d   1      -0.652  36.203   9.745  0.00  0.00     0.087 H 
BRANCH  15  23
ATOM     23  O4  CQ7 d   1      -0.974  34.458   5.548  0.00  0.00    -0.354 OA
BRANCH  23  24
ATOM     24  C28 CQ7 d   1       0.309  34.134   5.069  0.00  0.00     0.010 C 
ATOM     25  H12 CQ7 d   1       0.235  33.295   4.362  0.00  0.00     0.066 H 
ATOM     26  H13 CQ7 d   1       0.954  33.847   5.913  0.00  0.00     0.066 H 
ATOM     27  H14 CQ7 d   1       0.741  35.007   4.558  0.00  0.00     0.066 H 
ENDBRANCH  23  24
ENDBRANCH  15  23
BRANCH  17  28
ATOM     28  C26 CQ7 d   1      -1.440  39.275   6.282  0.00  0.00     0.251 C 
ATOM     29  O3  CQ7 d   1      -2.128  39.422   5.273  0.00  0.00    -0.268 OA
ATOM     30  N5  CQ7 d   1      -0.907  40.280   6.987  0.00  0.00    -0.361 N 
ATOM     31  H16 CQ7 d   1      -0.366  40.099   7.809  0.00  0.00     0.162 HD
BRANCH  30  32
ATOM     32  C27 CQ7 d   1      -1.137  41.665   6.521  0.00  0.00    -0.018 C 
ATOM     33  H17 CQ7 d   1      -0.637  42.369   7.203  0.00  0.00     0.056 H 
ATOM     34  H18 CQ7 d   1      -2.217  41.873   6.507  0.00  0.00     0.056 H 
ATOM     35  H19 CQ7 d   1      -0.727  41.783   5.507  0.00  0.00     0.056 H 
ENDBRANCH  30  32
ENDBRANCH  17  28
ENDBRANCH  12  14
ENDBRANCH   8  12
BRANCH   7  36
ATOM     36  O2  CQ7 d   1       1.852  35.069  12.160  0.00  0.00    -0.328 OA
BRANCH  36  37
ATOM     37  C14 CQ7 d   1       1.641  36.441  11.962  0.00  0.00     0.047 C 
ATOM     38  C15 CQ7 d   1       2.731  37.454  11.987  0.00  0.00    -0.040 C 
ATOM     39  C16 CQ7 d   1       2.390  38.129  13.314  0.00  0.00    -0.063 C 
ATOM     40  H10 CQ7 d   1       2.666  38.152  11.139  0.00  0.00     0.036 H 
ATOM     41  H11 CQ7 d   1       3.728  36.989  12.004  0.00  0.00     0.036 H 
ATOM     42  C17 CQ7 d   1       0.843  38.171  13.337  0.00  0.00    -0.063 C 
ATOM     43  H23 CQ7 d   1       2.808  39.146  13.352  0.00  0.00     0.033 H 
ATOM     44  H24 CQ7 d   1       2.776  37.542  14.160  0.00  0.00     0.033 H 
ATOM     45  C18 CQ7 d   1       0.388  37.194  12.234  0.00  0.00    -0.040 C 
ATOM     46  H25 CQ7 d   1       0.483  39.188  13.122  0.00  0.00     0.033 H 
ATOM     47  H26 CQ7 d   1       0.464  37.847  14.318  0.00  0.00     0.033 H 
ATOM     48  H27 CQ7 d   1      -0.410  36.528  12.593  0.00  0.00     0.036 H 
ATOM     49  H28 CQ7 d   1       0.042  37.732  11.339  0.00  0.00     0.036 H 
ATOM     50  H9  CQ7 d   1       1.528  36.353  10.871  0.00  0.00     0.084 H 
ENDBRANCH  36  37
ENDBRANCH   7  36
BRANCH   3  51
ATOM     51  C8  CQ7 d   1       2.469  32.515  13.877  0.00  0.00    -0.021 A 
ATOM     52  C5  CQ7 d   1       3.373  33.570  13.831  0.00  0.00    -0.070 A 
ATOM     53  C4  CQ7 d   1       4.085  33.950  14.968  0.00  0.00    -0.051 A 
ATOM     54  H5  CQ7 d   1       3.526  34.104  12.900  0.00  0.00     0.084 H 
ATOM     55  C3  CQ7 d   1       3.913  33.260  16.159  0.00  0.00     0.093 A 
ATOM     56  H4  CQ7 d   1       4.774  34.786  14.921  0.00  0.00     0.087 H 
ATOM     57  C6  CQ7 d   1       3.023  32.195  16.204  0.00  0.00     0.107 A 
ATOM     58  N1  CQ7 d   1       4.458  33.397  17.374  0.00  0.00    -0.226 NA
ATOM     59  O1  CQ7 d   1       3.042  31.696  17.477  0.00  0.00    -0.294 OA
ATOM     60  C7  CQ7 d   1       2.315  31.827  15.072  0.00  0.00    -0.037 A 
ATOM     61  C2  CQ7 d   1       3.931  32.458  18.163  0.00  0.00     0.142 A 
ATOM     62  H7  CQ7 d   1       1.630  30.988  15.120  0.00  0.00     0.089 H 
BRANCH  61  63
ATOM     63  C1  CQ7 d   1       4.257  32.258  19.634  0.00  0.00    -0.015 C 
ATOM     64  H1  CQ7 d   1       5.004  33.002  19.948  0.00  0.00     0.038 H 
ATOM     65  H2  CQ7 d   1       4.660  31.246  19.786  0.00  0.00     0.038 H 
ATOM     66  H3  CQ7 d   1       3.342  32.382  20.232  0.00  0.00     0.038 H 
ENDBRANCH  61  63
ENDBRANCH   3  51
TORSDOF 10
