REMARK  8 active torsions:
REMARK  status: ('A' for Active; 'I' for Inactive)
REMARK    1  A    between atoms: C10_1  and  C11_2 
REMARK       I    between atoms: N09_16  and  C10_1 
REMARK    2  A    between atoms: C11_2  and  N12_17 
REMARK    3  A    between atoms: C18_6  and  N22_21 
REMARK    4  A    between atoms: C07_13  and  C03_9 
REMARK    5  A    between atoms: C06_12  and  S23_26 
REMARK    6  A    between atoms: C08_14  and  C07_13 
REMARK    7  A    between atoms: C08_14  and  N09_16 
REMARK    8  A    between atoms: S23_26  and  N26_22 
ROOT
ATOM      1  C08 CQS d   1       0.472   7.537  84.229  0.00  0.00    -0.001 C 
ATOM      2  H10 CQS d   1       0.964   7.531  85.213  0.00  0.00     0.064 H 
ATOM      3  H11 CQS d   1      -0.603   7.733  84.358  0.00  0.00     0.064 H 
ENDROOT
BRANCH   1   4
ATOM      4  C07 CQS d   1       0.654   6.182  83.575  0.00  0.00    -0.026 C 
ATOM      5  H8  CQS d   1       0.151   6.223  82.598  0.00  0.00     0.042 H 
ATOM      6  H9  CQS d   1       1.734   6.035  83.426  0.00  0.00     0.042 H 
BRANCH   4   7
ATOM      7  C03 CQS d   1       0.117   4.923  84.317  0.00  0.00    -0.057 A 
ATOM      8  C02 CQS d   1       0.974   3.938  84.708  0.00  0.00    -0.075 A 
ATOM      9  C01 CQS d   1       0.556   2.826  85.344  0.00  0.00    -0.060 A 
ATOM     10  H5  CQS d   1       2.031   4.053  84.499  0.00  0.00     0.084 H 
ATOM     11  C06 CQS d   1      -0.764   2.687  85.640  0.00  0.00     0.079 A 
ATOM     12  H4  CQS d   1       1.264   2.051  85.617  0.00  0.00     0.085 H 
ATOM     13  C05 CQS d   1      -1.656   3.625  85.248  0.00  0.00    -0.060 A 
ATOM     14  C04 CQS d   1      -1.226   4.753  84.585  0.00  0.00    -0.075 A 
ATOM     15  H7  CQS d   1      -2.711   3.489  85.456  0.00  0.00     0.085 H 
ATOM     16  H6  CQS d   1      -1.941   5.506  84.274  0.00  0.00     0.084 H 
BRANCH  11  17
ATOM     17  S23 CQS d   1      -1.402   1.206  86.511  0.00  0.00     0.256 S 
ATOM     18  O24 CQS d   1      -0.988   1.297  87.815  0.00  0.00    -0.201 OA
ATOM     19  O25 CQS d   1      -2.636   1.245  86.445  0.00  0.00    -0.201 OA
BRANCH  17  20
ATOM     20  N26 CQS d   1      -0.655  -0.094  85.843  0.00  0.00    -0.324 N 
ATOM     21  H16 CQS d   1      -0.861  -1.014  86.175  0.00  0.00     0.169 HD
ATOM     22  H17 CQS d   1       0.006   0.034  85.104  0.00  0.00     0.169 HD
ENDBRANCH  17  20
ENDBRANCH  11  17
ENDBRANCH   4   7
ENDBRANCH   1   4
BRANCH   1  23
ATOM     23  N09 CQS d   1       1.057   8.596  83.407  0.00  0.00    -0.359 N 
ATOM     24  C10 CQS d   1       0.211   9.239  82.367  0.00  0.00     0.235 C 
ATOM     25  O13 CQS d   1      -0.867   8.874  82.301  0.00  0.00    -0.272 OA
ATOM     26  H13 CQS d   1       2.006   8.882  83.542  0.00  0.00     0.162 HD
BRANCH  24  27
ATOM     27  C11 CQS d   1       0.629  10.357  81.319  0.00  0.00     0.076 C 
ATOM     28  H1  CQS d   1       1.668  10.204  80.993  0.00  0.00     0.079 H 
ATOM     29  H2  CQS d   1       0.528  11.357  81.767  0.00  0.00     0.079 H 
BRANCH  27  30
ATOM     30  N12 CQS d   1      -0.291  10.214  80.178  0.00  0.00    -0.315 N 
ATOM     31  C14 CQS d   1      -0.318   9.036  79.571  0.00  0.00     0.069 A 
ATOM     32  N15 CQS d   1      -1.304   8.992  78.693  0.00  0.00    -0.236 NA
ATOM     33  H3  CQS d   1       0.375   8.220  79.768  0.00  0.00     0.143 H 
ATOM     34  C16 CQS d   1      -1.888  10.169  78.718  0.00  0.00     0.149 A 
ATOM     35  C17 CQS d   1      -1.318  10.937  79.686  0.00  0.00     0.165 A 
ATOM     36  C18 CQS d   1      -2.965  10.668  77.990  0.00  0.00     0.155 A 
ATOM     37  N21 CQS d   1      -1.831  12.156  79.881  0.00  0.00    -0.222 NA
ATOM     38  C20 CQS d   1      -2.835  12.586  79.180  0.00  0.00     0.091 A 
ATOM     39  N19 CQS d   1      -3.393  11.879  78.230  0.00  0.00    -0.222 NA
ATOM     40  H12 CQS d   1      -3.229  13.574  79.390  0.00  0.00     0.146 H 
BRANCH  36  41
ATOM     41  N22 CQS d   1      -3.532   9.789  77.008  0.00  0.00    -0.382 N 
ATOM     42  H14 CQS d   1      -4.331  10.101  76.438  0.00  0.00     0.157 HD
ATOM     43  H15 CQS d   1      -3.140   8.846  76.874  0.00  0.00     0.157 HD
ENDBRANCH  36  41
ENDBRANCH  27  30
ENDBRANCH  24  27
ENDBRANCH   1  23
TORSDOF 8
