REMARK  6 active torsions:
REMARK  status: ('A' for Active; 'I' for Inactive)
REMARK    1  A    between atoms: S02_33  and  C01_1 
REMARK    2  A    between atoms: C05_2  and  S02_33 
REMARK    3  A    between atoms: C11_8  and  C08_5 
REMARK    4  A    between atoms: C15_10  and  C16_11 
REMARK       I    between atoms: C16_11  and  N18_28 
REMARK    5  A    between atoms: N18_28  and  C19_12 
REMARK    6  A    between atoms: C26_18  and  N13_27 
ROOT
ATOM      1  C26 CU4 d   1      42.260 155.072 366.360  0.00  0.00     0.058 A 
ATOM      2  C27 CU4 d   1      43.154 155.917 365.664  0.00  0.00    -0.054 A 
ATOM      3  C28 CU4 d   1      43.344 157.253 366.068  0.00  0.00    -0.061 A 
ATOM      4  C29 CU4 d   1      42.637 157.764 367.179  0.00  0.00     0.044 A 
ATOM      5  C30 CU4 d   1      41.742 156.925 367.876  0.00  0.00    -0.061 A 
ATOM      6  C31 CU4 d   1      41.553 155.590 367.468  0.00  0.00    -0.054 A 
ATOM      7  C32 CU4 d   1      42.812 158.999 367.552  0.00  0.00     0.099 C 
ATOM      8  N33 CU4 d   1      42.973 160.089 367.875  0.00  0.00    -0.191 NA
ATOM      9  H13 CU4 d   1      43.700 155.533 364.810  0.00  0.00     0.087 H 
ATOM     10  H14 CU4 d   1      44.034 157.890 365.526  0.00  0.00     0.085 H 
ATOM     11  H15 CU4 d   1      41.197 157.310 368.730  0.00  0.00     0.085 H 
ATOM     12  H16 CU4 d   1      40.860 154.955 368.008  0.00  0.00     0.087 H 
ENDROOT
BRANCH   1  13
ATOM     13  N13 CU4 d   1      42.088 153.785 365.945  0.00  0.00    -0.244 N 
ATOM     14  C14 CU4 d   1      40.979 153.020 366.045  0.00  0.00     0.022 A 
ATOM     15  C15 CU4 d   1      41.246 151.771 365.482  0.00  0.00     0.081 A 
ATOM     16  H8  CU4 d   1      40.034 153.327 366.491  0.00  0.00     0.116 H 
ATOM     17  C11 CU4 d   1      42.586 151.879 365.049  0.00  0.00     0.105 A 
ATOM     18  N12 CU4 d   1      43.024 153.112 365.355  0.00  0.00    -0.166 NA
BRANCH  15  19
ATOM     19  C16 CU4 d   1      40.333 150.683 365.389  0.00  0.00     0.260 C 
ATOM     20  N18 CU4 d   1      39.024 150.822 365.780  0.00  0.00    -0.323 N 
ATOM     21  H17 CU4 d   1      38.785 151.726 366.135  0.00  0.00     0.169 HD
ATOM     22  O17 CU4 d   1      40.754 149.594 364.934  0.00  0.00    -0.267 OA
BRANCH  20  23
ATOM     23  C19 CU4 d   1      37.987 149.913 365.761  0.00  0.00     0.037 A 
ATOM     24  C20 CU4 d   1      36.700 150.382 366.114  0.00  0.00    -0.057 A 
ATOM     25  C21 CU4 d   1      35.593 149.508 366.107  0.00  0.00    -0.078 A 
ATOM     26  H9  CU4 d   1      36.563 151.421 366.392  0.00  0.00     0.086 H 
ATOM     27  C22 CU4 d   1      35.752 148.158 365.744  0.00  0.00    -0.046 A 
ATOM     28  H10 CU4 d   1      34.613 149.879 366.383  0.00  0.00     0.083 H 
ATOM     29  C23 CU4 d   1      37.024 147.671 365.384  0.00  0.00     0.118 A 
ATOM     30  H11 CU4 d   1      34.896 147.493 365.741  0.00  0.00     0.088 H 
ATOM     31  C25 CU4 d   1      38.118 148.548 365.395  0.00  0.00    -0.020 A 
ATOM     32  F24 CU4 d   1      37.207 146.421 365.041  0.00  0.00    -0.206 F 
ATOM     33  H12 CU4 d   1      39.095 148.171 365.115  0.00  0.00     0.091 H 
ENDBRANCH  20  23
ENDBRANCH  15  19
BRANCH  17  34
ATOM     34  C08 CU4 d   1      43.423 150.939 364.391  0.00  0.00    -0.004 A 
ATOM     35  C07 CU4 d   1      43.651 149.633 364.882  0.00  0.00    -0.069 A 
ATOM     36  C06 CU4 d   1      44.498 148.737 364.189  0.00  0.00    -0.061 A 
ATOM     37  H5  CU4 d   1      43.171 149.315 365.800  0.00  0.00     0.085 H 
ATOM     38  C05 CU4 d   1      45.161 149.133 363.006  0.00  0.00     0.058 A 
ATOM     39  H4  CU4 d   1      44.640 147.732 364.571  0.00  0.00     0.085 H 
ATOM     40  C10 CU4 d   1      44.945 150.441 362.521  0.00  0.00    -0.061 A 
ATOM     41  C09 CU4 d   1      44.094 151.331 363.208  0.00  0.00    -0.069 A 
ATOM     42  H7  CU4 d   1      45.438 150.764 361.611  0.00  0.00     0.085 H 
ATOM     43  H6  CU4 d   1      43.951 152.334 362.823  0.00  0.00     0.085 H 
BRANCH  38  44
ATOM     44  S02 CU4 d   1      46.234 148.006 362.139  0.00  0.00     0.171 S 
ATOM     45  O03 CU4 d   1      47.181 148.794 361.109  0.00  0.00    -0.223 OA
ATOM     46  O04 CU4 d   1      47.190 147.202 363.148  0.00  0.00    -0.223 OA
BRANCH  44  47
ATOM     47  C01 CU4 d   1      45.255 146.779 361.190  0.00  0.00     0.020 C 
ATOM     48  H1  CU4 d   1      45.936 146.095 360.663  0.00  0.00     0.049 H 
ATOM     49  H2  CU4 d   1      44.623 147.302 360.458  0.00  0.00     0.049 H 
ATOM     50  H3  CU4 d   1      44.619 146.205 361.880  0.00  0.00     0.049 H 
ENDBRANCH  44  47
ENDBRANCH  38  44
ENDBRANCH  17  34
ENDBRANCH   1  13
TORSDOF 6
