REMARK  8 active torsions:
REMARK  status: ('A' for Active; 'I' for Inactive)
REMARK    1  A    between atoms: N11_16  and  C10_1 
REMARK    2  A    between atoms: C19_22  and  C22_6 
REMARK    3  A    between atoms: N02_8  and  C01_7 
REMARK    4  A    between atoms: S03_9  and  N02_8 
REMARK    5  A    between atoms: C06_12  and  S03_9 
REMARK    6  A    between atoms: C12_17  and  N11_16 
REMARK    7  A    between atoms: N15_19  and  C14_18 
REMARK    8  A    between atoms: N15_19  and  C16_20 
ROOT
ATOM      1  C13 CV4 d   1      54.625  45.496  -5.851  0.00  0.00     0.006 A 
ATOM      2  C12 CV4 d   1      54.709  46.800  -6.274  0.00  0.00     0.133 A 
ATOM      3  C14 CV4 d   1      55.440  45.109  -4.804  0.00  0.00     0.133 A 
ATOM      4  N26 CV4 d   1      56.285  45.962  -4.204  0.00  0.00    -0.224 NA
ATOM      5  C27 CV4 d   1      56.296  47.207  -4.694  0.00  0.00     0.091 A 
ATOM      6  N28 CV4 d   1      55.548  47.674  -5.701  0.00  0.00    -0.224 NA
ATOM      7  H1  CV4 d   1      53.944  44.796  -6.321  0.00  0.00     0.095 H 
ATOM      8  H15 CV4 d   1      56.980  47.908  -4.229  0.00  0.00     0.146 H 
ENDROOT
BRANCH   2   9
ATOM      9  N11 CV4 d   1      53.876  47.172  -7.332  0.00  0.00    -0.341 N 
ATOM     10  H12 CV4 d   1      53.290  46.432  -7.745  0.00  0.00     0.167 HD
BRANCH   9  11
ATOM     11  C10 CV4 d   1      53.759  48.471  -7.894  0.00  0.00     0.035 A 
ATOM     12  C09 CV4 d   1      52.843  48.642  -8.922  0.00  0.00    -0.057 A 
ATOM     13  C08 CV4 d   1      52.657  49.865  -9.534  0.00  0.00    -0.079 A 
ATOM     14  H11 CV4 d   1      52.258  47.792  -9.254  0.00  0.00     0.086 H 
ATOM     15  C07 CV4 d   1      53.403  50.949  -9.124  0.00  0.00    -0.060 A 
ATOM     16  H10 CV4 d   1      51.930  49.972 -10.331  0.00  0.00     0.083 H 
ATOM     17  C06 CV4 d   1      54.315  50.782  -8.106  0.00  0.00     0.081 A 
ATOM     18  H9  CV4 d   1      53.274  51.917  -9.595  0.00  0.00     0.085 H 
ATOM     19  C29 CV4 d   1      54.505  49.568  -7.483  0.00  0.00    -0.035 A 
ATOM     20  H16 CV4 d   1      55.228  49.470  -6.681  0.00  0.00     0.089 H 
BRANCH  17  21
ATOM     21  S03 CV4 d   1      55.254  52.184  -7.590  0.00  0.00     0.258 S 
ATOM     22  O04 CV4 d   1      55.167  53.187  -8.641  0.00  0.00    -0.201 OA
ATOM     23  O05 CV4 d   1      54.856  52.409  -6.212  0.00  0.00    -0.201 OA
BRANCH  21  24
ATOM     24  N02 CV4 d   1      56.832  51.528  -7.531  0.00  0.00    -0.320 N 
ATOM     25  H8  CV4 d   1      57.249  51.235  -6.670  0.00  0.00     0.171 HD
BRANCH  24  26
ATOM     26  C01 CV4 d   1      57.543  51.417  -8.811  0.00  0.00    -0.011 C 
ATOM     27  H5  CV4 d   1      58.540  50.984  -8.640  0.00  0.00     0.057 H 
ATOM     28  H6  CV4 d   1      57.649  52.416  -9.259  0.00  0.00     0.057 H 
ATOM     29  H7  CV4 d   1      56.973  50.768  -9.492  0.00  0.00     0.057 H 
ENDBRANCH  24  26
ENDBRANCH  21  24
ENDBRANCH  17  21
ENDBRANCH   9  11
ENDBRANCH   2   9
BRANCH   3  30
ATOM     30  N15 CV4 d   1      55.428  43.799  -4.295  0.00  0.00    -0.341 N 
ATOM     31  H13 CV4 d   1      55.850  43.689  -3.362  0.00  0.00     0.167 HD
BRANCH  30  32
ATOM     32  C16 CV4 d   1      54.925  42.610  -4.868  0.00  0.00     0.033 A 
ATOM     33  C17 CV4 d   1      54.303  42.513  -6.103  0.00  0.00    -0.056 A 
ATOM     34  C18 CV4 d   1      53.846  41.298  -6.571  0.00  0.00    -0.066 A 
ATOM     35  H2  CV4 d   1      54.174  43.403  -6.709  0.00  0.00     0.086 H 
ATOM     36  C19 CV4 d   1      54.009  40.152  -5.804  0.00  0.00     0.048 A 
ATOM     37  H14 CV4 d   1      53.359  41.238  -7.538  0.00  0.00     0.084 H 
ATOM     38  C20 CV4 d   1      54.628  40.253  -4.573  0.00  0.00    -0.066 A 
ATOM     39  C21 CV4 d   1      55.079  41.468  -4.113  0.00  0.00    -0.056 A 
ATOM     40  H3  CV4 d   1      54.759  39.366  -3.964  0.00  0.00     0.084 H 
ATOM     41  H4  CV4 d   1      55.562  41.528  -3.144  0.00  0.00     0.086 H 
BRANCH  36  42
ATOM     42  C22 CV4 d   1      53.549  38.783  -6.250  0.00  0.00     0.417 C 
ATOM     43  F23 CV4 d   1      52.671  38.197  -5.368  0.00  0.00    -0.166 F 
ATOM     44  F24 CV4 d   1      53.018  38.724  -7.517  0.00  0.00    -0.166 F 
ATOM     45  F25 CV4 d   1      54.598  37.917  -6.317  0.00  0.00    -0.166 F 
ENDBRANCH  36  42
ENDBRANCH  30  32
ENDBRANCH   3  30
TORSDOF 8
