REMARK WARNING: 32 MAX_TORS EXCEEDED!!!
REMARK  40 active torsions:
REMARK  status: ('A' for Active; 'I' for Inactive)
REMARK    1  A    between atoms: N_1  and  CA_2 
REMARK    2  A    between atoms: CA_2  and  C_3 
REMARK    3  A    between atoms: CA_2  and  CB_5 
REMARK       I    between atoms: C_3  and  N_9 
REMARK    4  A    between atoms: CB_5  and  CG_6 
REMARK       I    between atoms: CG_6  and  ND2_8 
REMARK    5  A    between atoms: CA_10  and  C_11 
REMARK       I    between atoms: C_11  and  N_16 
REMARK    6  A    between atoms: N_16  and  CA_17 
REMARK    7  A    between atoms: CA_17  and  C_18 
REMARK    8  A    between atoms: CA_17  and  CB_20 
REMARK       I    between atoms: C_18  and  N_24 
REMARK    9  A    between atoms: CB_20  and  CG_21 
REMARK   10  A    between atoms: CA_25  and  C_26 
REMARK       I    between atoms: C_26  and  N_31 
REMARK   11  A    between atoms: N_31  and  CA_32 
REMARK   12  A    between atoms: CA_32  and  C_33 
REMARK   13  A    between atoms: CA_32  and  CB_35 
REMARK       I    between atoms: C_33  and  N_39 
REMARK   14  A    between atoms: CB_35  and  CG_36 
REMARK       I    between atoms: CG_36  and  ND2_38 
REMARK   15  A    between atoms: N_39  and  CA_40 
REMARK   16  A    between atoms: CA_40  and  C_41 
REMARK   17  A    between atoms: CA_40  and  CB_43 
REMARK       I    between atoms: C_41  and  N_44 
REMARK   18  A    between atoms: N_44  and  CA_45 
REMARK   19  A    between atoms: CA_45  and  C_46 
REMARK   20  A    between atoms: CA_45  and  CB_48 
REMARK       I    between atoms: C_46  and  N_52 
REMARK   21  A    between atoms: CB_48  and  CG_49 
REMARK       I    between atoms: CG_49  and  ND2_51 
REMARK   22  A    between atoms: CA_53  and  C_54 
REMARK       I    between atoms: C_54  and  N_59 
REMARK   23  A    between atoms: N_59  and  CA_60 
REMARK   24  A    between atoms: CA_60  and  C_61 
REMARK   25  A    between atoms: CA_60  and  CB_63 
REMARK       I    between atoms: C_61  and  N_67 
REMARK   26  A    between atoms: CB_63  and  CG_64 
REMARK       I    between atoms: CG_64  and  ND2_66 
REMARK   27  A    between atoms: N_67  and  CA_68 
REMARK   28  A    between atoms: CA_68  and  C_69 
REMARK   29  A    between atoms: CA_68  and  CB_71 
REMARK       I    between atoms: C_69  and  N_74 
REMARK   30  A    between atoms: CB_71  and  CG1_72 
REMARK   31  A    between atoms: CB_71  and  CG2_73 
REMARK   32  A    between atoms: N_74  and  CA_75 
REMARK   33  A    between atoms: CA_75  and  C_76 
REMARK   34  A    between atoms: CA_75  and  CB_78 
REMARK       I    between atoms: C_76  and  N_82 
REMARK   35  A    between atoms: CB_78  and  CG_79 
REMARK   36  A    between atoms: CA_83  and  C_84 
REMARK       I    between atoms: C_84  and  N_89 
REMARK   37  A    between atoms: N_89  and  CA_90 
REMARK   38  A    between atoms: CA_90  and  C_91 
REMARK   39  A    between atoms: CA_90  and  CB_93 
REMARK   40  A    between atoms: CB_93  and  CG_94 
REMARK       I    between atoms: CG_94  and  ND2_96 
ROOT
ATOM      1  CA  ASN d   1     -28.802  -3.995 181.682  0.00  0.00     0.097 C 
ATOM      2  H39 ASN d   1     -29.523  -3.766 180.884  0.00  0.00     0.088 H 
ENDROOT
BRANCH   1   3
ATOM      3  N   ASN d   1     -28.488  -2.761 182.402  0.00  0.00    -0.346 N 
ATOM      4  C   ALA d   1     -28.699  -1.557 181.882  0.00  0.00     0.240 C 
ATOM      5  O   ALA d   1     -29.007  -1.393 180.693  0.00  0.00    -0.271 OA
ATOM      6  H38 ASN d   1     -28.099  -2.826 183.321  0.00  0.00     0.163 HD
BRANCH   4   7
ATOM      7  CA  ALA d   1     -28.538  -0.359 182.809  0.00  0.00     0.086 C 
ATOM      8  H34 ALA d   1     -29.049   0.502 182.353  0.00  0.00     0.086 H 
BRANCH   7   9
ATOM      9  N   ALA d   1     -29.150  -0.622 184.108  0.00  0.00    -0.346 N 
ATOM     10  C   ASN d   1     -30.455  -0.896 184.193  0.00  0.00     0.241 C 
ATOM     11  O   ASN d   1     -31.207  -0.836 183.215  0.00  0.00    -0.271 OA
ATOM     12  H33 ALA d   1     -28.591  -0.597 184.937  0.00  0.00     0.163 HD
BRANCH  10  13
ATOM     13  CA  ASN d   1     -31.028  -1.294 185.547  0.00  0.00     0.097 C 
ATOM     14  H28 ASN d   1     -31.465  -2.298 185.445  0.00  0.00     0.088 H 
BRANCH  13  15
ATOM     15  N   ASN d   1     -30.018  -1.352 186.595  0.00  0.00    -0.346 N 
ATOM     16  C   PRO d   1     -29.360  -2.472 186.885  0.00  0.00     0.241 C 
ATOM     17  O   PRO d   1     -29.583  -3.543 186.303  0.00  0.00    -0.271 OA
ATOM     18  H27 ASN d   1     -29.812  -0.522 187.114  0.00  0.00     0.163 HD
BRANCH  16  19
ATOM     19  CA  PRO d   1     -28.299  -2.439 187.967  0.00  0.00     0.091 C 
ATOM     20  N   PRO d   1     -27.888  -1.080 188.359  0.00  0.00    -0.337 N 
ATOM     21  C   ASP d   1     -27.298  -0.282 187.463  0.00  0.00     0.243 C 
ATOM     22  CD  PRO d   1     -28.188  -0.811 189.775  0.00  0.00    -0.001 C 
ATOM     23  O   ASP d   1     -27.173  -0.630 186.279  0.00  0.00    -0.271 OA
ATOM     24  CG  PRO d   1     -28.267  -2.179 190.360  0.00  0.00    -0.048 C 
ATOM     25  H25 PRO d   1     -29.144  -0.278 189.883  0.00  0.00     0.064 H 
ATOM     26  H26 PRO d   1     -27.385  -0.224 190.246  0.00  0.00     0.064 H 
ATOM     27  CB  PRO d   1     -28.827  -3.042 189.278  0.00  0.00    -0.036 C 
ATOM     28  H23 PRO d   1     -27.267  -2.530 190.653  0.00  0.00     0.035 H 
ATOM     29  H24 PRO d   1     -28.930  -2.184 191.238  0.00  0.00     0.035 H 
ATOM     30  H21 PRO d   1     -28.479  -4.079 189.393  0.00  0.00     0.036 H 
ATOM     31  H22 PRO d   1     -29.927  -3.020 189.297  0.00  0.00     0.036 H 
ATOM     32  H20 PRO d   1     -27.425  -3.004 187.611  0.00  0.00     0.087 H 
BRANCH  21  33
ATOM     33  CA  ASP d   1     -26.763   1.074 187.896  0.00  0.00     0.099 C 
ATOM     34  H17 ASP d   1     -27.170   1.329 188.886  0.00  0.00     0.088 H 
BRANCH  33  35
ATOM     35  N   ASP d   1     -25.315   0.974 187.980  0.00  0.00    -0.345 N 
ATOM     36  C   PRO d   1     -24.683   0.725 189.126  0.00  0.00     0.241 C 
ATOM     37  O   PRO d   1     -25.260   0.665 190.214  0.00  0.00    -0.271 OA
ATOM     38  H16 ASP d   1     -24.774   1.097 187.148  0.00  0.00     0.163 HD
BRANCH  36  39
ATOM     39  CA  PRO d   1     -23.179   0.536 189.009  0.00  0.00     0.091 C 
ATOM     40  N   PRO d   1     -22.487   0.974 190.227  0.00  0.00    -0.337 N 
ATOM     41  C   ASN d   1     -22.571   2.248 190.604  0.00  0.00     0.251 C 
ATOM     42  CD  PRO d   1     -21.689  -0.101 190.838  0.00  0.00    -0.001 C 
ATOM     43  O   ASN d   1     -23.189   3.087 189.948  0.00  0.00    -0.271 OA
ATOM     44  CG  PRO d   1     -22.213  -1.340 190.190  0.00  0.00    -0.048 C 
ATOM     45  H14 PRO d   1     -21.842  -0.133 191.927  0.00  0.00     0.064 H 
ATOM     46  H15 PRO d   1     -20.619   0.033 190.621  0.00  0.00     0.064 H 
ATOM     47  CB  PRO d   1     -22.804  -0.947 188.885  0.00  0.00    -0.036 C 
ATOM     48  H12 PRO d   1     -21.393  -2.056 190.030  0.00  0.00     0.035 H 
ATOM     49  H13 PRO d   1     -22.983  -1.800 190.827  0.00  0.00     0.035 H 
ATOM     50  H10 PRO d   1     -22.071  -1.088 188.077  0.00  0.00     0.036 H 
ATOM     51  H11 PRO d   1     -23.700  -1.550 188.676  0.00  0.00     0.036 H 
ATOM     52  H9  PRO d   1     -22.815   1.098 188.137  0.00  0.00     0.087 H 
BRANCH  41  53
ATOM     53  CA  ASN d   1     -21.859   2.649 191.892  0.00  0.00     0.184 C 
ATOM     54  H4  ASN d   1     -20.919   2.083 191.966  0.00  0.00     0.099 H 
BRANCH  53  55
ATOM     55  N   ASN d   1     -21.539   4.105 191.860  0.00  0.00    -0.066 N 
ATOM     56  H1  ASN d   1     -21.069   4.364 192.713  0.00  0.00     0.275 HD
ATOM     57  H2  ASN d   1     -22.392   4.635 191.772  0.00  0.00     0.275 HD
ATOM     58  H3  ASN d   1     -20.940   4.300 191.073  0.00  0.00     0.275 HD
ENDBRANCH  53  55
BRANCH  53  59
ATOM     59  CB  ASN d   1     -22.725   2.317 193.110  0.00  0.00     0.044 C 
ATOM     60  H5  ASN d   1     -22.874   1.228 193.151  0.00  0.00     0.051 H 
ATOM     61  H6  ASN d   1     -23.699   2.816 192.997  0.00  0.00     0.051 H 
BRANCH  59  62
ATOM     62  CG  ASN d   1     -22.094   2.770 194.411  0.00  0.00     0.217 C 
ATOM     63  OD1 ASN d   1     -20.904   3.080 194.456  0.00  0.00    -0.274 OA
ATOM     64  ND2 ASN d   1     -22.890   2.804 195.481  0.00  0.00    -0.370 N 
ATOM     65  H7  ASN d   1     -22.526   3.095 196.366  0.00  0.00     0.159 HD
ATOM     66  H8  ASN d   1     -23.851   2.538 195.398  0.00  0.00     0.159 HD
ENDBRANCH  59  62
ENDBRANCH  53  59
ENDBRANCH  41  53
ENDBRANCH  36  39
ENDBRANCH  33  35
BRANCH  33  67
ATOM     67  CB  ASP d   1     -27.172   2.157 186.900  0.00  0.00     0.043 C 
ATOM     68  H18 ASP d   1     -26.760   1.900 185.913  0.00  0.00     0.052 H 
ATOM     69  H19 ASP d   1     -26.752   3.117 187.233  0.00  0.00     0.052 H 
BRANCH  67  70
ATOM     70  CG  ASP d   1     -28.681   2.305 186.773  0.00  0.00     0.175 C 
ATOM     71  OD1 ASP d   1     -29.424   1.432 187.266  0.00  0.00    -0.648 OA
ATOM     72  OD2 ASP d   1     -29.126   3.303 186.166  0.00  0.00    -0.648 OA
ENDBRANCH  67  70
ENDBRANCH  33  67
ENDBRANCH  21  33
ENDBRANCH  16  19
ENDBRANCH  13  15
BRANCH  13  73
ATOM     73  CB  ASN d   1     -32.141  -0.321 185.947  0.00  0.00     0.036 C 
ATOM     74  H29 ASN d   1     -32.808  -0.173 185.085  0.00  0.00     0.051 H 
ATOM     75  H30 ASN d   1     -31.686   0.640 186.227  0.00  0.00     0.051 H 
BRANCH  73  76
ATOM     76  CG  ASN d   1     -32.963  -0.829 187.116  0.00  0.00     0.217 C 
ATOM     77  OD1 ASN d   1     -32.702  -1.907 187.651  0.00  0.00    -0.274 OA
ATOM     78  ND2 ASN d   1     -33.957  -0.050 187.525  0.00  0.00    -0.370 N 
ATOM     79  H31 ASN d   1     -34.532  -0.335 188.292  0.00  0.00     0.159 HD
ATOM     80  H32 ASN d   1     -34.131   0.821 187.066  0.00  0.00     0.159 HD
ENDBRANCH  73  76
ENDBRANCH  13  73
ENDBRANCH  10  13
ENDBRANCH   7   9
BRANCH   7  81
ATOM     81  CB  ALA d   1     -27.059  -0.009 182.981  0.00  0.00    -0.049 C 
ATOM     82  H35 ALA d   1     -26.611   0.186 181.995  0.00  0.00     0.030 H 
ATOM     83  H36 ALA d   1     -26.537  -0.850 183.461  0.00  0.00     0.030 H 
ATOM     84  H37 ALA d   1     -26.965   0.888 183.611  0.00  0.00     0.030 H 
ENDBRANCH   7  81
ENDBRANCH   4   7
ENDBRANCH   1   3
BRANCH   1  85
ATOM     85  C   ASN d   1     -29.443  -4.952 182.675  0.00  0.00     0.243 C 
ATOM     86  O   ASN d   1     -28.734  -5.603 183.460  0.00  0.00    -0.271 OA
ATOM     87  N   PRO d   1     -30.773  -5.070 182.674  0.00  0.00    -0.337 N 
ATOM     88  CA  PRO d   1     -31.423  -6.000 183.610  0.00  0.00     0.091 C 
ATOM     89  CD  PRO d   1     -31.737  -4.420 181.769  0.00  0.00    -0.001 C 
ATOM     90  CB  PRO d   1     -32.898  -5.957 183.185  0.00  0.00    -0.036 C 
ATOM     91  H44 PRO d   1     -31.310  -5.636 184.642  0.00  0.00     0.087 H 
ATOM     92  CG  PRO d   1     -33.058  -4.704 182.398  0.00  0.00    -0.048 C 
ATOM     93  H45 PRO d   1     -33.551  -5.939 184.070  0.00  0.00     0.036 H 
ATOM     94  H46 PRO d   1     -33.144  -6.832 182.565  0.00  0.00     0.036 H 
ATOM     95  H47 PRO d   1     -33.348  -3.875 183.060  0.00  0.00     0.035 H 
ATOM     96  H48 PRO d   1     -33.826  -4.839 181.622  0.00  0.00     0.035 H 
ATOM     97  H49 PRO d   1     -31.682  -4.854 180.760  0.00  0.00     0.064 H 
ATOM     98  H50 PRO d   1     -31.554  -3.337 181.713  0.00  0.00     0.064 H 
BRANCH  88  99
ATOM     99  C   PRO d   1     -30.867  -7.411 183.535  0.00  0.00     0.241 C 
ATOM    100  O   PRO d   1     -30.965  -8.164 184.513  0.00  0.00    -0.271 OA
ATOM    101  N   ASN d   1     -30.287  -7.795 182.396  0.00  0.00    -0.346 N 
ATOM    102  H51 ASN d   1     -30.188  -7.134 181.653  0.00  0.00     0.163 HD
BRANCH 101 103
ATOM    103  CA  ASN d   1     -29.794  -9.154 182.208  0.00  0.00     0.097 C 
ATOM    104  H52 ASN d   1     -30.601  -9.847 182.488  0.00  0.00     0.088 H 
BRANCH 103 105
ATOM    105  C   ASN d   1     -28.578  -9.477 183.064  0.00  0.00     0.241 C 
ATOM    106  O   ASN d   1     -28.223 -10.655 183.175  0.00  0.00    -0.271 OA
ATOM    107  N   VAL d   1     -27.929  -8.478 183.654  0.00  0.00    -0.346 N 
ATOM    108  H57 VAL d   1     -28.289  -7.549 183.568  0.00  0.00     0.163 HD
BRANCH 107 109
ATOM    109  CA  VAL d   1     -26.709  -8.693 184.422  0.00  0.00     0.092 C 
ATOM    110  H58 VAL d   1     -26.209  -9.599 184.048  0.00  0.00     0.088 H 
BRANCH 109 111
ATOM    111  C   VAL d   1     -27.086  -8.906 185.881  0.00  0.00     0.241 C 
ATOM    112  O   VAL d   1     -27.670  -8.020 186.516  0.00  0.00    -0.271 OA
ATOM    113  N   ASP d   1     -26.755 -10.084 186.410  0.00  0.00    -0.345 N 
ATOM    114  H66 ASP d   1     -26.416 -10.809 185.811  0.00  0.00     0.163 HD
BRANCH 113 115
ATOM    115  CA  ASP d   1     -26.875 -10.341 187.838  0.00  0.00     0.099 C 
ATOM    116  H67 ASP d   1     -27.674  -9.712 188.257  0.00  0.00     0.088 H 
BRANCH 115 117
ATOM    117  C   ASP d   1     -25.548  -9.977 188.491  0.00  0.00     0.243 C 
ATOM    118  O   ASP d   1     -24.573 -10.726 188.337  0.00  0.00    -0.271 OA
ATOM    119  N   PRO d   1     -25.450  -8.856 189.214  0.00  0.00    -0.337 N 
ATOM    120  CA  PRO d   1     -24.173  -8.542 189.870  0.00  0.00     0.091 C 
ATOM    121  CD  PRO d   1     -26.549  -8.045 189.759  0.00  0.00    -0.001 C 
ATOM    122  CB  PRO d   1     -24.390  -7.126 190.429  0.00  0.00    -0.036 C 
ATOM    123  H70 PRO d   1     -23.360  -8.537 189.129  0.00  0.00     0.087 H 
ATOM    124  CG  PRO d   1     -25.858  -6.808 190.235  0.00  0.00    -0.048 C 
ATOM    125  H71 PRO d   1     -23.769  -6.402 189.882  0.00  0.00     0.036 H 
ATOM    126  H72 PRO d   1     -24.133  -7.096 191.498  0.00  0.00     0.036 H 
ATOM    127  H73 PRO d   1     -25.970  -6.009 189.487  0.00  0.00     0.035 H 
ATOM    128  H74 PRO d   1     -26.297  -6.481 191.189  0.00  0.00     0.035 H 
ATOM    129  H75 PRO d   1     -27.047  -8.564 190.592  0.00  0.00     0.064 H 
ATOM    130  H76 PRO d   1     -27.288  -7.809 188.980  0.00  0.00     0.064 H 
BRANCH 120 131
ATOM    131  C   PRO d   1     -23.819  -9.530 190.963  0.00  0.00     0.241 C 
ATOM    132  O   PRO d   1     -22.660  -9.562 191.393  0.00  0.00    -0.271 OA
ATOM    133  N   ASN d   1     -24.778 -10.336 191.411  0.00  0.00    -0.344 N 
ATOM    134  H77 ASN d   1     -25.711 -10.193 191.081  0.00  0.00     0.163 HD
BRANCH 133 135
ATOM    135  CA  ASN d   1     -24.537 -11.418 192.359  0.00  0.00     0.104 C 
ATOM    136  H78 ASN d   1     -25.445 -12.036 192.408  0.00  0.00     0.090 H 
BRANCH 135 137
ATOM    137  C   ASN d   1     -24.248 -10.883 193.754  0.00  0.00     0.197 C 
ATOM    138  O   ASN d   1     -25.156 -10.705 194.560  0.00  0.00    -0.646 OA
ATOM    139  OXT ASN d   1     -23.101 -10.619 194.101  0.00  0.00    -0.646 OA
ENDBRANCH 135 137
BRANCH 135 140
ATOM    140  CB  ASN d   1     -23.374 -12.303 191.893  0.00  0.00     0.037 C 
ATOM    141  H79 ASN d   1     -23.282 -13.155 192.583  0.00  0.00     0.051 H 
ATOM    142  H80 ASN d   1     -22.449 -11.709 191.919  0.00  0.00     0.051 H 
BRANCH 140 143
ATOM    143  CG  ASN d   1     -23.567 -12.838 190.487  0.00  0.00     0.217 C 
ATOM    144  OD1 ASN d   1     -22.973 -12.341 189.531  0.00  0.00    -0.274 OA
ATOM    145  ND2 ASN d   1     -24.394 -13.867 190.358  0.00  0.00    -0.370 N 
ATOM    146  H81 ASN d   1     -24.562 -14.264 189.455  0.00  0.00     0.159 HD
ATOM    147  H82 ASN d   1     -24.850 -14.246 191.163  0.00  0.00     0.159 HD
ENDBRANCH 140 143
ENDBRANCH 135 140
ENDBRANCH 133 135
ENDBRANCH 120 131
ENDBRANCH 115 117
BRANCH 115 148
ATOM    148  CB  ASP d   1     -27.213 -11.804 188.096  0.00  0.00     0.043 C 
ATOM    149  H68 ASP d   1     -26.399 -12.428 187.698  0.00  0.00     0.052 H 
ATOM    150  H69 ASP d   1     -28.150 -12.046 187.573  0.00  0.00     0.052 H 
BRANCH 148 151
ATOM    151  CG  ASP d   1     -27.387 -12.118 189.575  0.00  0.00     0.175 C 
ATOM    152  OD1 ASP d   1     -27.166 -11.220 190.414  0.00  0.00    -0.648 OA
ATOM    153  OD2 ASP d   1     -27.739 -13.273 189.900  0.00  0.00    -0.648 OA
ENDBRANCH 148 151
ENDBRANCH 115 148
ENDBRANCH 113 115
ENDBRANCH 109 111
BRANCH 109 154
ATOM    154  CB  VAL d   1     -25.741  -7.510 184.269  0.00  0.00    -0.033 C 
ATOM    155  H59 VAL d   1     -26.277  -6.586 184.529  0.00  0.00     0.042 H 
BRANCH 154 156
ATOM    156  CG1 VAL d   1     -24.546  -7.658 185.212  0.00  0.00    -0.071 C 
ATOM    157  H60 VAL d   1     -23.869  -6.800 185.084  0.00  0.00     0.028 H 
ATOM    158  H61 VAL d   1     -24.008  -8.588 184.978  0.00  0.00     0.028 H 
ATOM    159  H62 VAL d   1     -24.902  -7.692 186.252  0.00  0.00     0.028 H 
ENDBRANCH 154 156
BRANCH 154 160
ATOM    160  CG2 VAL d   1     -25.264  -7.404 182.830  0.00  0.00    -0.071 C 
ATOM    161  H63 VAL d   1     -26.132  -7.298 182.163  0.00  0.00     0.028 H 
ATOM    162  H64 VAL d   1     -24.704  -8.312 182.561  0.00  0.00     0.028 H 
ATOM    163  H65 VAL d   1     -24.611  -6.525 182.724  0.00  0.00     0.028 H 
ENDBRANCH 154 160
ENDBRANCH 109 154
ENDBRANCH 107 109
ENDBRANCH 103 105
BRANCH 103 164
ATOM    164  CB  ASN d   1     -29.439  -9.383 180.740  0.00  0.00     0.036 C 
ATOM    165  H53 ASN d   1     -29.020 -10.395 180.633  0.00  0.00     0.051 H 
ATOM    166  H54 ASN d   1     -28.684  -8.640 180.441  0.00  0.00     0.051 H 
BRANCH 164 167
ATOM    167  CG  ASN d   1     -30.634  -9.255 179.821  0.00  0.00     0.217 C 
ATOM    168  OD1 ASN d   1     -31.768  -9.523 180.211  0.00  0.00    -0.274 OA
ATOM    169  ND2 ASN d   1     -30.381  -8.843 178.587  0.00  0.00    -0.370 N 
ATOM    170  H55 ASN d   1     -31.129  -8.738 177.932  0.00  0.00     0.159 HD
ATOM    171  H56 ASN d   1     -29.442  -8.637 178.311  0.00  0.00     0.159 HD
ENDBRANCH 164 167
ENDBRANCH 103 164
ENDBRANCH 101 103
ENDBRANCH  88  99
ENDBRANCH   1  85
BRANCH   1 172
ATOM    172  CB  ASN d   1     -27.569  -4.627 181.043  0.00  0.00     0.036 C 
ATOM    173  H40 ASN d   1     -26.910  -5.002 181.840  0.00  0.00     0.051 H 
ATOM    174  H41 ASN d   1     -27.039  -3.860 180.460  0.00  0.00     0.051 H 
BRANCH 172 175
ATOM    175  CG  ASN d   1     -27.929  -5.780 180.122  0.00  0.00     0.217 C 
ATOM    176  OD1 ASN d   1     -29.027  -6.326 180.206  0.00  0.00    -0.274 OA
ATOM    177  ND2 ASN d   1     -27.011  -6.144 179.230  0.00  0.00    -0.370 N 
ATOM    178  H42 ASN d   1     -27.198  -6.898 178.600  0.00  0.00     0.159 HD
ATOM    179  H43 ASN d   1     -26.135  -5.664 179.190  0.00  0.00     0.159 HD
ENDBRANCH 172 175
ENDBRANCH   1 172
TORSDOF 40
