REMARK  27 active torsions:
REMARK  status: ('A' for Active; 'I' for Inactive)
REMARK    1  A    between atoms: N_1  and  CA_2 
REMARK    2  A    between atoms: CA_2  and  C_3 
REMARK    3  A    between atoms: CA_2  and  CB_5 
REMARK       I    between atoms: C_3  and  N_6 
REMARK    4  A    between atoms: CA_7  and  C_8 
REMARK       I    between atoms: C_8  and  N_13 
REMARK    5  A    between atoms: N_13  and  CA_14 
REMARK    6  A    between atoms: CA_14  and  C_15 
REMARK    7  A    between atoms: CA_14  and  CB_17 
REMARK       I    between atoms: C_15  and  N_21 
REMARK    8  A    between atoms: CB_17  and  CG_18 
REMARK       I    between atoms: CG_18  and  ND2_20 
REMARK    9  A    between atoms: N_21  and  CA_22 
REMARK   10  A    between atoms: CA_22  and  C_23 
REMARK   11  A    between atoms: CA_22  and  CB_25 
REMARK       I    between atoms: C_23  and  N_26 
REMARK   12  A    between atoms: N_26  and  CA_27 
REMARK   13  A    between atoms: CA_27  and  C_28 
REMARK   14  A    between atoms: CA_27  and  CB_30 
REMARK       I    between atoms: C_28  and  N_34 
REMARK   15  A    between atoms: CB_30  and  CG_31 
REMARK       I    between atoms: CG_31  and  ND2_33 
REMARK   16  A    between atoms: CA_35  and  C_36 
REMARK       I    between atoms: C_36  and  N_41 
REMARK   17  A    between atoms: N_41  and  CA_42 
REMARK   18  A    between atoms: CA_42  and  C_43 
REMARK   19  A    between atoms: CA_42  and  CB_45 
REMARK       I    between atoms: C_43  and  N_49 
REMARK   20  A    between atoms: CB_45  and  CG_46 
REMARK       I    between atoms: CG_46  and  ND2_48 
REMARK   21  A    between atoms: N_49  and  CA_50 
REMARK   22  A    between atoms: CA_50  and  C_51 
REMARK   23  A    between atoms: CA_50  and  CB_53 
REMARK       I    between atoms: C_51  and  N_54 
REMARK   24  A    between atoms: N_54  and  CA_55 
REMARK   25  A    between atoms: CA_55  and  C_56 
REMARK   26  A    between atoms: CA_55  and  CB_58 
REMARK   27  A    between atoms: CB_58  and  CG_59 
REMARK       I    between atoms: CG_59  and  ND2_61 
ROOT
ATOM      1  CA  ASN d   1     -34.182 -10.077  37.603  0.00  0.00     0.097 C 
ATOM      2  H27 ASN d   1     -34.952  -9.479  37.094  0.00  0.00     0.088 H 
ENDROOT
BRANCH   1   3
ATOM      3  N   ASN d   1     -33.521  -9.286  38.637  0.00  0.00    -0.346 N 
ATOM      4  C   ALA d   1     -33.438  -7.968  38.746  0.00  0.00     0.240 C 
ATOM      5  O   ALA d   1     -34.164  -7.208  38.093  0.00  0.00    -0.271 OA
ATOM      6  H26 ASN d   1     -33.070  -9.809  39.360  0.00  0.00     0.163 HD
BRANCH   4   7
ATOM      7  CA  ALA d   1     -32.419  -7.392  39.732  0.00  0.00     0.086 C 
ATOM      8  H22 ALA d   1     -31.548  -7.055  39.151  0.00  0.00     0.086 H 
BRANCH   7   9
ATOM      9  N   ALA d   1     -33.024  -6.228  40.393  0.00  0.00    -0.346 N 
ATOM     10  C   ASN d   1     -34.011  -6.317  41.274  0.00  0.00     0.241 C 
ATOM     11  O   ASN d   1     -34.804  -7.270  41.296  0.00  0.00    -0.271 OA
ATOM     12  H21 ALA d   1     -32.673  -5.320  40.166  0.00  0.00     0.163 HD
BRANCH  10  13
ATOM     13  CA  ASN d   1     -34.136  -5.164  42.264  0.00  0.00     0.097 C 
ATOM     14  H16 ASN d   1     -35.011  -5.341  42.906  0.00  0.00     0.088 H 
BRANCH  13  15
ATOM     15  N   ASN d   1     -32.939  -5.104  43.099  0.00  0.00    -0.346 N 
ATOM     16  C   PRO d   1     -32.585  -6.143  43.862  0.00  0.00     0.241 C 
ATOM     17  O   PRO d   1     -33.386  -7.010  44.227  0.00  0.00    -0.271 OA
ATOM     18  H15 ASN d   1     -32.378  -4.276  43.100  0.00  0.00     0.163 HD
BRANCH  16  19
ATOM     19  CA  PRO d   1     -31.119  -6.224  44.268  0.00  0.00     0.091 C 
ATOM     20  N   PRO d   1     -30.872  -6.227  45.715  0.00  0.00    -0.337 N 
ATOM     21  C   ASN d   1     -30.499  -5.091  46.328  0.00  0.00     0.250 C 
ATOM     22  CD  PRO d   1     -30.753  -7.605  46.207  0.00  0.00    -0.001 C 
ATOM     23  O   ASN d   1     -30.454  -4.008  45.742  0.00  0.00    -0.271 OA
ATOM     24  CG  PRO d   1     -30.032  -8.270  45.086  0.00  0.00    -0.048 C 
ATOM     25  H13 PRO d   1     -31.742  -8.058  46.371  0.00  0.00     0.064 H 
ATOM     26  H14 PRO d   1     -30.170  -7.648  47.139  0.00  0.00     0.064 H 
ATOM     27  CB  PRO d   1     -30.511  -7.563  43.816  0.00  0.00    -0.036 C 
ATOM     28  H11 PRO d   1     -28.945  -8.152  45.205  0.00  0.00     0.035 H 
ATOM     29  H12 PRO d   1     -30.283  -9.340  45.048  0.00  0.00     0.035 H 
ATOM     30  H9  PRO d   1     -29.664  -7.386  43.136  0.00  0.00     0.036 H 
ATOM     31  H10 PRO d   1     -31.271  -8.172  43.305  0.00  0.00     0.036 H 
ATOM     32  H8  PRO d   1     -30.587  -5.380  43.804  0.00  0.00     0.087 H 
BRANCH  21  33
ATOM     33  CA  ASN d   1     -30.110  -5.185  47.805  0.00  0.00     0.172 C 
ATOM     34  H4  ASN d   1     -29.391  -6.009  47.921  0.00  0.00     0.098 H 
BRANCH  33  35
ATOM     35  N   ASN d   1     -29.454  -3.924  48.257  0.00  0.00    -0.067 N 
ATOM     36  H1  ASN d   1     -29.206  -4.005  49.230  0.00  0.00     0.275 HD
ATOM     37  H2  ASN d   1     -30.091  -3.152  48.136  0.00  0.00     0.275 HD
ATOM     38  H3  ASN d   1     -28.623  -3.763  47.710  0.00  0.00     0.275 HD
ENDBRANCH  33  35
BRANCH  33  39
ATOM     39  CB  ASN d   1     -31.334  -5.491  48.667  0.00  0.00    -0.042 C 
ATOM     40  H5  ASN d   1     -31.804  -6.423  48.319  0.00  0.00     0.030 H 
ATOM     41  H6  ASN d   1     -32.055  -4.665  48.586  0.00  0.00     0.030 H 
ATOM     42  H7  ASN d   1     -31.024  -5.606  49.716  0.00  0.00     0.030 H 
ENDBRANCH  33  39
ENDBRANCH  21  33
ENDBRANCH  16  19
ENDBRANCH  13  15
BRANCH  13  43
ATOM     43  CB  ASN d   1     -34.327  -3.834  41.528  0.00  0.00     0.036 C 
ATOM     44  H17 ASN d   1     -35.120  -3.960  40.776  0.00  0.00     0.051 H 
ATOM     45  H18 ASN d   1     -33.384  -3.572  41.026  0.00  0.00     0.051 H 
BRANCH  43  46
ATOM     46  CG  ASN d   1     -34.716  -2.694  42.457  0.00  0.00     0.217 C 
ATOM     47  OD1 ASN d   1     -35.534  -2.864  43.360  0.00  0.00    -0.274 OA
ATOM     48  ND2 ASN d   1     -34.127  -1.518  42.232  0.00  0.00    -0.370 N 
ATOM     49  H19 ASN d   1     -34.343  -0.732  42.811  0.00  0.00     0.159 HD
ATOM     50  H20 ASN d   1     -33.469  -1.423  41.485  0.00  0.00     0.159 HD
ENDBRANCH  43  46
ENDBRANCH  13  43
ENDBRANCH  10  13
ENDBRANCH   7   9
BRANCH   7  51
ATOM     51  CB  ALA d   1     -31.907  -8.377  40.797  0.00  0.00    -0.049 C 
ATOM     52  H23 ALA d   1     -31.454  -9.249  40.302  0.00  0.00     0.030 H 
ATOM     53  H24 ALA d   1     -32.747  -8.707  41.425  0.00  0.00     0.030 H 
ATOM     54  H25 ALA d   1     -31.154  -7.879  41.425  0.00  0.00     0.030 H 
ENDBRANCH   7  51
ENDBRANCH   4   7
ENDBRANCH   1   3
BRANCH   1  55
ATOM     55  C   ASN d   1     -34.832 -11.240  38.345  0.00  0.00     0.243 C 
ATOM     56  O   ASN d   1     -34.119 -12.131  38.826  0.00  0.00    -0.271 OA
ATOM     57  N   PRO d   1     -36.170 -11.259  38.497  0.00  0.00    -0.337 N 
ATOM     58  CA  PRO d   1     -36.824 -12.329  39.273  0.00  0.00     0.091 C 
ATOM     59  CD  PRO d   1     -37.134 -10.272  37.980  0.00  0.00    -0.001 C 
ATOM     60  CB  PRO d   1     -38.296 -12.201  38.861  0.00  0.00    -0.036 C 
ATOM     61  H32 PRO d   1     -36.708 -12.133  40.349  0.00  0.00     0.087 H 
ATOM     62  CG  PRO d   1     -38.461 -10.742  38.514  0.00  0.00    -0.048 C 
ATOM     63  H33 PRO d   1     -38.959 -12.481  39.693  0.00  0.00     0.036 H 
ATOM     64  H34 PRO d   1     -38.513 -12.836  37.989  0.00  0.00     0.036 H 
ATOM     65  H35 PRO d   1     -38.734 -10.167  39.411  0.00  0.00     0.035 H 
ATOM     66  H36 PRO d   1     -39.242 -10.620  37.749  0.00  0.00     0.035 H 
ATOM     67  H37 PRO d   1     -37.135 -10.266  36.880  0.00  0.00     0.064 H 
ATOM     68  H38 PRO d   1     -36.898  -9.264  38.352  0.00  0.00     0.064 H 
BRANCH  58  69
ATOM     69  C   PRO d   1     -36.294 -13.728  38.984  0.00  0.00     0.241 C 
ATOM     70  O   PRO d   1     -36.396 -14.623  39.830  0.00  0.00    -0.271 OA
ATOM     71  N   ASN d   1     -35.724 -13.925  37.794  0.00  0.00    -0.346 N 
ATOM     72  H39 ASN d   1     -35.641 -13.155  37.162  0.00  0.00     0.163 HD
BRANCH  71  73
ATOM     73  CA  ASN d   1     -35.218 -15.231  37.388  0.00  0.00     0.097 C 
ATOM     74  H40 ASN d   1     -35.967 -15.986  37.668  0.00  0.00     0.088 H 
BRANCH  73  75
ATOM     75  C   ASN d   1     -33.906 -15.603  38.070  0.00  0.00     0.241 C 
ATOM     76  O   ASN d   1     -33.615 -16.796  38.206  0.00  0.00    -0.271 OA
ATOM     77  N   ALA d   1     -33.109 -14.625  38.496  0.00  0.00    -0.346 N 
ATOM     78  H45 ALA d   1     -33.328 -13.679  38.256  0.00  0.00     0.163 HD
BRANCH  77  79
ATOM     79  CA  ALA d   1     -31.922 -14.898  39.306  0.00  0.00     0.086 C 
ATOM     80  H46 ALA d   1     -31.458 -15.835  38.965  0.00  0.00     0.086 H 
BRANCH  79  81
ATOM     81  C   ALA d   1     -32.386 -15.069  40.748  0.00  0.00     0.240 C 
ATOM     82  O   ALA d   1     -32.673 -14.088  41.437  0.00  0.00    -0.271 OA
ATOM     83  N   ASN d   1     -32.446 -16.323  41.200  0.00  0.00    -0.344 N 
ATOM     84  H50 ASN d   1     -32.007 -17.038  40.656  0.00  0.00     0.163 HD
BRANCH  83  85
ATOM     85  CA  ASN d   1     -33.118 -16.721  42.448  0.00  0.00     0.104 C 
ATOM     86  H51 ASN d   1     -34.085 -17.167  42.171  0.00  0.00     0.090 H 
BRANCH  85  87
ATOM     87  C   ASN d   1     -33.402 -15.572  43.416  0.00  0.00     0.197 C 
ATOM     88  O   ASN d   1     -34.494 -15.004  43.415  0.00  0.00    -0.646 OA
ATOM     89  OXT ASN d   1     -32.544 -15.195  44.213  0.00  0.00    -0.646 OA
ENDBRANCH  85  87
BRANCH  85  90
ATOM     90  CB  ASN d   1     -32.285 -17.780  43.173  0.00  0.00     0.037 C 
ATOM     91  H52 ASN d   1     -32.219 -18.674  42.536  0.00  0.00     0.051 H 
ATOM     92  H53 ASN d   1     -32.788 -18.039  44.117  0.00  0.00     0.051 H 
BRANCH  90  93
ATOM     93  CG  ASN d   1     -30.883 -17.302  43.485  0.00  0.00     0.217 C 
ATOM     94  OD1 ASN d   1     -30.643 -16.107  43.660  0.00  0.00    -0.274 OA
ATOM     95  ND2 ASN d   1     -29.944 -18.236  43.554  0.00  0.00    -0.370 N 
ATOM     96  H54 ASN d   1     -28.999 -17.981  43.757  0.00  0.00     0.159 HD
ATOM     97  H55 ASN d   1     -30.181 -19.196  43.403  0.00  0.00     0.159 HD
ENDBRANCH  90  93
ENDBRANCH  85  90
ENDBRANCH  83  85
ENDBRANCH  79  81
BRANCH  79  98
ATOM     98  CB  ALA d   1     -30.898 -13.777  39.167  0.00  0.00    -0.049 C 
ATOM     99  H47 ALA d   1     -30.017 -14.006  39.785  0.00  0.00     0.030 H 
ATOM    100  H48 ALA d   1     -31.344 -12.829  39.502  0.00  0.00     0.030 H 
ATOM    101  H49 ALA d   1     -30.594 -13.687  38.114  0.00  0.00     0.030 H 
ENDBRANCH  79  98
ENDBRANCH  77  79
ENDBRANCH  73  75
BRANCH  73 102
ATOM    102  CB  ASN d   1     -35.047 -15.258  35.870  0.00  0.00     0.036 C 
ATOM    103  H41 ASN d   1     -34.667 -16.247  35.575  0.00  0.00     0.051 H 
ATOM    104  H42 ASN d   1     -34.319 -14.485  35.583  0.00  0.00     0.051 H 
BRANCH 102 105
ATOM    105  CG  ASN d   1     -36.351 -14.997  35.134  0.00  0.00     0.217 C 
ATOM    106  OD1 ASN d   1     -37.436 -15.190  35.683  0.00  0.00    -0.274 OA
ATOM    107  ND2 ASN d   1     -36.249 -14.555  33.884  0.00  0.00    -0.370 N 
ATOM    108  H43 ASN d   1     -37.074 -14.366  33.352  0.00  0.00     0.159 HD
ATOM    109  H44 ASN d   1     -35.347 -14.411  33.477  0.00  0.00     0.159 HD
ENDBRANCH 102 105
ENDBRANCH  73 102
ENDBRANCH  71  73
ENDBRANCH  58  69
ENDBRANCH   1  55
BRANCH   1 110
ATOM    110  CB  ASN d   1     -33.151 -10.551  36.571  0.00  0.00     0.036 C 
ATOM    111  H28 ASN d   1     -32.308 -11.010  37.109  0.00  0.00     0.051 H 
ATOM    112  H29 ASN d   1     -32.795  -9.675  36.009  0.00  0.00     0.051 H 
BRANCH 110 113
ATOM    113  CG  ASN d   1     -33.696 -11.566  35.580  0.00  0.00     0.217 C 
ATOM    114  OD1 ASN d   1     -34.781 -12.127  35.751  0.00  0.00    -0.274 OA
ATOM    115  ND2 ASN d   1     -32.910 -11.825  34.532  0.00  0.00    -0.370 N 
ATOM    116  H30 ASN d   1     -33.203 -12.483  33.838  0.00  0.00     0.159 HD
ATOM    117  H31 ASN d   1     -32.029 -11.361  34.441  0.00  0.00     0.159 HD
ENDBRANCH 110 113
ENDBRANCH   1 110
TORSDOF 27
