REMARK WARNING: 32 MAX_TORS EXCEEDED!!!
REMARK  40 active torsions:
REMARK  status: ('A' for Active; 'I' for Inactive)
REMARK    1  A    between atoms: N_1  and  CA_2 
REMARK    2  A    between atoms: CA_2  and  C_3 
REMARK    3  A    between atoms: CA_2  and  CB_5 
REMARK       I    between atoms: C_3  and  N_9 
REMARK    4  A    between atoms: CB_5  and  CG_6 
REMARK       I    between atoms: CG_6  and  ND2_8 
REMARK    5  A    between atoms: CA_10  and  C_11 
REMARK       I    between atoms: C_11  and  N_16 
REMARK    6  A    between atoms: N_16  and  CA_17 
REMARK    7  A    between atoms: CA_17  and  C_18 
REMARK    8  A    between atoms: CA_17  and  CB_20 
REMARK       I    between atoms: C_18  and  N_24 
REMARK    9  A    between atoms: CB_20  and  CG_21 
REMARK   10  A    between atoms: CA_25  and  C_26 
REMARK       I    between atoms: C_26  and  N_31 
REMARK   11  A    between atoms: N_31  and  CA_32 
REMARK   12  A    between atoms: CA_32  and  C_33 
REMARK   13  A    between atoms: CA_32  and  CB_35 
REMARK       I    between atoms: C_33  and  N_39 
REMARK   14  A    between atoms: CB_35  and  CG_36 
REMARK       I    between atoms: CG_36  and  ND2_38 
REMARK   15  A    between atoms: N_39  and  CA_40 
REMARK   16  A    between atoms: CA_40  and  C_41 
REMARK   17  A    between atoms: CA_40  and  CB_43 
REMARK       I    between atoms: C_41  and  N_44 
REMARK   18  A    between atoms: N_44  and  CA_45 
REMARK   19  A    between atoms: CA_45  and  C_46 
REMARK   20  A    between atoms: CA_45  and  CB_48 
REMARK       I    between atoms: C_46  and  N_52 
REMARK   21  A    between atoms: CB_48  and  CG_49 
REMARK       I    between atoms: CG_49  and  ND2_51 
REMARK   22  A    between atoms: CA_53  and  C_54 
REMARK       I    between atoms: C_54  and  N_59 
REMARK   23  A    between atoms: N_59  and  CA_60 
REMARK   24  A    between atoms: CA_60  and  C_61 
REMARK   25  A    between atoms: CA_60  and  CB_63 
REMARK       I    between atoms: C_61  and  N_67 
REMARK   26  A    between atoms: CB_63  and  CG_64 
REMARK       I    between atoms: CG_64  and  ND2_66 
REMARK   27  A    between atoms: N_67  and  CA_68 
REMARK   28  A    between atoms: CA_68  and  C_69 
REMARK   29  A    between atoms: CA_68  and  CB_71 
REMARK       I    between atoms: C_69  and  N_74 
REMARK   30  A    between atoms: CB_71  and  CG1_72 
REMARK   31  A    between atoms: CB_71  and  CG2_73 
REMARK   32  A    between atoms: N_74  and  CA_75 
REMARK   33  A    between atoms: CA_75  and  C_76 
REMARK   34  A    between atoms: CA_75  and  CB_78 
REMARK       I    between atoms: C_76  and  N_82 
REMARK   35  A    between atoms: CB_78  and  CG_79 
REMARK   36  A    between atoms: CA_83  and  C_84 
REMARK       I    between atoms: C_84  and  N_89 
REMARK   37  A    between atoms: N_89  and  CA_90 
REMARK   38  A    between atoms: CA_90  and  C_91 
REMARK   39  A    between atoms: CA_90  and  CB_93 
REMARK   40  A    between atoms: CB_93  and  CG_94 
REMARK       I    between atoms: CG_94  and  ND2_96 
ROOT
ATOM      1  CA  ASN d   1      74.132 139.263 159.022  0.00  0.00     0.097 C 
ATOM      2  H39 ASN d   1      74.367 139.757 159.976  0.00  0.00     0.088 H 
ENDROOT
BRANCH   1   3
ATOM      3  N   ASN d   1      73.617 140.237 158.084  0.00  0.00    -0.346 N 
ATOM      4  C   ALA d   1      73.617 141.545 158.299  0.00  0.00     0.240 C 
ATOM      5  O   ALA d   1      74.081 142.064 159.317  0.00  0.00    -0.271 OA
ATOM      6  H38 ASN d   1      73.238 139.903 157.221  0.00  0.00     0.163 HD
BRANCH   4   7
ATOM      7  CA  ALA d   1      72.980 142.360 157.183  0.00  0.00     0.086 C 
ATOM      8  H34 ALA d   1      72.052 141.856 156.876  0.00  0.00     0.086 H 
BRANCH   7   9
ATOM      9  N   ALA d   1      72.637 143.691 157.646  0.00  0.00    -0.346 N 
ATOM     10  C   ASN d   1      71.585 143.853 158.436  0.00  0.00     0.241 C 
ATOM     11  O   ASN d   1      70.859 142.914 158.786  0.00  0.00    -0.271 OA
ATOM     12  H33 ALA d   1      73.189 144.479 157.372  0.00  0.00     0.163 HD
BRANCH  10  13
ATOM     13  CA  ASN d   1      71.266 145.253 158.913  0.00  0.00     0.097 C 
ATOM     14  H28 ASN d   1      71.161 145.227 160.008  0.00  0.00     0.088 H 
BRANCH  13  15
ATOM     15  N   ASN d   1      72.316 146.205 158.587  0.00  0.00    -0.346 N 
ATOM     16  C   PRO d   1      73.377 146.317 159.380  0.00  0.00     0.241 C 
ATOM     17  O   PRO d   1      73.492 145.653 160.416  0.00  0.00    -0.271 OA
ATOM     18  H27 ASN d   1      72.240 146.774 157.768  0.00  0.00     0.163 HD
BRANCH  16  19
ATOM     19  CA  PRO d   1      74.467 147.291 158.996  0.00  0.00     0.091 C 
ATOM     20  N   PRO d   1      74.522 147.562 157.546  0.00  0.00    -0.337 N 
ATOM     21  C   ASP d   1      74.754 146.552 156.706  0.00  0.00     0.243 C 
ATOM     22  CD  PRO d   1      74.354 148.996 157.255  0.00  0.00    -0.001 C 
ATOM     23  O   ASP d   1      74.961 145.410 157.127  0.00  0.00    -0.271 OA
ATOM     24  CG  PRO d   1      73.715 149.516 158.500  0.00  0.00    -0.048 C 
ATOM     25  H25 PRO d   1      73.702 149.149 156.382  0.00  0.00     0.064 H 
ATOM     26  H26 PRO d   1      75.326 149.480 157.077  0.00  0.00     0.064 H 
ATOM     27  CB  PRO d   1      74.227 148.682 159.610  0.00  0.00    -0.036 C 
ATOM     28  H23 PRO d   1      73.990 150.570 158.657  0.00  0.00     0.035 H 
ATOM     29  H24 PRO d   1      72.621 149.429 158.431  0.00  0.00     0.035 H 
ATOM     30  H21 PRO d   1      75.167 149.097 160.002  0.00  0.00     0.036 H 
ATOM     31  H22 PRO d   1      73.486 148.623 160.421  0.00  0.00     0.036 H 
ATOM     32  H20 PRO d   1      75.430 146.885 159.338  0.00  0.00     0.087 H 
BRANCH  21  33
ATOM     33  CA  ASP d   1      74.798 146.816 155.201  0.00  0.00     0.099 C 
ATOM     34  H17 ASP d   1      74.720 147.899 155.027  0.00  0.00     0.088 H 
BRANCH  33  35
ATOM     35  N   ASP d   1      76.064 146.337 154.661  0.00  0.00    -0.345 N 
ATOM     36  C   PRO d   1      77.233 146.827 155.064  0.00  0.00     0.241 C 
ATOM     37  O   PRO d   1      77.332 147.773 155.847  0.00  0.00    -0.271 OA
ATOM     38  H16 ASP d   1      76.053 145.618 153.966  0.00  0.00     0.163 HD
BRANCH  36  39
ATOM     39  CA  PRO d   1      78.448 146.102 154.502  0.00  0.00     0.091 C 
ATOM     40  N   PRO d   1      79.689 146.871 154.670  0.00  0.00    -0.337 N 
ATOM     41  C   ASN d   1      79.921 147.951 153.926  0.00  0.00     0.251 C 
ATOM     42  CD  PRO d   1      80.674 146.140 155.485  0.00  0.00    -0.001 C 
ATOM     43  O   ASN d   1      79.121 148.352 153.083  0.00  0.00    -0.271 OA
ATOM     44  CG  PRO d   1      80.206 144.723 155.384  0.00  0.00    -0.048 C 
ATOM     45  H14 PRO d   1      80.660 146.488 156.529  0.00  0.00     0.064 H 
ATOM     46  H15 PRO d   1      81.688 146.252 155.074  0.00  0.00     0.064 H 
ATOM     47  CB  PRO d   1      78.714 144.811 155.284  0.00  0.00    -0.036 C 
ATOM     48  H12 PRO d   1      80.625 144.241 154.489  0.00  0.00     0.035 H 
ATOM     49  H13 PRO d   1      80.500 144.155 156.279  0.00  0.00     0.035 H 
ATOM     50  H10 PRO d   1      78.310 143.941 154.745  0.00  0.00     0.036 H 
ATOM     51  H11 PRO d   1      78.261 144.864 156.285  0.00  0.00     0.036 H 
ATOM     52  H9  PRO d   1      78.274 145.884 153.438  0.00  0.00     0.087 H 
BRANCH  41  53
ATOM     53  CA  ASN d   1      81.263 148.681 154.144  0.00  0.00     0.184 C 
ATOM     54  H4  ASN d   1      82.071 147.948 154.001  0.00  0.00     0.099 H 
BRANCH  53  55
ATOM     55  N   ASN d   1      81.470 149.794 153.164  0.00  0.00    -0.066 N 
ATOM     56  H1  ASN d   1      82.356 150.240 153.344  0.00  0.00     0.275 HD
ATOM     57  H2  ASN d   1      80.728 150.469 153.261  0.00  0.00     0.275 HD
ATOM     58  H3  ASN d   1      81.466 149.422 152.227  0.00  0.00     0.275 HD
ENDBRANCH  53  55
BRANCH  53  59
ATOM     59  CB  ASN d   1      81.357 149.230 155.581  0.00  0.00     0.044 C 
ATOM     60  H5  ASN d   1      80.766 148.581 156.244  0.00  0.00     0.051 H 
ATOM     61  H6  ASN d   1      80.939 150.248 155.596  0.00  0.00     0.051 H 
BRANCH  59  62
ATOM     62  CG  ASN d   1      82.796 149.284 156.105  0.00  0.00     0.217 C 
ATOM     63  OD1 ASN d   1      83.722 148.766 155.475  0.00  0.00    -0.274 OA
ATOM     64  ND2 ASN d   1      82.981 149.904 157.273  0.00  0.00    -0.370 N 
ATOM     65  H7  ASN d   1      83.899 149.970 157.664  0.00  0.00     0.159 HD
ATOM     66  H8  ASN d   1      82.202 150.302 157.757  0.00  0.00     0.159 HD
ENDBRANCH  59  62
ENDBRANCH  53  59
ENDBRANCH  41  53
ENDBRANCH  36  39
ENDBRANCH  33  35
BRANCH  33  67
ATOM     67  CB  ASP d   1      73.632 146.115 154.491  0.00  0.00     0.043 C 
ATOM     68  H18 ASP d   1      73.673 145.041 154.726  0.00  0.00     0.052 H 
ATOM     69  H19 ASP d   1      73.746 146.257 153.406  0.00  0.00     0.052 H 
BRANCH  67  70
ATOM     70  CG  ASP d   1      72.272 146.651 154.910  0.00  0.00     0.175 C 
ATOM     71  OD1 ASP d   1      72.191 147.395 155.909  0.00  0.00    -0.648 OA
ATOM     72  OD2 ASP d   1      71.273 146.320 154.234  0.00  0.00    -0.648 OA
ENDBRANCH  67  70
ENDBRANCH  33  67
ENDBRANCH  21  33
ENDBRANCH  16  19
ENDBRANCH  13  15
BRANCH  13  73
ATOM     73  CB  ASN d   1      69.940 145.694 158.308  0.00  0.00     0.036 C 
ATOM     74  H29 ASN d   1      69.181 144.927 158.521  0.00  0.00     0.051 H 
ATOM     75  H30 ASN d   1      70.063 145.796 157.220  0.00  0.00     0.051 H 
BRANCH  73  76
ATOM     76  CG  ASN d   1      69.471 147.010 158.869  0.00  0.00     0.217 C 
ATOM     77  OD1 ASN d   1      69.187 147.947 158.127  0.00  0.00    -0.274 OA
ATOM     78  ND2 ASN d   1      69.414 147.097 160.188  0.00  0.00    -0.370 N 
ATOM     79  H31 ASN d   1      69.110 147.946 160.620  0.00  0.00     0.159 HD
ATOM     80  H32 ASN d   1      69.675 146.314 160.752  0.00  0.00     0.159 HD
ENDBRANCH  73  76
ENDBRANCH  13  73
ENDBRANCH  10  13
ENDBRANCH   7   9
BRANCH   7  81
ATOM     81  CB  ALA d   1      73.910 142.424 155.971  0.00  0.00    -0.049 C 
ATOM     82  H35 ALA d   1      74.153 141.403 155.641  0.00  0.00     0.030 H 
ATOM     83  H36 ALA d   1      74.835 142.951 156.246  0.00  0.00     0.030 H 
ATOM     84  H37 ALA d   1      73.410 142.964 155.153  0.00  0.00     0.030 H 
ENDBRANCH   7  81
ENDBRANCH   4   7
ENDBRANCH   1   3
BRANCH   1  85
ATOM     85  C   ASN d   1      75.401 138.643 158.454  0.00  0.00     0.243 C 
ATOM     86  O   ASN d   1      75.345 138.062 157.361  0.00  0.00    -0.271 OA
ATOM     87  N   PRO d   1      76.557 138.734 159.125  0.00  0.00    -0.337 N 
ATOM     88  CA  PRO d   1      77.767 138.068 158.610  0.00  0.00     0.091 C 
ATOM     89  CD  PRO d   1      76.831 139.509 160.347  0.00  0.00    -0.001 C 
ATOM     90  CB  PRO d   1      78.869 138.583 159.539  0.00  0.00    -0.036 C 
ATOM     91  H44 PRO d   1      77.957 138.388 157.575  0.00  0.00     0.087 H 
ATOM     92  CG  PRO d   1      78.174 139.001 160.779  0.00  0.00    -0.048 C 
ATOM     93  H45 PRO d   1      79.389 139.438 159.082  0.00  0.00     0.036 H 
ATOM     94  H46 PRO d   1      79.595 137.785 159.755  0.00  0.00     0.036 H 
ATOM     95  H47 PRO d   1      78.740 139.798 161.285  0.00  0.00     0.035 H 
ATOM     96  H48 PRO d   1      78.058 138.145 161.460  0.00  0.00     0.035 H 
ATOM     97  H49 PRO d   1      76.069 139.315 161.117  0.00  0.00     0.064 H 
ATOM     98  H50 PRO d   1      76.868 140.587 160.131  0.00  0.00     0.064 H 
BRANCH  88  99
ATOM     99  C   PRO d   1      77.694 136.541 158.633  0.00  0.00     0.241 C 
ATOM    100  O   PRO d   1      78.462 135.894 157.911  0.00  0.00    -0.271 OA
ATOM    101  N   ASN d   1      76.779 135.959 159.408  0.00  0.00    -0.346 N 
ATOM    102  H51 ASN d   1      76.092 136.539 159.845  0.00  0.00     0.163 HD
BRANCH 101 103
ATOM    103  CA  ASN d   1      76.724 134.513 159.655  0.00  0.00     0.097 C 
ATOM    104  H52 ASN d   1      77.749 134.114 159.633  0.00  0.00     0.088 H 
BRANCH 103 105
ATOM    105  C   ASN d   1      75.911 133.802 158.565  0.00  0.00     0.241 C 
ATOM    106  O   ASN d   1      74.816 133.263 158.785  0.00  0.00    -0.271 OA
ATOM    107  N   VAL d   1      76.465 133.820 157.352  0.00  0.00    -0.346 N 
ATOM    108  H57 VAL d   1      77.377 134.215 157.246  0.00  0.00     0.163 HD
BRANCH 107 109
ATOM    109  CA  VAL d   1      75.791 133.285 156.174  0.00  0.00     0.092 C 
ATOM    110  H58 VAL d   1      74.954 132.657 156.513  0.00  0.00     0.088 H 
BRANCH 109 111
ATOM    111  C   VAL d   1      76.769 132.421 155.389  0.00  0.00     0.241 C 
ATOM    112  O   VAL d   1      77.990 132.544 155.509  0.00  0.00    -0.271 OA
ATOM    113  N   ASP d   1      76.208 131.538 154.577  0.00  0.00    -0.345 N 
ATOM    114  H66 ASP d   1      75.217 131.408 154.608  0.00  0.00     0.163 HD
BRANCH 113 115
ATOM    115  CA  ASP d   1      76.998 130.751 153.640  0.00  0.00     0.099 C 
ATOM    116  H67 ASP d   1      77.881 130.350 154.160  0.00  0.00     0.088 H 
BRANCH 115 117
ATOM    117  C   ASP d   1      77.461 131.644 152.491  0.00  0.00     0.243 C 
ATOM    118  O   ASP d   1      76.621 132.273 151.837  0.00  0.00    -0.271 OA
ATOM    119  N   PRO d   1      78.766 131.757 152.231  0.00  0.00    -0.337 N 
ATOM    120  CA  PRO d   1      79.224 132.505 151.051  0.00  0.00     0.091 C 
ATOM    121  CD  PRO d   1      79.897 131.252 153.034  0.00  0.00    -0.001 C 
ATOM    122  CB  PRO d   1      80.690 132.812 151.396  0.00  0.00    -0.036 C 
ATOM    123  H70 PRO d   1      78.647 133.436 150.949  0.00  0.00     0.087 H 
ATOM    124  CG  PRO d   1      81.112 131.659 152.246  0.00  0.00    -0.048 C 
ATOM    125  H71 PRO d   1      80.771 133.758 151.952  0.00  0.00     0.036 H 
ATOM    126  H72 PRO d   1      81.302 132.870 150.484  0.00  0.00     0.036 H 
ATOM    127  H73 PRO d   1      81.923 131.962 152.925  0.00  0.00     0.035 H 
ATOM    128  H74 PRO d   1      81.454 130.825 151.615  0.00  0.00     0.035 H 
ATOM    129  H75 PRO d   1      79.846 130.158 153.137  0.00  0.00     0.064 H 
ATOM    130  H76 PRO d   1      79.905 131.714 154.032  0.00  0.00     0.064 H 
BRANCH 120 131
ATOM    131  C   PRO d   1      79.121 131.732 149.744  0.00  0.00     0.241 C 
ATOM    132  O   PRO d   1      79.390 132.317 148.690  0.00  0.00    -0.271 OA
ATOM    133  N   ASN d   1      78.704 130.462 149.793  0.00  0.00    -0.344 N 
ATOM    134  H77 ASN d   1      78.339 130.131 150.663  0.00  0.00     0.163 HD
BRANCH 133 135
ATOM    135  CA  ASN d   1      78.740 129.511 148.666  0.00  0.00     0.104 C 
ATOM    136  H78 ASN d   1      78.175 128.617 148.966  0.00  0.00     0.090 H 
BRANCH 135 137
ATOM    137  C   ASN d   1      80.170 129.081 148.343  0.00  0.00     0.197 C 
ATOM    138  O   ASN d   1      80.520 127.897 148.460  0.00  0.00    -0.646 OA
ATOM    139  OXT ASN d   1      81.011 129.907 147.957  0.00  0.00    -0.646 OA
ENDBRANCH 135 137
BRANCH 135 140
ATOM    140  CB  ASN d   1      78.078 130.089 147.411  0.00  0.00     0.037 C 
ATOM    141  H79 ASN d   1      78.198 129.370 146.587  0.00  0.00     0.051 H 
ATOM    142  H80 ASN d   1      78.581 131.032 147.151  0.00  0.00     0.051 H 
BRANCH 140 143
ATOM    143  CG  ASN d   1      76.600 130.365 147.602  0.00  0.00     0.217 C 
ATOM    144  OD1 ASN d   1      76.148 130.641 148.708  0.00  0.00    -0.274 OA
ATOM    145  ND2 ASN d   1      75.836 130.283 146.519  0.00  0.00    -0.370 N 
ATOM    146  H81 ASN d   1      74.853 130.455 146.586  0.00  0.00     0.159 HD
ATOM    147  H82 ASN d   1      76.243 130.049 145.636  0.00  0.00     0.159 HD
ENDBRANCH 140 143
ENDBRANCH 135 140
ENDBRANCH 133 135
ENDBRANCH 120 131
ENDBRANCH 115 117
BRANCH 115 148
ATOM    148  CB  ASP d   1      76.162 129.584 153.110  0.00  0.00     0.043 C 
ATOM    149  H68 ASP d   1      75.329 129.991 152.518  0.00  0.00     0.052 H 
ATOM    150  H69 ASP d   1      75.763 129.022 153.967  0.00  0.00     0.052 H 
BRANCH 148 151
ATOM    151  CG  ASP d   1      76.955 128.631 152.235  0.00  0.00     0.175 C 
ATOM    152  OD1 ASP d   1      78.060 128.990 151.776  0.00  0.00    -0.648 OA
ATOM    153  OD2 ASP d   1      76.460 127.515 151.985  0.00  0.00    -0.648 OA
ENDBRANCH 148 151
ENDBRANCH 115 148
ENDBRANCH 113 115
ENDBRANCH 109 111
BRANCH 109 154
ATOM    154  CB  VAL d   1      75.221 134.389 155.254  0.00  0.00    -0.033 C 
ATOM    155  H59 VAL d   1      74.821 133.904 154.352  0.00  0.00     0.042 H 
BRANCH 154 156
ATOM    156  CG1 VAL d   1      74.079 135.139 155.924  0.00  0.00    -0.071 C 
ATOM    157  H60 VAL d   1      73.700 135.914 155.242  0.00  0.00     0.028 H 
ATOM    158  H61 VAL d   1      74.443 135.610 156.849  0.00  0.00     0.028 H 
ATOM    159  H62 VAL d   1      73.269 134.435 156.165  0.00  0.00     0.028 H 
ENDBRANCH 154 156
BRANCH 154 160
ATOM    160  CG2 VAL d   1      76.315 135.341 154.826  0.00  0.00    -0.071 C 
ATOM    161  H63 VAL d   1      77.126 134.775 154.346  0.00  0.00     0.028 H 
ATOM    162  H64 VAL d   1      76.708 135.868 155.708  0.00  0.00     0.028 H 
ATOM    163  H65 VAL d   1      75.906 136.072 154.113  0.00  0.00     0.028 H 
ENDBRANCH 154 160
ENDBRANCH 109 154
ENDBRANCH 107 109
ENDBRANCH 103 105
BRANCH 103 164
ATOM    164  CB  ASN d   1      76.140 134.262 161.036  0.00  0.00     0.036 C 
ATOM    165  H53 ASN d   1      75.046 134.357 160.977  0.00  0.00     0.051 H 
ATOM    166  H54 ASN d   1      76.537 135.019 161.728  0.00  0.00     0.051 H 
BRANCH 164 167
ATOM    167  CG  ASN d   1      76.478 132.888 161.576  0.00  0.00     0.217 C 
ATOM    168  OD1 ASN d   1      77.635 132.594 161.862  0.00  0.00    -0.274 OA
ATOM    169  ND2 ASN d   1      75.467 132.041 161.711  0.00  0.00    -0.370 N 
ATOM    170  H55 ASN d   1      75.630 131.119 162.063  0.00  0.00     0.159 HD
ATOM    171  H56 ASN d   1      74.541 132.324 161.461  0.00  0.00     0.159 HD
ENDBRANCH 164 167
ENDBRANCH 103 164
ENDBRANCH 101 103
ENDBRANCH  88  99
ENDBRANCH   1  85
BRANCH   1 172
ATOM    172  CB  ASN d   1      73.063 138.199 159.256  0.00  0.00     0.036 C 
ATOM    173  H40 ASN d   1      72.961 137.600 158.339  0.00  0.00     0.051 H 
ATOM    174  H41 ASN d   1      72.110 138.704 159.472  0.00  0.00     0.051 H 
BRANCH 172 175
ATOM    175  CG  ASN d   1      73.381 137.276 160.395  0.00  0.00     0.217 C 
ATOM    176  OD1 ASN d   1      74.513 137.193 160.864  0.00  0.00    -0.274 OA
ATOM    177  ND2 ASN d   1      72.370 136.536 160.830  0.00  0.00    -0.370 N 
ATOM    178  H42 ASN d   1      72.507 135.897 161.587  0.00  0.00     0.159 HD
ATOM    179  H43 ASN d   1      71.470 136.617 160.401  0.00  0.00     0.159 HD
ENDBRANCH 172 175
ENDBRANCH   1 172
TORSDOF 40
