REMARK WARNING: 32 MAX_TORS EXCEEDED!!!
REMARK  39 active torsions:
REMARK  status: ('A' for Active; 'I' for Inactive)
REMARK    1  A    between atoms: N_1  and  CA_2 
REMARK    2  A    between atoms: CA_2  and  C_3 
REMARK    3  A    between atoms: CA_2  and  CB_5 
REMARK       I    between atoms: C_3  and  N_6 
REMARK    4  A    between atoms: N_6  and  CA_7 
REMARK    5  A    between atoms: CA_7  and  C_8 
REMARK    6  A    between atoms: CA_7  and  CB_10 
REMARK       I    between atoms: C_8  and  N_14 
REMARK    7  A    between atoms: CB_10  and  CG_11 
REMARK       I    between atoms: CG_11  and  ND2_13 
REMARK    8  A    between atoms: CA_15  and  C_16 
REMARK       I    between atoms: C_16  and  N_21 
REMARK    9  A    between atoms: N_21  and  CA_22 
REMARK   10  A    between atoms: CA_22  and  C_23 
REMARK   11  A    between atoms: CA_22  and  CB_25 
REMARK       I    between atoms: C_23  and  N_29 
REMARK   12  A    between atoms: CB_25  and  CG_26 
REMARK       I    between atoms: CG_26  and  ND2_28 
REMARK   13  A    between atoms: N_29  and  CA_30 
REMARK   14  A    between atoms: CA_30  and  C_31 
REMARK   15  A    between atoms: CA_30  and  CB_33 
REMARK       I    between atoms: C_31  and  N_34 
REMARK   16  A    between atoms: N_34  and  CA_35 
REMARK   17  A    between atoms: CA_35  and  C_36 
REMARK   18  A    between atoms: CA_35  and  CB_38 
REMARK       I    between atoms: C_36  and  N_42 
REMARK   19  A    between atoms: CB_38  and  CG_39 
REMARK       I    between atoms: CG_39  and  ND2_41 
REMARK   20  A    between atoms: CA_43  and  C_44 
REMARK       I    between atoms: C_44  and  N_49 
REMARK   21  A    between atoms: N_49  and  CA_50 
REMARK   22  A    between atoms: CA_50  and  C_51 
REMARK   23  A    between atoms: CA_50  and  CB_53 
REMARK       I    between atoms: C_51  and  N_57 
REMARK   24  A    between atoms: CB_53  and  CG_54 
REMARK       I    between atoms: CG_54  and  ND2_56 
REMARK   25  A    between atoms: N_57  and  CA_58 
REMARK   26  A    between atoms: CA_58  and  C_59 
REMARK   27  A    between atoms: CA_58  and  CB_61 
REMARK       I    between atoms: C_59  and  N_62 
REMARK   28  A    between atoms: N_62  and  CA_63 
REMARK   29  A    between atoms: CA_63  and  C_64 
REMARK   30  A    between atoms: CA_63  and  CB_66 
REMARK       I    between atoms: C_64  and  N_70 
REMARK   31  A    between atoms: CB_66  and  CG_67 
REMARK       I    between atoms: CG_67  and  ND2_69 
REMARK   32  A    between atoms: CA_71  and  C_72 
REMARK       I    between atoms: C_72  and  N_77 
REMARK   33  A    between atoms: N_77  and  CA_78 
REMARK   34  A    between atoms: CA_78  and  C_79 
REMARK   35  A    between atoms: CA_78  and  CB_81 
REMARK       I    between atoms: C_79  and  N_85 
REMARK   36  A    between atoms: CB_81  and  CG_82 
REMARK       I    between atoms: CG_82  and  ND2_84 
REMARK   37  A    between atoms: N_85  and  CA_86 
REMARK   38  A    between atoms: CA_86  and  C_87 
REMARK   39  A    between atoms: CA_86  and  CB_89 
ROOT
ATOM      1  C   ASN d   1      -6.559  -5.839   9.298  0.00  0.00     0.243 C 
ATOM      2  O   ASN d   1      -6.477  -4.668   8.900  0.00  0.00    -0.271 OA
ATOM      3  N   PRO d   1      -6.914  -6.827   8.470  0.00  0.00    -0.337 N 
ATOM      4  CA  PRO d   1      -7.121  -6.541   7.042  0.00  0.00     0.091 C 
ATOM      5  CB  PRO d   1      -7.440  -7.924   6.454  0.00  0.00    -0.036 C 
ATOM      6  CG  PRO d   1      -7.954  -8.711   7.608  0.00  0.00    -0.048 C 
ATOM      7  CD  PRO d   1      -7.174  -8.241   8.790  0.00  0.00    -0.001 C 
ATOM      8  H38 PRO d   1      -6.195  -6.143   6.602  0.00  0.00     0.087 H 
ATOM      9  H39 PRO d   1      -6.533  -8.389   6.040  0.00  0.00     0.036 H 
ATOM     10  H40 PRO d   1      -8.204  -7.845   5.667  0.00  0.00     0.036 H 
ATOM     11  H41 PRO d   1      -7.791  -9.786   7.443  0.00  0.00     0.035 H 
ATOM     12  H42 PRO d   1      -9.027  -8.521   7.755  0.00  0.00     0.035 H 
ATOM     13  H43 PRO d   1      -7.761  -8.336   9.715  0.00  0.00     0.064 H 
ATOM     14  H44 PRO d   1      -6.234  -8.803   8.893  0.00  0.00     0.064 H 
ENDROOT
BRANCH   4  15
ATOM     15  C   PRO d   1      -8.239  -5.547   6.775  0.00  0.00     0.241 C 
ATOM     16  O   PRO d   1      -8.208  -4.854   5.747  0.00  0.00    -0.271 OA
ATOM     17  N   ASN d   1      -9.234  -5.466   7.661  0.00  0.00    -0.346 N 
ATOM     18  H45 ASN d   1      -9.226  -6.065   8.461  0.00  0.00     0.163 HD
BRANCH  17  19
ATOM     19  CA  ASN d   1     -10.330  -4.524   7.487  0.00  0.00     0.097 C 
ATOM     20  H46 ASN d   1     -10.609  -4.527   6.423  0.00  0.00     0.088 H 
BRANCH  19  21
ATOM     21  C   ASN d   1      -9.965  -3.100   7.876  0.00  0.00     0.241 C 
ATOM     22  O   ASN d   1     -10.714  -2.179   7.538  0.00  0.00    -0.271 OA
ATOM     23  N   ALA d   1      -8.862  -2.893   8.591  0.00  0.00    -0.346 N 
ATOM     24  H51 ALA d   1      -8.268  -3.665   8.818  0.00  0.00     0.163 HD
BRANCH  23  25
ATOM     25  CA  ALA d   1      -8.511  -1.556   9.047  0.00  0.00     0.086 C 
ATOM     26  H52 ALA d   1      -9.409  -1.090   9.479  0.00  0.00     0.086 H 
BRANCH  25  27
ATOM     27  C   ALA d   1      -8.031  -0.696   7.886  0.00  0.00     0.240 C 
ATOM     28  O   ALA d   1      -7.487  -1.190   6.895  0.00  0.00    -0.271 OA
ATOM     29  N   ASN d   1      -8.239   0.610   8.028  0.00  0.00    -0.346 N 
ATOM     30  H56 ASN d   1      -8.686   0.940   8.860  0.00  0.00     0.163 HD
BRANCH  29  31
ATOM     31  CA  ASN d   1      -7.840   1.575   7.017  0.00  0.00     0.097 C 
ATOM     32  H57 ASN d   1      -7.642   1.050   6.071  0.00  0.00     0.088 H 
BRANCH  31  33
ATOM     33  C   ASN d   1      -6.572   2.269   7.482  0.00  0.00     0.243 C 
ATOM     34  O   ASN d   1      -6.607   2.953   8.516  0.00  0.00    -0.271 OA
ATOM     35  N   PRO d   1      -5.437   2.122   6.795  0.00  0.00    -0.337 N 
ATOM     36  CA  PRO d   1      -4.210   2.768   7.286  0.00  0.00     0.091 C 
ATOM     37  CD  PRO d   1      -5.207   1.373   5.546  0.00  0.00    -0.001 C 
ATOM     38  CB  PRO d   1      -3.137   2.295   6.296  0.00  0.00    -0.036 C 
ATOM     39  H62 PRO d   1      -3.980   2.405   8.299  0.00  0.00     0.087 H 
ATOM     40  CG  PRO d   1      -3.882   1.886   5.076  0.00  0.00    -0.048 C 
ATOM     41  H63 PRO d   1      -2.579   1.442   6.711  0.00  0.00     0.036 H 
ATOM     42  H64 PRO d   1      -2.439   3.113   6.065  0.00  0.00     0.036 H 
ATOM     43  H65 PRO d   1      -3.335   1.095   4.543  0.00  0.00     0.035 H 
ATOM     44  H66 PRO d   1      -4.023   2.749   4.408  0.00  0.00     0.035 H 
ATOM     45  H67 PRO d   1      -5.995   1.585   4.809  0.00  0.00     0.064 H 
ATOM     46  H68 PRO d   1      -5.165   0.291   5.738  0.00  0.00     0.064 H 
BRANCH  36  47
ATOM     47  C   PRO d   1      -4.287   4.286   7.332  0.00  0.00     0.241 C 
ATOM     48  O   PRO d   1      -3.518   4.905   8.081  0.00  0.00    -0.271 OA
ATOM     49  N   ASN d   1      -5.187   4.900   6.563  0.00  0.00    -0.346 N 
ATOM     50  H69 ASN d   1      -5.817   4.340   6.025  0.00  0.00     0.163 HD
BRANCH  49  51
ATOM     51  CA  ASN d   1      -5.294   6.359   6.471  0.00  0.00     0.097 C 
ATOM     52  H70 ASN d   1      -4.280   6.783   6.431  0.00  0.00     0.088 H 
BRANCH  51  53
ATOM     53  C   ASN d   1      -6.004   6.938   7.702  0.00  0.00     0.241 C 
ATOM     54  O   ASN d   1      -6.981   7.679   7.608  0.00  0.00    -0.271 OA
ATOM     55  N   ALA d   1      -5.469   6.602   8.878  0.00  0.00    -0.345 N 
ATOM     56  H75 ALA d   1      -4.640   6.043   8.886  0.00  0.00     0.163 HD
BRANCH  55  57
ATOM     57  CA  ALA d   1      -6.049   7.020  10.159  0.00  0.00     0.093 C 
ATOM     58  H76 ALA d   1      -7.022   6.520  10.275  0.00  0.00     0.089 H 
BRANCH  57  59
ATOM     59  C   ALA d   1      -6.283   8.536  10.193  0.00  0.00     0.196 C 
ATOM     60  O   ALA d   1      -5.350   9.334  10.336  0.00  0.00    -0.646 OA
ATOM     61  OXT ALA d   1      -7.414   9.021  10.079  0.00  0.00    -0.646 OA
ENDBRANCH  57  59
BRANCH  57  62
ATOM     62  CB  ALA d   1      -5.147   6.591  11.318  0.00  0.00    -0.048 C 
ATOM     63  H77 ALA d   1      -5.596   6.912  12.270  0.00  0.00     0.030 H 
ATOM     64  H78 ALA d   1      -4.157   7.057  11.204  0.00  0.00     0.030 H 
ATOM     65  H79 ALA d   1      -5.040   5.496  11.313  0.00  0.00     0.030 H 
ENDBRANCH  57  62
ENDBRANCH  55  57
ENDBRANCH  51  53
BRANCH  51  66
ATOM     66  CB  ASN d   1      -6.022   6.725   5.182  0.00  0.00     0.036 C 
ATOM     67  H71 ASN d   1      -7.103   6.747   5.385  0.00  0.00     0.051 H 
ATOM     68  H72 ASN d   1      -5.807   5.954   4.428  0.00  0.00     0.051 H 
BRANCH  66  69
ATOM     69  CG  ASN d   1      -5.607   8.078   4.622  0.00  0.00     0.217 C 
ATOM     70  OD1 ASN d   1      -4.432   8.325   4.350  0.00  0.00    -0.274 OA
ATOM     71  ND2 ASN d   1      -6.583   8.953   4.416  0.00  0.00    -0.370 N 
ATOM     72  H73 ASN d   1      -6.373   9.859   4.049  0.00  0.00     0.159 HD
ATOM     73  H74 ASN d   1      -7.529   8.706   4.627  0.00  0.00     0.159 HD
ENDBRANCH  66  69
ENDBRANCH  51  66
ENDBRANCH  49  51
ENDBRANCH  36  47
ENDBRANCH  31  33
BRANCH  31  74
ATOM     74  CB  ASN d   1      -8.946   2.598   6.795  0.00  0.00     0.036 C 
ATOM     75  H58 ASN d   1      -9.074   3.182   7.718  0.00  0.00     0.051 H 
ATOM     76  H59 ASN d   1      -9.879   2.062   6.567  0.00  0.00     0.051 H 
BRANCH  74  77
ATOM     77  CG  ASN d   1      -8.646   3.556   5.653  0.00  0.00     0.217 C 
ATOM     78  OD1 ASN d   1      -7.496   3.726   5.250  0.00  0.00    -0.274 OA
ATOM     79  ND2 ASN d   1      -9.690   4.188   5.128  0.00  0.00    -0.370 N 
ATOM     80  H60 ASN d   1      -9.558   4.831   4.374  0.00  0.00     0.159 HD
ATOM     81  H61 ASN d   1     -10.608   4.020   5.487  0.00  0.00     0.159 HD
ENDBRANCH  74  77
ENDBRANCH  31  74
ENDBRANCH  29  31
ENDBRANCH  25  27
BRANCH  25  82
ATOM     82  CB  ALA d   1      -7.427  -1.622  10.127  0.00  0.00    -0.049 C 
ATOM     83  H53 ALA d   1      -7.176  -0.603  10.458  0.00  0.00     0.030 H 
ATOM     84  H54 ALA d   1      -6.529  -2.105   9.716  0.00  0.00     0.030 H 
ATOM     85  H55 ALA d   1      -7.798  -2.205  10.983  0.00  0.00     0.030 H 
ENDBRANCH  25  82
ENDBRANCH  23  25
ENDBRANCH  19  21
BRANCH  19  86
ATOM     86  CB  ASN d   1     -11.543  -4.958   8.312  0.00  0.00     0.036 C 
ATOM     87  H47 ASN d   1     -12.316  -4.179   8.238  0.00  0.00     0.051 H 
ATOM     88  H48 ASN d   1     -11.233  -5.069   9.362  0.00  0.00     0.051 H 
BRANCH  86  89
ATOM     89  CG  ASN d   1     -12.131  -6.268   7.840  0.00  0.00     0.217 C 
ATOM     90  OD1 ASN d   1     -12.223  -6.529   6.640  0.00  0.00    -0.274 OA
ATOM     91  ND2 ASN d   1     -12.538  -7.103   8.788  0.00  0.00    -0.370 N 
ATOM     92  H49 ASN d   1     -12.936  -7.986   8.539  0.00  0.00     0.159 HD
ATOM     93  H50 ASN d   1     -12.447  -6.849   9.751  0.00  0.00     0.159 HD
ENDBRANCH  86  89
ENDBRANCH  19  86
ENDBRANCH  17  19
ENDBRANCH   4  15
BRANCH   1  94
ATOM     94  CA  ASN d   1      -6.258  -6.156  10.758  0.00  0.00     0.097 C 
ATOM     95  H33 ASN d   1      -6.346  -7.242  10.912  0.00  0.00     0.088 H 
BRANCH  94  96
ATOM     96  N   ASN d   1      -4.895  -5.744  11.067  0.00  0.00    -0.346 N 
ATOM     97  C   ALA d   1      -3.856  -6.364  10.524  0.00  0.00     0.240 C 
ATOM     98  O   ALA d   1      -3.965  -7.400   9.856  0.00  0.00    -0.271 OA
ATOM     99  H32 ASN d   1      -4.741  -4.983  11.697  0.00  0.00     0.163 HD
BRANCH  97 100
ATOM    100  CA  ALA d   1      -2.501  -5.711  10.774  0.00  0.00     0.086 C 
ATOM    101  H28 ALA d   1      -2.526  -5.215  11.756  0.00  0.00     0.086 H 
BRANCH 100 102
ATOM    102  N   ALA d   1      -1.433  -6.699  10.782  0.00  0.00    -0.346 N 
ATOM    103  C   ASN d   1      -1.353  -7.640  11.720  0.00  0.00     0.241 C 
ATOM    104  O   ASN d   1      -2.159  -7.743  12.643  0.00  0.00    -0.271 OA
ATOM    105  H27 ALA d   1      -0.739  -6.670  10.062  0.00  0.00     0.163 HD
BRANCH 103 106
ATOM    106  CA  ASN d   1      -0.156  -8.579  11.565  0.00  0.00     0.097 C 
ATOM    107  H22 ASN d   1      -0.204  -9.028  10.562  0.00  0.00     0.088 H 
BRANCH 106 108
ATOM    108  N   ASN d   1       1.095  -7.831  11.678  0.00  0.00    -0.346 N 
ATOM    109  C   PRO d   1       1.717  -7.329  10.616  0.00  0.00     0.241 C 
ATOM    110  O   PRO d   1       1.248  -7.413   9.474  0.00  0.00    -0.271 OA
ATOM    111  H21 ASN d   1       1.496  -7.692  12.584  0.00  0.00     0.163 HD
BRANCH 109 112
ATOM    112  CA  PRO d   1       3.051  -6.640  10.820  0.00  0.00     0.091 C 
ATOM    113  N   PRO d   1       3.269  -6.157  12.193  0.00  0.00    -0.337 N 
ATOM    114  C   ASN d   1       2.562  -5.121  12.656  0.00  0.00     0.243 C 
ATOM    115  CD  PRO d   1       4.282  -6.959  12.902  0.00  0.00    -0.001 C 
ATOM    116  O   ASN d   1       1.673  -4.599  11.966  0.00  0.00    -0.271 OA
ATOM    117  CG  PRO d   1       4.506  -8.127  11.977  0.00  0.00    -0.048 C 
ATOM    118  H19 PRO d   1       3.905  -7.296  13.879  0.00  0.00     0.064 H 
ATOM    119  H20 PRO d   1       5.210  -6.386  13.045  0.00  0.00     0.064 H 
ATOM    120  CB  PRO d   1       4.212  -7.618  10.606  0.00  0.00    -0.036 C 
ATOM    121  H17 PRO d   1       5.548  -8.474  12.042  0.00  0.00     0.035 H 
ATOM    122  H18 PRO d   1       3.828  -8.954  12.233  0.00  0.00     0.035 H 
ATOM    123  H15 PRO d   1       5.087  -7.101  10.184  0.00  0.00     0.036 H 
ATOM    124  H16 PRO d   1       3.914  -8.440   9.938  0.00  0.00     0.036 H 
ATOM    125  H14 PRO d   1       3.119  -5.800  10.113  0.00  0.00     0.087 H 
BRANCH 114 126
ATOM    126  CA  ASN d   1       2.859  -4.605  14.064  0.00  0.00     0.097 C 
ATOM    127  H9  ASN d   1       2.686  -5.432  14.768  0.00  0.00     0.088 H 
BRANCH 126 128
ATOM    128  N   ASN d   1       4.242  -4.176  14.217  0.00  0.00    -0.346 N 
ATOM    129  C   ALA d   1       4.841  -3.334  13.378  0.00  0.00     0.248 C 
ATOM    130  O   ALA d   1       4.276  -2.863  12.397  0.00  0.00    -0.271 OA
ATOM    131  H8  ASN d   1       4.767  -4.531  14.990  0.00  0.00     0.163 HD
BRANCH 129 132
ATOM    132  CA  ALA d   1       6.290  -2.955  13.693  0.00  0.00     0.172 C 
ATOM    133  H4  ALA d   1       6.482  -1.956  13.274  0.00  0.00     0.098 H 
BRANCH 132 134
ATOM    134  N   ALA d   1       6.520  -2.897  15.130  0.00  0.00    -0.067 N 
ATOM    135  H1  ALA d   1       7.480  -2.646  15.307  0.00  0.00     0.275 HD
ATOM    136  H2  ALA d   1       6.328  -3.799  15.538  0.00  0.00     0.275 HD
ATOM    137  H3  ALA d   1       5.911  -2.206  15.540  0.00  0.00     0.275 HD
ENDBRANCH 132 134
BRANCH 132 138
ATOM    138  CB  ALA d   1       7.256  -3.942  13.043  0.00  0.00    -0.042 C 
ATOM    139  H5  ALA d   1       7.072  -3.976  11.959  0.00  0.00     0.030 H 
ATOM    140  H6  ALA d   1       7.102  -4.943  13.473  0.00  0.00     0.030 H 
ATOM    141  H7  ALA d   1       8.291  -3.619  13.229  0.00  0.00     0.030 H 
ENDBRANCH 132 138
ENDBRANCH 129 132
ENDBRANCH 126 128
BRANCH 126 142
ATOM    142  CB  ASN d   1       1.902  -3.469  14.422  0.00  0.00     0.036 C 
ATOM    143  H10 ASN d   1       0.870  -3.842  14.344  0.00  0.00     0.051 H 
ATOM    144  H11 ASN d   1       2.050  -2.647  13.706  0.00  0.00     0.051 H 
BRANCH 142 145
ATOM    145  CG  ASN d   1       2.118  -2.932  15.827  0.00  0.00     0.217 C 
ATOM    146  OD1 ASN d   1       1.715  -3.553  16.817  0.00  0.00    -0.274 OA
ATOM    147  ND2 ASN d   1       2.737  -1.756  15.919  0.00  0.00    -0.370 N 
ATOM    148  H12 ASN d   1       2.908  -1.350  16.817  0.00  0.00     0.159 HD
ATOM    149  H13 ASN d   1       3.030  -1.279  15.090  0.00  0.00     0.159 HD
ENDBRANCH 142 145
ENDBRANCH 126 142
ENDBRANCH 114 126
ENDBRANCH 109 112
ENDBRANCH 106 108
BRANCH 106 150
ATOM    150  CB  ASN d   1      -0.175  -9.706  12.589  0.00  0.00     0.036 C 
ATOM    151  H23 ASN d   1      -1.141 -10.229  12.525  0.00  0.00     0.051 H 
ATOM    152  H24 ASN d   1      -0.057  -9.275  13.594  0.00  0.00     0.051 H 
BRANCH 150 153
ATOM    153  CG  ASN d   1       0.940 -10.705  12.350  0.00  0.00     0.217 C 
ATOM    154  OD1 ASN d   1       1.563 -10.711  11.284  0.00  0.00    -0.274 OA
ATOM    155  ND2 ASN d   1       1.182 -11.570  13.322  0.00  0.00    -0.370 N 
ATOM    156  H25 ASN d   1       1.907 -12.251  13.216  0.00  0.00     0.159 HD
ATOM    157  H26 ASN d   1       0.640 -11.543  14.162  0.00  0.00     0.159 HD
ENDBRANCH 150 153
ENDBRANCH 106 150
ENDBRANCH 103 106
ENDBRANCH 100 102
BRANCH 100 158
ATOM    158  CB  ALA d   1      -2.234  -4.661   9.697  0.00  0.00    -0.049 C 
ATOM    159  H29 ALA d   1      -3.046  -3.919   9.699  0.00  0.00     0.030 H 
ATOM    160  H30 ALA d   1      -2.186  -5.149   8.713  0.00  0.00     0.030 H 
ATOM    161  H31 ALA d   1      -1.278  -4.158   9.904  0.00  0.00     0.030 H 
ENDBRANCH 100 158
ENDBRANCH  97 100
ENDBRANCH  94  96
BRANCH  94 162
ATOM    162  CB  ASN d   1      -7.246  -5.453  11.677  0.00  0.00     0.036 C 
ATOM    163  H34 ASN d   1      -6.958  -4.394  11.758  0.00  0.00     0.051 H 
ATOM    164  H35 ASN d   1      -7.197  -5.923  12.670  0.00  0.00     0.051 H 
BRANCH 162 165
ATOM    165  CG  ASN d   1      -8.674  -5.529  11.175  0.00  0.00     0.217 C 
ATOM    166  OD1 ASN d   1      -9.044  -6.441  10.443  0.00  0.00    -0.274 OA
ATOM    167  ND2 ASN d   1      -9.486  -4.561  11.569  0.00  0.00    -0.370 N 
ATOM    168  H36 ASN d   1     -10.440  -4.556  11.271  0.00  0.00     0.159 HD
ATOM    169  H37 ASN d   1      -9.145  -3.834  12.165  0.00  0.00     0.159 HD
ENDBRANCH 162 165
ENDBRANCH  94 162
ENDBRANCH   1  94
TORSDOF 39
