REMARK  20 active torsions:
REMARK  status: ('A' for Active; 'I' for Inactive)
REMARK    1  A    between atoms: CA_2  and  CB_5 
REMARK    2  A    between atoms: CB_5  and  CG_6 
REMARK    3  A    between atoms: CG_6  and  SD_7 
REMARK    4  A    between atoms: SD_7  and  CE_8 
REMARK    5  A    between atoms: CA_10  and  CB_11 
REMARK    6  A    between atoms: CB_11  and  OG_12 
REMARK    7  A    between atoms: OG_12  and  P_15 
REMARK    8  A    between atoms: CA_20  and  CB_23 
REMARK    9  A    between atoms: CB_23  and  CG1_24 
REMARK   10  A    between atoms: CB_23  and  CG2_25 
REMARK   11  A    between atoms: CG1_24  and  CD1_26 
REMARK   12  A    between atoms: CA_28  and  CB_31 
REMARK   13  A    between atoms: CB_31  and  CG_32 
REMARK   14  A    between atoms: CZ_37  and  OH_38 
REMARK   15  A    between atoms: OH_38  and  P_39 
REMARK   16  A    between atoms: CA_44  and  CB_47 
REMARK   17  A    between atoms: CB_47  and  CG1_48 
REMARK   18  A    between atoms: CB_47  and  CG2_49 
REMARK   19  A    between atoms: CA_51  and  CB_54 
REMARK   20  A    between atoms: C02_57  and  C03_58 
REMARK       I    between atoms: C03_58  and  N05_60 
ROOT
ATOM      1  N   MET d   1      54.984  30.051  46.868  0.00  0.00    -0.347 N 
ATOM      2  CA  MET d   1      54.004  31.110  46.715  0.00  0.00     0.090 C 
ATOM      3  C   MET d   1      54.611  32.418  47.269  0.00  0.00     0.241 C 
ATOM      4  O   MET d   1      55.795  32.452  47.628  0.00  0.00    -0.271 OA
ATOM      5  H1  MET d   1      55.220  29.740  47.789  0.00  0.00     0.163 HD
ATOM      6  H2  MET d   1      53.789  31.251  45.645  0.00  0.00     0.087 H 
ATOM      7  N   SEP d   1      53.830  33.494  47.318  0.00  0.00    -0.344 N 
ATOM      8  CA  SEP d   1      54.360  34.774  47.781  0.00  0.00     0.110 C 
ATOM      9  C   SEP d   1      54.986  34.742  49.191  0.00  0.00     0.243 C 
ATOM     10  O   SEP d   1      56.067  35.305  49.412  0.00  0.00    -0.271 OA
ATOM     11  H10 SEP d   1      52.873  33.426  47.036  0.00  0.00     0.163 HD
ATOM     12  H11 SEP d   1      55.186  35.024  47.099  0.00  0.00     0.090 H 
ATOM     13  N   ILE d   1      54.392  33.971  50.096  0.00  0.00    -0.346 N 
ATOM     14  CA  ILE d   1      54.898  33.860  51.462  0.00  0.00     0.092 C 
ATOM     15  C   ILE d   1      55.082  32.379  51.847  0.00  0.00     0.241 C 
ATOM     16  O   ILE d   1      56.087  31.997  52.440  0.00  0.00    -0.271 OA
ATOM     17  H14 ILE d   1      53.577  33.453  49.835  0.00  0.00     0.163 HD
ATOM     18  H15 ILE d   1      55.885  34.343  51.505  0.00  0.00     0.088 H 
ATOM     19  N   PTR d   1      54.109  31.546  51.524  0.00  0.00    -0.346 N 
ATOM     20  CA  PTR d   1      54.242  30.119  51.774  0.00  0.00     0.093 C 
ATOM     21  C   PTR d   1      55.374  29.619  50.851  0.00  0.00     0.241 C 
ATOM     22  O   PTR d   1      55.302  29.796  49.635  0.00  0.00    -0.271 OA
ATOM     23  H25 PTR d   1      53.273  31.899  51.104  0.00  0.00     0.163 HD
ATOM     24  H26 PTR d   1      54.506  29.939  52.826  0.00  0.00     0.088 H 
ATOM     25  N   VAL d   1      56.395  28.983  51.429  0.00  0.00    -0.346 N 
ATOM     26  CA  VAL d   1      57.555  28.518  50.657  0.00  0.00     0.092 C 
ATOM     27  C   VAL d   1      57.433  27.192  49.887  0.00  0.00     0.241 C 
ATOM     28  O   VAL d   1      57.965  27.055  48.776  0.00  0.00    -0.271 OA
ATOM     29  H33 VAL d   1      56.370  28.818  52.415  0.00  0.00     0.163 HD
ATOM     30  H34 VAL d   1      57.713  29.289  49.888  0.00  0.00     0.088 H 
ATOM     31  N   ALA d   1      56.729  26.228  50.466  0.00  0.00    -0.346 N 
ATOM     32  CA  ALA d   1      56.563  24.925  49.837  0.00  0.00     0.086 C 
ATOM     33  C   ALA d   1      55.542  25.009  48.709  0.00  0.00     0.240 C 
ATOM     34  O   ALA d   1      54.380  25.339  48.948  0.00  0.00    -0.271 OA
ATOM     35  H42 ALA d   1      56.303  26.400  51.354  0.00  0.00     0.163 HD
ATOM     36  H43 ALA d   1      57.528  24.603  49.419  0.00  0.00     0.086 H 
ATOM     37  O10 48V d   1      55.318  29.792  44.663  0.00  0.00    -0.273 OA
ATOM     38  N01 48V d   1      55.974  24.734  47.482  0.00  0.00    -0.345 N 
ATOM     39  C02 48V d   1      55.075  24.770  46.332  0.00  0.00     0.097 C 
ATOM     40  C06 48V d   1      54.829  26.219  45.894  0.00  0.00     0.004 C 
ATOM     41  S07 48V d   1      56.308  26.907  45.154  0.00  0.00    -0.157 SA
ATOM     42  C08 48V d   1      56.575  28.384  46.164  0.00  0.00     0.051 C 
ATOM     43  C09 48V d   1      55.576  29.483  45.831  0.00  0.00     0.227 C 
ATOM     44  H47 48V d   1      56.936  24.497  47.344  0.00  0.00     0.163 HD
ATOM     45  H48 48V d   1      54.114  24.327  46.632  0.00  0.00     0.088 H 
ATOM     46  H51 48V d   1      54.549  26.820  46.772  0.00  0.00     0.052 H 
ATOM     47  H52 48V d   1      54.011  26.241  45.158  0.00  0.00     0.052 H 
ATOM     48  H53 48V d   1      57.593  28.761  45.983  0.00  0.00     0.063 H 
ATOM     49  H54 48V d   1      56.468  28.114  47.225  0.00  0.00     0.063 H 
ENDROOT
BRANCH  20  50
ATOM     50  CB  PTR d   1      52.921  29.414  51.454  0.00  0.00    -0.014 C 
ATOM     51  H27 PTR d   1      53.139  28.380  51.149  0.00  0.00     0.043 H 
ATOM     52  H28 PTR d   1      52.430  29.945  50.625  0.00  0.00     0.043 H 
BRANCH  50  53
ATOM     53  CG  PTR d   1      51.987  29.383  52.623  0.00  0.00    -0.056 A 
ATOM     54  CD1 PTR d   1      50.948  30.311  52.746  0.00  0.00    -0.074 A 
ATOM     55  CE1 PTR d   1      50.053  30.248  53.829  0.00  0.00    -0.050 A 
ATOM     56  H29 PTR d   1      50.831  31.087  51.998  0.00  0.00     0.084 H 
ATOM     57  CZ  PTR d   1      50.209  29.243  54.789  0.00  0.00     0.082 A 
ATOM     58  H31 PTR d   1      49.250  30.971  53.919  0.00  0.00     0.087 H 
ATOM     59  CE2 PTR d   1      51.249  28.328  54.683  0.00  0.00    -0.050 A 
ATOM     60  CD2 PTR d   1      52.124  28.400  53.606  0.00  0.00    -0.074 A 
ATOM     61  H32 PTR d   1      51.377  27.561  55.438  0.00  0.00     0.087 H 
ATOM     62  H30 PTR d   1      52.929  27.679  53.527  0.00  0.00     0.084 H 
BRANCH  57  63
ATOM     63  OH  PTR d   1      49.298  29.102  55.815  0.00  0.00    -0.240 OA
BRANCH  63  64
ATOM     64  P   PTR d   1      49.322  30.018  57.142  0.00  0.00     0.427 P 
ATOM     65  O1P PTR d   1      49.224  31.487  56.918  0.00  0.00    -0.617 OA
ATOM     66  O2P PTR d   1      48.553  29.481  58.289  0.00  0.00    -0.617 OA
ATOM     67  O3P PTR d   1      50.840  29.867  57.646  0.00  0.00    -0.617 OA
ENDBRANCH  63  64
ENDBRANCH  57  63
ENDBRANCH  50  53
ENDBRANCH  20  50
BRANCH  14  68
ATOM     68  CB  ILE d   1      53.961  34.610  52.429  0.00  0.00    -0.030 C 
ATOM     69  H16 ILE d   1      52.944  34.202  52.331  0.00  0.00     0.043 H 
BRANCH  68  70
ATOM     70  CG1 ILE d   1      53.947  36.090  52.033  0.00  0.00    -0.063 C 
ATOM     71  H17 ILE d   1      54.013  36.156  50.937  0.00  0.00     0.033 H 
ATOM     72  H18 ILE d   1      54.825  36.577  52.483  0.00  0.00     0.033 H 
BRANCH  70  73
ATOM     73  CD1 ILE d   1      52.749  36.810  52.466  0.00  0.00    -0.076 C 
ATOM     74  H22 ILE d   1      52.816  37.860  52.145  0.00  0.00     0.027 H 
ATOM     75  H23 ILE d   1      52.671  36.766  53.562  0.00  0.00     0.027 H 
ATOM     76  H24 ILE d   1      51.859  36.345  52.016  0.00  0.00     0.027 H 
ENDBRANCH  70  73
ENDBRANCH  68  70
BRANCH  68  77
ATOM     77  CG2 ILE d   1      54.411  34.441  53.870  0.00  0.00    -0.071 C 
ATOM     78  H19 ILE d   1      54.413  33.372  54.130  0.00  0.00     0.028 H 
ATOM     79  H20 ILE d   1      53.720  34.979  54.535  0.00  0.00     0.028 H 
ATOM     80  H21 ILE d   1      55.426  34.849  53.987  0.00  0.00     0.028 H 
ENDBRANCH  68  77
ENDBRANCH  14  68
BRANCH  26  81
ATOM     81  CB  VAL d   1      58.837  28.487  51.531  0.00  0.00    -0.033 C 
ATOM     82  H35 VAL d   1      59.706  28.322  50.877  0.00  0.00     0.042 H 
BRANCH  81  83
ATOM     83  CG1 VAL d   1      59.008  29.831  52.254  0.00  0.00    -0.071 C 
ATOM     84  H36 VAL d   1      59.918  29.802  52.871  0.00  0.00     0.028 H 
ATOM     85  H37 VAL d   1      58.135  30.015  52.897  0.00  0.00     0.028 H 
ATOM     86  H38 VAL d   1      59.094  30.638  51.512  0.00  0.00     0.028 H 
ENDBRANCH  81  83
BRANCH  81  87
ATOM     87  CG2 VAL d   1      58.772  27.357  52.547  0.00  0.00    -0.071 C 
ATOM     88  H39 VAL d   1      58.650  26.398  52.022  0.00  0.00     0.028 H 
ATOM     89  H40 VAL d   1      57.917  27.518  53.220  0.00  0.00     0.028 H 
ATOM     90  H41 VAL d   1      59.702  27.337  53.134  0.00  0.00     0.028 H 
ENDBRANCH  81  87
ENDBRANCH  26  81
BRANCH   8  91
ATOM     91  CB  SEP d   1      53.310  35.883  47.610  0.00  0.00     0.059 C 
ATOM     92  H12 SEP d   1      53.037  35.948  46.547  0.00  0.00     0.079 H 
ATOM     93  H13 SEP d   1      53.750  36.837  47.935  0.00  0.00     0.079 H 
BRANCH  91  94
ATOM     94  OG  SEP d   1      52.125  35.642  48.373  0.00  0.00    -0.280 OA
BRANCH  94  95
ATOM     95  P   SEP d   1      50.805  34.947  47.712  0.00  0.00     0.422 P 
ATOM     96  O1P SEP d   1      51.045  33.890  46.746  0.00  0.00    -0.617 OA
ATOM     97  O2P SEP d   1      49.698  34.695  48.659  0.00  0.00    -0.617 OA
ATOM     98  O3P SEP d   1      50.171  36.116  46.783  0.00  0.00    -0.617 OA
ENDBRANCH  94  95
ENDBRANCH  91  94
ENDBRANCH   8  91
BRANCH  32  99
ATOM     99  CB  ALA d   1      56.115  23.917  50.882  0.00  0.00    -0.049 C 
ATOM    100  H44 ALA d   1      55.989  22.931  50.410  0.00  0.00     0.030 H 
ATOM    101  H45 ALA d   1      55.158  24.241  51.317  0.00  0.00     0.030 H 
ATOM    102  H46 ALA d   1      56.874  23.849  51.675  0.00  0.00     0.030 H 
ENDBRANCH  32  99
BRANCH   2 103
ATOM    103  CB  MET d   1      52.700  30.711  47.417  0.00  0.00    -0.030 C 
ATOM    104  H3  MET d   1      52.030  31.584  47.420  0.00  0.00     0.037 H 
ATOM    105  H4  MET d   1      52.940  30.429  48.453  0.00  0.00     0.037 H 
BRANCH 103 106
ATOM    106  CG  MET d   1      51.950  29.527  46.754  0.00  0.00    -0.021 C 
ATOM    107  H5  MET d   1      51.206  29.145  47.468  0.00  0.00     0.049 H 
ATOM    108  H6  MET d   1      52.681  28.737  46.528  0.00  0.00     0.049 H 
BRANCH 106 109
ATOM    109  SD  MET d   1      51.060  29.985  45.160  0.00  0.00    -0.173 SA
BRANCH 109 110
ATOM    110  CE  MET d   1      51.332  28.490  44.105  0.00  0.00    -0.035 C 
ATOM    111  H7  MET d   1      50.850  28.638  43.128  0.00  0.00     0.041 H 
ATOM    112  H8  MET d   1      50.897  27.609  44.599  0.00  0.00     0.041 H 
ATOM    113  H9  MET d   1      52.411  28.334  43.961  0.00  0.00     0.041 H 
ENDBRANCH 109 110
ENDBRANCH 106 109
ENDBRANCH 103 106
ENDBRANCH   2 103
BRANCH  39 114
ATOM    114  C03 48V d   1      55.639  23.953  45.152  0.00  0.00     0.239 C 
ATOM    115  O04 48V d   1      55.002  23.851  44.100  0.00  0.00    -0.271 OA
ATOM    116  N05 48V d   1      56.909  23.601  45.242  0.00  0.00    -0.368 N 
ATOM    117  H49 48V d   1      57.334  23.070  44.509  0.00  0.00     0.159 HD
ATOM    118  H50 48V d   1      57.446  23.866  46.043  0.00  0.00     0.159 HD
ENDBRANCH  39 114
TORSDOF 20
