REMARK  6 active torsions:
REMARK  status: ('A' for Active; 'I' for Inactive)
REMARK    1  A    between atoms: C1_1  and  N19_16 
REMARK    2  A    between atoms: C18_8  and  C12_3 
REMARK    3  A    between atoms: C14_5  and  C17_7 
REMARK    4  A    between atoms: N11_14  and  C16_6 
REMARK    5  A    between atoms: N19_16  and  C18_8 
REMARK    6  A    between atoms: C7_11  and  C10_9 
ROOT
ATOM      1  N19 CWP d   1      38.334  99.771 193.460  0.00  0.00    -0.218 N 
ATOM      2  H15 CWP d   1      38.172 100.256 194.354  0.00  0.00     0.178 HD
ENDROOT
BRANCH   1   3
ATOM      3  C1  CWP d   1      37.348  99.632 192.618  0.00  0.00     0.703 A 
ATOM      4  N2  CWP d   1      36.260 100.273 192.718  0.00  0.00    -0.043 NA
ATOM      5  C3  CWP d   1      35.437  99.924 191.718  0.00  0.00     0.196 A 
ATOM      6  C4  CWP d   1      36.159  98.997 190.979  0.00  0.00     0.097 A 
ATOM      7  N6  CWP d   1      34.201 100.291 191.393  0.00  0.00    -0.232 NA
ATOM      8  C9  CWP d   1      35.633  98.396 189.838  0.00  0.00    -0.051 A 
ATOM      9  N5  CWP d   1      37.362  98.847 191.571  0.00  0.00    -0.186 N 
ATOM     10  C8  CWP d   1      34.335  98.798 189.514  0.00  0.00    -0.057 A 
ATOM     11  H14 CWP d   1      36.187  97.674 189.249  0.00  0.00     0.087 H 
ATOM     12  C7  CWP d   1      33.652  99.746 190.288  0.00  0.00     0.033 A 
ATOM     13  H13 CWP d   1      33.846  98.368 188.647  0.00  0.00     0.086 H 
ATOM     14  H16 CWP d   1      38.134  98.239 191.262  0.00  0.00     0.184 HD
BRANCH  12  15
ATOM     15  C10 CWP d   1      32.243 100.206 189.944  0.00  0.00    -0.035 C 
ATOM     16  H10 CWP d   1      31.904  99.697 189.030  0.00  0.00     0.035 H 
ATOM     17  H11 CWP d   1      32.242 101.294 189.779  0.00  0.00     0.035 H 
ATOM     18  H12 CWP d   1      31.564  99.960 190.774  0.00  0.00     0.035 H 
ENDBRANCH  12  15
ENDBRANCH   1   3
BRANCH   1  19
ATOM     19  C18 CWP d   1      39.663  99.251 193.156  0.00  0.00     0.049 C 
ATOM     20  H8  CWP d   1      40.272  99.246 194.072  0.00  0.00     0.074 H 
ATOM     21  H9  CWP d   1      39.575  98.225 192.769  0.00  0.00     0.074 H 
BRANCH  19  22
ATOM     22  C12 CWP d   1      40.321 100.120 192.123  0.00  0.00     0.050 A 
ATOM     23  C13 CWP d   1      39.939 101.359 191.776  0.00  0.00    -0.033 A 
ATOM     24  C14 CWP d   1      40.903 101.767 190.750  0.00  0.00     0.053 A 
ATOM     25  H1  CWP d   1      39.101 101.933 192.169  0.00  0.00     0.089 H 
ATOM     26  N15 CWP d   1      41.708 100.808 190.610  0.00  0.00    -0.178 NA
ATOM     27  N11 CWP d   1      41.384  99.796 191.431  0.00  0.00    -0.276 N 
BRANCH  24  28
ATOM     28  C17 CWP d   1      40.961 103.063 189.995  0.00  0.00    -0.034 C 
ATOM     29  H5  CWP d   1      41.811 103.043 189.297  0.00  0.00     0.035 H 
ATOM     30  H6  CWP d   1      41.088 103.895 190.703  0.00  0.00     0.035 H 
ATOM     31  H7  CWP d   1      40.027 103.201 189.431  0.00  0.00     0.035 H 
ENDBRANCH  24  28
BRANCH  27  32
ATOM     32  C16 CWP d   1      42.118  98.545 191.513  0.00  0.00     0.003 C 
ATOM     33  H2  CWP d   1      42.963  98.569 190.809  0.00  0.00     0.059 H 
ATOM     34  H3  CWP d   1      41.450  97.710 191.255  0.00  0.00     0.059 H 
ATOM     35  H4  CWP d   1      42.497  98.409 192.537  0.00  0.00     0.059 H 
ENDBRANCH  27  32
ENDBRANCH  19  22
ENDBRANCH   1  19
TORSDOF 6
