REMARK  4 active torsions:
REMARK  status: ('A' for Active; 'I' for Inactive)
REMARK    1  A    between atoms: C9_15  and  C12_4 
REMARK    2  A    between atoms: C9_15  and  C13_5 
REMARK    3  A    between atoms: C18_8  and  C19_9 
REMARK    4  A    between atoms: C10_10  and  N14_18 
ROOT
ATOM      1  C1  CWA d   1      12.106 164.626 300.991  0.00  0.00    -0.082 A 
ATOM      2  C2  CWA d   1      11.007 165.495 300.866  0.00  0.00    -0.082 A 
ATOM      3  C3  CWA d   1       9.830 165.225 301.582  0.00  0.00    -0.067 A 
ATOM      4  C10 CWA d   1      10.751 162.079 303.537  0.00  0.00     0.074 C 
ATOM      5  C4  CWA d   1      12.055 163.506 301.835  0.00  0.00    -0.074 A 
ATOM      6  C5  CWA d   1      10.881 163.258 302.563  0.00  0.00    -0.016 A 
ATOM      7  C6  CWA d   1       9.782 164.107 302.428  0.00  0.00     0.048 A 
ATOM      8  C7  CWA d   1       8.556 163.798 303.249  0.00  0.00     0.294 C 
ATOM      9  C9  CWA d   1       9.279 161.564 303.555  0.00  0.00     0.089 C 
ATOM     10  O11 CWA d   1       7.726 164.670 303.393  0.00  0.00    -0.259 OA
ATOM     11  O8  CWA d   1       8.352 162.627 303.865  0.00  0.00    -0.304 OA
ATOM     12  H1  CWA d   1      13.009 164.825 300.425  0.00  0.00     0.083 H 
ATOM     13  H2  CWA d   1      11.068 166.365 300.223  0.00  0.00     0.083 H 
ATOM     14  H3  CWA d   1       8.967 165.874 301.482  0.00  0.00     0.085 H 
ATOM     15  H13 CWA d   1      11.414 161.256 303.231  0.00  0.00     0.085 H 
ATOM     16  H14 CWA d   1      12.908 162.843 301.923  0.00  0.00     0.084 H 
ENDROOT
BRANCH   4  17
ATOM     17  N14 CWA d   1      11.173 162.600 304.846  0.00  0.00    -0.327 N 
ATOM     18  C15 CWA d   1      10.964 163.798 305.320  0.00  0.00     0.067 A 
ATOM     19  N16 CWA d   1      11.465 163.907 306.464  0.00  0.00    -0.254 NA
ATOM     20  H10 CWA d   1      10.431 164.590 304.796  0.00  0.00     0.143 H 
ATOM     21  C17 CWA d   1      12.094 162.671 306.844  0.00  0.00     0.031 A 
ATOM     22  C18 CWA d   1      11.851 161.936 305.743  0.00  0.00     0.095 A 
ATOM     23  H11 CWA d   1      12.618 162.405 307.761  0.00  0.00     0.118 H 
BRANCH  22  24
ATOM     24  C19 CWA d   1      12.258 160.511 305.536  0.00  0.00     0.249 C 
ATOM     25  F20 CWA d   1      13.239 160.430 304.571  0.00  0.00    -0.207 F 
ATOM     26  F21 CWA d   1      12.571 159.992 306.751  0.00  0.00    -0.207 F 
ATOM     27  H12 CWA d   1      11.390 159.952 305.155  0.00  0.00     0.155 H 
ENDBRANCH  22  24
ENDBRANCH   4  17
BRANCH   9  28
ATOM     28  C12 CWA d   1       9.033 160.532 304.685  0.00  0.00    -0.045 C 
ATOM     29  H4  CWA d   1       7.985 160.200 304.656  0.00  0.00     0.031 H 
ATOM     30  H5  CWA d   1       9.244 160.998 305.659  0.00  0.00     0.031 H 
ATOM     31  H6  CWA d   1       9.696 159.666 304.541  0.00  0.00     0.031 H 
ENDBRANCH   9  28
BRANCH   9  32
ATOM     32  C13 CWA d   1       8.871 160.930 302.184  0.00  0.00    -0.045 C 
ATOM     33  H7  CWA d   1       9.043 161.658 301.378  0.00  0.00     0.031 H 
ATOM     34  H8  CWA d   1       7.806 160.656 302.209  0.00  0.00     0.031 H 
ATOM     35  H9  CWA d   1       9.477 160.030 302.001  0.00  0.00     0.031 H 
ENDBRANCH   9  32
TORSDOF 4
