REMARK  4 active torsions:
REMARK  status: ('A' for Active; 'I' for Inactive)
REMARK    1  A    between atoms: C9_16  and  C12_4 
REMARK    2  A    between atoms: C9_16  and  C13_5 
REMARK    3  A    between atoms: C18_8  and  C19_9 
REMARK    4  A    between atoms: C10_11  and  N14_17 
ROOT
ATOM      1  C1  CW4 d   1      29.144 123.684 165.809  0.00  0.00    -0.082 A 
ATOM      2  C2  CW4 d   1      29.977 124.790 165.604  0.00  0.00    -0.082 A 
ATOM      3  C3  CW4 d   1      29.772 125.968 166.340  0.00  0.00    -0.067 A 
ATOM      4  C10 CW4 d   1      26.780 125.097 168.544  0.00  0.00     0.074 C 
ATOM      5  C4  CW4 d   1      28.112 123.792 166.755  0.00  0.00    -0.074 A 
ATOM      6  C5  CW4 d   1      27.903 124.966 167.494  0.00  0.00    -0.016 A 
ATOM      7  C6  CW4 d   1      28.743 126.059 167.279  0.00  0.00     0.048 A 
ATOM      8  C7  CW4 d   1      28.491 127.317 168.079  0.00  0.00     0.294 C 
ATOM      9  C9  CW4 d   1      26.250 126.567 168.550  0.00  0.00     0.089 C 
ATOM     10  O11 CW4 d   1      29.377 128.142 168.249  0.00  0.00    -0.259 OA
ATOM     11  O8  CW4 d   1      27.293 127.581 168.620  0.00  0.00    -0.304 OA
ATOM     12  H1  CW4 d   1      29.292 122.766 165.251  0.00  0.00     0.083 H 
ATOM     13  H2  CW4 d   1      30.780 124.737 164.877  0.00  0.00     0.083 H 
ATOM     14  H3  CW4 d   1      30.422 126.820 166.177  0.00  0.00     0.085 H 
ATOM     15  H15 CW4 d   1      25.950 124.435 168.257  0.00  0.00     0.085 H 
ATOM     16  H16 CW4 d   1      27.458 122.944 166.919  0.00  0.00     0.084 H 
ENDROOT
BRANCH   4  17
ATOM     17  N14 CW4 d   1      27.272 124.664 169.869  0.00  0.00    -0.328 N 
ATOM     18  C15 CW4 d   1      28.511 124.863 170.213  0.00  0.00     0.067 A 
ATOM     19  N16 CW4 d   1      28.747 124.420 171.363  0.00  0.00    -0.254 NA
ATOM     20  H10 CW4 d   1      29.251 125.353 169.582  0.00  0.00     0.143 H 
ATOM     21  C17 CW4 d   1      27.552 123.839 171.899  0.00  0.00     0.029 A 
ATOM     22  C18 CW4 d   1      26.658 124.024 170.886  0.00  0.00     0.052 A 
ATOM     23  H11 CW4 d   1      27.397 123.369 172.869  0.00  0.00     0.118 H 
BRANCH  22  24
ATOM     24  C19 CW4 d   1      25.241 123.564 171.009  0.00  0.00    -0.065 C 
ATOM     25  C20 CW4 d   1      24.276 123.542 170.073  0.00  0.00    -0.119 C 
ATOM     26  H13 CW4 d   1      23.283 123.173 170.324  0.00  0.00     0.066 H 
ATOM     27  H14 CW4 d   1      24.488 123.894 169.064  0.00  0.00     0.066 H 
ATOM     28  H12 CW4 d   1      24.950 123.196 171.992  0.00  0.00     0.085 H 
ENDBRANCH  22  24
ENDBRANCH   4  17
BRANCH   9  29
ATOM     29  C12 CW4 d   1      25.364 126.834 169.798  0.00  0.00    -0.045 C 
ATOM     30  H4  CW4 d   1      25.005 127.874 169.777  0.00  0.00     0.031 H 
ATOM     31  H5  CW4 d   1      25.956 126.669 170.710  0.00  0.00     0.031 H 
ATOM     32  H6  CW4 d   1      24.503 126.149 169.790  0.00  0.00     0.031 H 
ENDBRANCH   9  29
BRANCH   9  33
ATOM     33  C13 CW4 d   1      25.353 126.811 167.301  0.00  0.00    -0.045 C 
ATOM     34  H7  CW4 d   1      25.940 126.633 166.388  0.00  0.00     0.031 H 
ATOM     35  H8  CW4 d   1      24.990 127.849 167.307  0.00  0.00     0.031 H 
ATOM     36  H9  CW4 d   1      24.495 126.123 167.325  0.00  0.00     0.031 H 
ENDBRANCH   9  33
TORSDOF 4
