REMARK  6 active torsions:
REMARK  status: ('A' for Active; 'I' for Inactive)
REMARK    1  A    between atoms: C5_4  and  C16_20 
REMARK    2  A    between atoms: N4_30  and  C9_7 
REMARK    3  A    between atoms: C1_25  and  C_26 
REMARK    4  A    between atoms: C7_28  and  N3_27 
REMARK    5  A    between atoms: C8_29  and  C7_28 
REMARK    6  A    between atoms: C8_29  and  N4_30 
ROOT
ATOM      1  C9  65C d   1      -2.059  39.084  20.832  0.00  0.00     0.123 A 
ATOM      2  C10 65C d   1      -1.642  36.952  20.101  0.00  0.00     0.024 A 
ATOM      3  C11 65C d   1      -1.935  37.289  18.782  0.00  0.00     0.062 A 
ATOM      4  C12 65C d   1      -2.305  38.602  18.486  0.00  0.00    -0.058 A 
ATOM      5  C13 65C d   1      -2.371  39.526  19.507  0.00  0.00    -0.037 A 
ATOM      6  C14 65C d   1      -1.852  36.319  17.776  0.00  0.00     0.101 C 
ATOM      7  N5  65C d   1      -1.704  37.802  21.111  0.00  0.00    -0.242 NA
ATOM      8  N6  65C d   1      -1.780  35.525  16.945  0.00  0.00    -0.191 NA
ATOM      9  H2  65C d   1      -1.345  35.931  20.312  0.00  0.00     0.117 H 
ATOM     10  H3  65C d   1      -2.537  38.891  17.467  0.00  0.00     0.086 H 
ATOM     11  H4  65C d   1      -2.651  40.555  19.312  0.00  0.00     0.089 H 
ENDROOT
BRANCH   1  12
ATOM     12  N4  65C d   1      -2.099  39.943  21.886  0.00  0.00    -0.373 N 
ATOM     13  H18 65C d   1      -1.883  39.580  22.825  0.00  0.00     0.161 HD
BRANCH  12  14
ATOM     14  C8  65C d   1      -2.424  41.310  21.749  0.00  0.00     0.009 C 
ATOM     15  H16 65C d   1      -3.309  41.410  21.104  0.00  0.00     0.066 H 
ATOM     16  H17 65C d   1      -2.643  41.733  22.741  0.00  0.00     0.066 H 
BRANCH  14  17
ATOM     17  C7  65C d   1      -1.245  42.074  21.118  0.00  0.00     0.024 C 
ATOM     18  H14 65C d   1      -0.384  42.042  21.802  0.00  0.00     0.067 H 
ATOM     19  H15 65C d   1      -0.973  41.599  20.164  0.00  0.00     0.067 H 
BRANCH  17  20
ATOM     20  N3  65C d   1      -1.599  43.399  20.887  0.00  0.00    -0.221 N 
ATOM     21  C6  65C d   1      -1.941  43.805  19.657  0.00  0.00     0.722 A 
ATOM     22  N7  65C d   1      -2.230  45.046  19.565  0.00  0.00    -0.074 NA
ATOM     23  N2  65C d   1      -1.940  42.925  18.694  0.00  0.00    -0.061 NA
ATOM     24  C15 65C d   1      -2.553  45.485  18.419  0.00  0.00     0.037 A 
ATOM     25  C4  65C d   1      -2.613  44.724  17.329  0.00  0.00     0.058 A 
ATOM     26  H8  65C d   1      -2.793  46.538  18.323  0.00  0.00     0.117 H 
ATOM     27  C3  65C d   1      -2.999  45.274  16.071  0.00  0.00     0.141 A 
ATOM     28  C5  65C d   1      -2.268  43.331  17.497  0.00  0.00     0.103 A 
ATOM     29  N   65C d   1      -2.367  45.060  14.883  0.00  0.00    -0.240 NA
ATOM     30  N1  65C d   1      -4.089  46.100  15.914  0.00  0.00    -0.343 N 
ATOM     31  C2  65C d   1      -3.074  45.791  13.925  0.00  0.00     0.026 A 
ATOM     32  C1  65C d   1      -4.117  46.409  14.604  0.00  0.00     0.024 A 
ATOM     33  H1  65C d   1      -2.852  45.862  12.861  0.00  0.00     0.117 H 
ATOM     34  H9  65C d   1      -4.744  46.415  16.644  0.00  0.00     0.167 HD
ATOM     35  H13 65C d   1      -1.598  44.072  21.666  0.00  0.00     0.177 HD
BRANCH  32  36
ATOM     36  C   65C d   1      -5.126  47.293  14.057  0.00  0.00    -0.036 C 
ATOM     37  H10 65C d   1      -4.965  47.408  12.975  0.00  0.00     0.035 H 
ATOM     38  H11 65C d   1      -5.056  48.276  14.545  0.00  0.00     0.035 H 
ATOM     39  H12 65C d   1      -6.124  46.865  14.235  0.00  0.00     0.035 H 
ENDBRANCH  32  36
BRANCH  28  40
ATOM     40  C16 65C d   1      -2.244  42.264  16.442  0.00  0.00     0.016 A 
ATOM     41  C21 65C d   1      -1.043  41.668  16.159  0.00  0.00    -0.068 A 
ATOM     42  C20 65C d   1      -0.971  40.687  15.206  0.00  0.00    -0.061 A 
ATOM     43  H5  65C d   1      -0.149  41.973  16.690  0.00  0.00     0.085 H 
ATOM     44  C19 65C d   1      -2.130  40.315  14.533  0.00  0.00     0.035 A 
ATOM     45  H7  65C d   1      -0.025  40.208  14.980  0.00  0.00     0.086 H 
ATOM     46 CL1  65C d   1      -2.010  39.062  13.325  0.00  0.00    -0.084 Cl
ATOM     47  C18 65C d   1      -3.349  40.877  14.778  0.00  0.00    -0.040 A 
ATOM     48  C17 65C d   1      -3.398  41.864  15.742  0.00  0.00     0.048 A 
ATOM     49  H6  65C d   1      -4.237  40.563  14.241  0.00  0.00     0.088 H 
ATOM     50 CL   65C d   1      -4.942  42.626  16.099  0.00  0.00    -0.083 Cl
ENDBRANCH  28  40
ENDBRANCH  17  20
ENDBRANCH  14  17
ENDBRANCH  12  14
ENDBRANCH   1  12
TORSDOF 6
