REMARK  7 active torsions:
REMARK  status: ('A' for Active; 'I' for Inactive)
REMARK    1  A    between atoms: C1_1  and  C16_9 
REMARK    2  A    between atoms: C2_2  and  C17_10 
REMARK    3  A    between atoms: C14_7  and  C30_19 
REMARK    4  A    between atoms: C24_16  and  N26_29 
REMARK    5  A    between atoms: C27_17  and  C28_18 
REMARK       I    between atoms: N26_29  and  C27_17 
REMARK    6  A    between atoms: N7_23  and  C4_20 
REMARK       I    between atoms: C8_24  and  N7_23 
REMARK    7  A    between atoms: C8_24  and  C9_25 
ROOT
ATOM      1  C1  8EN d   1     -25.648   3.807 -10.930  0.00  0.00    -0.051 A 
ATOM      2  C2  8EN d   1     -24.752   4.023  -9.861  0.00  0.00    -0.017 A 
ATOM      3  C3  8EN d   1     -25.031   3.482  -8.600  0.00  0.00    -0.046 A 
ATOM      4  C4  8EN d   1     -26.187   2.740  -8.383  0.00  0.00     0.035 A 
ATOM      5  C5  8EN d   1     -27.040   2.490  -9.442  0.00  0.00    -0.057 A 
ATOM      6  C6  8EN d   1     -26.761   3.007 -10.692  0.00  0.00    -0.074 A 
ATOM      7  H1  8EN d   1     -24.337   3.644  -7.783  0.00  0.00     0.088 H 
ATOM      8  H16 8EN d   1     -27.928   1.888  -9.291  0.00  0.00     0.086 H 
ATOM      9  H17 8EN d   1     -27.431   2.782 -11.514  0.00  0.00     0.084 H 
ENDROOT
BRANCH   2  10
ATOM     10  C17 8EN d   1     -23.504   4.812 -10.037  0.00  0.00    -0.009 A 
ATOM     11  C18 8EN d   1     -23.562   6.147 -10.277  0.00  0.00    -0.003 A 
ATOM     12  N19 8EN d   1     -22.397   6.848 -10.527  0.00  0.00    -0.313 N 
ATOM     13  H9  8EN d   1     -24.521   6.663 -10.273  0.00  0.00     0.113 H 
ATOM     14  C20 8EN d   1     -21.127   6.242 -10.545  0.00  0.00     0.136 A 
ATOM     15  C23 8EN d   1     -22.222   8.178 -10.809  0.00  0.00     0.030 A 
ATOM     16  C21 8EN d   1     -21.041   4.856 -10.257  0.00  0.00    -0.037 A 
ATOM     17  N25 8EN d   1     -20.188   7.136 -10.851  0.00  0.00    -0.212 NA
ATOM     18  C22 8EN d   1     -22.187   4.162 -10.006  0.00  0.00    -0.067 A 
ATOM     19  H10 8EN d   1     -20.075   4.354 -10.237  0.00  0.00     0.089 H 
ATOM     20  H11 8EN d   1     -22.125   3.099  -9.777  0.00  0.00     0.085 H 
ATOM     21  C24 8EN d   1     -20.884   8.312 -10.996  0.00  0.00     0.148 A 
ATOM     22  H12 8EN d   1     -22.985   8.953 -10.869  0.00  0.00     0.118 H 
BRANCH  21  23
ATOM     23  N26 8EN d   1     -20.184   9.486 -11.279  0.00  0.00    -0.311 N 
ATOM     24  C27 8EN d   1     -20.694  10.749 -11.387  0.00  0.00     0.219 C 
ATOM     25  O29 8EN d   1     -21.880  10.997 -11.197  0.00  0.00    -0.274 OA
ATOM     26  H19 8EN d   1     -19.198   9.392 -11.418  0.00  0.00     0.170 HD
BRANCH  24  27
ATOM     27  C28 8EN d   1     -19.699  11.816 -11.731  0.00  0.00    -0.002 C 
ATOM     28  H13 8EN d   1     -20.210  12.788 -11.793  0.00  0.00     0.040 H 
ATOM     29  H14 8EN d   1     -19.233  11.584 -12.700  0.00  0.00     0.040 H 
ATOM     30  H15 8EN d   1     -18.923  11.859 -10.952  0.00  0.00     0.040 H 
ENDBRANCH  24  27
ENDBRANCH  21  23
ENDBRANCH   2  10
BRANCH   1  31
ATOM     31  C16 8EN d   1     -25.522   4.489 -12.269  0.00  0.00    -0.050 C 
ATOM     32  H6  8EN d   1     -26.337   4.156 -12.928  0.00  0.00     0.033 H 
ATOM     33  H7  8EN d   1     -24.554   4.230 -12.723  0.00  0.00     0.033 H 
ATOM     34  H8  8EN d   1     -25.583   5.579 -12.133  0.00  0.00     0.033 H 
ENDBRANCH   1  31
BRANCH   4  35
ATOM     35  N7  8EN d   1     -26.570   2.318  -7.085  0.00  0.00    -0.323 N 
ATOM     36  C8  8EN d   1     -26.307   2.955  -5.918  0.00  0.00     0.256 C 
ATOM     37  O10 8EN d   1     -25.700   4.020  -5.849  0.00  0.00    -0.267 OA
ATOM     38  H18 8EN d   1     -27.087   1.464  -7.024  0.00  0.00     0.169 HD
BRANCH  36  39
ATOM     39  C9  8EN d   1     -26.793   2.276  -4.683  0.00  0.00     0.033 A 
ATOM     40  C11 8EN d   1     -26.926   0.890  -4.610  0.00  0.00    -0.068 A 
ATOM     41  C12 8EN d   1     -27.356   0.291  -3.437  0.00  0.00    -0.081 A 
ATOM     42  H2  8EN d   1     -26.692   0.279  -5.474  0.00  0.00     0.085 H 
ATOM     43  C13 8EN d   1     -27.648   1.070  -2.326  0.00  0.00    -0.068 A 
ATOM     44  H3  8EN d   1     -27.464  -0.786  -3.387  0.00  0.00     0.083 H 
ATOM     45  C14 8EN d   1     -27.522   2.455  -2.381  0.00  0.00     0.048 A 
ATOM     46  H4  8EN d   1     -27.977   0.596  -1.408  0.00  0.00     0.084 H 
ATOM     47  C15 8EN d   1     -27.092   3.052  -3.566  0.00  0.00    -0.053 A 
ATOM     48  H5  8EN d   1     -26.990   4.130  -3.618  0.00  0.00     0.086 H 
BRANCH  45  49
ATOM     49  C30 8EN d   1     -27.873   3.303  -1.200  0.00  0.00     0.417 C 
ATOM     50  F31 8EN d   1     -28.100   2.586  -0.103  0.00  0.00    -0.166 F 
ATOM     51  F32 8EN d   1     -28.964   4.055  -1.393  0.00  0.00    -0.166 F 
ATOM     52  F33 8EN d   1     -26.919   4.165  -0.891  0.00  0.00    -0.166 F 
ENDBRANCH  45  49
ENDBRANCH  36  39
ENDBRANCH   4  35
TORSDOF 7
