REMARK  4 active torsions:
REMARK  status: ('A' for Active; 'I' for Inactive)
REMARK    1  A    between atoms: C22_7  and  C24_8 
REMARK    2  A    between atoms: C4_14  and  C11_9 
REMARK    3  A    between atoms: N10_20  and  C12_10 
REMARK    4  A    between atoms: C6_16  and  N10_20 
ROOT
ATOM      1  C1  D0A d   1       4.213   7.661   7.303  0.00  0.00     0.057 A 
ATOM      2  C2  D0A d   1       5.238   8.451   7.943  0.00  0.00     0.144 A 
ATOM      3  N3  D0A d   1       5.979   9.390   7.321  0.00  0.00    -0.208 NA
ATOM      4  C4  D0A d   1       5.669   9.606   6.029  0.00  0.00     0.182 A 
ATOM      5  N5  D0A d   1       4.685   8.996   5.353  0.00  0.00    -0.208 NA
ATOM      6  C6  D0A d   1       3.984   8.032   5.946  0.00  0.00     0.144 A 
ATOM      7  C7  D0A d   1       3.729   6.723   8.280  0.00  0.00    -0.051 A 
ATOM      8  C8  D0A d   1       4.409   6.980   9.428  0.00  0.00    -0.020 A 
ATOM      9  N9  D0A d   1       5.291   8.015   9.234  0.00  0.00    -0.350 N 
ATOM     10  H6  D0A d   1       2.968   5.958   8.130  0.00  0.00     0.087 H 
ATOM     11  H7  D0A d   1       4.274   6.443  10.366  0.00  0.00     0.111 H 
ATOM     12  H8  D0A d   1       5.906   8.407   9.961  0.00  0.00     0.166 HD
ENDROOT
BRANCH   4  13
ATOM     13  C11 D0A d   1       6.509  10.553   5.245  0.00  0.00     0.105 A 
ATOM     14  C19 D0A d   1       5.959  11.173   4.124  0.00  0.00    -0.051 A 
ATOM     15  C20 D0A d   1       6.755  12.011   3.365  0.00  0.00    -0.078 A 
ATOM     16  H3  D0A d   1       4.924  11.001   3.852  0.00  0.00     0.087 H 
ATOM     17  C21 D0A d   1       8.069  12.212   3.729  0.00  0.00    -0.050 A 
ATOM     18  H4  D0A d   1       6.349  12.506   2.490  0.00  0.00     0.083 H 
ATOM     19  C22 D0A d   1       8.557  11.557   4.849  0.00  0.00     0.141 A 
ATOM     20  H5  D0A d   1       8.708  12.869   3.151  0.00  0.00     0.087 H 
ATOM     21  N23 D0A d   1       7.793  10.754   5.610  0.00  0.00    -0.240 NA
BRANCH  19  22
ATOM     22  C24 D0A d   1      10.013  11.586   5.230  0.00  0.00     0.434 C 
ATOM     23  F25 D0A d   1      10.206  11.945   6.509  0.00  0.00    -0.165 F 
ATOM     24  F26 D0A d   1      10.552  10.398   5.101  0.00  0.00    -0.165 F 
ATOM     25  F27 D0A d   1      10.723  12.434   4.459  0.00  0.00    -0.165 F 
ENDBRANCH  19  22
ENDBRANCH   4  13
BRANCH   6  26
ATOM     26  N10 D0A d   1       3.043   7.371   5.215  0.00  0.00    -0.338 N 
ATOM     27  H9  D0A d   1       2.248   6.979   5.740  0.00  0.00     0.167 HD
BRANCH  26  28
ATOM     28  C12 D0A d   1       3.036   7.165   3.829  0.00  0.00     0.075 A 
ATOM     29  C13 D0A d   1       4.156   7.382   3.021  0.00  0.00    -0.037 A 
ATOM     30  C14 D0A d   1       4.077   7.067   1.675  0.00  0.00     0.004 A 
ATOM     31  H1  D0A d   1       5.069   7.789   3.440  0.00  0.00     0.089 H 
ATOM     32  N15 D0A d   1       2.982   6.578   1.089  0.00  0.00    -0.270 NA
ATOM     33  H10 D0A d   1       4.956   7.227   1.061  0.00  0.00     0.114 H 
ATOM     34  C16 D0A d   1       1.907   6.388   1.860  0.00  0.00     0.041 A 
ATOM     35  C17 D0A d   1       1.896   6.644   3.227  0.00  0.00     0.160 A 
ATOM     36  H2  D0A d   1       1.000   6.016   1.397  0.00  0.00     0.119 H 
ATOM     37  F18 D0A d   1       0.853   6.311   4.032  0.00  0.00    -0.202 F 
ENDBRANCH  26  28
ENDBRANCH   6  26
TORSDOF 4
