REMARK  5 active torsions:
REMARK  status: ('A' for Active; 'I' for Inactive)
REMARK    1  A    between atoms: C15_3  and  N16_17 
REMARK    2  A    between atoms: C17_4  and  C18_14 
REMARK       I    between atoms: N16_17  and  C17_4 
REMARK    3  A    between atoms: C02_5  and  O01_18 
REMARK    4  A    between atoms: C05_8  and  C06_9 
REMARK    5  A    between atoms: C18_14  and  S19_20 
ROOT
ATOM      1  C15 D0P d   1     138.011  30.945  -7.191  0.00  0.00     0.069 A 
ATOM      2  C02 D0P d   1     138.727  31.775  -6.343  0.00  0.00     0.092 A 
ATOM      3  C03 D0P d   1     140.112  31.838  -6.434  0.00  0.00    -0.048 A 
ATOM      4  C04 D0P d   1     140.771  31.089  -7.402  0.00  0.00    -0.069 A 
ATOM      5  C05 D0P d   1     140.054  30.271  -8.260  0.00  0.00    -0.021 A 
ATOM      6  C14 D0P d   1     138.680  30.230  -8.149  0.00  0.00    -0.044 A 
ATOM      7  H2  D0P d   1     140.675  32.467  -5.754  0.00  0.00     0.087 H 
ATOM      8  H3  D0P d   1     141.850  31.145  -7.486  0.00  0.00     0.085 H 
ATOM      9  H6  D0P d   1     138.114  29.615  -8.839  0.00  0.00     0.088 H 
ENDROOT
BRANCH   5  10
ATOM     10  C06 D0P d   1     140.769  29.488  -9.378  0.00  0.00     0.013 A 
ATOM     11  C13 D0P d   1     142.150  29.467  -9.366  0.00  0.00    -0.066 A 
ATOM     12  C12 D0P d   1     142.852  28.825 -10.374  0.00  0.00    -0.045 A 
ATOM     13  H1  D0P d   1     142.689  29.956  -8.562  0.00  0.00     0.085 H 
ATOM     14  C10 D0P d   1     142.197  28.219 -11.422  0.00  0.00     0.119 A 
ATOM     15  H5  D0P d   1     143.935  28.800 -10.336  0.00  0.00     0.088 H 
ATOM     16  C09 D0P d   1     140.813  28.262 -11.469  0.00  0.00    -0.008 A 
ATOM     17  F11 D0P d   1     142.929  27.586 -12.392  0.00  0.00    -0.206 F 
ATOM     18  C07 D0P d   1     140.105  28.910 -10.467  0.00  0.00     0.130 A 
ATOM     19  H4  D0P d   1     140.283  27.790 -12.288  0.00  0.00     0.093 H 
ATOM     20  F08 D0P d   1     138.747  28.908 -10.594  0.00  0.00    -0.205 F 
ENDBRANCH   5  10
BRANCH   1  21
ATOM     21  N16 D0P d   1     136.559  30.902  -7.115  0.00  0.00    -0.324 N 
ATOM     22  C17 D0P d   1     135.758  30.039  -7.968  0.00  0.00     0.231 C 
ATOM     23  O20 D0P d   1     136.242  29.285  -8.735  0.00  0.00    -0.272 OA
ATOM     24  H9  D0P d   1     136.094  31.488  -6.451  0.00  0.00     0.169 HD
BRANCH  22  25
ATOM     25  C18 D0P d   1     134.242  30.097  -7.881  0.00  0.00     0.048 C 
ATOM     26  H7  D0P d   1     133.846  29.073  -7.809  0.00  0.00     0.062 H 
ATOM     27  H8  D0P d   1     133.848  30.580  -8.787  0.00  0.00     0.062 H 
BRANCH  25  28
ATOM     28  S19 D0P d   1     133.708  31.046  -6.420  0.00  0.00    -0.173 SA
ATOM     29  H11 D0P d   1     134.064  30.605  -5.586  0.00  0.00     0.102 HD
ENDBRANCH  25  28
ENDBRANCH  22  25
ENDBRANCH   1  21
BRANCH   2  30
ATOM     30  O01 D0P d   1     138.030  32.529  -5.386  0.00  0.00    -0.358 OA
ATOM     31  H10 D0P d   1     138.201  33.453  -5.527  0.00  0.00     0.217 HD
ENDBRANCH   2  30
TORSDOF 5
