REMARK  6 active torsions:
REMARK  status: ('A' for Active; 'I' for Inactive)
REMARK    1  A    between atoms: C04_4  and  C02_3 
REMARK    2  A    between atoms: C06_5  and  C04_4 
REMARK    3  A    between atoms: C04_4  and  O05_13 
REMARK    4  A    between atoms: C07_6  and  C06_5 
REMARK    5  A    between atoms: C07_6  and  C09_7 
REMARK    6  A    between atoms: C12_9  and  O13_15 
ROOT
ATOM      1  C10 D1Y d   1      34.988  77.270  63.822  0.00  0.00    -0.065 A 
ATOM      2  C15 D1Y d   1      33.454  78.290  62.306  0.00  0.00     0.050 A 
ATOM      3  C09 D1Y d   1      34.640  78.357  63.029  0.00  0.00     0.032 A 
ATOM      4  C11 D1Y d   1      34.182  76.147  63.892  0.00  0.00    -0.050 A 
ATOM      5  C12 D1Y d   1      32.997  76.109  63.155  0.00  0.00     0.067 A 
ATOM      6  C14 D1Y d   1      32.626  77.184  62.353  0.00  0.00    -0.029 A 
ATOM      7 CL16 D1Y d   1      32.977  79.605  61.309  0.00  0.00    -0.083 Cl
ATOM      8  H1  D1Y d   1      35.907  77.302  64.396  0.00  0.00     0.085 H 
ATOM      9  H5  D1Y d   1      34.468  75.306  64.513  0.00  0.00     0.087 H 
ATOM     10  H6  D1Y d   1      31.708  77.155  61.778  0.00  0.00     0.090 H 
ENDROOT
BRANCH   3  11
ATOM     11  C07 D1Y d   1      35.527  79.557  62.961  0.00  0.00     0.164 C 
ATOM     12  O08 D1Y d   1      35.857  79.926  61.864  0.00  0.00    -0.292 OA
BRANCH  11  13
ATOM     13  C06 D1Y d   1      35.961  80.183  64.192  0.00  0.00     0.028 C 
ATOM     14  H3  D1Y d   1      35.063  80.588  64.681  0.00  0.00     0.049 H 
ATOM     15  H4  D1Y d   1      36.395  79.391  64.820  0.00  0.00     0.049 H 
BRANCH  13  16
ATOM     16  C04 D1Y d   1      36.866  81.184  64.136  0.00  0.00     0.125 C 
ATOM     17  H2  D1Y d   1      36.356  81.835  64.862  0.00  0.00     0.100 H 
BRANCH  16  18
ATOM     18  C02 D1Y d   1      38.198  81.093  64.896  0.00  0.00     0.203 C 
ATOM     19  O01 D1Y d   1      38.058  80.850  66.112  0.00  0.00    -0.646 OA
ATOM     20  O03 D1Y d   1      39.244  81.261  64.255  0.00  0.00    -0.646 OA
ENDBRANCH  16  18
BRANCH  16  21
ATOM     21  O05 D1Y d   1      36.830  82.046  63.099  0.00  0.00    -0.384 OA
ATOM     22  H7  D1Y d   1      36.954  81.568  62.287  0.00  0.00     0.210 HD
ENDBRANCH  16  21
ENDBRANCH  13  16
ENDBRANCH  11  13
ENDBRANCH   3  11
BRANCH   5  23
ATOM     23  O13 D1Y d   1      32.188  75.019  63.207  0.00  0.00    -0.361 OA
ATOM     24  H8  D1Y d   1      32.567  74.372  63.790  0.00  0.00     0.217 HD
ENDBRANCH   5  23
TORSDOF 6
