REMARK  4 active torsions:
REMARK  status: ('A' for Active; 'I' for Inactive)
REMARK    1  A    between atoms: N_1  and  CA_2 
REMARK    2  A    between atoms: CA_2  and  C_3 
REMARK    3  A    between atoms: CA_2  and  CB_5 
REMARK    4  A    between atoms: CB_5  and  SG_6 
ROOT
ATOM      1  CA  CYS d   1       3.897 -10.511  -4.774  0.00  0.00     0.190 C 
ATOM      2  H4  CYS d   1       3.936  -9.674  -5.486  0.00  0.00     0.102 H 
ENDROOT
BRANCH   1   3
ATOM      3  N   CYS d   1       3.019 -10.131  -3.666  0.00  0.00    -0.065 N 
ATOM      4  H1  CYS d   1       3.396  -9.320  -3.201  0.00  0.00     0.275 HD
ATOM      5  H2  CYS d   1       2.955 -10.894  -3.011  0.00  0.00     0.275 HD
ATOM      6  H3  CYS d   1       2.101  -9.917  -4.023  0.00  0.00     0.275 HD
ENDBRANCH   1   3
BRANCH   1   7
ATOM      7  C   CYS d   1       3.360 -11.737  -5.505  0.00  0.00     0.205 C 
ATOM      8  O   CYS d   1       2.909 -11.644  -6.646  0.00  0.00    -0.646 OA
ATOM      9  OXT CYS d   1       3.367 -12.843  -4.966  0.00  0.00    -0.646 OA
ENDBRANCH   1   7
BRANCH   1  10
ATOM     10  CB  CYS d   1       5.315 -10.779  -4.262  0.00  0.00     0.010 C 
ATOM     11  H5  CYS d   1       5.944 -11.054  -5.121  0.00  0.00     0.052 H 
ATOM     12  H6  CYS d   1       5.272 -11.620  -3.554  0.00  0.00     0.052 H 
BRANCH  10  13
ATOM     13  SG  CYS d   1       6.087  -9.371  -3.422  0.00  0.00    -0.180 SA
ATOM     14  H7  CYS d   1       7.013  -9.629  -3.118  0.00  0.00     0.101 HD
ENDBRANCH  10  13
ENDBRANCH   1  10
TORSDOF 4
