REMARK  10 active torsions:
REMARK  status: ('A' for Active; 'I' for Inactive)
REMARK    1  A    between atoms: C3_1  and  C4_7 
REMARK    2  A    between atoms: C2_21  and  C3_1 
REMARK    3  A    between atoms: C11_4  and  N1_20 
REMARK    4  A    between atoms: S1_6  and  N2_11 
REMARK    5  A    between atoms: C7_14  and  S1_6 
REMARK    6  A    between atoms: C4_7  and  O1_22 
REMARK    7  A    between atoms: C6_9  and  C5_8 
REMARK    8  A    between atoms: N1_20  and  C6_9 
REMARK    9  A    between atoms: N3_19  and  C2_21 
REMARK   10  A    between atoms: O1_22  and  C1_23 
ROOT
ATOM      1  C9  BZ1 d   1      18.169   5.235  15.443  0.00  0.00     0.006 A 
ATOM      2  C10 BZ1 d   1      17.037   6.088  15.645  0.00  0.00     0.130 A 
ATOM      3  C11 BZ1 d   1      19.497   5.515  14.592  0.00  0.00     0.145 C 
ATOM      4  C12 BZ1 d   1      19.431   7.054  14.291  0.00  0.00     0.036 C 
ATOM      5  S2  BZ1 d   1      15.840   5.276  16.639  0.00  0.00    -0.062 SA
ATOM      6  C7  BZ1 d   1      16.686   3.799  16.844  0.00  0.00     0.121 A 
ATOM      7  C8  BZ1 d   1      17.960   3.833  16.165  0.00  0.00    -0.043 A 
ATOM      8  S3  BZ1 d   1      17.017   7.668  14.991  0.00  0.00     0.268 S 
ATOM      9  O2  BZ1 d   1      17.072   8.611  16.084  0.00  0.00    -0.200 OA
ATOM     10  O5  BZ1 d   1      15.852   7.900  14.159  0.00  0.00    -0.200 OA
ATOM     11  N3  BZ1 d   1      18.249   7.845  14.094  0.00  0.00    -0.304 N 
ATOM     12  H3  BZ1 d   1      20.375   5.329  15.227  0.00  0.00     0.094 H 
ATOM     13  H4  BZ1 d   1      20.019   7.189  13.371  0.00  0.00     0.069 H 
ATOM     14  H5  BZ1 d   1      19.954   7.530  15.133  0.00  0.00     0.069 H 
ATOM     15  H15 BZ1 d   1      18.677   3.014  16.149  0.00  0.00     0.087 H 
ENDROOT
BRANCH  11  16
ATOM     16  C2  BZ1 d   1      18.253   8.825  13.017  0.00  0.00     0.007 C 
ATOM     17  H18 BZ1 d   1      17.541   9.629  13.254  0.00  0.00     0.065 H 
ATOM     18  H19 BZ1 d   1      19.263   9.248  12.914  0.00  0.00     0.065 H 
BRANCH  16  19
ATOM     19  C3  BZ1 d   1      17.847   8.162  11.705  0.00  0.00    -0.030 C 
ATOM     20  H1  BZ1 d   1      18.747   7.837  11.162  0.00  0.00     0.038 H 
ATOM     21  H2  BZ1 d   1      17.209   7.290  11.914  0.00  0.00     0.038 H 
BRANCH  19  22
ATOM     22  C4  BZ1 d   1      17.060   9.191  10.843  0.00  0.00     0.020 C 
ATOM     23  H6  BZ1 d   1      17.313   9.048   9.782  0.00  0.00     0.074 H 
ATOM     24  H7  BZ1 d   1      17.334  10.211  11.151  0.00  0.00     0.074 H 
BRANCH  22  25
ATOM     25  O1  BZ1 d   1      15.668   9.004  11.024  0.00  0.00    -0.396 OA
BRANCH  25  26
ATOM     26  C1  BZ1 d   1      14.965  10.168  11.507  0.00  0.00     0.004 C 
ATOM     27  H20 BZ1 d   1      13.896   9.931  11.617  0.00  0.00     0.066 H 
ATOM     28  H21 BZ1 d   1      15.086  10.993  10.790  0.00  0.00     0.066 H 
ATOM     29  H22 BZ1 d   1      15.377  10.466  12.482  0.00  0.00     0.066 H 
ENDBRANCH  25  26
ENDBRANCH  22  25
ENDBRANCH  19  22
ENDBRANCH  16  19
ENDBRANCH  11  16
BRANCH   3  30
ATOM     30  N1  BZ1 d   1      19.617   4.650  13.482  0.00  0.00    -0.066 N 
ATOM     31  H16 BZ1 d   1      18.852   4.847  12.856  0.00  0.00     0.278 HD
ATOM     32  H17 BZ1 d   1      19.538   3.704  13.821  0.00  0.00     0.278 HD
BRANCH  30  33
ATOM     33  C6  BZ1 d   1      20.844   4.743  12.720  0.00  0.00     0.079 C 
ATOM     34  H11 BZ1 d   1      20.890   5.729  12.234  0.00  0.00     0.075 H 
ATOM     35  H12 BZ1 d   1      21.699   4.631  13.403  0.00  0.00     0.075 H 
BRANCH  33  36
ATOM     36  C5  BZ1 d   1      20.915   3.656  11.650  0.00  0.00    -0.053 C 
ATOM     37  H8  BZ1 d   1      21.857   3.754  11.090  0.00  0.00     0.029 H 
ATOM     38  H9  BZ1 d   1      20.065   3.764  10.960  0.00  0.00     0.029 H 
ATOM     39  H10 BZ1 d   1      20.874   2.667  12.129  0.00  0.00     0.029 H 
ENDBRANCH  33  36
ENDBRANCH  30  33
ENDBRANCH   3  30
BRANCH   6  40
ATOM     40  S1  BZ1 d   1      16.134   2.363  17.765  0.00  0.00     0.263 S 
ATOM     41  O3  BZ1 d   1      14.686   2.397  17.795  0.00  0.00    -0.200 OA
ATOM     42  O4  BZ1 d   1      16.661   2.433  19.098  0.00  0.00    -0.200 OA
BRANCH  40  43
ATOM     43  N2  BZ1 d   1      16.703   0.981  17.039  0.00  0.00    -0.324 N 
ATOM     44  H13 BZ1 d   1      16.438   0.764  16.099  0.00  0.00     0.169 HD
ATOM     45  H14 BZ1 d   1      17.310   0.366  17.542  0.00  0.00     0.169 HD
ENDBRANCH  40  43
ENDBRANCH   6  40
TORSDOF 10
