REMARK  8 active torsions:
REMARK  status: ('A' for Active; 'I' for Inactive)
REMARK    1  A    between atoms: C6_6  and  N3_3 
REMARK    2  A    between atoms: N3_3  and  S_14 
REMARK    3  A    between atoms: N2_17  and  C4_4 
REMARK    4  A    between atoms: C8_7  and  C9_8 
REMARK    5  A    between atoms: S_14  and  C8_7 
REMARK    6  A    between atoms: C9_8  and  C10_9 
REMARK    7  A    between atoms: N2_17  and  C11_10 
REMARK    8  A    between atoms: N2_17  and  C3_18 
ROOT
ATOM      1  C4  D7D d   1      11.170  14.955 -15.142  0.00  0.00     0.017 C 
ATOM      2  C5  D7D d   1      10.963  13.433 -15.439  0.00  0.00    -0.026 C 
ATOM      3  C6  D7D d   1       9.953  13.835 -16.546  0.00  0.00     0.023 C 
ATOM      4  C7  D7D d   1      10.543  15.282 -16.529  0.00  0.00    -0.026 C 
ATOM      5  H2  D7D d   1      10.537  15.312 -14.316  0.00  0.00     0.072 H 
ATOM      6  H3  D7D d   1      10.524  12.862 -14.607  0.00  0.00     0.039 H 
ATOM      7  H4  D7D d   1      11.860  12.914 -15.807  0.00  0.00     0.039 H 
ATOM      8  H5  D7D d   1       8.912  13.806 -16.192  0.00  0.00     0.073 H 
ATOM      9  H18 D7D d   1      11.275  15.486 -17.324  0.00  0.00     0.039 H 
ATOM     10  H19 D7D d   1       9.789  16.082 -16.512  0.00  0.00     0.039 H 
ENDROOT
BRANCH   1  11
ATOM     11  N2  D7D d   1      12.518  15.379 -14.841  0.00  0.00    -0.364 N 
BRANCH  11  12
ATOM     12  C11 D7D d   1      13.487  15.513 -15.939  0.00  0.00    -0.017 C 
ATOM     13  H13 D7D d   1      14.456  15.842 -15.535  0.00  0.00     0.056 H 
ATOM     14  H14 D7D d   1      13.120  16.256 -16.663  0.00  0.00     0.056 H 
ATOM     15  H15 D7D d   1      13.610  14.542 -16.440  0.00  0.00     0.056 H 
ENDBRANCH  11  12
BRANCH  11  16
ATOM     16  C3  D7D d   1      12.853  15.837 -13.571  0.00  0.00     0.141 A 
ATOM     17  C2  D7D d   1      12.089  15.578 -12.405  0.00  0.00     0.057 A 
ATOM     18  C1  D7D d   1      12.663  16.018 -11.173  0.00  0.00     0.142 A 
ATOM     19  C12 D7D d   1      10.857  14.930 -12.069  0.00  0.00    -0.051 A 
ATOM     20  N4  D7D d   1      11.818  15.647 -10.138  0.00  0.00    -0.350 N 
ATOM     21  N1  D7D d   1      13.860  16.685 -11.034  0.00  0.00    -0.223 NA
ATOM     22  C13 D7D d   1      10.714  14.983 -10.698  0.00  0.00    -0.020 A 
ATOM     23  H20 D7D d   1      11.973  15.827  -9.136  0.00  0.00     0.166 HD
ATOM     24  H17 D7D d   1       9.875  14.574 -10.137  0.00  0.00     0.111 H 
ATOM     25  C   D7D d   1      14.450  16.902 -12.229  0.00  0.00     0.091 A 
ATOM     26  N   D7D d   1      14.031  16.536 -13.477  0.00  0.00    -0.224 NA
ATOM     27  H21 D7D d   1      15.389  17.443 -12.193  0.00  0.00     0.146 H 
ATOM     28  H16 D7D d   1      10.158  14.476 -12.770  0.00  0.00     0.087 H 
ENDBRANCH  11  16
ENDBRANCH   1  11
BRANCH   3  29
ATOM     29  N3  D7D d   1       9.995  13.096 -17.793  0.00  0.00    -0.315 N 
ATOM     30  H1  D7D d   1      10.569  12.279 -17.845  0.00  0.00     0.172 HD
BRANCH  29  31
ATOM     31  S   D7D d   1       9.142  13.541 -19.122  0.00  0.00     0.226 S 
ATOM     32  O1  D7D d   1       9.454  12.583 -20.122  0.00  0.00    -0.206 OA
ATOM     33  O   D7D d   1       9.383  14.914 -19.370  0.00  0.00    -0.206 OA
BRANCH  31  34
ATOM     34  C8  D7D d   1       7.516  13.340 -18.675  0.00  0.00     0.046 C 
ATOM     35  H6  D7D d   1       7.073  12.558 -19.309  0.00  0.00     0.058 H 
ATOM     36  H7  D7D d   1       7.479  13.024 -17.622  0.00  0.00     0.058 H 
BRANCH  34  37
ATOM     37  C9  D7D d   1       6.686  14.623 -18.830  0.00  0.00    -0.055 C 
ATOM     38  H8  D7D d   1       6.796  14.996 -19.859  0.00  0.00     0.033 H 
ATOM     39  H9  D7D d   1       7.062  15.378 -18.124  0.00  0.00     0.033 H 
BRANCH  37  40
ATOM     40  C10 D7D d   1       5.215  14.380 -18.551  0.00  0.00    -0.076 C 
ATOM     41  H10 D7D d   1       4.658  15.321 -18.673  0.00  0.00     0.027 H 
ATOM     42  H11 D7D d   1       5.093  14.012 -17.521  0.00  0.00     0.027 H 
ATOM     43  H12 D7D d   1       4.827  13.631 -19.256  0.00  0.00     0.027 H 
ENDBRANCH  37  40
ENDBRANCH  34  37
ENDBRANCH  31  34
ENDBRANCH  29  31
ENDBRANCH   3  29
TORSDOF 8
