REMARK  8 active torsions:
REMARK  status: ('A' for Active; 'I' for Inactive)
REMARK    1  A    between atoms: C6_6  and  N3_3 
REMARK    2  A    between atoms: N3_3  and  S_14 
REMARK    3  A    between atoms: N2_17  and  C4_4 
REMARK    4  A    between atoms: C8_7  and  C9_8 
REMARK    5  A    between atoms: S_14  and  C8_7 
REMARK    6  A    between atoms: C9_8  and  C10_9 
REMARK    7  A    between atoms: N2_17  and  C11_10 
REMARK    8  A    between atoms: N2_17  and  C3_18 
ROOT
ATOM      1  C4  D7D d   1      -5.188   1.881   8.666  0.00  0.00     0.017 C 
ATOM      2  C5  D7D d   1      -6.620   1.676   8.089  0.00  0.00    -0.026 C 
ATOM      3  C6  D7D d   1      -5.978   0.788   6.978  0.00  0.00     0.023 C 
ATOM      4  C7  D7D d   1      -4.597   1.414   7.302  0.00  0.00    -0.026 C 
ATOM      5  H2  D7D d   1      -4.973   1.171   9.478  0.00  0.00     0.072 H 
ATOM      6  H3  D7D d   1      -7.101   2.594   7.720  0.00  0.00     0.039 H 
ATOM      7  H4  D7D d   1      -7.311   1.143   8.758  0.00  0.00     0.039 H 
ATOM      8  H5  D7D d   1      -6.012  -0.282   7.231  0.00  0.00     0.073 H 
ATOM      9  H18 D7D d   1      -3.775   0.688   7.385  0.00  0.00     0.039 H 
ATOM     10  H19 D7D d   1      -4.298   2.232   6.630  0.00  0.00     0.039 H 
ENDROOT
BRANCH   1  11
ATOM     11  N2  D7D d   1      -4.784   3.184   9.144  0.00  0.00    -0.364 N 
BRANCH  11  12
ATOM     12  C11 D7D d   1      -5.320   4.386   8.489  0.00  0.00    -0.017 C 
ATOM     13  H13 D7D d   1      -4.910   5.283   8.977  0.00  0.00     0.056 H 
ATOM     14  H14 D7D d   1      -6.417   4.391   8.573  0.00  0.00     0.056 H 
ATOM     15  H15 D7D d   1      -5.034   4.383   7.427  0.00  0.00     0.056 H 
ENDBRANCH  11  12
BRANCH  11  16
ATOM     16  C3  D7D d   1      -4.008   3.315  10.289  0.00  0.00     0.141 A 
ATOM     17  C2  D7D d   1      -3.274   2.251  10.876  0.00  0.00     0.057 A 
ATOM     18  C1  D7D d   1      -2.439   2.605  11.980  0.00  0.00     0.142 A 
ATOM     19  C12 D7D d   1      -3.068   0.853  10.646  0.00  0.00    -0.051 A 
ATOM     20  N4  D7D d   1      -1.744   1.477  12.382  0.00  0.00    -0.350 N 
ATOM     21  N1  D7D d   1      -2.318   3.862  12.529  0.00  0.00    -0.223 NA
ATOM     22  C13 D7D d   1      -2.150   0.405  11.570  0.00  0.00    -0.020 A 
ATOM     23  H20 D7D d   1      -1.051   1.432  13.143  0.00  0.00     0.166 HD
ATOM     24  H17 D7D d   1      -1.794  -0.621  11.657  0.00  0.00     0.111 H 
ATOM     25  C   D7D d   1      -3.094   4.760  11.887  0.00  0.00     0.091 A 
ATOM     26  N   D7D d   1      -3.928   4.581  10.818  0.00  0.00    -0.224 NA
ATOM     27  H21 D7D d   1      -3.050   5.771  12.275  0.00  0.00     0.146 H 
ATOM     28  H16 D7D d   1      -3.551   0.251   9.878  0.00  0.00     0.087 H 
ENDBRANCH  11  16
ENDBRANCH   1  11
BRANCH   3  29
ATOM     29  N3  D7D d   1      -6.502   0.912   5.632  0.00  0.00    -0.315 N 
ATOM     30  H1  D7D d   1      -6.011   1.448   4.945  0.00  0.00     0.172 HD
BRANCH  29  31
ATOM     31  S   D7D d   1      -7.912   0.162   5.249  0.00  0.00     0.226 S 
ATOM     32  O1  D7D d   1      -8.768   0.267   6.374  0.00  0.00    -0.206 OA
ATOM     33  O   D7D d   1      -8.330   0.660   3.989  0.00  0.00    -0.206 OA
BRANCH  31  34
ATOM     34  C8  D7D d   1      -7.460  -1.459   5.062  0.00  0.00     0.046 C 
ATOM     35  H6  D7D d   1      -6.843  -1.554   4.156  0.00  0.00     0.058 H 
ATOM     36  H7  D7D d   1      -6.873  -1.768   5.939  0.00  0.00     0.058 H 
BRANCH  34  37
ATOM     37  C9  D7D d   1      -8.683  -2.381   4.931  0.00  0.00    -0.055 C 
ATOM     38  H8  D7D d   1      -8.412  -3.242   4.303  0.00  0.00     0.033 H 
ATOM     39  H9  D7D d   1      -9.499  -1.821   4.452  0.00  0.00     0.033 H 
BRANCH  37  40
ATOM     40  C10 D7D d   1      -9.165  -2.891   6.280  0.00  0.00    -0.076 C 
ATOM     41  H10 D7D d   1     -10.038  -3.544   6.134  0.00  0.00     0.027 H 
ATOM     42  H11 D7D d   1      -9.447  -2.038   6.915  0.00  0.00     0.027 H 
ATOM     43  H12 D7D d   1      -8.359  -3.460   6.766  0.00  0.00     0.027 H 
ENDBRANCH  37  40
ENDBRANCH  34  37
ENDBRANCH  31  34
ENDBRANCH  29  31
ENDBRANCH   3  29
TORSDOF 8
