REMARK  6 active torsions:
REMARK  status: ('A' for Active; 'I' for Inactive)
REMARK    1  A    between atoms: C2_2  and  S10_10 
REMARK    2  A    between atoms: C5_5  and  N14_14 
REMARK    3  A    between atoms: C7_7  and  C15_15 
REMARK    4  A    between atoms: S10_10  and  N13_13 
REMARK    5  A    between atoms: N14_14  and  C18_18 
REMARK    6  A    between atoms: C18_18  and  C19_19 
ROOT
ATOM      1  S1  ETS d   1      -6.225   3.656  15.685  0.00  0.00    -0.064 SA
ATOM      2  C2  ETS d   1      -5.372   2.270  15.931  0.00  0.00     0.121 A 
ATOM      3  C3  ETS d   1      -4.119   2.323  15.346  0.00  0.00    -0.043 A 
ATOM      4  C4  ETS d   1      -3.867   3.591  14.684  0.00  0.00     0.003 A 
ATOM      5  C5  ETS d   1      -2.625   3.997  13.884  0.00  0.00     0.130 C 
ATOM      6  C6  ETS d   1      -2.506   5.493  13.621  0.00  0.00    -0.018 C 
ATOM      7  C7  ETS d   1      -3.780   6.073  12.996  0.00  0.00     0.048 C 
ATOM      8  S8  ETS d   1      -5.121   6.029  14.207  0.00  0.00     0.186 S 
ATOM      9  C9  ETS d   1      -5.024   4.383  14.843  0.00  0.00     0.110 A 
ATOM     10  O16 ETS d   1      -6.541   6.189  13.454  0.00  0.00    -0.222 OA
ATOM     11  O17 ETS d   1      -4.775   7.014  15.442  0.00  0.00    -0.222 OA
ATOM     12  H1  ETS d   1      -3.401   1.505  15.378  0.00  0.00     0.087 H 
ATOM     13  H2  ETS d   1      -1.758   3.746  14.512  0.00  0.00     0.092 H 
ATOM     14  H3  ETS d   1      -1.664   5.666  12.935  0.00  0.00     0.038 H 
ATOM     15  H4  ETS d   1      -2.314   6.006  14.575  0.00  0.00     0.038 H 
ATOM     16  H5  ETS d   1      -4.068   5.452  12.135  0.00  0.00     0.064 H 
ENDROOT
BRANCH   5  17
ATOM     17  N14 ETS d   1      -2.527   3.151  12.699  0.00  0.00    -0.067 N 
ATOM     18  H8  ETS d   1      -3.338   3.353  12.135  0.00  0.00     0.277 HD
ATOM     19  H9  ETS d   1      -2.572   2.198  13.023  0.00  0.00     0.277 HD
BRANCH  17  20
ATOM     20  C18 ETS d   1      -1.384   3.231  11.817  0.00  0.00     0.079 C 
ATOM     21  H13 ETS d   1      -0.462   3.209  12.417  0.00  0.00     0.075 H 
ATOM     22  H14 ETS d   1      -1.430   4.172  11.249  0.00  0.00     0.075 H 
BRANCH  20  23
ATOM     23  C19 ETS d   1      -1.377   2.064  10.848  0.00  0.00    -0.053 C 
ATOM     24  H15 ETS d   1      -0.502   2.142  10.186  0.00  0.00     0.029 H 
ATOM     25  H16 ETS d   1      -2.296   2.083  10.244  0.00  0.00     0.029 H 
ATOM     26  H17 ETS d   1      -1.328   1.120  11.411  0.00  0.00     0.029 H 
ENDBRANCH  20  23
ENDBRANCH  17  20
ENDBRANCH   5  17
BRANCH   7  27
ATOM     27  C15 ETS d   1      -3.512   7.501  12.496  0.00  0.00    -0.060 C 
ATOM     28  H10 ETS d   1      -2.692   7.485  11.763  0.00  0.00     0.029 H 
ATOM     29  H11 ETS d   1      -3.232   8.141  13.346  0.00  0.00     0.029 H 
ATOM     30  H12 ETS d   1      -4.420   7.900  12.021  0.00  0.00     0.029 H 
ENDBRANCH   7  27
BRANCH   2  31
ATOM     31  S10 ETS d   1      -6.017   0.899  16.844  0.00  0.00     0.263 S 
ATOM     32  O11 ETS d   1      -5.385   1.015  18.309  0.00  0.00    -0.200 OA
ATOM     33  O12 ETS d   1      -7.618   1.025  16.737  0.00  0.00    -0.200 OA
BRANCH  31  34
ATOM     34  N13 ETS d   1      -5.401  -0.520  16.178  0.00  0.00    -0.324 N 
ATOM     35  H6  ETS d   1      -5.656  -1.406  16.565  0.00  0.00     0.169 HD
ATOM     36  H7  ETS d   1      -4.780  -0.477  15.395  0.00  0.00     0.169 HD
ENDBRANCH  31  34
ENDBRANCH   2  31
TORSDOF 6
