REMARK WARNING: 32 MAX_TORS EXCEEDED!!!
REMARK  44 active torsions:
REMARK  status: ('A' for Active; 'I' for Inactive)
REMARK    1  A    between atoms: N_1  and  CA_2 
REMARK    2  A    between atoms: CA_2  and  C_3 
REMARK    3  A    between atoms: CA_2  and  CB_5 
REMARK       I    between atoms: C_3  and  N_13 
REMARK    4  A    between atoms: CB_5  and  CG_6 
REMARK    5  A    between atoms: CZ_11  and  OH_12 
REMARK    6  A    between atoms: N_13  and  CA_14 
REMARK    7  A    between atoms: CA_14  and  C_15 
REMARK    8  A    between atoms: CA_14  and  CB_17 
REMARK       I    between atoms: C_15  and  N_19 
REMARK    9  A    between atoms: CB_17  and  OG_18 
REMARK   10  A    between atoms: N_19  and  CA_20 
REMARK   11  A    between atoms: CA_20  and  C_21 
REMARK   12  A    between atoms: CA_20  and  CB_23 
REMARK       I    between atoms: C_21  and  N_27 
REMARK   13  A    between atoms: CB_23  and  CG_24 
REMARK       I    between atoms: CG_24  and  ND2_26 
REMARK   14  A    between atoms: N_27  and  CA_28 
REMARK   15  A    between atoms: CA_28  and  CB_29 
REMARK   16  A    between atoms: CA_28  and  C_36 
REMARK   17  A    between atoms: CB_29  and  CG2_30 
REMARK   18  A    between atoms: CB_29  and  OG1_31 
REMARK   19  A    between atoms: OG1_31  and  P_32 
REMARK       I    between atoms: C_36  and  N_38 
REMARK   20  A    between atoms: N_38  and  CA_39 
REMARK   21  A    between atoms: CA_39  and  C_40 
REMARK   22  A    between atoms: CA_39  and  CB_42 
REMARK       I    between atoms: C_40  and  N_46 
REMARK   23  A    between atoms: CB_42  and  CG_43 
REMARK   24  A    between atoms: CG_43  and  CD1_44 
REMARK   25  A    between atoms: CG_43  and  CD2_45 
REMARK   26  A    between atoms: CA_47  and  C_48 
REMARK       I    between atoms: C_48  and  N_53 
REMARK   27  A    between atoms: N_53  and  CA_54 
REMARK   28  A    between atoms: CA_54  and  C_55 
REMARK   29  A    between atoms: CA_54  and  CB_57 
REMARK       I    between atoms: C_55  and  N_60 
REMARK   30  A    between atoms: CB_57  and  CG1_58 
REMARK   31  A    between atoms: CB_57  and  CG2_59 
REMARK   32  A    between atoms: N_60  and  CA_61 
REMARK   33  A    between atoms: CA_61  and  C_62 
REMARK   34  A    between atoms: CA_61  and  CB_64 
REMARK       I    between atoms: C_62  and  N_71 
REMARK   35  A    between atoms: CB_64  and  CG_65 
REMARK   36  A    between atoms: CG_65  and  CD_66 
REMARK   37  A    between atoms: CD_66  and  NE_67 
REMARK       I    between atoms: NE_67  and  CZ_68 
REMARK       I    between atoms: CZ_68  and  NH1_69 
REMARK       I    between atoms: CZ_68  and  NH2_70 
REMARK   38  A    between atoms: N_71  and  CA_72 
REMARK   39  A    between atoms: CA_72  and  C_73 
REMARK   40  A    between atoms: CA_72  and  CB_75 
REMARK   41  A    between atoms: CB_75  and  CG_76 
REMARK   42  A    between atoms: CG_76  and  CD_77 
REMARK   43  A    between atoms: CD_77  and  CE_78 
REMARK   44  A    between atoms: CE_78  and  NZ_79 
ROOT
ATOM      1  CA  TYR d   1      -8.636 -37.762  38.691  0.00  0.00     0.090 C 
ATOM      2  H30 TYR d   1      -8.331 -36.741  38.963  0.00  0.00     0.087 H 
ENDROOT
BRANCH   1   3
ATOM      3  N   TYR d   1      -9.942 -38.028  39.296  0.00  0.00    -0.346 N 
ATOM      4  C   TYR d   1     -10.535 -37.155  40.105  0.00  0.00     0.243 C 
ATOM      5  O   TYR d   1     -10.029 -36.075  40.413  0.00  0.00    -0.271 OA
ATOM      6  H29 TYR d   1     -10.402 -38.893  39.095  0.00  0.00     0.163 HD
BRANCH   4   7
ATOM      7  CA  TYR d   1     -11.910 -37.544  40.638  0.00  0.00     0.114 C 
ATOM      8  H24 TYR d   1     -11.902 -38.611  40.905  0.00  0.00     0.091 H 
BRANCH   7   9
ATOM      9  N   TYR d   1     -12.203 -36.758  41.835  0.00  0.00    -0.344 N 
ATOM     10  C   TYR d   1     -12.679 -37.293  42.956  0.00  0.00     0.241 C 
ATOM     11  O   TYR d   1     -13.052 -38.462  43.042  0.00  0.00    -0.271 OA
ATOM     12  H23 TYR d   1     -12.038 -35.772  41.810  0.00  0.00     0.163 HD
BRANCH  10  13
ATOM     13  CA  TYR d   1     -12.750 -36.365  44.166  0.00  0.00     0.097 C 
ATOM     14  H18 TYR d   1     -12.551 -35.337  43.830  0.00  0.00     0.088 H 
BRANCH  13  15
ATOM     15  N   TYR d   1     -14.074 -36.401  44.775  0.00  0.00    -0.345 N 
ATOM     16  C   TYR d   1     -15.067 -35.651  44.313  0.00  0.00     0.243 C 
ATOM     17  O   TYR d   1     -14.926 -34.863  43.374  0.00  0.00    -0.271 OA
ATOM     18  H17 TYR d   1     -14.238 -37.003  45.557  0.00  0.00     0.163 HD
BRANCH  16  19
ATOM     19  CA  TYR d   1     -16.408 -35.825  45.020  0.00  0.00     0.109 C 
ATOM     20  H13 TYR d   1     -16.227 -35.942  46.099  0.00  0.00     0.090 H 
BRANCH  19  21
ATOM     21  N   TYR d   1     -17.235 -34.651  44.812  0.00  0.00    -0.344 N 
ATOM     22  C   TYR d   1     -17.073 -33.548  45.536  0.00  0.00     0.249 C 
ATOM     23  O   TYR d   1     -16.265 -33.464  46.460  0.00  0.00    -0.271 OA
ATOM     24  H12 TYR d   1     -17.944 -34.672  44.107  0.00  0.00     0.163 HD
BRANCH  22  25
ATOM     25  CA  TYR d   1     -17.962 -32.367  45.163  0.00  0.00     0.179 C 
ATOM     26  H4  TYR d   1     -19.009 -32.705  45.169  0.00  0.00     0.099 H 
BRANCH  25  27
ATOM     27  N   TYR d   1     -17.827 -31.282  46.127  0.00  0.00    -0.066 N 
ATOM     28  H1  TYR d   1     -18.424 -30.516  45.857  0.00  0.00     0.275 HD
ATOM     29  H2  TYR d   1     -16.869 -30.969  46.149  0.00  0.00     0.275 HD
ATOM     30  H3  TYR d   1     -18.095 -31.610  47.042  0.00  0.00     0.275 HD
ENDBRANCH  25  27
BRANCH  25  31
ATOM     31  CB  TYR d   1     -17.617 -31.877  43.753  0.00  0.00    -0.006 C 
ATOM     32  H5  TYR d   1     -17.430 -32.755  43.116  0.00  0.00     0.043 H 
ATOM     33  H6  TYR d   1     -16.704 -31.266  43.811  0.00  0.00     0.043 H 
BRANCH  31  34
ATOM     34  CG  TYR d   1     -18.707 -31.047  43.114  0.00  0.00    -0.056 A 
ATOM     35  CD1 TYR d   1     -18.746 -29.669  43.277  0.00  0.00    -0.074 A 
ATOM     36  CE1 TYR d   1     -19.742 -28.908  42.694  0.00  0.00    -0.051 A 
ATOM     37  H7  TYR d   1     -17.982 -29.181  43.872  0.00  0.00     0.084 H 
ATOM     38  CZ  TYR d   1     -20.715 -29.526  41.936  0.00  0.00     0.065 A 
ATOM     39  H9  TYR d   1     -19.758 -27.833  42.831  0.00  0.00     0.087 H 
ATOM     40  CE2 TYR d   1     -20.697 -30.893  41.759  0.00  0.00    -0.051 A 
ATOM     41  CD2 TYR d   1     -19.697 -31.644  42.346  0.00  0.00    -0.074 A 
ATOM     42  H10 TYR d   1     -21.463 -31.376  41.163  0.00  0.00     0.087 H 
ATOM     43  H8  TYR d   1     -19.685 -32.719  42.204  0.00  0.00     0.084 H 
BRANCH  38  44
ATOM     44  OH  TYR d   1     -21.710 -28.775  41.353  0.00  0.00    -0.361 OA
ATOM     45  H11 TYR d   1     -21.581 -27.859  41.569  0.00  0.00     0.217 HD
ENDBRANCH  38  44
ENDBRANCH  31  34
ENDBRANCH  25  31
ENDBRANCH  22  25
ENDBRANCH  19  21
BRANCH  19  46
ATOM     46  CB  TYR d   1     -17.116 -37.079  44.503  0.00  0.00     0.044 C 
ATOM     47  H14 TYR d   1     -16.528 -37.965  44.785  0.00  0.00     0.077 H 
ATOM     48  H15 TYR d   1     -17.190 -37.022  43.407  0.00  0.00     0.077 H 
BRANCH  46  49
ATOM     49  OG  TYR d   1     -18.422 -37.197  45.050  0.00  0.00    -0.398 OA
ATOM     50  H16 TYR d   1     -18.936 -36.437  44.806  0.00  0.00     0.209 HD
ENDBRANCH  46  49
ENDBRANCH  19  46
ENDBRANCH  16  19
ENDBRANCH  13  15
BRANCH  13  51
ATOM     51  CB  TYR d   1     -11.677 -36.762  45.184  0.00  0.00     0.036 C 
ATOM     52  H19 TYR d   1     -10.708 -36.826  44.667  0.00  0.00     0.051 H 
ATOM     53  H20 TYR d   1     -11.936 -37.746  45.602  0.00  0.00     0.051 H 
BRANCH  51  54
ATOM     54  CG  TYR d   1     -11.552 -35.770  46.324  0.00  0.00     0.217 A 
ATOM     55  OD1 TYR d   1     -11.524 -34.559  46.110  0.00  0.00    -0.274 OA
ATOM     56  ND2 TYR d   1     -11.476 -36.282  47.545  0.00  0.00    -0.370 N 
ATOM     57  H21 TYR d   1     -11.392 -35.677  48.337  0.00  0.00     0.159 HD
ATOM     58  H22 TYR d   1     -11.502 -37.273  47.674  0.00  0.00     0.159 HD
ENDBRANCH  51  54
ENDBRANCH  13  51
ENDBRANCH  10  13
ENDBRANCH   7   9
BRANCH   7  59
ATOM     59  CB  TYR d   1     -12.968 -37.317  39.576  0.00  0.00     0.076 C 
ATOM     60  H25 TYR d   1     -12.648 -37.750  38.617  0.00  0.00     0.087 H 
BRANCH  59  61
ATOM     61  CG2 TYR d   1     -14.272 -37.982  40.022  0.00  0.00    -0.049 C 
ATOM     62  H26 TYR d   1     -15.046 -37.822  39.257  0.00  0.00     0.031 H 
ATOM     63  H27 TYR d   1     -14.602 -37.541  40.974  0.00  0.00     0.031 H 
ATOM     64  H28 TYR d   1     -14.106 -39.061  40.156  0.00  0.00     0.031 H 
ENDBRANCH  59  61
BRANCH  59  65
ATOM     65  OG1 TYR d   1     -13.114 -35.904  39.445  0.00  0.00    -0.275 OA
BRANCH  65  66
ATOM     66  P   TYR d   1     -13.879 -35.485  38.091  0.00  0.00     0.422 P 
ATOM     67  O1P TYR d   1     -13.404 -36.387  36.842  0.00  0.00    -0.617 OA
ATOM     68  O2P TYR d   1     -13.517 -33.951  37.788  0.00  0.00    -0.617 OA
ATOM     69  O3P TYR d   1     -15.345 -35.586  38.293  0.00  0.00    -0.617 OA
ENDBRANCH  65  66
ENDBRANCH  59  65
ENDBRANCH   7  59
ENDBRANCH   4   7
ENDBRANCH   1   3
BRANCH   1  70
ATOM     70  C   TYR d   1      -8.694 -37.860  37.167  0.00  0.00     0.243 C 
ATOM     71  O   TYR d   1      -9.359 -38.744  36.631  0.00  0.00    -0.271 OA
ATOM     72  N   TYR d   1      -7.987 -36.963  36.456  0.00  0.00    -0.337 N 
ATOM     73  CA  TYR d   1      -7.142 -35.871  36.955  0.00  0.00     0.091 C 
ATOM     74  CD  TYR d   1      -7.962 -37.039  34.984  0.00  0.00    -0.001 C 
ATOM     75  CB  TYR d   1      -6.356 -35.444  35.714  0.00  0.00    -0.036 C 
ATOM     76  H40 TYR d   1      -6.464 -36.240  37.738  0.00  0.00     0.087 H 
ATOM     77  CG  TYR d   1      -7.245 -35.782  34.579  0.00  0.00    -0.048 A 
ATOM     78  H41 TYR d   1      -5.408 -35.998  35.644  0.00  0.00     0.036 H 
ATOM     79  H42 TYR d   1      -6.149 -34.364  35.737  0.00  0.00     0.036 H 
ATOM     80  H43 TYR d   1      -6.654 -35.954  33.667  0.00  0.00     0.035 H 
ATOM     81  H44 TYR d   1      -7.965 -34.970  34.401  0.00  0.00     0.035 H 
ATOM     82  H45 TYR d   1      -8.983 -37.059  34.574  0.00  0.00     0.064 H 
ATOM     83  H46 TYR d   1      -7.414 -37.931  34.646  0.00  0.00     0.064 H 
BRANCH  73  84
ATOM     84  C   TYR d   1      -7.950 -34.702  37.513  0.00  0.00     0.241 C 
ATOM     85  O   TYR d   1      -9.178 -34.725  37.465  0.00  0.00    -0.271 OA
ATOM     86  N   TYR d   1      -7.255 -33.697  38.039  0.00  0.00    -0.346 N 
ATOM     87  H47 TYR d   1      -6.256 -33.749  38.029  0.00  0.00     0.163 HD
BRANCH  86  88
ATOM     88  CA  TYR d   1      -7.886 -32.523  38.630  0.00  0.00     0.092 C 
ATOM     89  H48 TYR d   1      -8.974 -32.683  38.663  0.00  0.00     0.088 H 
BRANCH  88  90
ATOM     90  C   TYR d   1      -7.591 -31.315  37.752  0.00  0.00     0.241 C 
ATOM     91  O   TYR d   1      -6.579 -31.270  37.045  0.00  0.00    -0.271 OA
ATOM     92  N   TYR d   1      -8.496 -30.338  37.782  0.00  0.00    -0.346 N 
ATOM     93  H56 TYR d   1      -9.404 -30.512  38.163  0.00  0.00     0.163 HD
BRANCH  92  94
ATOM     94  CA  TYR d   1      -8.168 -29.018  37.262  0.00  0.00     0.089 C 
ATOM     95  H57 TYR d   1      -7.931 -29.108  36.192  0.00  0.00     0.087 H 
BRANCH  94  96
ATOM     96  C   TYR d   1      -6.954 -28.461  37.999  0.00  0.00     0.241 C 
ATOM     97  O   TYR d   1      -6.663 -28.835  39.138  0.00  0.00    -0.271 OA
ATOM     98  N   TYR d   1      -6.245 -27.548  37.344  0.00  0.00    -0.345 N 
ATOM     99  H69 TYR d   1      -6.479 -27.320  36.399  0.00  0.00     0.163 HD
BRANCH  98 100
ATOM    100  CA  TYR d   1      -5.126 -26.877  37.997  0.00  0.00     0.096 C 
ATOM    101  H70 TYR d   1      -4.758 -27.526  38.806  0.00  0.00     0.089 H 
BRANCH 100 102
ATOM    102  C   TYR d   1      -5.584 -25.556  38.606  0.00  0.00     0.196 C 
ATOM    103  O   TYR d   1      -6.672 -25.066  38.301  0.00  0.00    -0.646 OA
ATOM    104  OXT TYR d   1      -4.874 -24.956  39.414  0.00  0.00    -0.646 OA
ENDBRANCH 100 102
BRANCH 100 105
ATOM    105  CB  TYR d   1      -3.979 -26.635  37.015  0.00  0.00    -0.037 C 
ATOM    106  H71 TYR d   1      -4.309 -25.894  36.272  0.00  0.00     0.036 H 
ATOM    107  H72 TYR d   1      -3.749 -27.584  36.509  0.00  0.00     0.036 H 
BRANCH 105 108
ATOM    108  CG  TYR d   1      -2.699 -26.118  37.676  0.00  0.00    -0.061 A 
ATOM    109  H73 TYR d   1      -2.910 -25.146  38.146  0.00  0.00     0.033 H 
ATOM    110  H74 TYR d   1      -1.926 -25.992  36.903  0.00  0.00     0.033 H 
BRANCH 108 111
ATOM    111  CD  TYR d   1      -2.177 -27.081  38.744  0.00  0.00    -0.043 C 
ATOM    112  H75 TYR d   1      -2.089 -28.086  38.304  0.00  0.00     0.035 H 
ATOM    113  H76 TYR d   1      -2.892 -27.107  39.579  0.00  0.00     0.035 H 
BRANCH 111 114
ATOM    114  CE  TYR d   1      -0.815 -26.656  39.276  0.00  0.00     0.080 C 
ATOM    115  H77 TYR d   1      -0.092 -26.669  38.447  0.00  0.00     0.075 H 
ATOM    116  H78 TYR d   1      -0.499 -27.371  40.050  0.00  0.00     0.075 H 
BRANCH 114 117
ATOM    117  NZ  TYR d   1      -0.840 -25.288  39.869  0.00  0.00    -0.079 N 
ATOM    118  H79 TYR d   1       0.080 -25.051  40.206  0.00  0.00     0.274 HD
ATOM    119  H80 TYR d   1      -1.495 -25.266  40.635  0.00  0.00     0.274 HD
ATOM    120  H81 TYR d   1      -1.122 -24.622  39.166  0.00  0.00     0.274 HD
ENDBRANCH 114 117
ENDBRANCH 111 114
ENDBRANCH 108 111
ENDBRANCH 105 108
ENDBRANCH 100 105
ENDBRANCH  98 100
ENDBRANCH  94  96
BRANCH  94 121
ATOM    121  CB  TYR d   1      -9.342 -28.052  37.430  0.00  0.00    -0.036 C 
ATOM    122  H58 TYR d   1      -8.967 -27.031  37.265  0.00  0.00     0.036 H 
ATOM    123  H59 TYR d   1      -9.711 -28.145  38.462  0.00  0.00     0.036 H 
BRANCH 121 124
ATOM    124  CG  TYR d   1     -10.515 -28.275  36.493  0.00  0.00    -0.048 A 
ATOM    125  H60 TYR d   1     -10.925 -29.282  36.659  0.00  0.00     0.035 H 
ATOM    126  H61 TYR d   1     -10.169 -28.186  35.453  0.00  0.00     0.035 H 
BRANCH 124 127
ATOM    127  CD  TYR d   1     -11.609 -27.238  36.750  0.00  0.00     0.009 C 
ATOM    128  H62 TYR d   1     -11.637 -27.013  37.826  0.00  0.00     0.064 H 
ATOM    129  H63 TYR d   1     -12.576 -27.660  36.438  0.00  0.00     0.064 H 
BRANCH 127 130
ATOM    130  NE  TYR d   1     -11.380 -25.995  36.016  0.00  0.00    -0.227 N 
ATOM    131  CZ  TYR d   1     -11.928 -24.822  36.326  0.00  0.00     0.665 A 
ATOM    132  NH1 TYR d   1     -12.734 -24.711  37.373  0.00  0.00    -0.235 N 
ATOM    133  NH2 TYR d   1     -11.662 -23.751  35.591  0.00  0.00    -0.235 N 
ATOM    134  H65 TYR d   1     -13.154 -23.800  37.605  0.00  0.00     0.174 HD
ATOM    135  H66 TYR d   1     -12.941 -25.536  37.954  0.00  0.00     0.174 HD
ATOM    136  H67 TYR d   1     -11.037 -23.828  34.776  0.00  0.00     0.174 HD
ATOM    137  H68 TYR d   1     -12.080 -22.842  35.835  0.00  0.00     0.174 HD
ATOM    138  H64 TYR d   1     -10.750 -26.029  35.202  0.00  0.00     0.177 HD
ENDBRANCH 127 130
ENDBRANCH 124 127
ENDBRANCH 121 124
ENDBRANCH  94 121
ENDBRANCH  92  94
ENDBRANCH  88  90
BRANCH  88 139
ATOM    139  CB  TYR d   1      -7.383 -32.287  40.073  0.00  0.00    -0.033 C 
ATOM    140  H49 TYR d   1      -6.330 -31.974  40.021  0.00  0.00     0.042 H 
BRANCH 139 141
ATOM    141  CG1 TYR d   1      -8.175 -31.179  40.755  0.00  0.00    -0.071 C 
ATOM    142  H50 TYR d   1      -7.796 -31.034  41.777  0.00  0.00     0.028 H 
ATOM    143  H51 TYR d   1      -9.238 -31.459  40.794  0.00  0.00     0.028 H 
ATOM    144  H52 TYR d   1      -8.063 -30.244  40.186  0.00  0.00     0.028 H 
ENDBRANCH 139 141
BRANCH 139 145
ATOM    145  CG2 TYR d   1      -7.460 -33.575  40.890  0.00  0.00    -0.071 C 
ATOM    146  H53 TYR d   1      -6.884 -34.364  40.385  0.00  0.00     0.028 H 
ATOM    147  H54 TYR d   1      -8.510 -33.889  40.981  0.00  0.00     0.028 H 
ATOM    148  H55 TYR d   1      -7.041 -33.399  41.892  0.00  0.00     0.028 H 
ENDBRANCH 139 145
ENDBRANCH  88 139
ENDBRANCH  86  88
ENDBRANCH  73  84
ENDBRANCH   1  70
BRANCH   1 149
ATOM    149  CB  TYR d   1      -7.596 -38.742  39.227  0.00  0.00    -0.035 C 
ATOM    150  H31 TYR d   1      -6.664 -38.590  38.663  0.00  0.00     0.037 H 
ATOM    151  H32 TYR d   1      -7.969 -39.762  39.052  0.00  0.00     0.037 H 
BRANCH 149 152
ATOM    152  CG  TYR d   1      -7.275 -38.606  40.713  0.00  0.00    -0.059 A 
ATOM    153  H33 TYR d   1      -8.220 -38.585  41.275  0.00  0.00     0.038 H 
BRANCH 152 154
ATOM    154  CD1 TYR d   1      -6.465 -39.803  41.178  0.00  0.00    -0.073 A 
ATOM    155  H34 TYR d   1      -6.238 -39.698  42.249  0.00  0.00     0.028 H 
ATOM    156  H35 TYR d   1      -5.526 -39.855  40.607  0.00  0.00     0.028 H 
ATOM    157  H36 TYR d   1      -7.044 -40.724  41.015  0.00  0.00     0.028 H 
ENDBRANCH 152 154
BRANCH 152 158
ATOM    158  CD2 TYR d   1      -6.530 -37.308  40.979  0.00  0.00    -0.073 A 
ATOM    159  H37 TYR d   1      -7.138 -36.459  40.633  0.00  0.00     0.028 H 
ATOM    160  H38 TYR d   1      -5.572 -37.317  40.438  0.00  0.00     0.028 H 
ATOM    161  H39 TYR d   1      -6.341 -37.208  42.058  0.00  0.00     0.028 H 
ENDBRANCH 152 158
ENDBRANCH 149 152
ENDBRANCH   1 149
TORSDOF 44
