REMARK WARNING: 32 MAX_TORS EXCEEDED!!!
REMARK  48 active torsions:
REMARK  status: ('A' for Active; 'I' for Inactive)
REMARK    1  A    between atoms: N_1  and  CA_2 
REMARK    2  A    between atoms: CA_2  and  C_3 
REMARK    3  A    between atoms: CA_2  and  CB_5 
REMARK       I    between atoms: C_3  and  N_8 
REMARK    4  A    between atoms: CB_5  and  OG1_6 
REMARK    5  A    between atoms: CB_5  and  CG2_7 
REMARK    6  A    between atoms: N_8  and  CA_9 
REMARK    7  A    between atoms: CA_9  and  C_10 
REMARK    8  A    between atoms: CA_9  and  CB_12 
REMARK       I    between atoms: C_10  and  N_17 
REMARK    9  A    between atoms: CB_12  and  CG_13 
REMARK   10  A    between atoms: CG_13  and  CD_14 
REMARK   11  A    between atoms: N_17  and  CA_18 
REMARK   12  A    between atoms: CA_18  and  C_19 
REMARK   13  A    between atoms: CA_18  and  CB_21 
REMARK       I    between atoms: C_19  and  N_25 
REMARK   14  A    between atoms: CB_21  and  CG_22 
REMARK       I    between atoms: CG_22  and  ND2_24 
REMARK   15  A    between atoms: N_25  and  CA_26 
REMARK   16  A    between atoms: CA_26  and  C_27 
REMARK   17  A    between atoms: CA_26  and  CB_29 
REMARK       I    between atoms: C_27  and  N_34 
REMARK   18  A    between atoms: CB_29  and  CG_30 
REMARK   19  A    between atoms: CG_30  and  CD_31 
REMARK   20  A    between atoms: CD_31  and  CE_32 
REMARK   21  A    between atoms: CE_32  and  NZ_33 
REMARK   22  A    between atoms: N_34  and  CA_35 
REMARK   23  A    between atoms: CA_35  and  CB_36 
REMARK   24  A    between atoms: CA_35  and  C_43 
REMARK   25  A    between atoms: CB_36  and  CG2_37 
REMARK   26  A    between atoms: CB_36  and  OG1_38 
REMARK   27  A    between atoms: OG1_38  and  P_39 
REMARK       I    between atoms: C_43  and  N_45 
REMARK   28  A    between atoms: N_45  and  CA_46 
REMARK   29  A    between atoms: CA_46  and  C_47 
REMARK   30  A    between atoms: CA_46  and  CB_49 
REMARK       I    between atoms: C_47  and  N_53 
REMARK   31  A    between atoms: CB_49  and  CG_50 
REMARK   32  A    between atoms: CG_50  and  CD1_51 
REMARK   33  A    between atoms: CG_50  and  CD2_52 
REMARK   34  A    between atoms: CA_54  and  C_55 
REMARK       I    between atoms: C_55  and  N_60 
REMARK   35  A    between atoms: N_60  and  CA_61 
REMARK   36  A    between atoms: CA_61  and  C_62 
REMARK   37  A    between atoms: CA_61  and  CB_64 
REMARK       I    between atoms: C_62  and  N_71 
REMARK   38  A    between atoms: CB_64  and  CG_65 
REMARK   39  A    between atoms: CG_65  and  CD_66 
REMARK   40  A    between atoms: CD_66  and  NE_67 
REMARK       I    between atoms: NE_67  and  CZ_68 
REMARK       I    between atoms: CZ_68  and  NH1_69 
REMARK   41  A    between atoms: N_71  and  CA_72 
REMARK   42  A    between atoms: CA_72  and  C_73 
REMARK   43  A    between atoms: CA_72  and  CB_75 
REMARK       I    between atoms: C_73  and  N_77 
REMARK   44  A    between atoms: CB_75  and  OG_76 
REMARK   45  A    between atoms: N_77  and  CA_78 
REMARK   46  A    between atoms: CA_78  and  C_79 
REMARK   47  A    between atoms: CA_78  and  CB_81 
REMARK   48  A    between atoms: CB_81  and  OG_82 
ROOT
ATOM      1  CA  THR d   1       2.130 -13.337 -16.478  0.00  0.00     0.114 C 
ATOM      2  H36 THR d   1       2.147 -14.388 -16.154  0.00  0.00     0.091 H 
ENDROOT
BRANCH   1   3
ATOM      3  N   THR d   1       1.858 -12.485 -15.328  0.00  0.00    -0.344 N 
ATOM      4  C   THR d   1       1.357 -12.948 -14.188  0.00  0.00     0.241 C 
ATOM      5  O   THR d   1       0.994 -14.116 -14.031  0.00  0.00    -0.271 OA
ATOM      6  H35 THR d   1       2.057 -11.508 -15.400  0.00  0.00     0.163 HD
BRANCH   4   7
ATOM      7  CA  THR d   1       1.226 -11.926 -13.066  0.00  0.00     0.089 C 
ATOM      8  H23 THR d   1       1.347 -10.921 -13.498  0.00  0.00     0.087 H 
BRANCH   7   9
ATOM      9  N   THR d   1      -0.089 -12.005 -12.446  0.00  0.00    -0.346 N 
ATOM     10  C   THR d   1      -1.156 -11.450 -13.008  0.00  0.00     0.241 C 
ATOM     11  O   THR d   1      -1.116 -10.865 -14.094  0.00  0.00    -0.271 OA
ATOM     12  H22 THR d   1      -0.191 -12.489 -11.577  0.00  0.00     0.163 HD
BRANCH  10  13
ATOM     13  CA  THR d   1      -2.464 -11.571 -12.238  0.00  0.00     0.097 C 
ATOM     14  H17 THR d   1      -2.245 -11.940 -11.225  0.00  0.00     0.088 H 
BRANCH  13  15
ATOM     15  N   THR d   1      -3.106 -10.269 -12.135  0.00  0.00    -0.346 N 
ATOM     16  C   THR d   1      -2.811  -9.408 -11.163  0.00  0.00     0.241 C 
ATOM     17  O   THR d   1      -1.949  -9.620 -10.306  0.00  0.00    -0.271 OA
ATOM     18  H16 THR d   1      -3.791 -10.012 -12.817  0.00  0.00     0.163 HD
BRANCH  16  19
ATOM     19  CA  THR d   1      -3.620  -8.118 -11.187  0.00  0.00     0.090 C 
ATOM     20  H11 THR d   1      -4.675  -8.372 -11.370  0.00  0.00     0.087 H 
BRANCH  19  21
ATOM     21  N   THR d   1      -3.535  -7.438  -9.902  0.00  0.00    -0.346 N 
ATOM     22  C   THR d   1      -4.622  -7.013  -9.255  0.00  0.00     0.251 C 
ATOM     23  O   THR d   1      -5.764  -7.262  -9.646  0.00  0.00    -0.271 OA
ATOM     24  H10 THR d   1      -2.636  -7.285  -9.492  0.00  0.00     0.163 HD
BRANCH  22  25
ATOM     25  CA  THR d   1      -4.406  -6.204  -7.972  0.00  0.00     0.199 C 
ATOM     26  H4  THR d   1      -3.683  -5.401  -8.176  0.00  0.00     0.103 H 
BRANCH  25  27
ATOM     27  N   THR d   1      -5.661  -5.597  -7.549  0.00  0.00    -0.064 N 
ATOM     28  H1  THR d   1      -6.013  -5.005  -8.285  0.00  0.00     0.275 HD
ATOM     29  H2  THR d   1      -5.505  -5.045  -6.720  0.00  0.00     0.275 HD
ATOM     30  H3  THR d   1      -6.334  -6.321  -7.349  0.00  0.00     0.275 HD
ENDBRANCH  25  27
BRANCH  25  31
ATOM     31  CB  THR d   1      -3.826  -7.117  -6.884  0.00  0.00     0.068 C 
ATOM     32  H5  THR d   1      -4.200  -8.140  -7.034  0.00  0.00     0.086 H 
BRANCH  31  33
ATOM     33  OG1 THR d   1      -4.232  -6.647  -5.594  0.00  0.00    -0.393 OA
ATOM     34  H6  THR d   1      -3.871  -7.215  -4.923  0.00  0.00     0.210 HD
ENDBRANCH  31  33
BRANCH  31  35
ATOM     35  CG2 THR d   1      -2.305  -7.122  -6.960  0.00  0.00    -0.050 C 
ATOM     36  H7  THR d   1      -1.901  -7.779  -6.176  0.00  0.00     0.031 H 
ATOM     37  H8  THR d   1      -1.927  -6.100  -6.812  0.00  0.00     0.031 H 
ATOM     38  H9  THR d   1      -1.988  -7.491  -7.947  0.00  0.00     0.031 H 
ENDBRANCH  31  35
ENDBRANCH  25  31
ENDBRANCH  22  25
ENDBRANCH  19  21
BRANCH  19  39
ATOM     39  CB  THR d   1      -3.134  -7.220 -12.339  0.00  0.00    -0.029 C 
ATOM     40  H12 THR d   1      -2.358  -7.763 -12.898  0.00  0.00     0.037 H 
ATOM     41  H13 THR d   1      -2.702  -6.305 -11.907  0.00  0.00     0.037 H 
BRANCH  39  42
ATOM     42  CG  THR d   1      -4.237  -6.817 -13.315  0.00  0.00     0.018 C 
ATOM     43  H14 THR d   1      -3.804  -6.158 -14.082  0.00  0.00     0.049 H 
ATOM     44  H15 THR d   1      -5.015  -6.272 -12.760  0.00  0.00     0.049 H 
BRANCH  42  45
ATOM     45  CD  THR d   1      -4.880  -8.012 -14.007  0.00  0.00     0.172 C 
ATOM     46  OE1 THR d   1      -4.248  -9.090 -14.060  0.00  0.00    -0.648 OA
ATOM     47  OE2 THR d   1      -6.022  -7.874 -14.492  0.00  0.00    -0.648 OA
ENDBRANCH  42  45
ENDBRANCH  39  42
ENDBRANCH  19  39
ENDBRANCH  16  19
ENDBRANCH  13  15
BRANCH  13  48
ATOM     48  CB  THR d   1      -3.402 -12.560 -12.930  0.00  0.00     0.036 C 
ATOM     49  H18 THR d   1      -3.080 -13.583 -12.684  0.00  0.00     0.051 H 
ATOM     50  H19 THR d   1      -3.336 -12.407 -14.017  0.00  0.00     0.051 H 
BRANCH  48  51
ATOM     51  CG  THR d   1      -4.846 -12.388 -12.501  0.00  0.00     0.217 C 
ATOM     52  OD1 THR d   1      -5.743 -12.277 -13.336  0.00  0.00    -0.274 OA
ATOM     53  ND2 THR d   1      -5.076 -12.350 -11.195  0.00  0.00    -0.370 N 
ATOM     54  H20 THR d   1      -6.010 -12.238 -10.855  0.00  0.00     0.159 HD
ATOM     55  H21 THR d   1      -4.316 -12.433 -10.551  0.00  0.00     0.159 HD
ENDBRANCH  48  51
ENDBRANCH  13  48
ENDBRANCH  10  13
ENDBRANCH   7   9
BRANCH   7  56
ATOM     56  CB  THR d   1       2.318 -12.135 -12.015  0.00  0.00    -0.038 C 
ATOM     57  H24 THR d   1       3.288 -11.862 -12.456  0.00  0.00     0.036 H 
ATOM     58  H25 THR d   1       2.332 -13.197 -11.728  0.00  0.00     0.036 H 
BRANCH  56  59
ATOM     59  CG  THR d   1       2.097 -11.298 -10.770  0.00  0.00    -0.061 C 
ATOM     60  H26 THR d   1       1.650 -11.932  -9.991  0.00  0.00     0.033 H 
ATOM     61  H27 THR d   1       1.409 -10.475 -11.013  0.00  0.00     0.033 H 
BRANCH  59  62
ATOM     62  CD  THR d   1       3.389 -10.713 -10.241  0.00  0.00    -0.043 C 
ATOM     63  H28 THR d   1       3.951 -10.269 -11.076  0.00  0.00     0.035 H 
ATOM     64  H29 THR d   1       3.986 -11.515  -9.783  0.00  0.00     0.035 H 
BRANCH  62  65
ATOM     65  CE  THR d   1       3.115  -9.643  -9.202  0.00  0.00     0.080 C 
ATOM     66  H30 THR d   1       2.062  -9.710  -8.892  0.00  0.00     0.075 H 
ATOM     67  H31 THR d   1       3.303  -8.656  -9.650  0.00  0.00     0.075 H 
BRANCH  65  68
ATOM     68  NZ  THR d   1       3.980  -9.799  -8.003  0.00  0.00    -0.079 N 
ATOM     69  H32 THR d   1       3.768  -9.071  -7.339  0.00  0.00     0.274 HD
ATOM     70  H33 THR d   1       4.948  -9.733  -8.276  0.00  0.00     0.274 HD
ATOM     71  H34 THR d   1       3.811 -10.699  -7.581  0.00  0.00     0.274 HD
ENDBRANCH  65  68
ENDBRANCH  62  65
ENDBRANCH  59  62
ENDBRANCH  56  59
ENDBRANCH   7  56
ENDBRANCH   4   7
ENDBRANCH   1   3
BRANCH   1  72
ATOM     72  CB  THR d   1       1.048 -13.170 -17.536  0.00  0.00     0.076 C 
ATOM     73  H37 THR d   1       1.405 -13.560 -18.500  0.00  0.00     0.087 H 
BRANCH  72  74
ATOM     74  CG2 THR d   1      -0.212 -13.939 -17.118  0.00  0.00    -0.049 C 
ATOM     75  H38 THR d   1      -0.989 -13.814 -17.886  0.00  0.00     0.031 H 
ATOM     76  H39 THR d   1      -0.579 -13.547 -16.158  0.00  0.00     0.031 H 
ATOM     77  H40 THR d   1       0.029 -15.007 -17.010  0.00  0.00     0.031 H 
ENDBRANCH  72  74
BRANCH  72  78
ATOM     78  OG1 THR d   1       0.779 -11.772 -17.654  0.00  0.00    -0.275 OA
BRANCH  78  79
ATOM     79  P   THR d   1       0.119 -11.433 -19.084  0.00  0.00     0.422 P 
ATOM     80  O1P THR d   1       0.735 -12.351 -20.252  0.00  0.00    -0.617 OA
ATOM     81  O2P THR d   1       0.416  -9.884 -19.426  0.00  0.00    -0.617 OA
ATOM     82  O3P THR d   1      -1.347 -11.638 -19.003  0.00  0.00    -0.617 OA
ENDBRANCH  78  79
ENDBRANCH  72  78
ENDBRANCH   1  72
BRANCH   1  83
ATOM     83  C   THR d   1       3.501 -12.963 -17.034  0.00  0.00     0.243 C 
ATOM     84  O   THR d   1       3.962 -11.840 -16.833  0.00  0.00    -0.271 OA
ATOM     85  N   THR d   1       4.150 -13.895 -17.724  0.00  0.00    -0.346 N 
ATOM     86  H41 THR d   1       3.735 -14.798 -17.834  0.00  0.00     0.163 HD
BRANCH  85  87
ATOM     87  CA  THR d   1       5.456 -13.632 -18.326  0.00  0.00     0.090 C 
ATOM     88  H42 THR d   1       5.742 -12.597 -18.088  0.00  0.00     0.087 H 
BRANCH  87  89
ATOM     89  C   THR d   1       5.410 -13.783 -19.844  0.00  0.00     0.243 C 
ATOM     90  O   THR d   1       4.700 -14.643 -20.355  0.00  0.00    -0.271 OA
ATOM     91  N   THR d   1       6.163 -12.943 -20.576  0.00  0.00    -0.337 N 
ATOM     92  CA  THR d   1       6.950 -11.815 -20.066  0.00  0.00     0.091 C 
ATOM     93  CD  THR d   1       6.306 -13.086 -22.036  0.00  0.00    -0.001 C 
ATOM     94  CB  THR d   1       7.868 -11.468 -21.238  0.00  0.00    -0.036 C 
ATOM     95  H52 THR d   1       7.537 -12.115 -19.186  0.00  0.00     0.087 H 
ATOM     96  CG  THR d   1       7.096 -11.866 -22.435  0.00  0.00    -0.048 C 
ATOM     97  H53 THR d   1       8.810 -12.033 -21.176  0.00  0.00     0.036 H 
ATOM     98  H54 THR d   1       8.087 -10.390 -21.256  0.00  0.00     0.036 H 
ATOM     99  H55 THR d   1       7.776 -12.106 -23.265  0.00  0.00     0.035 H 
ATOM    100  H56 THR d   1       6.418 -11.055 -22.739  0.00  0.00     0.035 H 
ATOM    101  H57 THR d   1       5.322 -13.095 -22.528  0.00  0.00     0.064 H 
ATOM    102  H58 THR d   1       6.851 -14.007 -22.289  0.00  0.00     0.064 H 
BRANCH  92 103
ATOM    103  C   THR d   1       6.055 -10.637 -19.695  0.00  0.00     0.241 C 
ATOM    104  O   THR d   1       4.909 -10.584 -20.140  0.00  0.00    -0.271 OA
ATOM    105  N   THR d   1       6.560  -9.712 -18.887  0.00  0.00    -0.346 N 
ATOM    106  H59 THR d   1       7.511  -9.797 -18.588  0.00  0.00     0.163 HD
BRANCH 105 107
ATOM    107  CA  THR d   1       5.775  -8.578 -18.422  0.00  0.00     0.089 C 
ATOM    108  H60 THR d   1       4.728  -8.738 -18.720  0.00  0.00     0.087 H 
BRANCH 107 109
ATOM    109  C   THR d   1       6.271  -7.296 -19.076  0.00  0.00     0.241 C 
ATOM    110  O   THR d   1       7.479  -7.079 -19.209  0.00  0.00    -0.271 OA
ATOM    111  N   THR d   1       5.326  -6.458 -19.493  0.00  0.00    -0.344 N 
ATOM    112  H72 THR d   1       4.365  -6.691 -19.345  0.00  0.00     0.163 HD
BRANCH 111 113
ATOM    113  CA  THR d   1       5.662  -5.210 -20.160  0.00  0.00     0.109 C 
ATOM    114  H73 THR d   1       6.336  -5.431 -21.000  0.00  0.00     0.090 H 
BRANCH 113 115
ATOM    115  C   THR d   1       6.374  -4.266 -19.200  0.00  0.00     0.243 C 
ATOM    116  O   THR d   1       5.992  -4.135 -18.033  0.00  0.00    -0.271 OA
ATOM    117  N   THR d   1       7.413  -3.604 -19.698  0.00  0.00    -0.343 N 
ATOM    118  H77 THR d   1       7.667  -3.742 -20.655  0.00  0.00     0.163 HD
BRANCH 117 119
ATOM    119  CA  THR d   1       8.191  -2.682 -18.881  0.00  0.00     0.116 C 
ATOM    120  H78 THR d   1       8.372  -3.152 -17.903  0.00  0.00     0.093 H 
BRANCH 119 121
ATOM    121  C   THR d   1       7.426  -1.381 -18.657  0.00  0.00     0.198 C 
ATOM    122  O   THR d   1       6.231  -1.293 -18.945  0.00  0.00    -0.646 OA
ATOM    123  OXT THR d   1       7.987  -0.391 -18.183  0.00  0.00    -0.646 OA
ENDBRANCH 119 121
BRANCH 119 124
ATOM    124  CB  THR d   1       9.542  -2.394 -19.538  0.00  0.00     0.045 C 
ATOM    125  H79 THR d   1      10.030  -3.347 -19.789  0.00  0.00     0.077 H 
ATOM    126  H80 THR d   1      10.173  -1.834 -18.832  0.00  0.00     0.077 H 
BRANCH 124 127
ATOM    127  OG  THR d   1       9.382  -1.630 -20.721  0.00  0.00    -0.398 OA
ATOM    128  H81 THR d   1      10.234  -1.466 -21.108  0.00  0.00     0.209 HD
ENDBRANCH 124 127
ENDBRANCH 119 124
ENDBRANCH 117 119
ENDBRANCH 113 115
BRANCH 113 129
ATOM    129  CB  THR d   1       4.397  -4.548 -20.707  0.00  0.00     0.044 C 
ATOM    130  H74 THR d   1       4.679  -3.657 -21.288  0.00  0.00     0.077 H 
ATOM    131  H75 THR d   1       3.755  -4.249 -19.865  0.00  0.00     0.077 H 
BRANCH 129 132
ATOM    132  OG  THR d   1       3.679  -5.438 -21.544  0.00  0.00    -0.398 OA
ATOM    133  H76 THR d   1       3.430  -6.208 -21.046  0.00  0.00     0.209 HD
ENDBRANCH 129 132
ENDBRANCH 113 129
ENDBRANCH 111 113
ENDBRANCH 107 109
BRANCH 107 134
ATOM    134  CB  THR d   1       5.825  -8.457 -16.895  0.00  0.00    -0.036 C 
ATOM    135  H61 THR d   1       5.226  -9.277 -16.472  0.00  0.00     0.036 H 
ATOM    136  H62 THR d   1       5.374  -7.492 -16.618  0.00  0.00     0.036 H 
BRANCH 134 137
ATOM    137  CG  THR d   1       7.212  -8.521 -16.267  0.00  0.00    -0.048 C 
ATOM    138  H63 THR d   1       7.718  -7.554 -16.403  0.00  0.00     0.035 H 
ATOM    139  H64 THR d   1       7.797  -9.313 -16.757  0.00  0.00     0.035 H 
BRANCH 137 140
ATOM    140  CD  THR d   1       7.098  -8.825 -14.779  0.00  0.00     0.009 C 
ATOM    141  H65 THR d   1       6.855  -9.891 -14.656  0.00  0.00     0.064 H 
ATOM    142  H66 THR d   1       6.287  -8.213 -14.357  0.00  0.00     0.064 H 
BRANCH 140 143
ATOM    143  NE  THR d   1       8.329  -8.539 -14.044  0.00  0.00    -0.227 N 
ATOM    144  CZ  THR d   1       8.656  -7.345 -13.555  0.00  0.00     0.665 C 
ATOM    145  NH1 THR d   1       9.796  -7.188 -12.897  0.00  0.00    -0.235 N 
ATOM    146  NH2 THR d   1       7.850  -6.304 -13.727  0.00  0.00    -0.235 N 
ATOM    147  H68 THR d   1      10.049  -6.264 -12.518  0.00  0.00     0.174 HD
ATOM    148  H69 THR d   1      10.429  -7.990 -12.764  0.00  0.00     0.174 HD
ATOM    149  H70 THR d   1       6.963  -6.418 -14.237  0.00  0.00     0.174 HD
ATOM    150  H71 THR d   1       8.112  -5.382 -13.350  0.00  0.00     0.174 HD
ATOM    151  H67 THR d   1       8.989  -9.315 -13.894  0.00  0.00     0.177 HD
ENDBRANCH 140 143
ENDBRANCH 137 140
ENDBRANCH 134 137
ENDBRANCH 107 134
ENDBRANCH 105 107
ENDBRANCH  92 103
ENDBRANCH  87  89
BRANCH  87 152
ATOM    152  CB  THR d   1       6.514 -14.573 -17.749  0.00  0.00    -0.035 C 
ATOM    153  H43 THR d   1       7.414 -14.489 -18.375  0.00  0.00     0.037 H 
ATOM    154  H44 THR d   1       6.119 -15.598 -17.809  0.00  0.00     0.037 H 
BRANCH 152 155
ATOM    155  CG  THR d   1       6.930 -14.319 -16.300  0.00  0.00    -0.059 C 
ATOM    156  H45 THR d   1       6.031 -14.366 -15.668  0.00  0.00     0.038 H 
BRANCH 155 157
ATOM    157  CD1 THR d   1       7.897 -15.396 -15.842  0.00  0.00    -0.073 C 
ATOM    158  H46 THR d   1       8.191 -15.206 -14.799  0.00  0.00     0.028 H 
ATOM    159  H47 THR d   1       8.791 -15.383 -16.483  0.00  0.00     0.028 H 
ATOM    160  H48 THR d   1       7.410 -16.380 -15.912  0.00  0.00     0.028 H 
ENDBRANCH 155 157
BRANCH 155 161
ATOM    161  CD2 THR d   1       7.555 -12.937 -16.140  0.00  0.00    -0.073 C 
ATOM    162  H49 THR d   1       6.841 -12.171 -16.476  0.00  0.00     0.028 H 
ATOM    163  H50 THR d   1       8.471 -12.876 -16.746  0.00  0.00     0.028 H 
ATOM    164  H51 THR d   1       7.804 -12.767 -15.082  0.00  0.00     0.028 H 
ENDBRANCH 155 161
ENDBRANCH 152 155
ENDBRANCH  87 152
ENDBRANCH  85  87
ENDBRANCH   1  83
TORSDOF 48
