REMARK  31 active torsions:
REMARK  status: ('A' for Active; 'I' for Inactive)
REMARK    1  A    between atoms: N_1  and  CA_2 
REMARK    2  A    between atoms: CA_2  and  C_3 
REMARK    3  A    between atoms: CA_2  and  CB_5 
REMARK       I    between atoms: C_3  and  N_12 
REMARK    4  A    between atoms: CB_5  and  CG_6 
REMARK    5  A    between atoms: CG_6  and  CD_7 
REMARK    6  A    between atoms: CD_7  and  NE_8 
REMARK       I    between atoms: NE_8  and  CZ_9 
REMARK       I    between atoms: CZ_9  and  NH1_10 
REMARK    7  A    between atoms: N_12  and  CA_13 
REMARK    8  A    between atoms: CA_13  and  C_14 
REMARK    9  A    between atoms: CA_13  and  CB_16 
REMARK       I    between atoms: C_14  and  N_18 
REMARK   10  A    between atoms: CB_16  and  OG_17 
REMARK   11  A    between atoms: N_18  and  CA_19 
REMARK   12  A    between atoms: CA_19  and  C_20 
REMARK   13  A    between atoms: CA_19  and  CB_22 
REMARK       I    between atoms: C_20  and  N_24 
REMARK   14  A    between atoms: CB_22  and  OG_23 
REMARK   15  A    between atoms: N_24  and  CA_25 
REMARK   16  A    between atoms: CA_25  and  CB_26 
REMARK   17  A    between atoms: CA_25  and  C_28 
REMARK   18  A    between atoms: CB_26  and  OG_27 
REMARK   19  A    between atoms: OG_27  and  P_30 
REMARK       I    between atoms: C_28  and  N_34 
REMARK   20  A    between atoms: N_34  and  CA_35 
REMARK   21  A    between atoms: CA_35  and  C_36 
REMARK   22  A    between atoms: CA_35  and  CB_38 
REMARK       I    between atoms: C_36  and  N_42 
REMARK   23  A    between atoms: CB_38  and  CG_39 
REMARK   24  A    between atoms: CG_39  and  SD_40 
REMARK   25  A    between atoms: SD_40  and  CE_41 
REMARK   26  A    between atoms: N_42  and  CA_43 
REMARK   27  A    between atoms: CA_43  and  C_44 
REMARK   28  A    between atoms: CA_43  and  CB_46 
REMARK       I    between atoms: C_44  and  N_47 
REMARK   29  A    between atoms: N_47  and  CA_48 
REMARK   30  A    between atoms: CA_48  and  C_49 
REMARK   31  A    between atoms: CA_48  and  CB_51 
ROOT
ATOM      1  C   ARG d   1      -4.780  -5.975  25.585  0.00  0.00     0.243 C 
ATOM      2  O   ARG d   1      -4.521  -4.876  26.078  0.00  0.00    -0.271 OA
ATOM      3  N   ARG d   1      -5.619  -6.139  24.568  0.00  0.00    -0.344 N 
ATOM      4  H26 ARG d   1      -5.696  -7.043  24.146  0.00  0.00     0.163 HD
ENDROOT
BRANCH   3   5
ATOM      5  CA  ARG d   1      -6.431  -5.048  24.046  0.00  0.00     0.110 C 
ATOM      6  H27 ARG d   1      -6.029  -4.093  24.416  0.00  0.00     0.090 H 
BRANCH   5   7
ATOM      7  CB  ARG d   1      -6.399  -5.030  22.518  0.00  0.00     0.059 C 
ATOM      8  H28 ARG d   1      -5.354  -4.967  22.181  0.00  0.00     0.079 H 
ATOM      9  H29 ARG d   1      -6.954  -4.151  22.157  0.00  0.00     0.079 H 
BRANCH   7  10
ATOM     10  OG  ARG d   1      -6.988  -6.201  21.982  0.00  0.00    -0.280 OA
BRANCH  10  11
ATOM     11  P   ARG d   1      -6.643  -6.338  20.416  0.00  0.00     0.422 P 
ATOM     12  O1P ARG d   1      -7.249  -5.079  19.618  0.00  0.00    -0.617 OA
ATOM     13  O2P ARG d   1      -5.050  -6.381  20.196  0.00  0.00    -0.617 OA
ATOM     14  O3P ARG d   1      -7.297  -7.701  19.858  0.00  0.00    -0.617 OA
ENDBRANCH  10  11
ENDBRANCH   7  10
ENDBRANCH   5   7
BRANCH   5  15
ATOM     15  C   ARG d   1      -7.855  -5.219  24.558  0.00  0.00     0.243 C 
ATOM     16  O   ARG d   1      -8.162  -6.217  25.204  0.00  0.00    -0.271 OA
ATOM     17  N   ARG d   1      -8.724  -4.255  24.277  0.00  0.00    -0.346 N 
ATOM     18  H30 ARG d   1      -8.448  -3.492  23.692  0.00  0.00     0.163 HD
BRANCH  17  19
ATOM     19  CA  ARG d   1     -10.078  -4.302  24.817  0.00  0.00     0.090 C 
ATOM     20  H31 ARG d   1     -10.009  -4.383  25.912  0.00  0.00     0.087 H 
BRANCH  19  21
ATOM     21  C   ARG d   1     -10.819  -5.523  24.287  0.00  0.00     0.241 C 
ATOM     22  O   ARG d   1     -10.597  -5.955  23.156  0.00  0.00    -0.271 OA
ATOM     23  N   ARG d   1     -11.701  -6.078  25.121  0.00  0.00    -0.346 N 
ATOM     24  H39 ARG d   1     -11.818  -5.693  26.037  0.00  0.00     0.163 HD
BRANCH  23  25
ATOM     25  CA  ARG d   1     -12.497  -7.233  24.726  0.00  0.00     0.086 C 
ATOM     26  H40 ARG d   1     -11.808  -8.022  24.391  0.00  0.00     0.086 H 
BRANCH  25  27
ATOM     27  C   ARG d   1     -13.451  -6.924  23.580  0.00  0.00     0.240 C 
ATOM     28  O   ARG d   1     -13.996  -7.864  22.991  0.00  0.00    -0.271 OA
ATOM     29  N   ARG d   1     -13.655  -5.644  23.261  0.00  0.00    -0.345 N 
ATOM     30  H44 ARG d   1     -13.195  -4.950  23.815  0.00  0.00     0.163 HD
BRANCH  29  31
ATOM     31  CA  ARG d   1     -14.505  -5.180  22.156  0.00  0.00     0.093 C 
ATOM     32  H45 ARG d   1     -15.157  -4.388  22.553  0.00  0.00     0.089 H 
BRANCH  31  33
ATOM     33  C   ARG d   1     -15.409  -6.257  21.561  0.00  0.00     0.196 C 
ATOM     34  O   ARG d   1     -16.516  -5.969  21.107  0.00  0.00    -0.646 OA
ATOM     35  OXT ARG d   1     -15.047  -7.433  21.525  0.00  0.00    -0.646 OA
ENDBRANCH  31  33
BRANCH  31  36
ATOM     36  CB  ARG d   1     -13.632  -4.577  21.059  0.00  0.00    -0.048 C 
ATOM     37  H46 ARG d   1     -14.269  -4.230  20.232  0.00  0.00     0.030 H 
ATOM     38  H47 ARG d   1     -12.932  -5.339  20.687  0.00  0.00     0.030 H 
ATOM     39  H48 ARG d   1     -13.066  -3.727  21.467  0.00  0.00     0.030 H 
ENDBRANCH  31  36
ENDBRANCH  29  31
ENDBRANCH  25  27
BRANCH  25  40
ATOM     40  CB  ARG d   1     -13.285  -7.754  25.930  0.00  0.00    -0.049 C 
ATOM     41  H41 ARG d   1     -13.884  -8.625  25.627  0.00  0.00     0.030 H 
ATOM     42  H42 ARG d   1     -13.952  -6.962  26.302  0.00  0.00     0.030 H 
ATOM     43  H43 ARG d   1     -12.586  -8.049  26.726  0.00  0.00     0.030 H 
ENDBRANCH  25  40
ENDBRANCH  23  25
ENDBRANCH  19  21
BRANCH  19  44
ATOM     44  CB  ARG d   1     -10.859  -3.031  24.477  0.00  0.00    -0.030 C 
ATOM     45  H32 ARG d   1     -11.191  -3.092  23.430  0.00  0.00     0.037 H 
ATOM     46  H33 ARG d   1     -10.192  -2.165  24.601  0.00  0.00     0.037 H 
BRANCH  44  47
ATOM     47  CG  ARG d   1     -12.081  -2.835  25.364  0.00  0.00    -0.021 C 
ATOM     48  H34 ARG d   1     -11.869  -2.021  26.072  0.00  0.00     0.049 H 
ATOM     49  H35 ARG d   1     -12.259  -3.767  25.920  0.00  0.00     0.049 H 
BRANCH  47  50
ATOM     50  SD  ARG d   1     -13.582  -2.420  24.453  0.00  0.00    -0.173 SA
BRANCH  50  51
ATOM     51  CE  ARG d   1     -13.403  -0.649  24.304  0.00  0.00    -0.035 C 
ATOM     52  H36 ARG d   1     -14.264  -0.238  23.757  0.00  0.00     0.041 H 
ATOM     53  H37 ARG d   1     -12.477  -0.419  23.756  0.00  0.00     0.041 H 
ATOM     54  H38 ARG d   1     -13.357  -0.199  25.307  0.00  0.00     0.041 H 
ENDBRANCH  50  51
ENDBRANCH  47  50
ENDBRANCH  44  47
ENDBRANCH  19  44
ENDBRANCH  17  19
ENDBRANCH   5  15
ENDBRANCH   3   5
BRANCH   1  55
ATOM     55  CA  ARG d   1      -4.125  -7.244  26.115  0.00  0.00     0.109 C 
ATOM     56  H22 ARG d   1      -4.370  -8.075  25.438  0.00  0.00     0.090 H 
BRANCH  55  57
ATOM     57  N   ARG d   1      -2.678  -7.088  26.151  0.00  0.00    -0.344 N 
ATOM     58  C   ARG d   1      -1.895  -7.572  25.192  0.00  0.00     0.243 C 
ATOM     59  O   ARG d   1      -2.333  -8.192  24.219  0.00  0.00    -0.271 OA
ATOM     60  H21 ARG d   1      -2.261  -6.603  26.919  0.00  0.00     0.163 HD
BRANCH  58  61
ATOM     61  CA  ARG d   1      -0.404  -7.306  25.367  0.00  0.00     0.109 C 
ATOM     62  H17 ARG d   1      -0.167  -7.320  26.441  0.00  0.00     0.090 H 
BRANCH  61  63
ATOM     63  N   ARG d   1       0.379  -8.339  24.706  0.00  0.00    -0.344 N 
ATOM     64  C   ARG d   1       0.452  -9.570  25.205  0.00  0.00     0.249 C 
ATOM     65  O   ARG d   1      -0.098  -9.906  26.254  0.00  0.00    -0.271 OA
ATOM     66  H16 ARG d   1       0.870  -8.120  23.863  0.00  0.00     0.163 HD
BRANCH  64  67
ATOM     67  CA  ARG d   1       1.272 -10.570  24.397  0.00  0.00     0.176 C 
ATOM     68  H4  ARG d   1       2.085 -10.025  23.895  0.00  0.00     0.099 H 
BRANCH  67  69
ATOM     69  N   ARG d   1       1.867 -11.586  25.257  0.00  0.00    -0.067 N 
ATOM     70  H1  ARG d   1       2.401 -12.230  24.695  0.00  0.00     0.275 HD
ATOM     71  H2  ARG d   1       1.137 -12.086  25.740  0.00  0.00     0.275 HD
ATOM     72  H3  ARG d   1       2.474 -11.144  25.930  0.00  0.00     0.275 HD
ENDBRANCH  67  69
BRANCH  67  73
ATOM     73  CB  ARG d   1       0.392 -11.222  23.329  0.00  0.00    -0.029 C 
ATOM     74  H5  ARG d   1      -0.615 -10.785  23.395  0.00  0.00     0.036 H 
ATOM     75  H6  ARG d   1       0.338 -12.301  23.536  0.00  0.00     0.036 H 
BRANCH  73  76
ATOM     76  CG  ARG d   1       0.905 -11.031  21.911  0.00  0.00    -0.047 C 
ATOM     77  H7  ARG d   1       1.932 -11.419  21.848  0.00  0.00     0.035 H 
ATOM     78  H8  ARG d   1       0.903  -9.957  21.672  0.00  0.00     0.035 H 
BRANCH  76  79
ATOM     79  CD  ARG d   1       0.037 -11.764  20.897  0.00  0.00     0.009 C 
ATOM     80  H9  ARG d   1       0.093 -12.844  21.098  0.00  0.00     0.064 H 
ATOM     81  H10 ARG d   1       0.422 -11.559  19.887  0.00  0.00     0.064 H 
BRANCH  79  82
ATOM     82  NE  ARG d   1      -1.361 -11.345  20.962  0.00  0.00    -0.227 N 
ATOM     83  CZ  ARG d   1      -1.821 -10.187  20.496  0.00  0.00     0.665 C 
ATOM     84  NH1 ARG d   1      -3.112  -9.896  20.599  0.00  0.00    -0.235 N 
ATOM     85  NH2 ARG d   1      -0.993  -9.315  19.935  0.00  0.00    -0.235 N 
ATOM     86  H12 ARG d   1      -3.468  -8.999  20.238  0.00  0.00     0.174 HD
ATOM     87  H13 ARG d   1      -3.758 -10.567  21.040  0.00  0.00     0.174 HD
ATOM     88  H14 ARG d   1       0.010  -9.536  19.853  0.00  0.00     0.174 HD
ATOM     89  H15 ARG d   1      -1.353  -8.417  19.582  0.00  0.00     0.174 HD
ATOM     90  H11 ARG d   1      -2.036 -11.989  21.398  0.00  0.00     0.177 HD
ENDBRANCH  79  82
ENDBRANCH  76  79
ENDBRANCH  73  76
ENDBRANCH  67  73
ENDBRANCH  64  67
ENDBRANCH  61  63
BRANCH  61  91
ATOM     91  CB  ARG d   1      -0.056  -5.926  24.806  0.00  0.00     0.044 C 
ATOM     92  H18 ARG d   1      -0.425  -5.155  25.498  0.00  0.00     0.077 H 
ATOM     93  H19 ARG d   1      -0.543  -5.804  23.827  0.00  0.00     0.077 H 
BRANCH  91  94
ATOM     94  OG  ARG d   1       1.343  -5.772  24.647  0.00  0.00    -0.398 OA
ATOM     95  H20 ARG d   1       1.667  -6.433  24.047  0.00  0.00     0.209 HD
ENDBRANCH  91  94
ENDBRANCH  61  91
ENDBRANCH  58  61
ENDBRANCH  55  57
BRANCH  55  96
ATOM     96  CB  ARG d   1      -4.671  -7.573  27.507  0.00  0.00     0.044 C 
ATOM     97  H23 ARG d   1      -5.751  -7.770  27.431  0.00  0.00     0.077 H 
ATOM     98  H24 ARG d   1      -4.500  -6.713  28.172  0.00  0.00     0.077 H 
BRANCH  96  99
ATOM     99  OG  ARG d   1      -4.031  -8.713  28.053  0.00  0.00    -0.398 OA
ATOM    100  H25 ARG d   1      -3.098  -8.547  28.124  0.00  0.00     0.209 HD
ENDBRANCH  96  99
ENDBRANCH  55  96
ENDBRANCH   1  55
TORSDOF 31
