REMARK  18 active torsions:
REMARK  status: ('A' for Active; 'I' for Inactive)
REMARK    1  A    between atoms: C1_1  and  O1_39 
REMARK    2  A    between atoms: C4_4  and  O12_50 
REMARK    3  A    between atoms: C7_7  and  C14_14 
REMARK    4  A    between atoms: C8_8  and  O2_40 
REMARK    5  A    between atoms: C11_11  and  O4_42 
REMARK    6  A    between atoms: C12_12  and  C13_13 
REMARK    7  A    between atoms: C16_16  and  C30_30 
REMARK    8  A    between atoms: C20_20  and  C31_31 
REMARK    9  A    between atoms: C21_21  and  O10_48 
REMARK   10  A    between atoms: C22_22  and  C32_32 
REMARK   11  A    between atoms: C23_23  and  O9_47 
REMARK   12  A    between atoms: C24_24  and  C33_33 
REMARK   13  A    between atoms: O7_45  and  C25_25 
REMARK   14  A    between atoms: C26_26  and  C34_34 
REMARK   15  A    between atoms: C27_27  and  O6_44 
REMARK   16  A    between atoms: C35_35  and  C36_36 
REMARK   17  A    between atoms: C35_35  and  O7_45 
REMARK   18  A    between atoms: O6_44  and  C37_37 
ROOT
ATOM      1  C1  RFV d   1      87.834 101.844  41.633  0.00  0.00     0.106 C 
ATOM      2  C2  RFV d   1      88.355 100.937  42.570  0.00  0.00     0.072 C 
ATOM      3  C3  RFV d   1      89.407 101.342  43.391  0.00  0.00    -0.021 C 
ATOM      4  C4  RFV d   1      89.654 102.676  43.601  0.00  0.00     0.080 C 
ATOM      5  C5  RFV d   1      88.741 105.068  43.432  0.00  0.00     0.024 A 
ATOM      6  C6  RFV d   1      87.980 105.965  42.717  0.00  0.00     0.091 A 
ATOM      7  C7  RFV d   1      87.165 105.616  41.636  0.00  0.00     0.006 A 
ATOM      8  C8  RFV d   1      87.117 104.252  41.233  0.00  0.00     0.088 A 
ATOM      9  C9  RFV d   1      87.929 103.251  41.946  0.00  0.00     0.047 A 
ATOM     10  C10 RFV d   1      88.783 103.677  43.046  0.00  0.00     0.025 A 
ATOM     11  C11 RFV d   1      89.212 105.801  44.664  0.00  0.00     0.118 C 
ATOM     12  C12 RFV d   1      89.045 107.288  44.239  0.00  0.00     0.201 C 
ATOM     13  C15 RFV d   1      88.225  98.493  43.114  0.00  0.00     0.251 C 
ATOM     14  C16 RFV d   1      88.377  97.150  42.444  0.00  0.00     0.006 C 
ATOM     15  C17 RFV d   1      89.487  96.806  41.720  0.00  0.00    -0.072 C 
ATOM     16  C18 RFV d   1      90.698  97.560  41.570  0.00  0.00    -0.085 C 
ATOM     17  C19 RFV d   1      91.755  97.181  40.836  0.00  0.00    -0.097 C 
ATOM     18  C20 RFV d   1      93.078  97.900  40.722  0.00  0.00    -0.016 C 
ATOM     19  C21 RFV d   1      93.000  99.227  39.939  0.00  0.00     0.047 C 
ATOM     20  C22 RFV d   1      94.311 100.057  39.893  0.00  0.00    -0.007 C 
ATOM     21  C23 RFV d   1      94.062 101.600  39.638  0.00  0.00     0.046 C 
ATOM     22  C24 RFV d   1      93.307 102.404  40.778  0.00  0.00    -0.006 C 
ATOM     23  C25 RFV d   1      93.388 103.949  40.501  0.00  0.00     0.059 C 
ATOM     24  C26 RFV d   1      92.137 104.790  40.951  0.00  0.00    -0.003 C 
ATOM     25  C27 RFV d   1      92.333 106.325  40.994  0.00  0.00     0.061 C 
ATOM     26  C28 RFV d   1      91.235 107.066  41.722  0.00  0.00    -0.054 C 
ATOM     27  C29 RFV d   1      91.256 107.287  43.023  0.00  0.00     0.015 C 
ATOM     28  N1  RFV d   1      88.203  99.561  42.266  0.00  0.00    -0.321 N 
ATOM     29  O3  RFV d   1      88.104 107.268  43.131  0.00  0.00    -0.310 OA
ATOM     30  O5  RFV d   1      90.162 108.022  43.597  0.00  0.00    -0.323 OA
ATOM     31  O11 RFV d   1      88.158  98.584  44.341  0.00  0.00    -0.268 OA
ATOM     32  H1  RFV d   1      90.035 100.597  43.867  0.00  0.00     0.091 H 
ATOM     33  H2  RFV d   1      88.528 105.582  45.497  0.00  0.00     0.099 H 
ATOM     34  H9  RFV d   1      89.446  95.851  41.199  0.00  0.00     0.084 H 
ATOM     35  H10 RFV d   1      90.764  98.513  42.092  0.00  0.00     0.083 H 
ATOM     36  H11 RFV d   1      91.648  96.261  40.264  0.00  0.00     0.077 H 
ATOM     37  H12 RFV d   1      93.762  97.241  40.166  0.00  0.00     0.049 H 
ATOM     38  H13 RFV d   1      92.265  99.850  40.469  0.00  0.00     0.084 H 
ATOM     39  H14 RFV d   1      94.763  99.977  40.893  0.00  0.00     0.047 H 
ATOM     40  H15 RFV d   1      95.056 102.060  39.543  0.00  0.00     0.084 H 
ATOM     41  H16 RFV d   1      92.246 102.120  40.724  0.00  0.00     0.047 H 
ATOM     42  H17 RFV d   1      93.489 104.078  39.413  0.00  0.00     0.085 H 
ATOM     43  H18 RFV d   1      91.940 104.492  41.991  0.00  0.00     0.047 H 
ATOM     44  H19 RFV d   1      93.274 106.530  41.525  0.00  0.00     0.090 H 
ATOM     45  H20 RFV d   1      90.387 107.435  41.146  0.00  0.00     0.083 H 
ATOM     46  H21 RFV d   1      92.076 106.924  43.642  0.00  0.00     0.122 H 
ATOM     47  H43 RFV d   1      88.061  99.344  41.300  0.00  0.00     0.169 HD
ENDROOT
BRANCH  23  48
ATOM     48  O7  RFV d   1      94.575 104.481  41.135  0.00  0.00    -0.315 OA
BRANCH  48  49
ATOM     49  C35 RFV d   1      95.634 104.815  40.354  0.00  0.00     0.255 C 
ATOM     50  O8  RFV d   1      95.639 104.710  39.158  0.00  0.00    -0.266 OA
BRANCH  49  51
ATOM     51  C36 RFV d   1      96.763 105.320  41.183  0.00  0.00     0.004 C 
ATOM     52  H37 RFV d   1      97.608 105.584  40.530  0.00  0.00     0.041 H 
ATOM     53  H38 RFV d   1      97.077 104.538  41.891  0.00  0.00     0.041 H 
ATOM     54  H39 RFV d   1      96.439 106.211  41.741  0.00  0.00     0.041 H 
ENDBRANCH  49  51
ENDBRANCH  48  49
ENDBRANCH  23  48
BRANCH  22  55
ATOM     55  C33 RFV d   1      93.788 102.036  42.185  0.00  0.00    -0.068 C 
ATOM     56  H31 RFV d   1      93.711 100.948  42.326  0.00  0.00     0.028 H 
ATOM     57  H32 RFV d   1      93.163 102.548  42.932  0.00  0.00     0.028 H 
ATOM     58  H33 RFV d   1      94.836 102.348  42.308  0.00  0.00     0.028 H 
ENDBRANCH  22  55
BRANCH  24  59
ATOM     59  C34 RFV d   1      90.893 104.397  40.147  0.00  0.00    -0.068 C 
ATOM     60  H34 RFV d   1      90.791 103.302  40.141  0.00  0.00     0.028 H 
ATOM     61  H35 RFV d   1      90.994 104.761  39.114  0.00  0.00     0.028 H 
ATOM     62  H36 RFV d   1      90.001 104.846  40.608  0.00  0.00     0.028 H 
ENDBRANCH  24  59
BRANCH  21  63
ATOM     63  O9  RFV d   1      93.382 101.779  38.399  0.00  0.00    -0.395 OA
ATOM     64  H47 RFV d   1      92.492 101.456  38.478  0.00  0.00     0.210 HD
ENDBRANCH  21  63
BRANCH  25  65
ATOM     65  O6  RFV d   1      92.461 106.796  39.643  0.00  0.00    -0.386 OA
BRANCH  65  66
ATOM     66  C37 RFV d   1      93.607 107.614  39.437  0.00  0.00     0.005 C 
ATOM     67  H40 RFV d   1      93.642 107.938  38.386  0.00  0.00     0.066 H 
ATOM     68  H41 RFV d   1      94.515 107.040  39.674  0.00  0.00     0.066 H 
ATOM     69  H42 RFV d   1      93.550 108.497  40.091  0.00  0.00     0.066 H 
ENDBRANCH  65  66
ENDBRANCH  25  65
BRANCH  20  70
ATOM     70  C32 RFV d   1      95.328  99.476  38.906  0.00  0.00    -0.068 C 
ATOM     71  H28 RFV d   1      95.472  98.406  39.116  0.00  0.00     0.028 H 
ATOM     72  H29 RFV d   1      96.287 100.004  39.014  0.00  0.00     0.028 H 
ATOM     73  H30 RFV d   1      94.955  99.601  37.879  0.00  0.00     0.028 H 
ENDBRANCH  20  70
BRANCH  19  74
ATOM     74  O10 RFV d   1      92.489  99.006  38.627  0.00  0.00    -0.394 OA
ATOM     75  H48 RFV d   1      92.306  99.842  38.214  0.00  0.00     0.210 HD
ENDBRANCH  19  74
BRANCH  18  76
ATOM     76  C31 RFV d   1      93.663  98.106  42.122  0.00  0.00    -0.067 C 
ATOM     77  H25 RFV d   1      93.703  97.141  42.648  0.00  0.00     0.028 H 
ATOM     78  H26 RFV d   1      93.028  98.805  42.686  0.00  0.00     0.028 H 
ATOM     79  H27 RFV d   1      94.679  98.520  42.038  0.00  0.00     0.028 H 
ENDBRANCH  18  76
BRANCH  12  80
ATOM     80  C13 RFV d   1      88.496 108.199  45.304  0.00  0.00    -0.022 C 
ATOM     81  H3  RFV d   1      88.417 109.222  44.907  0.00  0.00     0.035 H 
ATOM     82  H4  RFV d   1      89.170 108.195  46.173  0.00  0.00     0.035 H 
ATOM     83  H5  RFV d   1      87.500 107.846  45.611  0.00  0.00     0.035 H 
ENDBRANCH  12  80
BRANCH  11  84
ATOM     84  O4  RFV d   1      90.520 105.465  45.110  0.00  0.00    -0.385 OA
ATOM     85  H46 RFV d   1      90.545 104.546  45.351  0.00  0.00     0.210 HD
ENDBRANCH  11  84
BRANCH  14  86
ATOM     86  C30 RFV d   1      87.184  96.255  42.583  0.00  0.00    -0.046 C 
ATOM     87  H22 RFV d   1      86.426  96.749  43.208  0.00  0.00     0.033 H 
ATOM     88  H23 RFV d   1      87.488  95.309  43.054  0.00  0.00     0.033 H 
ATOM     89  H24 RFV d   1      86.762  96.050  41.588  0.00  0.00     0.033 H 
ENDBRANCH  14  86
BRANCH   7  90
ATOM     90  C14 RFV d   1      86.337 106.654  40.916  0.00  0.00    -0.046 C 
ATOM     91  H6  RFV d   1      86.509 107.641  41.371  0.00  0.00     0.033 H 
ATOM     92  H7  RFV d   1      85.271 106.394  40.997  0.00  0.00     0.033 H 
ATOM     93  H8  RFV d   1      86.627 106.684  39.855  0.00  0.00     0.033 H 
ENDBRANCH   7  90
BRANCH   4  94
ATOM     94  O12 RFV d   1      90.775 103.057  44.262  0.00  0.00    -0.360 OA
ATOM     95  H49 RFV d   1      90.535 103.597  45.006  0.00  0.00     0.217 HD
ENDBRANCH   4  94
BRANCH   8  96
ATOM     96  O2  RFV d   1      86.336 103.825  40.190  0.00  0.00    -0.359 OA
ATOM     97  H45 RFV d   1      86.887 103.433  39.523  0.00  0.00     0.217 HD
ENDBRANCH   8  96
BRANCH   1  98
ATOM     98  O1  RFV d   1      87.762 101.469  40.315  0.00  0.00    -0.357 OA
ATOM     99  H44 RFV d   1      88.540 101.767  39.859  0.00  0.00     0.217 HD
ENDBRANCH   1  98
TORSDOF 18
