REMARK  19 active torsions:
REMARK  status: ('A' for Active; 'I' for Inactive)
REMARK    1  A    between atoms: C7_7  and  C14_14 
REMARK    2  A    between atoms: C8_8  and  O2_52 
REMARK    3  A    between atoms: C12_12  and  C13_13 
REMARK    4  A    between atoms: C16_16  and  C30_30 
REMARK    5  A    between atoms: C20_20  and  C31_31 
REMARK    6  A    between atoms: C21_21  and  O10_60 
REMARK    7  A    between atoms: C22_22  and  C32_32 
REMARK    8  A    between atoms: C23_23  and  O9_59 
REMARK    9  A    between atoms: C24_24  and  C33_33 
REMARK   10  A    between atoms: C25_25  and  O7_57 
REMARK   11  A    between atoms: C26_26  and  C34_34 
REMARK   12  A    between atoms: C27_27  and  O6_56 
REMARK   13  A    between atoms: C35_35  and  C36_36 
REMARK   14  A    between atoms: O7_57  and  C35_35 
REMARK   15  A    between atoms: O6_56  and  C37_37 
REMARK   16  A    between atoms: C43_43  and  C44_44 
REMARK   17  A    between atoms: C43_43  and  N4_50 
REMARK   18  A    between atoms: C44_44  and  C45_45 
REMARK   19  A    between atoms: C44_44  and  C46_46 
ROOT
ATOM      1  C1  RBT d   1      88.071 101.767  39.924  0.00  0.00     0.214 C 
ATOM      2  C2  RBT d   1      88.475 100.760  40.967  0.00  0.00     0.115 C 
ATOM      3  C3  RBT d   1      88.464 101.130  42.278  0.00  0.00     0.091 A 
ATOM      4  C4  RBT d   1      88.200 102.511  42.676  0.00  0.00     0.095 A 
ATOM      5  C5  RBT d   1      87.784 104.943  42.078  0.00  0.00     0.063 A 
ATOM      6  C6  RBT d   1      87.529 105.876  41.075  0.00  0.00     0.096 A 
ATOM      7  C7  RBT d   1      87.388 105.551  39.722  0.00  0.00     0.007 A 
ATOM      8  C8  RBT d   1      87.536 104.204  39.367  0.00  0.00     0.089 A 
ATOM      9  C9  RBT d   1      87.813 103.195  40.334  0.00  0.00     0.064 A 
ATOM     10  C10 RBT d   1      87.916 103.577  41.716  0.00  0.00     0.029 A 
ATOM     11  C11 RBT d   1      87.995 105.709  43.273  0.00  0.00     0.225 C 
ATOM     12  C12 RBT d   1      88.199 107.189  42.828  0.00  0.00     0.233 C 
ATOM     13  C15 RBT d   1      88.263  98.309  40.780  0.00  0.00     0.252 C 
ATOM     14  C16 RBT d   1      88.624  97.221  39.741  0.00  0.00     0.006 C 
ATOM     15  C17 RBT d   1      89.941  96.952  39.396  0.00  0.00    -0.072 C 
ATOM     16  C18 RBT d   1      91.107  97.628  39.896  0.00  0.00    -0.085 C 
ATOM     17  C19 RBT d   1      92.386  97.386  39.579  0.00  0.00    -0.097 C 
ATOM     18  C20 RBT d   1      93.579  98.153  40.105  0.00  0.00    -0.016 C 
ATOM     19  C21 RBT d   1      93.564  99.640  39.578  0.00  0.00     0.047 C 
ATOM     20  C22 RBT d   1      94.561 100.678  40.262  0.00  0.00    -0.007 C 
ATOM     21  C23 RBT d   1      93.887 102.050  40.524  0.00  0.00     0.046 C 
ATOM     22  C24 RBT d   1      94.182 103.150  39.469  0.00  0.00    -0.006 C 
ATOM     23  C25 RBT d   1      93.927 104.594  39.968  0.00  0.00     0.059 C 
ATOM     24  C26 RBT d   1      92.497 104.870  40.500  0.00  0.00    -0.006 C 
ATOM     25  C27 RBT d   1      92.455 105.972  41.582  0.00  0.00     0.045 C 
ATOM     26  C28 RBT d   1      91.231 105.878  42.460  0.00  0.00    -0.021 C 
ATOM     27  C29 RBT d   1      90.633 106.893  43.108  0.00  0.00     0.026 C 
ATOM     28  C38 RBT d   1      88.634 101.319  44.517  0.00  0.00     0.129 A 
ATOM     29  C39 RBT d   1      87.587 100.961  45.568  0.00  0.00     0.000 C 
ATOM     30  C40 RBT d   1      90.016 101.466  45.146  0.00  0.00     0.000 C 
ATOM     31  C41 RBT d   1      88.025  99.820  46.475  0.00  0.00     0.087 C 
ATOM     32  C42 RBT d   1      90.375 100.307  46.064  0.00  0.00     0.087 C 
ATOM     33  N1  RBT d   1      88.954  99.489  40.646  0.00  0.00    -0.318 N 
ATOM     34  N2  RBT d   1      88.687 100.369  43.389  0.00  0.00    -0.358 N 
ATOM     35  N3  RBT d   1      88.289 102.623  43.958  0.00  0.00    -0.254 NA
ATOM     36  N4  RBT d   1      89.339 100.104  47.097  0.00  0.00    -0.070 N 
ATOM     37  O1  RBT d   1      87.986 101.411  38.746  0.00  0.00    -0.285 OA
ATOM     38  O3  RBT d   1      87.513 107.195  41.520  0.00  0.00    -0.305 OA
ATOM     39  O4  RBT d   1      88.039 105.409  44.449  0.00  0.00    -0.286 OA
ATOM     40  O5  RBT d   1      89.580 107.628  42.502  0.00  0.00    -0.348 OA
ATOM     41  O11 RBT d   1      87.458  98.092  41.690  0.00  0.00    -0.268 OA
ATOM     42  H7  RBT d   1      90.107  96.151  38.677  0.00  0.00     0.084 H 
ATOM     43  H8  RBT d   1      90.931  98.428  40.614  0.00  0.00     0.083 H 
ATOM     44  H9  RBT d   1      92.583  96.570  38.886  0.00  0.00     0.077 H 
ATOM     45  H10 RBT d   1      94.489  97.671  39.717  0.00  0.00     0.049 H 
ATOM     46  H11 RBT d   1      92.555 100.021  39.794  0.00  0.00     0.084 H 
ATOM     47  H12 RBT d   1      94.794 100.265  41.255  0.00  0.00     0.047 H 
ATOM     48  H13 RBT d   1      92.799 101.888  40.507  0.00  0.00     0.084 H 
ATOM     49  H14 RBT d   1      95.260 103.087  39.260  0.00  0.00     0.047 H 
ATOM     50  H15 RBT d   1      94.094 105.270  39.116  0.00  0.00     0.085 H 
ATOM     51  H16 RBT d   1      92.165 103.942  40.989  0.00  0.00     0.047 H 
ATOM     52  H17 RBT d   1      93.334 105.840  42.231  0.00  0.00     0.084 H 
ATOM     53  H18 RBT d   1      91.497 105.154  43.245  0.00  0.00     0.040 H 
ATOM     54  H19 RBT d   1      90.449 105.450  41.816  0.00  0.00     0.040 H 
ATOM     55  H20 RBT d   1      91.423 107.619  43.349  0.00  0.00     0.074 H 
ATOM     56  H21 RBT d   1      90.225 106.473  44.039  0.00  0.00     0.074 H 
ATOM     57  H43 RBT d   1      86.661 100.665  45.054  0.00  0.00     0.042 H 
ATOM     58  H44 RBT d   1      87.395 101.849  46.188  0.00  0.00     0.042 H 
ATOM     59  H45 RBT d   1      90.038 102.397  45.731  0.00  0.00     0.042 H 
ATOM     60  H46 RBT d   1      90.764 101.521  44.341  0.00  0.00     0.042 H 
ATOM     61  H47 RBT d   1      88.102  98.898  45.880  0.00  0.00     0.076 H 
ATOM     62  H48 RBT d   1      87.275  99.684  47.268  0.00  0.00     0.076 H 
ATOM     63  H49 RBT d   1      91.335 100.523  46.556  0.00  0.00     0.076 H 
ATOM     64  H50 RBT d   1      90.468  99.390  45.464  0.00  0.00     0.076 H 
ATOM     65  H60 RBT d   1      89.885  99.432  40.286  0.00  0.00     0.169 HD
ATOM     66  H61 RBT d   1      88.855  99.354  43.431  0.00  0.00     0.162 HD
ATOM     67  H62 RBT d   1      89.238 100.983  47.580  0.00  0.00     0.279 HD
ENDROOT
BRANCH  36  68
ATOM     68  C43 RBT d   1      89.750  99.122  48.123  0.00  0.00     0.086 C 
ATOM     69  H51 RBT d   1      90.837  99.221  48.256  0.00  0.00     0.076 H 
ATOM     70  H52 RBT d   1      89.240  99.392  49.060  0.00  0.00     0.076 H 
BRANCH  68  71
ATOM     71  C44 RBT d   1      89.453  97.639  47.848  0.00  0.00    -0.038 C 
ATOM     72  H53 RBT d   1      90.069  97.148  48.615  0.00  0.00     0.041 H 
BRANCH  71  73
ATOM     73  C45 RBT d   1      88.056  97.122  48.182  0.00  0.00    -0.072 C 
ATOM     74  H54 RBT d   1      87.992  96.052  47.934  0.00  0.00     0.028 H 
ATOM     75  H55 RBT d   1      87.309  97.679  47.597  0.00  0.00     0.028 H 
ATOM     76  H56 RBT d   1      87.860  97.262  49.255  0.00  0.00     0.028 H 
ENDBRANCH  71  73
BRANCH  71  77
ATOM     77  C46 RBT d   1      90.020  97.054  46.553  0.00  0.00    -0.072 C 
ATOM     78  H57 RBT d   1      91.024  97.466  46.373  0.00  0.00     0.028 H 
ATOM     79  H58 RBT d   1      89.360  97.315  45.713  0.00  0.00     0.028 H 
ATOM     80  H59 RBT d   1      90.084  95.960  46.642  0.00  0.00     0.028 H 
ENDBRANCH  71  77
ENDBRANCH  68  71
ENDBRANCH  36  68
BRANCH   8  81
ATOM     81  O2  RBT d   1      87.408 103.897  38.045  0.00  0.00    -0.359 OA
ATOM     82  H63 RBT d   1      88.216 103.507  37.732  0.00  0.00     0.217 HD
ENDBRANCH   8  81
BRANCH  14  83
ATOM     83  C30 RBT d   1      87.446  96.492  39.162  0.00  0.00    -0.046 C 
ATOM     84  H22 RBT d   1      86.518  96.891  39.597  0.00  0.00     0.033 H 
ATOM     85  H23 RBT d   1      87.528  95.420  39.394  0.00  0.00     0.033 H 
ATOM     86  H24 RBT d   1      87.429  96.631  38.071  0.00  0.00     0.033 H 
ENDBRANCH  14  83
BRANCH   7  87
ATOM     87  C14 RBT d   1      87.107 106.605  38.678  0.00  0.00    -0.046 C 
ATOM     88  H4  RBT d   1      87.027 107.589  39.163  0.00  0.00     0.033 H 
ATOM     89  H5  RBT d   1      86.162 106.371  38.166  0.00  0.00     0.033 H 
ATOM     90  H6  RBT d   1      87.927 106.623  37.945  0.00  0.00     0.033 H 
ENDBRANCH   7  87
BRANCH  12  91
ATOM     91  C13 RBT d   1      87.574 108.286  43.737  0.00  0.00    -0.017 C 
ATOM     92  H1  RBT d   1      87.789 109.279  43.314  0.00  0.00     0.035 H 
ATOM     93  H2  RBT d   1      88.006 108.216  44.746  0.00  0.00     0.035 H 
ATOM     94  H3  RBT d   1      86.485 108.139  43.793  0.00  0.00     0.035 H 
ENDBRANCH  12  91
BRANCH  18  95
ATOM     95  C31 RBT d   1      93.634  98.084  41.637  0.00  0.00    -0.067 C 
ATOM     96  H25 RBT d   1      93.643  97.031  41.956  0.00  0.00     0.028 H 
ATOM     97  H26 RBT d   1      92.752  98.588  42.059  0.00  0.00     0.028 H 
ATOM     98  H27 RBT d   1      94.547  98.583  41.994  0.00  0.00     0.028 H 
ENDBRANCH  18  95
BRANCH  25  99
ATOM     99  O6  RBT d   1      92.560 107.260  40.950  0.00  0.00    -0.390 OA
BRANCH  99 100
ATOM    100  C37 RBT d   1      93.639 108.047  41.448  0.00  0.00     0.004 C 
ATOM    101  H40 RBT d   1      93.660 109.014  40.923  0.00  0.00     0.066 H 
ATOM    102  H41 RBT d   1      94.588 107.517  41.279  0.00  0.00     0.066 H 
ATOM    103  H42 RBT d   1      93.501 108.218  42.526  0.00  0.00     0.066 H 
ENDBRANCH  99 100
ENDBRANCH  25  99
BRANCH  19 104
ATOM    104  O10 RBT d   1      93.714  99.641  38.161  0.00  0.00    -0.394 OA
ATOM    105  H65 RBT d   1      93.110  99.015  37.779  0.00  0.00     0.210 HD
ENDBRANCH  19 104
BRANCH  24 106
ATOM    106  C34 RBT d   1      91.501 105.148  39.367  0.00  0.00    -0.068 C 
ATOM    107  H34 RBT d   1      91.562 104.343  38.620  0.00  0.00     0.028 H 
ATOM    108  H35 RBT d   1      91.746 106.109  38.891  0.00  0.00     0.028 H 
ATOM    109  H36 RBT d   1      90.481 105.191  39.777  0.00  0.00     0.028 H 
ENDBRANCH  24 106
BRANCH  20 110
ATOM    110  C32 RBT d   1      95.903 100.778  39.530  0.00  0.00    -0.068 C 
ATOM    111  H28 RBT d   1      96.316  99.769  39.382  0.00  0.00     0.028 H 
ATOM    112  H29 RBT d   1      96.604 101.377  40.130  0.00  0.00     0.028 H 
ATOM    113  H30 RBT d   1      95.753 101.260  38.553  0.00  0.00     0.028 H 
ENDBRANCH  20 110
BRANCH  23 114
ATOM    114  O7  RBT d   1      94.891 104.907  41.001  0.00  0.00    -0.315 OA
BRANCH 114 115
ATOM    115  C35 RBT d   1      96.068 105.479  40.643  0.00  0.00     0.255 C 
ATOM    116  O8  RBT d   1      96.385 105.702  39.504  0.00  0.00    -0.266 OA
BRANCH 115 117
ATOM    117  C36 RBT d   1      96.892 105.777  41.847  0.00  0.00     0.004 C 
ATOM    118  H37 RBT d   1      97.841 106.240  41.537  0.00  0.00     0.041 H 
ATOM    119  H38 RBT d   1      97.100 104.843  42.389  0.00  0.00     0.041 H 
ATOM    120  H39 RBT d   1      96.344 106.469  42.504  0.00  0.00     0.041 H 
ENDBRANCH 115 117
ENDBRANCH 114 115
ENDBRANCH  23 114
BRANCH  21 121
ATOM    121  O9  RBT d   1      94.248 102.460  41.839  0.00  0.00    -0.395 OA
ATOM    122  H64 RBT d   1      93.754 103.237  42.074  0.00  0.00     0.210 HD
ENDBRANCH  21 121
BRANCH  22 123
ATOM    123  C33 RBT d   1      93.465 102.880  38.140  0.00  0.00    -0.068 C 
ATOM    124  H31 RBT d   1      93.668 101.848  37.817  0.00  0.00     0.028 H 
ATOM    125  H32 RBT d   1      93.831 103.582  37.377  0.00  0.00     0.028 H 
ATOM    126  H33 RBT d   1      92.382 103.016  38.274  0.00  0.00     0.028 H 
ENDBRANCH  22 123
TORSDOF 19
