REMARK  20 active torsions:
REMARK  status: ('A' for Active; 'I' for Inactive)
REMARK    1  A    between atoms: C1_1  and  O1_48 
REMARK    2  A    between atoms: C43_43  and  C3_3 
REMARK    3  A    between atoms: C4_4  and  O12_59 
REMARK    4  A    between atoms: C7_7  and  C14_14 
REMARK    5  A    between atoms: C8_8  and  O2_49 
REMARK    6  A    between atoms: C12_12  and  C13_13 
REMARK    7  A    between atoms: C16_16  and  C30_30 
REMARK    8  A    between atoms: C20_20  and  C31_31 
REMARK    9  A    between atoms: C21_21  and  O10_57 
REMARK   10  A    between atoms: C22_22  and  C32_32 
REMARK   11  A    between atoms: C23_23  and  O9_56 
REMARK   12  A    between atoms: C24_24  and  C33_33 
REMARK   13  A    between atoms: C25_25  and  O7_54 
REMARK   14  A    between atoms: C26_26  and  C34_34 
REMARK   15  A    between atoms: C27_27  and  O6_53 
REMARK   16  A    between atoms: C35_35  and  C36_36 
REMARK   17  A    between atoms: O7_54  and  C35_35 
REMARK   18  A    between atoms: O6_53  and  C37_37 
REMARK   19  A    between atoms: N4_47  and  C38_38 
REMARK   20  A    between atoms: N2_45  and  N3_46 
ROOT
ATOM      1  C1  RFP d   1      90.458 102.711  42.118  0.00  0.00     0.107 A 
ATOM      2  C2  RFP d   1      91.082 101.772  42.949  0.00  0.00     0.084 A 
ATOM      3  C3  RFP d   1      91.725 102.180  44.123  0.00  0.00     0.047 A 
ATOM      4  C4  RFP d   1      91.740 103.555  44.447  0.00  0.00     0.092 A 
ATOM      5  C5  RFP d   1      91.124 105.957  43.863  0.00  0.00     0.064 A 
ATOM      6  C6  RFP d   1      90.520 106.822  42.981  0.00  0.00     0.096 A 
ATOM      7  C7  RFP d   1      89.863 106.397  41.838  0.00  0.00     0.007 A 
ATOM      8  C8  RFP d   1      89.837 105.057  41.565  0.00  0.00     0.088 A 
ATOM      9  C9  RFP d   1      90.463 104.096  42.425  0.00  0.00     0.047 A 
ATOM     10  C10 RFP d   1      91.122 104.542  43.609  0.00  0.00     0.031 A 
ATOM     11  C11 RFP d   1      91.719 106.830  44.948  0.00  0.00     0.225 C 
ATOM     12  C12 RFP d   1      91.551 108.264  44.524  0.00  0.00     0.237 C 
ATOM     13  C15 RFP d   1      90.530  99.353  43.138  0.00  0.00     0.251 C 
ATOM     14  C16 RFP d   1      90.730  98.050  42.472  0.00  0.00     0.006 C 
ATOM     15  C17 RFP d   1      91.860  97.714  41.806  0.00  0.00    -0.072 C 
ATOM     16  C18 RFP d   1      93.078  98.565  41.686  0.00  0.00    -0.085 C 
ATOM     17  C19 RFP d   1      94.137  98.130  40.980  0.00  0.00    -0.097 C 
ATOM     18  C20 RFP d   1      95.508  98.838  40.805  0.00  0.00    -0.016 C 
ATOM     19  C21 RFP d   1      95.344 100.358  40.504  0.00  0.00     0.047 C 
ATOM     20  C22 RFP d   1      96.714 101.093  40.401  0.00  0.00    -0.007 C 
ATOM     21  C23 RFP d   1      96.600 102.594  40.103  0.00  0.00     0.046 C 
ATOM     22  C24 RFP d   1      95.599 103.386  41.028  0.00  0.00    -0.006 C 
ATOM     23  C25 RFP d   1      95.605 104.922  40.664  0.00  0.00     0.059 C 
ATOM     24  C26 RFP d   1      94.630 105.806  41.461  0.00  0.00    -0.003 C 
ATOM     25  C27 RFP d   1      94.742 107.315  41.063  0.00  0.00     0.061 C 
ATOM     26  C28 RFP d   1      93.773 108.270  41.829  0.00  0.00    -0.054 C 
ATOM     27  C29 RFP d   1      93.683 108.113  43.184  0.00  0.00     0.015 C 
ATOM     28  N1  RFP d   1      91.051 100.410  42.513  0.00  0.00    -0.320 N 
ATOM     29  O3  RFP d   1      90.629 108.139  43.348  0.00  0.00    -0.305 OA
ATOM     30  O4  RFP d   1      92.384 106.497  45.941  0.00  0.00    -0.286 OA
ATOM     31  O5  RFP d   1      92.886 108.827  44.082  0.00  0.00    -0.319 OA
ATOM     32  O11 RFP d   1      89.951  99.441  44.189  0.00  0.00    -0.268 OA
ATOM     33  H7  RFP d   1      91.881  96.741  41.317  0.00  0.00     0.084 H 
ATOM     34  H8  RFP d   1      93.110  99.540  42.170  0.00  0.00     0.083 H 
ATOM     35  H9  RFP d   1      94.020  97.173  40.474  0.00  0.00     0.077 H 
ATOM     36  H10 RFP d   1      96.055  98.372  39.972  0.00  0.00     0.049 H 
ATOM     37  H11 RFP d   1      94.771 100.807  41.329  0.00  0.00     0.084 H 
ATOM     38  H12 RFP d   1      97.180 101.008  41.394  0.00  0.00     0.047 H 
ATOM     39  H13 RFP d   1      97.597 103.027  40.271  0.00  0.00     0.084 H 
ATOM     40  H14 RFP d   1      94.584 102.998  40.859  0.00  0.00     0.047 H 
ATOM     41  H15 RFP d   1      95.387 105.027  39.591  0.00  0.00     0.085 H 
ATOM     42  H16 RFP d   1      94.875 105.705  42.529  0.00  0.00     0.047 H 
ATOM     43  H17 RFP d   1      95.766 107.648  41.289  0.00  0.00     0.090 H 
ATOM     44  H18 RFP d   1      93.193 109.029  41.306  0.00  0.00     0.083 H 
ATOM     45  H19 RFP d   1      94.310 107.335  43.617  0.00  0.00     0.122 H 
ATOM     46  H53 RFP d   1      91.474 100.227  41.626  0.00  0.00     0.169 HD
ENDROOT
BRANCH   3  47
ATOM     47  C43 RFP d   1      92.371 101.213  45.009  0.00  0.00     0.036 C 
ATOM     48  N2  RFP d   1      93.625 100.941  44.944  0.00  0.00    -0.189 NA
ATOM     49  H52 RFP d   1      91.764 100.702  45.755  0.00  0.00     0.118 H 
BRANCH  48  50
ATOM     50  N3  RFP d   1      94.156  99.997  45.866  0.00  0.00    -0.302 N 
ATOM     51  C40 RFP d   1      94.739  98.726  45.475  0.00  0.00     0.034 C 
ATOM     52  C39 RFP d   1      96.016  98.451  46.278  0.00  0.00     0.099 C 
ATOM     53  H46 RFP d   1      94.013  97.922  45.663  0.00  0.00     0.069 H 
ATOM     54  H47 RFP d   1      94.985  98.755  44.403  0.00  0.00     0.069 H 
ATOM     55  N4  RFP d   1      96.378  99.594  47.133  0.00  0.00    -0.072 N 
ATOM     56  H44 RFP d   1      96.842  98.254  45.578  0.00  0.00     0.078 H 
ATOM     57  H45 RFP d   1      95.855  97.568  46.913  0.00  0.00     0.078 H 
ATOM     58  C42 RFP d   1      95.281  99.912  48.040  0.00  0.00     0.099 C 
ATOM     59  H54 RFP d   1      96.508 100.390  46.529  0.00  0.00     0.279 HD
ATOM     60  C41 RFP d   1      93.968 100.211  47.297  0.00  0.00     0.034 C 
ATOM     61  H50 RFP d   1      95.119  99.056  48.711  0.00  0.00     0.078 H 
ATOM     62  H51 RFP d   1      95.559 100.795  48.633  0.00  0.00     0.078 H 
ATOM     63  H48 RFP d   1      93.676 101.256  47.476  0.00  0.00     0.069 H 
ATOM     64  H49 RFP d   1      93.177  99.541  47.667  0.00  0.00     0.069 H 
BRANCH  55  65
ATOM     65  C38 RFP d   1      97.637  99.387  47.837  0.00  0.00     0.066 C 
ATOM     66  H41 RFP d   1      98.429  99.151  47.111  0.00  0.00     0.068 H 
ATOM     67  H42 RFP d   1      97.528  98.552  48.545  0.00  0.00     0.068 H 
ATOM     68  H43 RFP d   1      97.904 100.302  48.387  0.00  0.00     0.068 H 
ENDBRANCH  55  65
ENDBRANCH  48  50
ENDBRANCH   3  47
BRANCH   4  69
ATOM     69  O12 RFP d   1      92.382 103.921  45.593  0.00  0.00    -0.359 OA
ATOM     70  H59 RFP d   1      93.094 104.513  45.381  0.00  0.00     0.217 HD
ENDBRANCH   4  69
BRANCH   1  71
ATOM     71  O1  RFP d   1      89.844 102.215  40.967  0.00  0.00    -0.357 OA
ATOM     72  H55 RFP d   1      90.250 102.603  40.201  0.00  0.00     0.217 HD
ENDBRANCH   1  71
BRANCH   8  73
ATOM     73  O2  RFP d   1      89.195 104.682  40.430  0.00  0.00    -0.359 OA
ATOM     74  H56 RFP d   1      89.807 104.240  39.853  0.00  0.00     0.217 HD
ENDBRANCH   8  73
BRANCH  14  75
ATOM     75  C30 RFP d   1      89.564  97.107  42.571  0.00  0.00    -0.046 C 
ATOM     76  H20 RFP d   1      88.758  97.580  43.152  0.00  0.00     0.033 H 
ATOM     77  H21 RFP d   1      89.883  96.181  43.072  0.00  0.00     0.033 H 
ATOM     78  H22 RFP d   1      89.197  96.870  41.561  0.00  0.00     0.033 H 
ENDBRANCH  14  75
BRANCH   7  79
ATOM     79  C14 RFP d   1      89.207 107.407  40.922  0.00  0.00    -0.046 C 
ATOM     80  H4  RFP d   1      89.349 108.418  41.330  0.00  0.00     0.033 H 
ATOM     81  H5  RFP d   1      88.131 107.189  40.846  0.00  0.00     0.033 H 
ATOM     82  H6  RFP d   1      89.664 107.348  39.923  0.00  0.00     0.033 H 
ENDBRANCH   7  79
BRANCH  12  83
ATOM     83  C13 RFP d   1      90.975 109.236  45.544  0.00  0.00    -0.017 C 
ATOM     84  H1  RFP d   1      90.910 110.240  45.098  0.00  0.00     0.035 H 
ATOM     85  H2  RFP d   1      91.628 109.269  46.428  0.00  0.00     0.035 H 
ATOM     86  H3  RFP d   1      89.970 108.902  45.842  0.00  0.00     0.035 H 
ENDBRANCH  12  83
BRANCH  18  87
ATOM     87  C31 RFP d   1      96.284  98.633  42.109  0.00  0.00    -0.067 C 
ATOM     88  H23 RFP d   1      96.391  97.556  42.307  0.00  0.00     0.028 H 
ATOM     89  H24 RFP d   1      95.738  99.106  42.939  0.00  0.00     0.028 H 
ATOM     90  H25 RFP d   1      97.281  99.090  42.018  0.00  0.00     0.028 H 
ENDBRANCH  18  87
BRANCH  19  91
ATOM     91  O10 RFP d   1      94.629 100.559  39.290  0.00  0.00    -0.394 OA
ATOM     92  H58 RFP d   1      94.489 101.489  39.157  0.00  0.00     0.210 HD
ENDBRANCH  19  91
BRANCH  25  93
ATOM     93  O6  RFP d   1      94.540 107.392  39.637  0.00  0.00    -0.386 OA
BRANCH  93  94
ATOM     94  C37 RFP d   1      95.192 108.497  39.043  0.00  0.00     0.005 C 
ATOM     95  H38 RFP d   1      94.999 108.498  37.960  0.00  0.00     0.066 H 
ATOM     96  H39 RFP d   1      96.275 108.424  39.222  0.00  0.00     0.066 H 
ATOM     97  H40 RFP d   1      94.809 109.429  39.484  0.00  0.00     0.066 H 
ENDBRANCH  93  94
ENDBRANCH  25  93
BRANCH  20  98
ATOM     98  C32 RFP d   1      97.682 100.409  39.392  0.00  0.00    -0.068 C 
ATOM     99  H26 RFP d   1      97.751  99.335  39.621  0.00  0.00     0.028 H 
ATOM    100  H27 RFP d   1      98.679 100.866  39.473  0.00  0.00     0.028 H 
ATOM    101  H28 RFP d   1      97.300 100.542  38.369  0.00  0.00     0.028 H 
ENDBRANCH  20  98
BRANCH  24 102
ATOM    102  C34 RFP d   1      93.187 105.369  41.245  0.00  0.00    -0.068 C 
ATOM    103  H32 RFP d   1      93.080 104.309  41.518  0.00  0.00     0.028 H 
ATOM    104  H33 RFP d   1      92.917 105.504  40.187  0.00  0.00     0.028 H 
ATOM    105  H34 RFP d   1      92.521 105.978  41.874  0.00  0.00     0.028 H 
ENDBRANCH  24 102
BRANCH  21 106
ATOM    106  O9  RFP d   1      96.255 102.800  38.698  0.00  0.00    -0.395 OA
ATOM    107  H57 RFP d   1      95.371 102.488  38.541  0.00  0.00     0.210 HD
ENDBRANCH  21 106
BRANCH  23 108
ATOM    108  O7  RFP d   1      96.937 105.449  40.975  0.00  0.00    -0.315 OA
BRANCH 108 109
ATOM    109  C35 RFP d   1      97.702 105.957  39.972  0.00  0.00     0.255 C 
ATOM    110  O8  RFP d   1      97.310 105.991  38.789  0.00  0.00    -0.266 OA
BRANCH 109 111
ATOM    111  C36 RFP d   1      99.037 106.453  40.466  0.00  0.00     0.004 C 
ATOM    112  H35 RFP d   1      99.616 106.852  39.620  0.00  0.00     0.041 H 
ATOM    113  H36 RFP d   1      99.589 105.621  40.928  0.00  0.00     0.041 H 
ATOM    114  H37 RFP d   1      98.880 107.247  41.211  0.00  0.00     0.041 H 
ENDBRANCH 109 111
ENDBRANCH 108 109
ENDBRANCH  23 108
BRANCH  22 115
ATOM    115  C33 RFP d   1      95.969 103.152  42.507  0.00  0.00    -0.068 C 
ATOM    116  H29 RFP d   1      95.954 102.073  42.722  0.00  0.00     0.028 H 
ATOM    117  H30 RFP d   1      95.241 103.665  43.153  0.00  0.00     0.028 H 
ATOM    118  H31 RFP d   1      96.976 103.551  42.701  0.00  0.00     0.028 H 
ENDBRANCH  22 115
TORSDOF 20
