REMARK  16 active torsions:
REMARK  status: ('A' for Active; 'I' for Inactive)
REMARK    1  A    between atoms: C16_5  and  C30_6 
REMARK    2  A    between atoms: C20_10  and  C31_11 
REMARK    3  A    between atoms: C21_12  and  O10_13 
REMARK    4  A    between atoms: C22_14  and  C32_15 
REMARK    5  A    between atoms: C23_16  and  O9_17 
REMARK    6  A    between atoms: C24_18  and  C33_19 
REMARK    7  A    between atoms: C25_20  and  O7_21 
REMARK    8  A    between atoms: O7_21  and  C35_22 
REMARK    9  A    between atoms: C35_22  and  C36_24 
REMARK   10  A    between atoms: C26_25  and  C34_26 
REMARK   11  A    between atoms: C27_27  and  O6_28 
REMARK   12  A    between atoms: O6_28  and  C37_29 
REMARK   13  A    between atoms: C12_33  and  C13_36 
REMARK   14  A    between atoms: C8_42  and  O2_43 
REMARK   15  A    between atoms: C7_44  and  C14_45 
REMARK   16  A    between atoms: C40_54  and  C43_57 
ROOT
ATOM      1  N1  RXM d   1      92.865 100.754  42.761  0.00  0.00    -0.340 N 
ATOM      2  C2  RXM d   1      92.758 102.134  43.036  0.00  0.00     0.117 A 
ATOM      3  O11 RXM d   1      90.851 100.176  43.474  0.00  0.00    -0.268 OA
ATOM      4  C15 RXM d   1      91.949  99.795  43.027  0.00  0.00     0.248 C 
ATOM      5  C16 RXM d   1      92.149  98.338  42.845  0.00  0.00     0.006 C 
ATOM      6  C17 RXM d   1      93.289  97.703  42.387  0.00  0.00    -0.072 C 
ATOM      7  C18 RXM d   1      94.621  98.173  41.962  0.00  0.00    -0.085 C 
ATOM      8  C19 RXM d   1      94.950  99.104  41.052  0.00  0.00    -0.097 C 
ATOM      9  C20 RXM d   1      96.396  99.488  40.736  0.00  0.00    -0.016 C 
ATOM     10  C21 RXM d   1      96.429 100.958  40.284  0.00  0.00     0.047 C 
ATOM     11  C22 RXM d   1      97.823 101.681  40.356  0.00  0.00    -0.007 C 
ATOM     12  C23 RXM d   1      97.715 103.242  40.242  0.00  0.00     0.046 C 
ATOM     13  C24 RXM d   1      96.576 103.908  41.032  0.00  0.00    -0.006 C 
ATOM     14  C25 RXM d   1      96.548 105.456  40.911  0.00  0.00     0.059 C 
ATOM     15  C26 RXM d   1      95.201 106.228  41.037  0.00  0.00    -0.003 C 
ATOM     16  C27 RXM d   1      95.454 107.778  41.013  0.00  0.00     0.061 C 
ATOM     17  C28 RXM d   1      94.533 108.481  42.019  0.00  0.00    -0.054 C 
ATOM     18  C29 RXM d   1      94.910 108.880  43.253  0.00  0.00     0.015 C 
ATOM     19  O5  RXM d   1      94.068 109.511  44.213  0.00  0.00    -0.319 OA
ATOM     20  C12 RXM d   1      92.914 108.733  44.656  0.00  0.00     0.237 A 
ATOM     21  O3  RXM d   1      91.814 108.633  43.721  0.00  0.00    -0.305 OA
ATOM     22  C6  RXM d   1      91.705 107.335  43.295  0.00  0.00     0.096 A 
ATOM     23  C11 RXM d   1      93.404 107.312  44.923  0.00  0.00     0.225 A 
ATOM     24  O4  RXM d   1      94.281 107.040  45.724  0.00  0.00    -0.286 OA
ATOM     25  C5  RXM d   1      92.630 106.445  43.975  0.00  0.00     0.063 A 
ATOM     26  C10 RXM d   1      92.652 105.037  43.677  0.00  0.00     0.028 A 
ATOM     27  C9  RXM d   1      91.734 104.512  42.651  0.00  0.00     0.060 A 
ATOM     28  C8  RXM d   1      90.822 105.427  41.982  0.00  0.00     0.089 A 
ATOM     29  C7  RXM d   1      90.820 106.816  42.311  0.00  0.00     0.007 A 
ATOM     30  C1  RXM d   1      91.782 103.027  42.334  0.00  0.00     0.191 A 
ATOM     31  O1  RXM d   1      91.028 102.536  41.487  0.00  0.00    -0.289 OA
ATOM     32  C4  RXM d   1      93.613 104.095  44.335  0.00  0.00     0.097 A 
ATOM     33  N3  RXM d   1      94.527 104.336  45.226  0.00  0.00    -0.228 NA
ATOM     34  C38 RXM d   1      95.262 103.153  45.575  0.00  0.00     0.135 A 
ATOM     35  N2  RXM d   1      94.669 102.061  44.766  0.00  0.00    -0.306 N 
ATOM     36  C3  RXM d   1      93.653 102.641  43.996  0.00  0.00     0.078 A 
ATOM     37  C39 RXM d   1      96.316 102.934  46.460  0.00  0.00    -0.032 A 
ATOM     38  C40 RXM d   1      96.836 101.639  46.573  0.00  0.00    -0.057 A 
ATOM     39  C41 RXM d   1      95.229 100.833  44.938  0.00  0.00    -0.013 A 
ATOM     40  C42 RXM d   1      96.294 100.590  45.811  0.00  0.00    -0.062 A 
ATOM     41  H1  RXM d   1      93.711 100.452  42.321  0.00  0.00     0.164 HD
ATOM     42  H2  RXM d   1      92.006 101.935  43.814  0.00  0.00     0.095 H 
ATOM     43  H6  RXM d   1      93.180  96.621  42.327  0.00  0.00     0.084 H 
ATOM     44  H7  RXM d   1      95.463  97.694  42.460  0.00  0.00     0.083 H 
ATOM     45  H8  RXM d   1      94.149  99.609  40.514  0.00  0.00     0.077 H 
ATOM     46  H9  RXM d   1      96.787  98.838  39.939  0.00  0.00     0.049 H 
ATOM     47  H13 RXM d   1      95.779 101.508  40.980  0.00  0.00     0.084 H 
ATOM     48  H15 RXM d   1      98.231 101.468  41.355  0.00  0.00     0.047 H 
ATOM     49  H19 RXM d   1      98.654 103.640  40.654  0.00  0.00     0.084 H 
ATOM     50  H21 RXM d   1      95.641 103.539  40.585  0.00  0.00     0.047 H 
ATOM     51  H25 RXM d   1      96.883 105.664  39.884  0.00  0.00     0.085 H 
ATOM     52  H29 RXM d   1      94.776 105.979  42.021  0.00  0.00     0.047 H 
ATOM     53  H33 RXM d   1      96.483 107.933  41.371  0.00  0.00     0.090 H 
ATOM     54  H37 RXM d   1      93.504 108.671  41.717  0.00  0.00     0.083 H 
ATOM     55  H38 RXM d   1      95.946 108.704  43.538  0.00  0.00     0.122 H 
ATOM     56  H46 RXM d   1      96.726 103.752  47.050  0.00  0.00     0.090 H 
ATOM     57  H47 RXM d   1      94.828  99.997  44.367  0.00  0.00     0.112 H 
ATOM     58  H48 RXM d   1      96.704  99.585  45.901  0.00  0.00     0.086 H 
ENDROOT
BRANCH  14  59
ATOM     59  O7  RXM d   1      97.577 106.010  41.809  0.00  0.00    -0.315 OA
BRANCH  59  60
ATOM     60  C35 RXM d   1      98.825 106.348  41.409  0.00  0.00     0.255 C 
ATOM     61  O8  RXM d   1      99.304 106.015  40.335  0.00  0.00    -0.266 OA
BRANCH  60  62
ATOM     62  C36 RXM d   1      99.654 107.169  42.346  0.00  0.00     0.004 C 
ATOM     63  H26 RXM d   1     100.636 107.365  41.891  0.00  0.00     0.041 H 
ATOM     64  H27 RXM d   1      99.790 106.622  43.290  0.00  0.00     0.041 H 
ATOM     65  H28 RXM d   1      99.145 108.124  42.546  0.00  0.00     0.041 H 
ENDBRANCH  60  62
ENDBRANCH  59  60
ENDBRANCH  14  59
BRANCH  13  66
ATOM     66  C33 RXM d   1      96.551 103.504  42.510  0.00  0.00    -0.068 C 
ATOM     67  H22 RXM d   1      95.717 104.013  43.015  0.00  0.00     0.028 H 
ATOM     68  H23 RXM d   1      97.499 103.794  42.986  0.00  0.00     0.028 H 
ATOM     69  H24 RXM d   1      96.419 102.415  42.590  0.00  0.00     0.028 H 
ENDBRANCH  13  66
BRANCH  15  70
ATOM     70  C34 RXM d   1      94.155 105.807  39.976  0.00  0.00    -0.068 C 
ATOM     71  H30 RXM d   1      93.232 106.388  40.121  0.00  0.00     0.028 H 
ATOM     72  H31 RXM d   1      93.934 104.735  40.084  0.00  0.00     0.028 H 
ATOM     73  H32 RXM d   1      94.555 106.000  38.970  0.00  0.00     0.028 H 
ENDBRANCH  15  70
BRANCH  12  74
ATOM     74  O9  RXM d   1      97.630 103.671  38.865  0.00  0.00    -0.395 OA
ATOM     75  H20 RXM d   1      96.861 103.287  38.462  0.00  0.00     0.210 HD
ENDBRANCH  12  74
BRANCH  16  76
ATOM     76  O6  RXM d   1      95.409 108.343  39.692  0.00  0.00    -0.386 OA
BRANCH  76  77
ATOM     77  C37 RXM d   1      96.752 108.623  39.292  0.00  0.00     0.005 C 
ATOM     78  H34 RXM d   1      96.751 109.058  38.282  0.00  0.00     0.066 H 
ATOM     79  H35 RXM d   1      97.336 107.691  39.289  0.00  0.00     0.066 H 
ATOM     80  H36 RXM d   1      97.204 109.336  39.997  0.00  0.00     0.066 H 
ENDBRANCH  76  77
ENDBRANCH  16  76
BRANCH  11  81
ATOM     81  C32 RXM d   1      98.830 101.111  39.333  0.00  0.00    -0.068 C 
ATOM     82  H16 RXM d   1      99.786 101.647  39.422  0.00  0.00     0.028 H 
ATOM     83  H17 RXM d   1      98.431 101.239  38.316  0.00  0.00     0.028 H 
ATOM     84  H18 RXM d   1      98.990 100.041  39.533  0.00  0.00     0.028 H 
ENDBRANCH  11  81
BRANCH  10  85
ATOM     85  O10 RXM d   1      95.820 101.046  38.985  0.00  0.00    -0.394 OA
ATOM     86  H14 RXM d   1      94.922 100.741  39.036  0.00  0.00     0.210 HD
ENDBRANCH  10  85
BRANCH   9  87
ATOM     87  C31 RXM d   1      97.280  99.349  42.012  0.00  0.00    -0.067 C 
ATOM     88  H10 RXM d   1      97.270  98.303  42.353  0.00  0.00     0.028 H 
ATOM     89  H11 RXM d   1      96.882  99.997  42.806  0.00  0.00     0.028 H 
ATOM     90  H12 RXM d   1      98.312  99.649  41.778  0.00  0.00     0.028 H 
ENDBRANCH   9  87
BRANCH  20  91
ATOM     91  C13 RXM d   1      92.310 109.230  45.991  0.00  0.00    -0.017 C 
ATOM     92  H39 RXM d   1      93.108 109.324  46.742  0.00  0.00     0.035 H 
ATOM     93  H40 RXM d   1      91.558 108.509  46.344  0.00  0.00     0.035 H 
ATOM     94  H41 RXM d   1      91.835 110.210  45.836  0.00  0.00     0.035 H 
ENDBRANCH  20  91
BRANCH   5  95
ATOM     95  C30 RXM d   1      91.018  97.376  43.182  0.00  0.00    -0.046 C 
ATOM     96  H3  RXM d   1      91.344  96.344  42.986  0.00  0.00     0.033 H 
ATOM     97  H4  RXM d   1      90.141  97.608  42.559  0.00  0.00     0.033 H 
ATOM     98  H5  RXM d   1      90.751  97.481  44.244  0.00  0.00     0.033 H 
ENDBRANCH   5  95
BRANCH  29  99
ATOM     99  C14 RXM d   1      89.872 107.778  41.618  0.00  0.00    -0.046 C 
ATOM    100  H43 RXM d   1      90.028 108.793  42.011  0.00  0.00     0.033 H 
ATOM    101  H44 RXM d   1      88.833 107.468  41.805  0.00  0.00     0.033 H 
ATOM    102  H45 RXM d   1      90.068 107.770  40.536  0.00  0.00     0.033 H 
ENDBRANCH  29  99
BRANCH  28 103
ATOM    103  O2  RXM d   1      89.953 104.990  41.023  0.00  0.00    -0.359 OA
ATOM    104  H42 RXM d   1      89.373 104.338  41.397  0.00  0.00     0.217 HD
ENDBRANCH  28 103
BRANCH  38 105
ATOM    105  C43 RXM d   1      97.984 101.358  47.519  0.00  0.00    -0.051 C 
ATOM    106  H49 RXM d   1      98.276 102.289  48.027  0.00  0.00     0.033 H 
ATOM    107  H50 RXM d   1      98.840 100.966  46.950  0.00  0.00     0.033 H 
ATOM    108  H51 RXM d   1      97.670 100.615  48.267  0.00  0.00     0.033 H 
ENDBRANCH  38 105
TORSDOF 16
