REMARK  18 active torsions:
REMARK  status: ('A' for Active; 'I' for Inactive)
REMARK    1  A    between atoms: C1_1  and  O1_3 
REMARK    2  A    between atoms: C8_16  and  O2_5 
REMARK    3  A    between atoms: C3_6  and  C38_52 
REMARK    4  A    between atoms: C4_8  and  O12_25 
REMARK    5  A    between atoms: C27_41  and  O6_13 
REMARK    6  A    between atoms: O6_13  and  C37_51 
REMARK    7  A    between atoms: C7_14  and  C14_28 
REMARK    8  A    between atoms: C25_39  and  O7_15 
REMARK    9  A    between atoms: O7_15  and  C35_49 
REMARK   10  A    between atoms: C23_37  and  O9_19 
REMARK   11  A    between atoms: C21_35  and  O10_21 
REMARK   12  A    between atoms: C12_24  and  C13_26 
REMARK   13  A    between atoms: C16_30  and  C30_44 
REMARK   14  A    between atoms: C20_34  and  C31_45 
REMARK   15  A    between atoms: C22_36  and  C32_46 
REMARK   16  A    between atoms: C24_38  and  C33_47 
REMARK   17  A    between atoms: C26_40  and  C34_48 
REMARK   18  A    between atoms: C35_49  and  C36_50 
ROOT
ATOM      1  C1  3YI d   1      91.471 103.003  42.197  0.00  0.00     0.107 A 
ATOM      2  N1  3YI d   1      92.116 100.736  42.450  0.00  0.00    -0.320 N 
ATOM      3  C2  3YI d   1      92.163 102.076  42.948  0.00  0.00     0.085 A 
ATOM      4  C3  3YI d   1      92.890 102.477  44.078  0.00  0.00     0.065 A 
ATOM      5  O3  3YI d   1      91.655 108.429  43.321  0.00  0.00    -0.305 OA
ATOM      6  C4  3YI d   1      92.891 103.854  44.418  0.00  0.00     0.093 A 
ATOM      7  O4  3YI d   1      93.456 106.787  45.829  0.00  0.00    -0.286 OA
ATOM      8  C5  3YI d   1      92.186 106.268  43.883  0.00  0.00     0.064 A 
ATOM      9  O5  3YI d   1      93.875 109.233  44.143  0.00  0.00    -0.348 OA
ATOM     10  C6  3YI d   1      91.524 107.112  43.009  0.00  0.00     0.096 A 
ATOM     11  C7  3YI d   1      90.802 106.670  41.917  0.00  0.00     0.007 A 
ATOM     12  C8  3YI d   1      90.761 105.331  41.668  0.00  0.00     0.088 A 
ATOM     13  C9  3YI d   1      91.462 104.387  42.494  0.00  0.00     0.047 A 
ATOM     14  C10 3YI d   1      92.191 104.844  43.631  0.00  0.00     0.031 A 
ATOM     15  C11 3YI d   1      92.777 107.103  44.879  0.00  0.00     0.225 C 
ATOM     16  O11 3YI d   1      91.146  99.780  44.224  0.00  0.00    -0.268 OA
ATOM     17  C12 3YI d   1      92.567 108.545  44.488  0.00  0.00     0.233 C 
ATOM     18  C15 3YI d   1      91.631  99.696  43.127  0.00  0.00     0.251 C 
ATOM     19  C16 3YI d   1      91.760  98.401  42.425  0.00  0.00     0.006 C 
ATOM     20  C17 3YI d   1      92.865  98.116  41.689  0.00  0.00    -0.072 C 
ATOM     21  C18 3YI d   1      94.016  98.964  41.563  0.00  0.00    -0.085 C 
ATOM     22  C19 3YI d   1      95.053  98.598  40.791  0.00  0.00    -0.097 C 
ATOM     23  C20 3YI d   1      96.409  99.336  40.593  0.00  0.00    -0.016 C 
ATOM     24  C21 3YI d   1      96.212 100.855  40.299  0.00  0.00     0.047 C 
ATOM     25  C22 3YI d   1      97.536 101.666  40.133  0.00  0.00    -0.007 C 
ATOM     26  C23 3YI d   1      97.352 103.165  39.840  0.00  0.00     0.046 C 
ATOM     27  C24 3YI d   1      96.402 103.914  40.798  0.00  0.00    -0.006 C 
ATOM     28  C25 3YI d   1      96.321 105.415  40.451  0.00  0.00     0.059 C 
ATOM     29  C26 3YI d   1      95.347 106.221  41.327  0.00  0.00    -0.006 C 
ATOM     30  C27 3YI d   1      95.336 107.749  40.995  0.00  0.00     0.045 C 
ATOM     31  C28 3YI d   1      94.404 108.547  41.897  0.00  0.00    -0.021 C 
ATOM     32  C29 3YI d   1      94.801 108.486  43.343  0.00  0.00     0.026 C 
ATOM     33  H1  3YI d   1      92.472 100.568  41.531  0.00  0.00     0.169 HD
ATOM     34  H13 3YI d   1      92.879  97.169  41.152  0.00  0.00     0.084 H 
ATOM     35  H14 3YI d   1      94.049  99.912  42.098  0.00  0.00     0.083 H 
ATOM     36  H15 3YI d   1      94.929  97.670  40.235  0.00  0.00     0.077 H 
ATOM     37  H16 3YI d   1      96.921  98.885  39.730  0.00  0.00     0.049 H 
ATOM     38  H17 3YI d   1      95.680 101.278  41.163  0.00  0.00     0.084 H 
ATOM     39  H18 3YI d   1      98.055 101.603  41.101  0.00  0.00     0.047 H 
ATOM     40  H19 3YI d   1      98.342 103.634  39.946  0.00  0.00     0.084 H 
ATOM     41  H20 3YI d   1      95.394 103.486  40.693  0.00  0.00     0.047 H 
ATOM     42  H21 3YI d   1      96.034 105.519  39.394  0.00  0.00     0.085 H 
ATOM     43  H22 3YI d   1      95.659 106.108  42.376  0.00  0.00     0.047 H 
ATOM     44  H23 3YI d   1      96.353 108.148  41.123  0.00  0.00     0.084 H 
ATOM     45  H24 3YI d   1      93.386 108.144  41.795  0.00  0.00     0.040 H 
ATOM     46  H25 3YI d   1      94.416 109.598  41.573  0.00  0.00     0.040 H 
ATOM     47  H26 3YI d   1      94.804 107.437  43.675  0.00  0.00     0.074 H 
ATOM     48  H27 3YI d   1      95.809 108.911  43.461  0.00  0.00     0.074 H 
ENDROOT
BRANCH  28  49
ATOM     49  O7  3YI d   1      97.615 106.005  40.687  0.00  0.00    -0.315 OA
BRANCH  49  50
ATOM     50  C35 3YI d   1      98.351 106.362  39.610  0.00  0.00     0.255 C 
ATOM     51  O8  3YI d   1      97.942 106.195  38.444  0.00  0.00    -0.266 OA
BRANCH  50  52
ATOM     52  C36 3YI d   1      99.677 106.965  39.999  0.00  0.00     0.004 C 
ATOM     53  H43 3YI d   1     100.236 107.238  39.092  0.00  0.00     0.041 H 
ATOM     54  H44 3YI d   1     100.256 106.233  40.580  0.00  0.00     0.041 H 
ATOM     55  H45 3YI d   1      99.506 107.865  40.609  0.00  0.00     0.041 H 
ENDBRANCH  50  52
ENDBRANCH  49  50
ENDBRANCH  28  49
BRANCH  27  56
ATOM     56  C33 3YI d   1      96.874 103.698  42.252  0.00  0.00    -0.068 C 
ATOM     57  H37 3YI d   1      96.921 102.620  42.466  0.00  0.00     0.028 H 
ATOM     58  H38 3YI d   1      96.166 104.179  42.943  0.00  0.00     0.028 H 
ATOM     59  H39 3YI d   1      97.872 104.141  42.383  0.00  0.00     0.028 H 
ENDBRANCH  27  56
BRANCH  29  60
ATOM     60  C34 3YI d   1      93.955 105.639  41.171  0.00  0.00    -0.068 C 
ATOM     61  H40 3YI d   1      93.978 104.565  41.407  0.00  0.00     0.028 H 
ATOM     62  H41 3YI d   1      93.613 105.779  40.135  0.00  0.00     0.028 H 
ATOM     63  H42 3YI d   1      93.264 106.151  41.858  0.00  0.00     0.028 H 
ENDBRANCH  29  60
BRANCH  26  64
ATOM     64  O9  3YI d   1      96.926 103.341  38.486  0.00  0.00    -0.395 OA
ATOM     65  H4  3YI d   1      96.101 102.889  38.354  0.00  0.00     0.210 HD
ENDBRANCH  26  64
BRANCH  30  66
ATOM     66  O6  3YI d   1      94.955 107.859  39.609  0.00  0.00    -0.390 OA
BRANCH  66  67
ATOM     67  C37 3YI d   1      95.879 108.602  38.840  0.00  0.00     0.004 C 
ATOM     68  H46 3YI d   1      95.533 108.649  37.797  0.00  0.00     0.066 H 
ATOM     69  H47 3YI d   1      96.864 108.114  38.878  0.00  0.00     0.066 H 
ATOM     70  H48 3YI d   1      95.959 109.621  39.246  0.00  0.00     0.066 H 
ENDBRANCH  66  67
ENDBRANCH  30  66
BRANCH  25  71
ATOM     71  C32 3YI d   1      98.473 101.018  39.071  0.00  0.00    -0.068 C 
ATOM     72  H34 3YI d   1      98.595  99.948  39.294  0.00  0.00     0.028 H 
ATOM     73  H35 3YI d   1      99.455 101.512  39.099  0.00  0.00     0.028 H 
ATOM     74  H36 3YI d   1      98.031 101.136  38.071  0.00  0.00     0.028 H 
ENDBRANCH  25  71
BRANCH  24  75
ATOM     75  O10 3YI d   1      95.399 101.052  39.146  0.00  0.00    -0.394 OA
ATOM     76  H5  3YI d   1      95.294 101.983  38.989  0.00  0.00     0.210 HD
ENDBRANCH  24  75
BRANCH  23  77
ATOM     77  C31 3YI d   1      97.292  99.153  41.833  0.00  0.00    -0.067 C 
ATOM     78  H31 3YI d   1      97.425  98.080  42.033  0.00  0.00     0.028 H 
ATOM     79  H32 3YI d   1      96.811  99.630  42.700  0.00  0.00     0.028 H 
ATOM     80  H33 3YI d   1      98.273  99.618  41.656  0.00  0.00     0.028 H 
ENDBRANCH  23  77
BRANCH  17  81
ATOM     81  C13 3YI d   1      91.848 109.388  45.530  0.00  0.00    -0.017 C 
ATOM     82  H7  3YI d   1      90.895 108.908  45.796  0.00  0.00     0.035 H 
ATOM     83  H8  3YI d   1      91.652 110.389  45.120  0.00  0.00     0.035 H 
ATOM     84  H9  3YI d   1      92.477 109.476  46.428  0.00  0.00     0.035 H 
ENDBRANCH  17  81
BRANCH  19  85
ATOM     85  C30 3YI d   1      90.589  97.467  42.557  0.00  0.00    -0.046 C 
ATOM     86  H28 3YI d   1      89.825  97.925  43.203  0.00  0.00     0.033 H 
ATOM     87  H29 3YI d   1      90.925  96.519  43.002  0.00  0.00     0.033 H 
ATOM     88  H30 3YI d   1      90.160  97.274  41.563  0.00  0.00     0.033 H 
ENDBRANCH  19  85
BRANCH  11  89
ATOM     89  C14 3YI d   1      90.087 107.667  41.029  0.00  0.00    -0.046 C 
ATOM     90  H10 3YI d   1      90.253 108.684  41.412  0.00  0.00     0.033 H 
ATOM     91  H11 3YI d   1      89.009 107.448  41.026  0.00  0.00     0.033 H 
ATOM     92  H12 3YI d   1      90.480 107.593  40.004  0.00  0.00     0.033 H 
ENDBRANCH  11  89
BRANCH  12  93
ATOM     93  O2  3YI d   1      90.046 104.947  40.580  0.00  0.00    -0.359 OA
ATOM     94  H3  3YI d   1      90.081 104.001  40.497  0.00  0.00     0.217 HD
ENDBRANCH  12  93
BRANCH   6  95
ATOM     95  O12 3YI d   1      93.614 104.222  45.515  0.00  0.00    -0.359 OA
ATOM     96  H6  3YI d   1      93.041 104.644  46.144  0.00  0.00     0.217 HD
ENDBRANCH   6  95
BRANCH   4  97
ATOM     97  C38 3YI d   1      93.643 101.514  44.882  0.00  0.00     0.123 C 
ATOM     98  O13 3YI d   1      94.869 101.288  44.854  0.00  0.00    -0.301 OA
ATOM     99  H49 3YI d   1      93.063 100.924  45.590  0.00  0.00     0.152 H 
ENDBRANCH   4  97
BRANCH   1 100
ATOM    100  O1  3YI d   1      90.771 102.548  41.077  0.00  0.00    -0.357 OA
ATOM    101  H2  3YI d   1      90.342 103.282  40.653  0.00  0.00     0.217 HD
ENDBRANCH   1 100
TORSDOF 18
