REMARK  21 active torsions:
REMARK  status: ('A' for Active; 'I' for Inactive)
REMARK    1  A    between atoms: C1_1  and  O1_52 
REMARK    2  A    between atoms: C43_43  and  C3_3 
REMARK    3  A    between atoms: C4_4  and  O12_63 
REMARK    4  A    between atoms: C7_7  and  C14_14 
REMARK    5  A    between atoms: C8_8  and  O2_53 
REMARK    6  A    between atoms: C12_12  and  C13_13 
REMARK    7  A    between atoms: C16_16  and  C30_30 
REMARK    8  A    between atoms: C20_20  and  C31_31 
REMARK    9  A    between atoms: C21_21  and  O10_61 
REMARK   10  A    between atoms: C22_22  and  C32_32 
REMARK   11  A    between atoms: C23_23  and  O9_60 
REMARK   12  A    between atoms: C24_24  and  C33_33 
REMARK   13  A    between atoms: C25_25  and  O7_58 
REMARK   14  A    between atoms: C26_26  and  C34_34 
REMARK   15  A    between atoms: C27_27  and  O6_57 
REMARK   16  A    between atoms: C35_35  and  C36_36 
REMARK   17  A    between atoms: O7_58  and  C35_35 
REMARK   18  A    between atoms: O6_57  and  C37_37 
REMARK   19  A    between atoms: N4_51  and  C38_38 
REMARK   20  A    between atoms: N2_49  and  C43_43 
REMARK   21  A    between atoms: N2_49  and  N3_50 
ROOT
ATOM      1  C1  RPT d   1      91.562 102.895  41.767  0.00  0.00     0.107 A 
ATOM      2  C2  RPT d   1      92.449 101.997  42.259  0.00  0.00     0.080 A 
ATOM      3  C3  RPT d   1      93.380 102.363  43.249  0.00  0.00     0.033 A 
ATOM      4  C4  RPT d   1      93.347 103.671  43.758  0.00  0.00     0.088 A 
ATOM      5  C5  RPT d   1      92.372 105.956  43.691  0.00  0.00     0.064 A 
ATOM      6  C6  RPT d   1      91.498 106.833  43.068  0.00  0.00     0.096 A 
ATOM      7  C7  RPT d   1      90.609 106.505  42.044  0.00  0.00     0.007 A 
ATOM      8  C8  RPT d   1      90.648 105.176  41.672  0.00  0.00     0.088 A 
ATOM      9  C9  RPT d   1      91.529 104.210  42.235  0.00  0.00     0.047 A 
ATOM     10  C10 RPT d   1      92.419 104.603  43.257  0.00  0.00     0.030 A 
ATOM     11  C11 RPT d   1      93.042 106.666  44.687  0.00  0.00     0.225 A 
ATOM     12  C12 RPT d   1      92.562 108.106  44.624  0.00  0.00     0.237 A 
ATOM     13  C15 RPT d   1      91.960  99.641  42.602  0.00  0.00     0.251 C 
ATOM     14  C16 RPT d   1      92.238  98.249  42.152  0.00  0.00     0.006 C 
ATOM     15  C17 RPT d   1      93.422  97.904  41.605  0.00  0.00    -0.072 C 
ATOM     16  C18 RPT d   1      94.578  98.745  41.424  0.00  0.00    -0.085 C 
ATOM     17  C19 RPT d   1      95.580  98.477  40.575  0.00  0.00    -0.097 C 
ATOM     18  C20 RPT d   1      96.837  99.280  40.362  0.00  0.00    -0.016 C 
ATOM     19  C21 RPT d   1      96.585 100.773  40.084  0.00  0.00     0.047 C 
ATOM     20  C22 RPT d   1      97.874 101.566  39.777  0.00  0.00    -0.007 C 
ATOM     21  C23 RPT d   1      97.652 103.076  39.706  0.00  0.00     0.046 C 
ATOM     22  C24 RPT d   1      96.566 103.634  40.632  0.00  0.00    -0.006 C 
ATOM     23  C25 RPT d   1      96.454 105.139  40.441  0.00  0.00     0.059 C 
ATOM     24  C26 RPT d   1      95.273 105.787  41.214  0.00  0.00    -0.003 C 
ATOM     25  C27 RPT d   1      95.366 107.346  41.170  0.00  0.00     0.061 C 
ATOM     26  C28 RPT d   1      94.316 107.993  42.054  0.00  0.00    -0.054 C 
ATOM     27  C29 RPT d   1      94.548 108.414  43.303  0.00  0.00     0.015 C 
ATOM     28  N1  RPT d   1      92.416 100.653  41.804  0.00  0.00    -0.320 N 
ATOM     29  O3  RPT d   1      91.574 108.105  43.570  0.00  0.00    -0.305 OA
ATOM     30  O4  RPT d   1      93.860 106.320  45.513  0.00  0.00    -0.286 OA
ATOM     31  O5  RPT d   1      93.615 108.975  44.161  0.00  0.00    -0.319 OA
ATOM     32  O11 RPT d   1      91.354  99.842  43.650  0.00  0.00    -0.268 OA
ATOM     33  H7  RPT d   1      93.514  96.875  41.262  0.00  0.00     0.084 H 
ATOM     34  H8  RPT d   1      94.642  99.657  42.015  0.00  0.00     0.083 H 
ATOM     35  H9  RPT d   1      95.474  97.577  39.971  0.00  0.00     0.077 H 
ATOM     36  H10 RPT d   1      97.337  98.870  39.472  0.00  0.00     0.049 H 
ATOM     37  H11 RPT d   1      96.134 101.208  40.988  0.00  0.00     0.084 H 
ATOM     38  H12 RPT d   1      98.561 101.388  40.617  0.00  0.00     0.047 H 
ATOM     39  H13 RPT d   1      98.598 103.547  40.012  0.00  0.00     0.084 H 
ATOM     40  H14 RPT d   1      95.606 103.178  40.347  0.00  0.00     0.047 H 
ATOM     41  H15 RPT d   1      96.354 105.362  39.369  0.00  0.00     0.085 H 
ATOM     42  H16 RPT d   1      95.371 105.485  42.267  0.00  0.00     0.047 H 
ATOM     43  H17 RPT d   1      96.354 107.653  41.544  0.00  0.00     0.090 H 
ATOM     44  H18 RPT d   1      93.314 108.123  41.648  0.00  0.00     0.083 H 
ATOM     45  H19 RPT d   1      95.564 108.306  43.680  0.00  0.00     0.122 H 
ATOM     46  H60 RPT d   1      92.733 100.442  40.880  0.00  0.00     0.169 HD
ENDROOT
BRANCH   3  47
ATOM     47  C43 RPT d   1      94.396 101.406  43.699  0.00  0.00     0.138 C 
ATOM     48  H50 RPT d   1      94.918 101.060  42.795  0.00  0.00     0.086 H 
ATOM     49  H51 RPT d   1      93.851 100.565  44.152  0.00  0.00     0.086 H 
BRANCH  47  50
ATOM     50  N2  RPT d   1      95.302 101.738  44.533  0.00  0.00     0.084 N 
ATOM     51  H61 RPT d   1      95.046 102.643  44.895  0.00  0.00     0.313 HD
ATOM     52  H62 RPT d   1      96.161 101.816  44.012  0.00  0.00     0.313 HD
BRANCH  50  53
ATOM     53  N3  RPT d   1      95.573 100.928  45.635  0.00  0.00     0.085 N 
ATOM     54  C40 RPT d   1      95.113 101.552  46.879  0.00  0.00     0.134 C 
ATOM     55  C39 RPT d   1      95.334 100.637  48.054  0.00  0.00     0.108 C 
ATOM     56  H44 RPT d   1      95.671 102.486  47.041  0.00  0.00     0.082 H 
ATOM     57  H45 RPT d   1      94.039 101.776  46.794  0.00  0.00     0.082 H 
ATOM     58  N4  RPT d   1      94.730  99.326  47.775  0.00  0.00    -0.064 N 
ATOM     59  H42 RPT d   1      94.868 101.072  48.950  0.00  0.00     0.078 H 
ATOM     60  H43 RPT d   1      96.414 100.514  48.225  0.00  0.00     0.078 H 
ATOM     61  C42 RPT d   1      95.460  98.697  46.663  0.00  0.00     0.108 C 
ATOM     62  H64 RPT d   1      93.796  99.504  47.441  0.00  0.00     0.280 HD
ATOM     63  C41 RPT d   1      95.277  99.512  45.400  0.00  0.00     0.134 C 
ATOM     64  H48 RPT d   1      96.530  98.646  46.912  0.00  0.00     0.078 H 
ATOM     65  H49 RPT d   1      95.072  97.681  46.501  0.00  0.00     0.078 H 
ATOM     66  H46 RPT d   1      94.236  99.415  45.058  0.00  0.00     0.082 H 
ATOM     67  H47 RPT d   1      95.955  99.128  44.624  0.00  0.00     0.082 H 
ATOM     68  H63 RPT d   1      96.577 100.942  45.721  0.00  0.00     0.315 HD
BRANCH  58  69
ATOM     69  C38 RPT d   1      94.567  98.471  48.967  0.00  0.00     0.104 C 
ATOM     70  C44 RPT d   1      94.768  99.166  50.313  0.00  0.00    -0.038 C 
ATOM     71  C46 RPT d   1      94.936  98.028  51.303  0.00  0.00    -0.063 C 
ATOM     72  H52 RPT d   1      93.891  99.779  50.569  0.00  0.00     0.036 H 
ATOM     73  H53 RPT d   1      95.666  99.801  50.293  0.00  0.00     0.036 H 
ATOM     74  C47 RPT d   1      95.283  96.771  50.486  0.00  0.00    -0.063 C 
ATOM     75  H56 RPT d   1      94.001  97.870  51.860  0.00  0.00     0.033 H 
ATOM     76  H57 RPT d   1      95.749  98.257  52.008  0.00  0.00     0.033 H 
ATOM     77  C45 RPT d   1      95.423  97.213  49.043  0.00  0.00    -0.038 C 
ATOM     78  H58 RPT d   1      96.228  96.336  50.843  0.00  0.00     0.033 H 
ATOM     79  H59 RPT d   1      94.479  96.026  50.578  0.00  0.00     0.033 H 
ATOM     80  H54 RPT d   1      96.472  97.437  48.801  0.00  0.00     0.036 H 
ATOM     81  H55 RPT d   1      95.046  96.440  48.358  0.00  0.00     0.036 H 
ATOM     82  H41 RPT d   1      93.519  98.139  48.930  0.00  0.00     0.084 H 
ENDBRANCH  58  69
ENDBRANCH  50  53
ENDBRANCH  47  50
ENDBRANCH   3  47
BRANCH   4  83
ATOM     83  O12 RPT d   1      94.196 104.057  44.725  0.00  0.00    -0.359 OA
ATOM     84  H69 RPT d   1      93.701 104.336  45.486  0.00  0.00     0.217 HD
ENDBRANCH   4  83
BRANCH   1  85
ATOM     85  O1  RPT d   1      90.699 102.513  40.803  0.00  0.00    -0.357 OA
ATOM     86  H65 RPT d   1      90.838 103.043  40.027  0.00  0.00     0.217 HD
ENDBRANCH   1  85
BRANCH   8  87
ATOM     87  O2  RPT d   1      89.782 104.782  40.718  0.00  0.00    -0.359 OA
ATOM     88  H66 RPT d   1      90.265 104.434  39.977  0.00  0.00     0.217 HD
ENDBRANCH   8  87
BRANCH  14  89
ATOM     89  C30 RPT d   1      91.085  97.301  42.325  0.00  0.00    -0.046 C 
ATOM     90  H20 RPT d   1      90.242  97.830  42.794  0.00  0.00     0.033 H 
ATOM     91  H21 RPT d   1      91.393  96.462  42.966  0.00  0.00     0.033 H 
ATOM     92  H22 RPT d   1      90.775  96.917  41.342  0.00  0.00     0.033 H 
ENDBRANCH  14  89
BRANCH   7  93
ATOM     93  C14 RPT d   1      89.711 107.545  41.421  0.00  0.00    -0.046 C 
ATOM     94  H4  RPT d   1      89.884 108.517  41.906  0.00  0.00     0.033 H 
ATOM     95  H5  RPT d   1      88.660 107.250  41.556  0.00  0.00     0.033 H 
ATOM     96  H6  RPT d   1      89.934 107.626  40.347  0.00  0.00     0.033 H 
ENDBRANCH   7  93
BRANCH  12  97
ATOM     97  C13 RPT d   1      91.981 108.613  45.932  0.00  0.00    -0.017 C 
ATOM     98  H1  RPT d   1      91.657 109.657  45.809  0.00  0.00     0.035 H 
ATOM     99  H2  RPT d   1      92.747 108.557  46.719  0.00  0.00     0.035 H 
ATOM    100  H3  RPT d   1      91.118 107.992  46.215  0.00  0.00     0.035 H 
ENDBRANCH  12  97
BRANCH  18 101
ATOM    101  C31 RPT d   1      97.776  99.089  41.553  0.00  0.00    -0.067 C 
ATOM    102  H23 RPT d   1      97.936  98.014  41.725  0.00  0.00     0.028 H 
ATOM    103  H24 RPT d   1      97.328  99.541  42.450  0.00  0.00     0.028 H 
ATOM    104  H25 RPT d   1      98.740  99.573  41.341  0.00  0.00     0.028 H 
ENDBRANCH  18 101
BRANCH  19 105
ATOM    105  O10 RPT d   1      95.662 100.916  39.011  0.00  0.00    -0.394 OA
ATOM    106  H68 RPT d   1      95.447 101.835  38.900  0.00  0.00     0.210 HD
ENDBRANCH  19 105
BRANCH  25 107
ATOM    107  O6  RPT d   1      95.255 107.743  39.798  0.00  0.00    -0.386 OA
BRANCH 107 108
ATOM    108  C37 RPT d   1      96.163 108.769  39.429  0.00  0.00     0.005 C 
ATOM    109  H38 RPT d   1      96.020 109.020  38.368  0.00  0.00     0.066 H 
ATOM    110  H39 RPT d   1      97.194 108.421  39.588  0.00  0.00     0.066 H 
ATOM    111  H40 RPT d   1      95.978 109.661  40.045  0.00  0.00     0.066 H 
ENDBRANCH 107 108
ENDBRANCH  25 107
BRANCH  20 112
ATOM    112  C32 RPT d   1      98.562 101.043  38.517  0.00  0.00    -0.068 C 
ATOM    113  H26 RPT d   1      98.706  99.956  38.602  0.00  0.00     0.028 H 
ATOM    114  H27 RPT d   1      99.540 101.534  38.402  0.00  0.00     0.028 H 
ATOM    115  H28 RPT d   1      97.936 101.263  37.639  0.00  0.00     0.028 H 
ENDBRANCH  20 112
BRANCH  24 116
ATOM    116  C34 RPT d   1      93.912 105.281  40.730  0.00  0.00    -0.068 C 
ATOM    117  H32 RPT d   1      93.891 104.182  40.778  0.00  0.00     0.028 H 
ATOM    118  H33 RPT d   1      93.748 105.606  39.692  0.00  0.00     0.028 H 
ATOM    119  H34 RPT d   1      93.119 105.691  41.372  0.00  0.00     0.028 H 
ENDBRANCH  24 116
BRANCH  21 120
ATOM    120  O9  RPT d   1      97.387 103.466  38.363  0.00  0.00    -0.395 OA
ATOM    121  H67 RPT d   1      97.381 104.414  38.305  0.00  0.00     0.210 HD
ENDBRANCH  21 120
BRANCH  23 122
ATOM    122  O7  RPT d   1      97.668 105.723  40.977  0.00  0.00    -0.315 OA
BRANCH 122 123
ATOM    123  C35 RPT d   1      98.728 105.943  40.155  0.00  0.00     0.255 C 
ATOM    124  O8  RPT d   1      98.698 105.668  38.984  0.00  0.00    -0.266 OA
BRANCH 123 125
ATOM    125  C36 RPT d   1      99.883 106.566  40.900  0.00  0.00     0.004 C 
ATOM    126  H35 RPT d   1     100.721 106.730  40.206  0.00  0.00     0.041 H 
ATOM    127  H36 RPT d   1     100.203 105.893  41.709  0.00  0.00     0.041 H 
ATOM    128  H37 RPT d   1      99.567 107.529  41.327  0.00  0.00     0.041 H 
ENDBRANCH 123 125
ENDBRANCH 122 123
ENDBRANCH  23 122
BRANCH  22 129
ATOM    129  C33 RPT d   1      96.835 103.284  42.094  0.00  0.00    -0.068 C 
ATOM    130  H29 RPT d   1      96.911 102.192  42.202  0.00  0.00     0.028 H 
ATOM    131  H30 RPT d   1      96.010 103.657  42.718  0.00  0.00     0.028 H 
ATOM    132  H31 RPT d   1      97.778 103.751  42.415  0.00  0.00     0.028 H 
ENDBRANCH  22 129
TORSDOF 21
