REMARK  9 active torsions:
REMARK  status: ('A' for Active; 'I' for Inactive)
REMARK    1  A    between atoms: O_1  and  C4_2 
REMARK    2  A    between atoms: C4_2  and  C5_3 
REMARK    3  A    between atoms: C4_2  and  C6_4 
REMARK    4  A    between atoms: C4_2  and  C3_5 
REMARK    5  A    between atoms: C3_5  and  N1_6 
REMARK    6  A    between atoms: C_11  and  N_12 
REMARK    7  A    between atoms: C7_14  and  C8_16 
REMARK    8  A    between atoms: C13_24  and  O1_26 
REMARK    9  A    between atoms: O1_26  and  C14_27 
ROOT
ATOM      1  N1  UW5 d   1      -3.479 -21.865 -29.793  0.00  0.00    -0.248 N 
ATOM      2  C2  UW5 d   1      -3.710 -23.186 -29.953  0.00  0.00     0.164 A 
ATOM      3  N3  UW5 d   1      -4.867 -23.815 -29.709  0.00  0.00    -0.222 NA
ATOM      4  C21 UW5 d   1      -4.767 -25.124 -29.933  0.00  0.00     0.091 A 
ATOM      5  N4  UW5 d   1      -3.702 -25.829 -30.323  0.00  0.00    -0.224 NA
ATOM      6  C   UW5 d   1      -2.543 -25.175 -30.564  0.00  0.00     0.139 A 
ATOM      7  N2  UW5 d   1      -2.167 -21.547 -30.124  0.00  0.00    -0.169 NA
ATOM      8  C7  UW5 d   1      -1.596 -22.690 -30.466  0.00  0.00     0.105 A 
ATOM      9  C1  UW5 d   1      -2.507 -23.770 -30.388  0.00  0.00     0.088 A 
ATOM     10  H10 UW5 d   1      -5.675 -25.696 -29.777  0.00  0.00     0.146 H 
ENDROOT
BRANCH   8  11
ATOM     11  C8  UW5 d   1      -0.153 -22.687 -30.828  0.00  0.00    -0.004 A 
ATOM     12  C20 UW5 d   1       0.323 -23.501 -31.827  0.00  0.00    -0.060 A 
ATOM     13  C19 UW5 d   1       1.675 -23.438 -32.243  0.00  0.00    -0.025 A 
ATOM     14  H13 UW5 d   1      -0.349 -24.204 -32.306  0.00  0.00     0.086 H 
ATOM     15  C11 UW5 d   1       2.539 -22.527 -31.600  0.00  0.00    -0.023 A 
ATOM     16  C18 UW5 d   1       2.203 -24.269 -33.258  0.00  0.00    -0.070 A 
ATOM     17  C10 UW5 d   1       2.017 -21.712 -30.574  0.00  0.00    -0.071 A 
ATOM     18  C12 UW5 d   1       3.898 -22.485 -31.974  0.00  0.00    -0.040 A 
ATOM     19  C9  UW5 d   1       0.711 -21.793 -30.206  0.00  0.00    -0.070 A 
ATOM     20  H14 UW5 d   1       2.669 -21.008 -30.070  0.00  0.00     0.084 H 
ATOM     21  H15 UW5 d   1       0.338 -21.151 -29.416  0.00  0.00     0.084 H 
ATOM     22  C13 UW5 d   1       4.364 -23.333 -32.935  0.00  0.00     0.070 A 
ATOM     23  H18 UW5 d   1       4.571 -21.780 -31.499  0.00  0.00     0.089 H 
ATOM     24  C17 UW5 d   1       3.516 -24.206 -33.597  0.00  0.00    -0.050 A 
ATOM     25  H17 UW5 d   1       3.902 -24.840 -34.387  0.00  0.00     0.087 H 
ATOM     26  H16 UW5 d   1       1.551 -24.965 -33.772  0.00  0.00     0.085 H 
BRANCH  22  27
ATOM     27  O1  UW5 d   1       5.735 -23.315 -33.008  0.00  0.00    -0.338 OA
BRANCH  27  28
ATOM     28  C14 UW5 d   1       6.332 -24.131 -31.955  0.00  0.00     0.077 A 
ATOM     29  C16 UW5 d   1       6.074 -23.641 -30.566  0.00  0.00    -0.073 A 
ATOM     30  C15 UW5 d   1       7.382 -23.451 -31.195  0.00  0.00    -0.073 A 
ATOM     31  H20 UW5 d   1       5.406 -23.517 -29.715  0.00  0.00     0.081 H 
ATOM     32  H21 UW5 d   1       8.402 -23.075 -31.138  0.00  0.00     0.081 H 
ATOM     33  H19 UW5 d   1       6.375 -25.200 -32.213  0.00  0.00     0.097 H 
ENDBRANCH  27  28
ENDBRANCH  22  27
ENDBRANCH   8  11
BRANCH   1  34
ATOM     34  C3  UW5 d   1      -4.411 -20.868 -29.277  0.00  0.00     0.046 C 
ATOM     35  H8  UW5 d   1      -5.426 -21.193 -29.549  0.00  0.00     0.072 H 
ATOM     36  H9  UW5 d   1      -4.310 -20.857 -28.182  0.00  0.00     0.072 H 
BRANCH  34  37
ATOM     37  C4  UW5 d   1      -4.237 -19.394 -29.781  0.00  0.00     0.069 C 
BRANCH  37  38
ATOM     38  O   UW5 d   1      -2.858 -18.985 -29.694  0.00  0.00    -0.389 OA
ATOM     39  H1  UW5 d   1      -2.323 -19.567 -30.221  0.00  0.00     0.210 HD
ENDBRANCH  37  38
BRANCH  37  40
ATOM     40  C5  UW5 d   1      -5.098 -18.462 -28.936  0.00  0.00    -0.047 C 
ATOM     41  H2  UW5 d   1      -6.151 -18.774 -29.003  0.00  0.00     0.031 H 
ATOM     42  H3  UW5 d   1      -4.997 -17.432 -29.308  0.00  0.00     0.031 H 
ATOM     43  H4  UW5 d   1      -4.768 -18.507 -27.888  0.00  0.00     0.031 H 
ENDBRANCH  37  40
BRANCH  37  44
ATOM     44  C6  UW5 d   1      -4.578 -19.322 -31.172  0.00  0.00    -0.047 C 
ATOM     45  H5  UW5 d   1      -5.627 -19.624 -31.308  0.00  0.00     0.031 H 
ATOM     46  H6  UW5 d   1      -3.925 -19.996 -31.745  0.00  0.00     0.031 H 
ATOM     47  H7  UW5 d   1      -4.444 -18.290 -31.529  0.00  0.00     0.031 H 
ENDBRANCH  37  44
ENDBRANCH  34  37
ENDBRANCH   1  34
BRANCH   6  48
ATOM     48  N   UW5 d   1      -1.473 -25.896 -30.914  0.00  0.00    -0.383 N 
ATOM     49  H11 UW5 d   1      -0.576 -25.427 -31.104  0.00  0.00     0.157 HD
ATOM     50  H12 UW5 d   1      -1.546 -26.920 -30.994  0.00  0.00     0.157 HD
ENDBRANCH   6  48
TORSDOF 9
