REMARK  11 active torsions:
REMARK  status: ('A' for Active; 'I' for Inactive)
REMARK    1  A    between atoms: O02_24  and  C01_1 
REMARK    2  A    between atoms: C06_3  and  C11_7 
REMARK    3  A    between atoms: C08_27  and  C09_5 
REMARK       I    between atoms: C11_7  and  N13_29 
REMARK    4  A    between atoms: N13_29  and  C14_8 
REMARK    5  A    between atoms: C17_10  and  C20_13 
REMARK    6  A    between atoms: C20_13  and  N21_14 
REMARK    7  A    between atoms: C26_17  and  C32_20 
REMARK    8  A    between atoms: C28_18  and  C29_19 
REMARK       I    between atoms: C32_20  and  N34_21 
REMARK    9  A    between atoms: N34_21  and  C35_22 
REMARK   10  A    between atoms: C35_22  and  C36_37 
REMARK   11  A    between atoms: O02_24  and  C03_25 
ROOT
ATOM      1  C04 DJY d   1      -1.503  20.338 -21.933  0.00  0.00    -0.038 A 
ATOM      2  C06 DJY d   1      -0.764  18.734 -20.333  0.00  0.00     0.044 A 
ATOM      3  C07 DJY d   1      -2.088  18.558 -19.901  0.00  0.00    -0.054 A 
ATOM      4  C23 DJY d   1       0.863  19.859 -21.764  0.00  0.00     0.011 A 
ATOM      5  C24 DJY d   1       1.460  21.114 -21.638  0.00  0.00    -0.067 A 
ATOM      6  C26 DJY d   1       3.435  20.245 -22.680  0.00  0.00     0.125 A 
ATOM      7  C28 DJY d   1       1.601  18.835 -22.359  0.00  0.00     0.145 A 
ATOM      8  C03 DJY d   1      -2.830  20.152 -21.529  0.00  0.00     0.079 A 
ATOM      9  C05 DJY d   1      -0.458  19.650 -21.326  0.00  0.00    -0.005 A 
ATOM     10  C08 DJY d   1      -3.132  19.257 -20.507  0.00  0.00    -0.003 A 
ATOM     11  C25 DJY d   1       2.762  21.302 -22.083  0.00  0.00    -0.049 A 
ATOM     12  N27 DJY d   1       2.850  19.049 -22.785  0.00  0.00    -0.236 NA
ATOM     13  H4  DJY d   1      -1.285  21.033 -22.736  0.00  0.00     0.089 H 
ATOM     14  H5  DJY d   1      -2.301  17.872 -19.089  0.00  0.00     0.086 H 
ATOM     15  H14 DJY d   1       0.911  21.937 -21.195  0.00  0.00     0.085 H 
ATOM     16  H24 DJY d   1       3.248  22.264 -21.965  0.00  0.00     0.087 H 
ENDROOT
BRANCH   2  17
ATOM     17  C11 DJY d   1       0.289  17.991 -19.532  0.00  0.00     0.257 C 
ATOM     18  O12 DJY d   1       1.327  18.514 -19.202  0.00  0.00    -0.267 OA
ATOM     19  N13 DJY d   1      -0.037  16.690 -19.125  0.00  0.00    -0.323 N 
ATOM     20  H20 DJY d   1      -0.855  16.289 -19.537  0.00  0.00     0.169 HD
BRANCH  19  21
ATOM     21  C14 DJY d   1       0.656  15.884 -18.202  0.00  0.00     0.035 A 
ATOM     22  C15 DJY d   1       1.062  16.513 -17.023  0.00  0.00    -0.056 A 
ATOM     23  C16 DJY d   1       1.606  15.765 -16.002  0.00  0.00    -0.067 A 
ATOM     24  H9  DJY d   1       0.950  17.585 -16.912  0.00  0.00     0.086 H 
ATOM     25  C17 DJY d   1       1.689  14.399 -16.174  0.00  0.00     0.007 A 
ATOM     26  H21 DJY d   1       1.958  16.236 -15.091  0.00  0.00     0.085 H 
ATOM     27  C18 DJY d   1       1.222  13.768 -17.311  0.00  0.00    -0.067 A 
ATOM     28  C19 DJY d   1       0.679  14.516 -18.331  0.00  0.00    -0.056 A 
ATOM     29  H10 DJY d   1       1.283  12.689 -17.399  0.00  0.00     0.085 H 
ATOM     30  H11 DJY d   1       0.278  14.036 -19.217  0.00  0.00     0.086 H 
BRANCH  25  31
ATOM     31  C20 DJY d   1       2.222  13.567 -15.046  0.00  0.00     0.102 C 
ATOM     32  N22 DJY d   1       1.815  12.330 -14.890  0.00  0.00    -0.385 N 
ATOM     33  H22 DJY d   1       1.204  11.896 -15.597  0.00  0.00     0.157 HD
ATOM     34  H23 DJY d   1       2.106  11.793 -14.061  0.00  0.00     0.157 HD
BRANCH  31  35
ATOM     35  N21 DJY d   1       3.045  14.120 -14.073  0.00  0.00    -0.385 N 
ATOM     36  H12 DJY d   1       3.402  13.533 -13.306  0.00  0.00     0.157 HD
ATOM     37  H13 DJY d   1       3.299  15.117 -14.119  0.00  0.00     0.157 HD
ENDBRANCH  31  35
ENDBRANCH  25  31
ENDBRANCH  19  21
ENDBRANCH   2  17
BRANCH   8  38
ATOM     38  O02 DJY d   1      -3.930  20.838 -22.120  0.00  0.00    -0.355 OA
BRANCH  38  39
ATOM     39  C01 DJY d   1      -3.688  21.934 -23.002  0.00  0.00     0.010 C 
ATOM     40  H1  DJY d   1      -4.648  22.337 -23.358  0.00  0.00     0.066 H 
ATOM     41  H2  DJY d   1      -3.093  21.589 -23.861  0.00  0.00     0.066 H 
ATOM     42  H3  DJY d   1      -3.137  22.721 -22.466  0.00  0.00     0.066 H 
ENDBRANCH  38  39
ENDBRANCH   8  38
BRANCH   7  43
ATOM     43  C29 DJY d   1       1.044  17.438 -22.572  0.00  0.00     0.229 C 
ATOM     44  O30 DJY d   1       0.020  17.277 -23.307  0.00  0.00    -0.643 OA
ATOM     45  O31 DJY d   1       1.608  16.437 -22.047  0.00  0.00    -0.643 OA
ENDBRANCH   7  43
BRANCH  10  46
ATOM     46  C09 DJY d   1      -4.586  19.042 -20.068  0.00  0.00    -0.079 C 
ATOM     47  C10 DJY d   1      -5.009  17.834 -19.622  0.00  0.00    -0.120 C 
ATOM     48  H7  DJY d   1      -6.045  17.699 -19.314  0.00  0.00     0.066 H 
ATOM     49  H8  DJY d   1      -4.313  16.998 -19.571  0.00  0.00     0.066 H 
ATOM     50  H6  DJY d   1      -5.289  19.872 -20.115  0.00  0.00     0.083 H 
ENDBRANCH  10  46
BRANCH   6  51
ATOM     51  C32 DJY d   1       4.875  20.375 -23.161  0.00  0.00     0.270 C 
ATOM     52  N34 DJY d   1       5.392  19.330 -23.978  0.00  0.00    -0.355 N 
ATOM     53  H15 DJY d   1       4.795  18.570 -24.236  0.00  0.00     0.162 HD
ATOM     54  O33 DJY d   1       5.560  21.328 -22.822  0.00  0.00    -0.266 OA
BRANCH  52  55
ATOM     55  C35 DJY d   1       6.752  19.344 -24.439  0.00  0.00    -0.001 C 
ATOM     56  H16 DJY d   1       7.023  18.312 -24.706  0.00  0.00     0.064 H 
ATOM     57  H17 DJY d   1       7.383  19.685 -23.605  0.00  0.00     0.064 H 
BRANCH  55  58
ATOM     58  C36 DJY d   1       7.063  20.231 -25.646  0.00  0.00    -0.039 A 
ATOM     59  C38 DJY d   1       6.906  19.526 -26.978  0.00  0.00    -0.060 A 
ATOM     60  C37 DJY d   1       5.930  20.615 -26.572  0.00  0.00    -0.060 A 
ATOM     61  H18 DJY d   1       6.578  18.477 -27.010  0.00  0.00     0.033 H 
ATOM     62  H19 DJY d   1       7.630  19.709 -27.786  0.00  0.00     0.033 H 
ATOM     63  H26 DJY d   1       4.894  20.355 -26.310  0.00  0.00     0.033 H 
ATOM     64  H27 DJY d   1       5.946  21.587 -27.086  0.00  0.00     0.033 H 
ATOM     65  H25 DJY d   1       7.887  20.929 -25.438  0.00  0.00     0.042 H 
ENDBRANCH  55  58
ENDBRANCH  52  55
ENDBRANCH   6  51
TORSDOF 11
