REMARK  10 active torsions:
REMARK  status: ('A' for Active; 'I' for Inactive)
REMARK    1  A    between atoms: C1_2  and  C9_9 
REMARK    2  A    between atoms: C9_9  and  C10_10 
REMARK    3  A    between atoms: C10_10  and  C12_11 
REMARK    4  A    between atoms: C10_10  and  N31_27 
REMARK    5  A    between atoms: C12_11  and  O14_12 
REMARK    6  A    between atoms: C12_11  and  C15_13 
REMARK    7  A    between atoms: C19_16  and  O21_17 
REMARK    8  A    between atoms: O21_17  and  C22_18 
REMARK    9  A    between atoms: C22_18  and  C23_19 
REMARK       I    between atoms: N31_27  and  C32_28 
REMARK   10  A    between atoms: C32_28  and  C33_29 
ROOT
ATOM      1  C15 DK7 d   1      12.677  -3.370   2.060  0.00  0.00     0.148 C 
ATOM      2  N17 DK7 d   1      12.671  -3.936   3.417  0.00  0.00    -0.062 N 
ATOM      3  C18 DK7 d   1      11.362  -4.501   3.784  0.00  0.00     0.127 C 
ATOM      4  C19 DK7 d   1      10.945  -5.547   2.756  0.00  0.00     0.154 C 
ATOM      5  O29 DK7 d   1      10.882  -4.909   1.477  0.00  0.00    -0.357 OA
ATOM      6  C30 DK7 d   1      12.174  -4.425   1.071  0.00  0.00     0.052 C 
ATOM      7  H9  DK7 d   1      12.003  -2.502   2.027  0.00  0.00     0.091 H 
ATOM      8  H10 DK7 d   1      12.904  -3.207   4.073  0.00  0.00     0.277 HD
ATOM      9  H11 DK7 d   1      13.364  -4.666   3.466  0.00  0.00     0.277 HD
ATOM     10  H12 DK7 d   1      10.612  -3.697   3.812  0.00  0.00     0.083 H 
ATOM     11  H13 DK7 d   1      11.432  -4.971   4.776  0.00  0.00     0.083 H 
ATOM     12  H14 DK7 d   1       9.954  -5.955   3.005  0.00  0.00     0.131 H 
ATOM     13  H28 DK7 d   1      12.884  -5.264   1.043  0.00  0.00     0.077 H 
ATOM     14  H29 DK7 d   1      12.096  -3.977   0.070  0.00  0.00     0.077 H 
ENDROOT
BRANCH   1  15
ATOM     15  C12 DK7 d   1      14.101  -2.907   1.706  0.00  0.00     0.085 C 
ATOM     16  H7  DK7 d   1      14.418  -2.146   2.435  0.00  0.00     0.089 H 
BRANCH  15  17
ATOM     17  C10 DK7 d   1      14.201  -2.304   0.308  0.00  0.00     0.043 C 
ATOM     18  H6  DK7 d   1      13.891  -3.096  -0.390  0.00  0.00     0.077 H 
BRANCH  17  19
ATOM     19  C9  DK7 d   1      15.618  -1.890  -0.107  0.00  0.00    -0.020 C 
ATOM     20  H4  DK7 d   1      16.011  -1.169   0.625  0.00  0.00     0.043 H 
ATOM     21  H5  DK7 d   1      16.262  -2.781  -0.126  0.00  0.00     0.043 H 
BRANCH  19  22
ATOM     22  C1  DK7 d   1      15.617  -1.256  -1.469  0.00  0.00    -0.050 A 
ATOM     23  C2  DK7 d   1      15.246  -1.991  -2.579  0.00  0.00    -0.039 A 
ATOM     24  C3  DK7 d   1      15.225  -1.420  -3.833  0.00  0.00     0.119 A 
ATOM     25  H2  DK7 d   1      14.967  -3.032  -2.462  0.00  0.00     0.089 H 
ATOM     26  C5  DK7 d   1      15.602  -0.106  -4.012  0.00  0.00    -0.009 A 
ATOM     27  F4  DK7 d   1      14.833  -2.174  -4.874  0.00  0.00    -0.206 F 
ATOM     28  C6  DK7 d   1      15.983   0.631  -2.905  0.00  0.00     0.119 A 
ATOM     29  H1  DK7 d   1      15.600   0.340  -5.000  0.00  0.00     0.092 H 
ATOM     30  F7  DK7 d   1      16.324   1.929  -3.057  0.00  0.00    -0.206 F 
ATOM     31  C8  DK7 d   1      15.979   0.068  -1.641  0.00  0.00    -0.039 A 
ATOM     32  H3  DK7 d   1      16.261   0.667  -0.782  0.00  0.00     0.089 H 
ENDBRANCH  19  22
ENDBRANCH  17  19
BRANCH  17  33
ATOM     33  N31 DK7 d   1      13.283  -1.207   0.134  0.00  0.00    -0.354 N 
ATOM     34  C32 DK7 d   1      12.290  -1.219  -0.823  0.00  0.00     0.214 C 
ATOM     35  O34 DK7 d   1      11.969  -2.157  -1.529  0.00  0.00    -0.274 OA
ATOM     36  H30 DK7 d   1      13.369  -0.408   0.729  0.00  0.00     0.162 HD
BRANCH  34  37
ATOM     37  C33 DK7 d   1      11.589   0.094  -0.956  0.00  0.00    -0.003 C 
ATOM     38  H31 DK7 d   1      10.813   0.018  -1.732  0.00  0.00     0.040 H 
ATOM     39  H32 DK7 d   1      12.315   0.870  -1.239  0.00  0.00     0.040 H 
ATOM     40  H33 DK7 d   1      11.123   0.360   0.004  0.00  0.00     0.040 H 
ENDBRANCH  34  37
ENDBRANCH  17  33
ENDBRANCH  15  17
BRANCH  15  41
ATOM     41  O14 DK7 d   1      14.960  -4.049   1.804  0.00  0.00    -0.391 OA
ATOM     42  H8  DK7 d   1      15.857  -3.784   1.639  0.00  0.00     0.210 HD
ENDBRANCH  15  41
ENDBRANCH   1  15
BRANCH   4  43
ATOM     43  O21 DK7 d   1      11.910  -6.586   2.811  0.00  0.00    -0.359 OA
BRANCH  43  44
ATOM     44  C22 DK7 d   1      11.482  -7.696   2.009  0.00  0.00     0.026 C 
ATOM     45  H15 DK7 d   1      11.295  -7.361   0.978  0.00  0.00     0.075 H 
ATOM     46  H16 DK7 d   1      10.560  -8.125   2.428  0.00  0.00     0.075 H 
BRANCH  44  47
ATOM     47  C23 DK7 d   1      12.586  -8.738   2.020  0.00  0.00    -0.033 C 
ATOM     48  C24 DK7 d   1      12.070 -10.064   1.473  0.00  0.00    -0.060 C 
ATOM     49  C25 DK7 d   1      13.202 -11.085   1.410  0.00  0.00    -0.065 C 
ATOM     50  H18 DK7 d   1      11.666  -9.907   0.462  0.00  0.00     0.033 H 
ATOM     51  H19 DK7 d   1      11.275 -10.444   2.131  0.00  0.00     0.033 H 
ATOM     52  C26 DK7 d   1      14.407 -10.572   0.633  0.00  0.00    -0.065 C 
ATOM     53  H20 DK7 d   1      12.828 -11.996   0.920  0.00  0.00     0.033 H 
ATOM     54  H21 DK7 d   1      13.519 -11.324   2.436  0.00  0.00     0.033 H 
ATOM     55  C27 DK7 d   1      14.908  -9.234   1.183  0.00  0.00    -0.065 C 
ATOM     56  H22 DK7 d   1      14.121 -10.440  -0.421  0.00  0.00     0.033 H 
ATOM     57  H23 DK7 d   1      15.218 -11.312   0.703  0.00  0.00     0.033 H 
ATOM     58  C28 DK7 d   1      13.777  -8.217   1.228  0.00  0.00    -0.060 C 
ATOM     59  H24 DK7 d   1      15.710  -8.854   0.534  0.00  0.00     0.033 H 
ATOM     60  H25 DK7 d   1      15.299  -9.385   2.200  0.00  0.00     0.033 H 
ATOM     61  H26 DK7 d   1      14.145  -7.295   1.702  0.00  0.00     0.033 H 
ATOM     62  H27 DK7 d   1      13.454  -7.997   0.200  0.00  0.00     0.033 H 
ATOM     63  H17 DK7 d   1      12.907  -8.899   3.060  0.00  0.00     0.043 H 
ENDBRANCH  44  47
ENDBRANCH  43  44
ENDBRANCH   4  43
TORSDOF 10
