REMARK  14 active torsions:
REMARK  status: ('A' for Active; 'I' for Inactive)
REMARK    1  A    between atoms: C7_2  and  C12_15 
REMARK       I    between atoms: N2_25  and  C7_2 
REMARK    2  A    between atoms: C17_20  and  C4_8 
REMARK    3  A    between atoms: C19_22  and  C9_12 
REMARK    4  A    between atoms: C10_13  and  C13_16 
REMARK    5  A    between atoms: C11_14  and  O4_27 
REMARK    6  A    between atoms: C21_24  and  C14_17 
REMARK    7  A    between atoms: C21_24  and  C15_18 
REMARK    8  A    between atoms: C21_24  and  C16_19 
REMARK    9  A    between atoms: C20_23  and  C17_20 
REMARK   10  A    between atoms: C18_21  and  C21_24 
REMARK   11  A    between atoms: O4_27  and  C18_21 
REMARK   12  A    between atoms: C20_23  and  C19_22 
REMARK   13  A    between atoms: C19_22  and  O3_26 
REMARK   14  A    between atoms: C20_23  and  N2_25 
ROOT
ATOM      1  O2  DKJ d   1      19.673  58.262  91.179  0.00  0.00    -0.357 OA
ATOM      2  N1  DKJ d   1      20.928  55.839  91.969  0.00  0.00    -0.058 N 
ATOM      3  C8  DKJ d   1      20.382  57.508  90.190  0.00  0.00     0.052 C 
ATOM      4  C9  DKJ d   1      21.429  56.606  90.820  0.00  0.00     0.149 C 
ATOM      5  C10 DKJ d   1      20.106  56.620  92.898  0.00  0.00     0.146 C 
ATOM      6  C11 DKJ d   1      19.059  57.444  92.150  0.00  0.00     0.158 C 
ATOM      7  H2  DKJ d   1      21.720  55.475  92.476  0.00  0.00     0.278 HD
ATOM      8  H3  DKJ d   1      20.372  55.074  91.621  0.00  0.00     0.278 HD
ATOM      9  H6  DKJ d   1      20.880  58.204  89.499  0.00  0.00     0.077 H 
ATOM     10  H7  DKJ d   1      19.665  56.888  89.632  0.00  0.00     0.077 H 
ATOM     11  H8  DKJ d   1      22.237  57.258  91.182  0.00  0.00     0.091 H 
ATOM     12  H9  DKJ d   1      19.596  55.932  93.588  0.00  0.00     0.091 H 
ATOM     13  H10 DKJ d   1      18.521  58.089  92.860  0.00  0.00     0.132 H 
ENDROOT
BRANCH   4  14
ATOM     14  C19 DKJ d   1      22.046  55.605  89.784  0.00  0.00     0.085 C 
ATOM     15  H30 DKJ d   1      22.796  54.977  90.287  0.00  0.00     0.089 H 
BRANCH  14  16
ATOM     16  C20 DKJ d   1      22.742  56.382  88.606  0.00  0.00     0.043 C 
ATOM     17  H31 DKJ d   1      21.988  57.011  88.110  0.00  0.00     0.077 H 
BRANCH  16  18
ATOM     18  C17 DKJ d   1      23.322  55.407  87.568  0.00  0.00    -0.020 C 
ATOM     19  H26 DKJ d   1      24.034  54.742  88.079  0.00  0.00     0.043 H 
ATOM     20  H27 DKJ d   1      22.495  54.811  87.154  0.00  0.00     0.043 H 
BRANCH  18  21
ATOM     21  C4  DKJ d   1      24.041  56.081  86.423  0.00  0.00    -0.050 A 
ATOM     22  C1  DKJ d   1      23.366  56.986  85.610  0.00  0.00    -0.039 A 
ATOM     23  C5  DKJ d   1      24.061  57.632  84.612  0.00  0.00     0.119 A 
ATOM     24  H1  DKJ d   1      22.310  57.179  85.760  0.00  0.00     0.089 H 
ATOM     25  C3  DKJ d   1      25.384  57.402  84.337  0.00  0.00    -0.009 A 
ATOM     26  F1  DKJ d   1      23.421  58.603  83.906  0.00  0.00    -0.206 F 
ATOM     27  C6  DKJ d   1      26.016  56.498  85.152  0.00  0.00     0.119 A 
ATOM     28  H4  DKJ d   1      25.899  57.904  83.526  0.00  0.00     0.092 H 
ATOM     29  C2  DKJ d   1      25.390  55.830  86.184  0.00  0.00    -0.039 A 
ATOM     30  F2  DKJ d   1      27.338  56.263  84.938  0.00  0.00    -0.206 F 
ATOM     31  H5  DKJ d   1      25.938  55.123  86.797  0.00  0.00     0.089 H 
ENDBRANCH  18  21
ENDBRANCH  16  18
BRANCH  16  32
ATOM     32  N2  DKJ d   1      23.800  57.246  89.130  0.00  0.00    -0.354 N 
ATOM     33  C7  DKJ d   1      23.930  58.545  88.826  0.00  0.00     0.214 C 
ATOM     34  O1  DKJ d   1      23.004  59.202  88.362  0.00  0.00    -0.274 OA
ATOM     35  H32 DKJ d   1      24.468  56.842  89.754  0.00  0.00     0.162 HD
BRANCH  33  36
ATOM     36  C12 DKJ d   1      25.283  59.139  89.055  0.00  0.00    -0.003 C 
ATOM     37  H11 DKJ d   1      25.953  58.374  89.474  0.00  0.00     0.040 H 
ATOM     38  H12 DKJ d   1      25.200  59.980  89.760  0.00  0.00     0.040 H 
ATOM     39  H13 DKJ d   1      25.691  59.500  88.100  0.00  0.00     0.040 H 
ENDBRANCH  33  36
ENDBRANCH  16  32
ENDBRANCH  14  16
BRANCH  14  40
ATOM     40  O3  DKJ d   1      20.998  54.782  89.290  0.00  0.00    -0.391 OA
ATOM     41  H33 DKJ d   1      21.355  54.153  88.674  0.00  0.00     0.210 HD
ENDBRANCH  14  40
ENDBRANCH   4  14
BRANCH   5  42
ATOM     42  C13 DKJ d   1      20.995  57.562  93.692  0.00  0.00    -0.045 C 
ATOM     43  H14 DKJ d   1      20.378  58.148  94.389  0.00  0.00     0.030 H 
ATOM     44  H15 DKJ d   1      21.516  58.243  93.003  0.00  0.00     0.030 H 
ATOM     45  H16 DKJ d   1      21.734  56.977  94.259  0.00  0.00     0.030 H 
ENDBRANCH   5  42
BRANCH   6  46
ATOM     46  O4  DKJ d   1      18.156  56.528  91.579  0.00  0.00    -0.358 OA
BRANCH  46  47
ATOM     47  C18 DKJ d   1      17.010  57.116  90.967  0.00  0.00     0.029 C 
ATOM     48  H28 DKJ d   1      16.330  57.472  91.755  0.00  0.00     0.075 H 
ATOM     49  H29 DKJ d   1      17.334  57.967  90.350  0.00  0.00     0.075 H 
BRANCH  47  50
ATOM     50  C21 DKJ d   1      16.271  56.137  90.094  0.00  0.00    -0.030 C 
BRANCH  50  51
ATOM     51  C14 DKJ d   1      15.003  56.791  89.563  0.00  0.00    -0.068 C 
ATOM     52  H17 DKJ d   1      14.462  56.077  88.925  0.00  0.00     0.028 H 
ATOM     53  H18 DKJ d   1      15.269  57.681  88.974  0.00  0.00     0.028 H 
ATOM     54  H19 DKJ d   1      14.362  57.087  90.407  0.00  0.00     0.028 H 
ENDBRANCH  50  51
BRANCH  50  55
ATOM     55  C15 DKJ d   1      15.884  54.900  90.900  0.00  0.00    -0.068 C 
ATOM     56  H20 DKJ d   1      16.792  54.417  91.290  0.00  0.00     0.028 H 
ATOM     57  H21 DKJ d   1      15.343  54.194  90.252  0.00  0.00     0.028 H 
ATOM     58  H22 DKJ d   1      15.238  55.197  91.739  0.00  0.00     0.028 H 
ENDBRANCH  50  55
BRANCH  50  59
ATOM     59  C16 DKJ d   1      17.137  55.724  88.910  0.00  0.00    -0.068 C 
ATOM     60  H23 DKJ d   1      17.415  56.617  88.330  0.00  0.00     0.028 H 
ATOM     61  H24 DKJ d   1      16.574  55.031  88.268  0.00  0.00     0.028 H 
ATOM     62  H25 DKJ d   1      18.047  55.227  89.277  0.00  0.00     0.028 H 
ENDBRANCH  50  59
ENDBRANCH  47  50
ENDBRANCH  46  47
ENDBRANCH   6  46
TORSDOF 14
