REMARK WARNING: 32 MAX_TORS EXCEEDED!!!
REMARK  56 active torsions:
REMARK  status: ('A' for Active; 'I' for Inactive)
REMARK    1  A    between atoms: N_1  and  CA_2 
REMARK    2  A    between atoms: CA_2  and  C_3 
REMARK    3  A    between atoms: CA_2  and  CB_5 
REMARK       I    between atoms: C_3  and  N_10 
REMARK    4  A    between atoms: CB_5  and  CG_6 
REMARK    5  A    between atoms: CG_6  and  CD_7 
REMARK    6  A    between atoms: CD_7  and  CE_8 
REMARK    7  A    between atoms: CE_8  and  NZ_9 
REMARK    8  A    between atoms: N_10  and  CA_11 
REMARK    9  A    between atoms: CA_11  and  C_12 
REMARK   10  A    between atoms: CA_11  and  CB_14 
REMARK       I    between atoms: C_12  and  N_17 
REMARK   11  A    between atoms: CB_14  and  CG1_15 
REMARK   12  A    between atoms: CB_14  and  CG2_16 
REMARK   13  A    between atoms: N_17  and  CA_18 
REMARK   14  A    between atoms: CA_18  and  C_19 
REMARK   15  A    between atoms: CA_18  and  CB_21 
REMARK       I    between atoms: C_19  and  N_22 
REMARK   16  A    between atoms: CA_23  and  C_24 
REMARK       I    between atoms: C_24  and  N_29 
REMARK   17  A    between atoms: N_29  and  CA_30 
REMARK   18  A    between atoms: CA_30  and  C_31 
REMARK   19  A    between atoms: CA_30  and  CB_33 
REMARK       I    between atoms: C_31  and  N_37 
REMARK   20  A    between atoms: CB_33  and  CG_34 
REMARK   21  A    between atoms: CG_34  and  CD1_35 
REMARK   22  A    between atoms: CG_34  and  CD2_36 
REMARK   23  A    between atoms: N_37  and  CA_38 
REMARK   24  A    between atoms: CA_38  and  C_39 
REMARK   25  A    between atoms: CA_38  and  CB_41 
REMARK       I    between atoms: C_39  and  N_46 
REMARK   26  A    between atoms: CB_41  and  CG_42 
REMARK   27  A    between atoms: CG_42  and  CD_43 
REMARK   28  A    between atoms: CD_43  and  CE_44 
REMARK   29  A    between atoms: CE_44  and  NZ_45 
REMARK   30  A    between atoms: N_46  and  CA_47 
REMARK   31  A    between atoms: CA_47  and  C_48 
REMARK   32  A    between atoms: CA_47  and  CB_50 
REMARK       I    between atoms: C_48  and  N_54 
REMARK   33  A    between atoms: CB_50  and  CG1_51 
REMARK   34  A    between atoms: CB_50  and  CG2_52 
REMARK   35  A    between atoms: CG1_51  and  CD1_53 
REMARK   36  A    between atoms: N_54  and  CA_55 
REMARK   37  A    between atoms: CA_55  and  C_56 
REMARK   38  A    between atoms: CA_55  and  CB_58 
REMARK       I    between atoms: C_56  and  N_63 
REMARK   39  A    between atoms: CB_58  and  CG_59 
REMARK   40  A    between atoms: CG_59  and  CD_60 
REMARK   41  A    between atoms: CD_60  and  CE_61 
REMARK   42  A    between atoms: CE_61  and  NZ_62 
REMARK   43  A    between atoms: N_63  and  CA_64 
REMARK   44  A    between atoms: CA_64  and  C_65 
REMARK   45  A    between atoms: CA_64  and  CB_67 
REMARK       I    between atoms: C_65  and  N_71 
REMARK   46  A    between atoms: CB_67  and  CG_68 
REMARK   47  A    between atoms: CG_68  and  CD1_69 
REMARK   48  A    between atoms: CG_68  and  CD2_70 
REMARK   49  A    between atoms: N_71  and  CA_72 
REMARK   50  A    between atoms: CA_72  and  C_73 
REMARK       I    between atoms: C_73  and  N_75 
REMARK   51  A    between atoms: N_75  and  CA_76 
REMARK   52  A    between atoms: CA_76  and  C_77 
REMARK       I    between atoms: C_77  and  N_79 
REMARK   53  A    between atoms: N_79  and  CA_80 
REMARK   54  A    between atoms: CA_80  and  C_81 
REMARK   55  A    between atoms: CA_80  and  CB_83 
REMARK   56  A    between atoms: CB_83  and  CG_84 
ROOT
ATOM      1  CA  LYS d   1      -5.070   6.011  -6.207  0.00  0.00     0.089 C 
ATOM      2  H49 LYS d   1      -4.504   5.867  -5.275  0.00  0.00     0.087 H 
ENDROOT
BRANCH   1   3
ATOM      3  N   LYS d   1      -4.182   6.051  -7.326  0.00  0.00    -0.346 N 
ATOM      4  C   LEU d   1      -2.903   6.294  -7.273  0.00  0.00     0.241 C 
ATOM      5  O   LEU d   1      -2.295   6.627  -6.239  0.00  0.00    -0.271 OA
ATOM      6  H48 LYS d   1      -4.577   5.877  -8.228  0.00  0.00     0.163 HD
BRANCH   4   7
ATOM      7  CA  LEU d   1      -2.220   6.223  -8.638  0.00  0.00     0.089 C 
ATOM      8  H38 LEU d   1      -2.869   5.616  -9.286  0.00  0.00     0.087 H 
BRANCH   7   9
ATOM      9  N   LEU d   1      -2.114   7.519  -9.247  0.00  0.00    -0.346 N 
ATOM     10  C   PRO d   1      -3.176   8.120  -9.710  0.00  0.00     0.241 C 
ATOM     11  O   PRO d   1      -4.315   7.622  -9.616  0.00  0.00    -0.271 OA
ATOM     12  H37 LEU d   1      -1.221   7.964  -9.317  0.00  0.00     0.163 HD
BRANCH  10  13
ATOM     13  CA  PRO d   1      -2.982   9.481 -10.375  0.00  0.00     0.091 C 
ATOM     14  N   PRO d   1      -4.265   9.980 -10.857  0.00  0.00    -0.337 N 
ATOM     15  C   ALA d   1      -4.930   9.389 -11.864  0.00  0.00     0.243 C 
ATOM     16  CD  PRO d   1      -4.698  11.187 -10.119  0.00  0.00    -0.001 C 
ATOM     17  O   ALA d   1      -4.424   8.478 -12.552  0.00  0.00    -0.271 OA
ATOM     18  CG  PRO d   1      -3.810  11.188  -8.911  0.00  0.00    -0.048 C 
ATOM     19  H35 PRO d   1      -5.757  11.114  -9.830  0.00  0.00     0.064 H 
ATOM     20  H36 PRO d   1      -4.544  12.094 -10.722  0.00  0.00     0.064 H 
ATOM     21  CB  PRO d   1      -2.546  10.528  -9.340  0.00  0.00    -0.036 C 
ATOM     22  H33 PRO d   1      -3.612  12.219  -8.581  0.00  0.00     0.035 H 
ATOM     23  H34 PRO d   1      -4.278  10.624  -8.091  0.00  0.00     0.035 H 
ATOM     24  H31 PRO d   1      -1.861  11.260  -9.794  0.00  0.00     0.036 H 
ATOM     25  H32 PRO d   1      -2.052  10.045  -8.485  0.00  0.00     0.036 H 
ATOM     26  H30 PRO d   1      -2.250   9.401 -11.192  0.00  0.00     0.087 H 
BRANCH  15  27
ATOM     27  CA  ALA d   1      -6.318   9.894 -12.193  0.00  0.00     0.086 C 
ATOM     28  H26 ALA d   1      -6.370  10.974 -11.991  0.00  0.00     0.086 H 
BRANCH  27  29
ATOM     29  N   ALA d   1      -6.581   9.657 -13.580  0.00  0.00    -0.346 N 
ATOM     30  C   VAL d   1      -6.334  10.546 -14.481  0.00  0.00     0.241 C 
ATOM     31  O   VAL d   1      -5.939  11.702 -14.213  0.00  0.00    -0.271 OA
ATOM     32  H25 ALA d   1      -6.967   8.777 -13.858  0.00  0.00     0.163 HD
BRANCH  30  33
ATOM     33  CA  VAL d   1      -6.641  10.150 -15.900  0.00  0.00     0.092 C 
ATOM     34  H17 VAL d   1      -7.361   9.319 -15.886  0.00  0.00     0.088 H 
BRANCH  33  35
ATOM     35  N   VAL d   1      -7.269  11.265 -16.543  0.00  0.00    -0.346 N 
ATOM     36  C   LYS d   1      -8.370  11.148 -17.227  0.00  0.00     0.249 C 
ATOM     37  O   LYS d   1      -8.852  10.060 -17.542  0.00  0.00    -0.271 OA
ATOM     38  H16 VAL d   1      -6.846  12.167 -16.463  0.00  0.00     0.163 HD
BRANCH  36  39
ATOM     39  CA  LYS d   1      -8.973  12.438 -17.715  0.00  0.00     0.176 C 
ATOM     40  H4  LYS d   1      -8.701  13.232 -17.004  0.00  0.00     0.099 H 
BRANCH  39  41
ATOM     41  N   LYS d   1      -8.426  12.799 -19.008  0.00  0.00    -0.067 N 
ATOM     42  H1  LYS d   1      -8.841  13.664 -19.319  0.00  0.00     0.275 HD
ATOM     43  H2  LYS d   1      -8.630  12.070 -19.674  0.00  0.00     0.275 HD
ATOM     44  H3  LYS d   1      -7.428  12.914 -18.930  0.00  0.00     0.275 HD
ENDBRANCH  39  41
BRANCH  39  45
ATOM     45  CB  LYS d   1     -10.511  12.337 -17.740  0.00  0.00    -0.030 C 
ATOM     46  H5  LYS d   1     -10.846  11.955 -16.764  0.00  0.00     0.036 H 
ATOM     47  H6  LYS d   1     -10.796  11.626 -18.530  0.00  0.00     0.036 H 
BRANCH  45  48
ATOM     48  CG  LYS d   1     -11.225  13.650 -18.005  0.00  0.00    -0.061 C 
ATOM     49  H7  LYS d   1     -12.305  13.459 -18.092  0.00  0.00     0.033 H 
ATOM     50  H8  LYS d   1     -10.851  14.077 -18.947  0.00  0.00     0.033 H 
BRANCH  48  51
ATOM     51  CD  LYS d   1     -10.989  14.649 -16.882  0.00  0.00    -0.043 C 
ATOM     52  H9  LYS d   1      -9.906  14.781 -16.741  0.00  0.00     0.035 H 
ATOM     53  H10 LYS d   1     -11.434  14.258 -15.955  0.00  0.00     0.035 H 
BRANCH  51  54
ATOM     54  CE  LYS d   1     -11.611  15.990 -17.200  0.00  0.00     0.080 C 
ATOM     55  H11 LYS d   1     -12.697  15.861 -17.314  0.00  0.00     0.075 H 
ATOM     56  H12 LYS d   1     -11.186  16.366 -18.142  0.00  0.00     0.075 H 
BRANCH  54  57
ATOM     57  NZ  LYS d   1     -11.356  16.974 -16.135  0.00  0.00    -0.079 N 
ATOM     58  H13 LYS d   1     -11.784  17.853 -16.380  0.00  0.00     0.274 HD
ATOM     59  H14 LYS d   1     -10.362  17.103 -16.027  0.00  0.00     0.274 HD
ATOM     60  H15 LYS d   1     -11.748  16.640 -15.268  0.00  0.00     0.274 HD
ENDBRANCH  54  57
ENDBRANCH  51  54
ENDBRANCH  48  51
ENDBRANCH  45  48
ENDBRANCH  39  45
ENDBRANCH  36  39
ENDBRANCH  33  35
BRANCH  33  61
ATOM     61  CB  VAL d   1      -5.340   9.633 -16.621  0.00  0.00    -0.033 C 
ATOM     62  H18 VAL d   1      -4.908   8.838 -15.995  0.00  0.00     0.042 H 
BRANCH  61  63
ATOM     63  CG1 VAL d   1      -5.659   9.034 -17.983  0.00  0.00    -0.071 C 
ATOM     64  H19 VAL d   1      -4.730   8.684 -18.456  0.00  0.00     0.028 H 
ATOM     65  H20 VAL d   1      -6.129   9.799 -18.619  0.00  0.00     0.028 H 
ATOM     66  H21 VAL d   1      -6.348   8.186 -17.858  0.00  0.00     0.028 H 
ENDBRANCH  61  63
BRANCH  61  67
ATOM     67  CG2 VAL d   1      -4.292  10.732 -16.767  0.00  0.00    -0.071 C 
ATOM     68  H22 VAL d   1      -4.068  11.159 -15.778  0.00  0.00     0.028 H 
ATOM     69  H23 VAL d   1      -4.678  11.522 -17.428  0.00  0.00     0.028 H 
ATOM     70  H24 VAL d   1      -3.374  10.308 -17.200  0.00  0.00     0.028 H 
ENDBRANCH  61  67
ENDBRANCH  33  61
ENDBRANCH  30  33
ENDBRANCH  27  29
BRANCH  27  71
ATOM     71  CB  ALA d   1      -7.357   9.173 -11.335  0.00  0.00    -0.049 C 
ATOM     72  H27 ALA d   1      -7.148   9.360 -10.271  0.00  0.00     0.030 H 
ATOM     73  H28 ALA d   1      -7.310   8.092 -11.533  0.00  0.00     0.030 H 
ATOM     74  H29 ALA d   1      -8.361   9.548 -11.583  0.00  0.00     0.030 H 
ENDBRANCH  27  71
ENDBRANCH  15  27
ENDBRANCH  10  13
ENDBRANCH   7   9
BRANCH   7  75
ATOM     75  CB  LEU d   1      -0.877   5.520  -8.583  0.00  0.00    -0.035 C 
ATOM     76  H39 LEU d   1      -0.212   6.119  -7.943  0.00  0.00     0.037 H 
ATOM     77  H40 LEU d   1      -0.473   5.491  -9.606  0.00  0.00     0.037 H 
BRANCH  75  78
ATOM     78  CG  LEU d   1      -0.875   4.092  -8.044  0.00  0.00    -0.059 C 
ATOM     79  H41 LEU d   1      -1.177   4.115  -6.987  0.00  0.00     0.038 H 
BRANCH  78  80
ATOM     80  CD1 LEU d   1      -1.850   3.206  -8.805  0.00  0.00    -0.073 C 
ATOM     81  H42 LEU d   1      -1.821   2.188  -8.390  0.00  0.00     0.028 H 
ATOM     82  H43 LEU d   1      -1.567   3.177  -9.867  0.00  0.00     0.028 H 
ATOM     83  H44 LEU d   1      -2.867   3.613  -8.708  0.00  0.00     0.028 H 
ENDBRANCH  78  80
BRANCH  78  84
ATOM     84  CD2 LEU d   1       0.507   3.531  -8.142  0.00  0.00    -0.073 C 
ATOM     85  H45 LEU d   1       1.205   4.177  -7.590  0.00  0.00     0.028 H 
ATOM     86  H46 LEU d   1       0.809   3.483  -9.198  0.00  0.00     0.028 H 
ATOM     87  H47 LEU d   1       0.524   2.519  -7.710  0.00  0.00     0.028 H 
ENDBRANCH  78  84
ENDBRANCH  75  78
ENDBRANCH   7  75
ENDBRANCH   4   7
ENDBRANCH   1   3
BRANCH   1  88
ATOM     88  C   LYS d   1      -6.015   4.863  -6.442  0.00  0.00     0.241 C 
ATOM     89  O   LYS d   1      -6.037   4.302  -7.542  0.00  0.00    -0.271 OA
ATOM     90  N   ILE d   1      -6.775   4.504  -5.450  0.00  0.00    -0.346 N 
ATOM     91  H61 ILE d   1      -6.666   4.955  -4.564  0.00  0.00     0.163 HD
BRANCH  90  92
ATOM     92  CA  ILE d   1      -7.769   3.474  -5.596  0.00  0.00     0.092 C 
ATOM     93  H62 ILE d   1      -8.215   3.571  -6.597  0.00  0.00     0.088 H 
BRANCH  92  94
ATOM     94  C   ILE d   1      -8.868   3.700  -4.562  0.00  0.00     0.241 C 
ATOM     95  O   ILE d   1      -8.588   4.107  -3.421  0.00  0.00    -0.271 OA
ATOM     96  N   LYS d   1     -10.094   3.578  -5.003  0.00  0.00    -0.346 N 
ATOM     97  H72 LYS d   1     -10.229   3.405  -5.979  0.00  0.00     0.163 HD
BRANCH  96  98
ATOM     98  CA  LYS d   1     -11.270   3.680  -4.157  0.00  0.00     0.089 C 
ATOM     99  H73 LYS d   1     -11.011   4.221  -3.235  0.00  0.00     0.087 H 
BRANCH  98 100
ATOM    100  C   LYS d   1     -11.764   2.295  -3.820  0.00  0.00     0.241 C 
ATOM    101  O   LYS d   1     -11.492   1.340  -4.556  0.00  0.00    -0.271 OA
ATOM    102  N   LEU d   1     -12.452   2.162  -2.714  0.00  0.00    -0.346 N 
ATOM    103  H85 LEU d   1     -12.556   2.936  -2.090  0.00  0.00     0.163 HD
BRANCH 102 104
ATOM    104  CA  LEU d   1     -13.063   0.884  -2.400  0.00  0.00     0.089 C 
ATOM    105  H86 LEU d   1     -12.740   0.141  -3.144  0.00  0.00     0.087 H 
BRANCH 104 106
ATOM    106  C   LEU d   1     -14.562   1.051  -2.479  0.00  0.00     0.240 C 
ATOM    107  O   LEU d   1     -15.145   1.855  -1.737  0.00  0.00    -0.271 OA
ATOM    108  N   GLY d   1     -15.165   0.342  -3.393  0.00  0.00    -0.351 N 
ATOM    109  H96 GLY d   1     -14.627  -0.241  -4.002  0.00  0.00     0.163 HD
BRANCH 108 110
ATOM    110  CA  GLY d   1     -16.579   0.389  -3.533  0.00  0.00     0.069 C 
ATOM    111  H97 GLY d   1     -17.031   0.553  -2.544  0.00  0.00     0.078 H 
ATOM    112  H98 GLY d   1     -16.930  -0.570  -3.942  0.00  0.00     0.078 H 
BRANCH 110 113
ATOM    113  C   GLY d   1     -17.000   1.490  -4.448  0.00  0.00     0.235 C 
ATOM    114  O   GLY d   1     -16.844   1.379  -5.672  0.00  0.00    -0.272 OA
ATOM    115  N   GLY d   1     -17.491   2.553  -3.873  0.00  0.00    -0.351 N 
ATOM    116  H99 GLY d   1     -17.537   2.594  -2.875  0.00  0.00     0.163 HD
BRANCH 115 117
ATOM    117  CA  GLY d   1     -17.964   3.659  -4.642  0.00  0.00     0.069 C 
ATOM    118 0H10 GLY d   1     -18.824   4.108  -4.124  0.00  0.00     0.078 H 
ATOM    119 1H10 GLY d   1     -18.281   3.293  -5.630  0.00  0.00     0.078 H 
BRANCH 117 120
ATOM    120  C   GLY d   1     -16.911   4.713  -4.832  0.00  0.00     0.236 C 
ATOM    121  O   GLY d   1     -15.756   4.538  -4.428  0.00  0.00    -0.272 OA
ATOM    122  N   PHE d   1     -17.306   5.810  -5.428  0.00  0.00    -0.345 N 
ATOM    123 2H10 PHE d   1     -18.269   5.896  -5.684  0.00  0.00     0.163 HD
BRANCH 122 124
ATOM    124  CA  PHE d   1     -16.403   6.907  -5.732  0.00  0.00     0.100 C 
ATOM    125 3H10 PHE d   1     -15.441   6.721  -5.232  0.00  0.00     0.090 H 
BRANCH 124 126
ATOM    126  C   PHE d   1     -16.984   8.204  -5.211  0.00  0.00     0.197 C 
ATOM    127  O   PHE d   1     -18.214   8.312  -5.039  0.00  0.00    -0.646 OA
ATOM    128  OXT PHE d   1     -16.233   9.165  -4.954  0.00  0.00    -0.646 OA
ENDBRANCH 124 126
BRANCH 124 129
ATOM    129  CB  PHE d   1     -16.157   7.015  -7.252  0.00  0.00    -0.013 C 
ATOM    130 4H10 PHE d   1     -15.556   7.917  -7.438  0.00  0.00     0.043 H 
ATOM    131 5H10 PHE d   1     -17.133   7.116  -7.750  0.00  0.00     0.043 H 
BRANCH 129 132
ATOM    132  CG  PHE d   1     -15.437   5.837  -7.864  0.00  0.00    -0.056 A 
ATOM    133  CD1 PHE d   1     -16.134   4.709  -8.279  0.00  0.00    -0.077 A 
ATOM    134  CE1 PHE d   1     -15.472   3.635  -8.844  0.00  0.00    -0.082 A 
ATOM    135 6H10 PHE d   1     -17.211   4.671  -8.158  0.00  0.00     0.084 H 
ATOM    136  CZ  PHE d   1     -14.101   3.676  -8.998  0.00  0.00    -0.083 A 
ATOM    137 8H10 PHE d   1     -16.029   2.762  -9.165  0.00  0.00     0.083 H 
ATOM    138  CE2 PHE d   1     -13.395   4.791  -8.591  0.00  0.00    -0.082 A 
ATOM    139 0H11 PHE d   1     -13.579   2.834  -9.438  0.00  0.00     0.083 H 
ATOM    140  CD2 PHE d   1     -14.061   5.863  -8.027  0.00  0.00    -0.077 A 
ATOM    141 9H10 PHE d   1     -12.319   4.825  -8.714  0.00  0.00     0.083 H 
ATOM    142 7H10 PHE d   1     -13.500   6.734  -7.708  0.00  0.00     0.084 H 
ENDBRANCH 129 132
ENDBRANCH 124 129
ENDBRANCH 122 124
ENDBRANCH 117 120
ENDBRANCH 115 117
ENDBRANCH 110 113
ENDBRANCH 108 110
ENDBRANCH 104 106
BRANCH 104 143
ATOM    143  CB  LEU d   1     -12.659   0.383  -1.002  0.00  0.00    -0.035 C 
ATOM    144  H87 LEU d   1     -13.437   0.711  -0.297  0.00  0.00     0.037 H 
ATOM    145  H88 LEU d   1     -11.703   0.863  -0.743  0.00  0.00     0.037 H 
BRANCH 143 146
ATOM    146  CG  LEU d   1     -12.478  -1.140  -0.816  0.00  0.00    -0.059 C 
ATOM    147  H89 LEU d   1     -12.205  -1.318   0.234  0.00  0.00     0.038 H 
BRANCH 146 148
ATOM    148  CD1 LEU d   1     -13.758  -1.916  -1.096  0.00  0.00    -0.073 C 
ATOM    149  H90 LEU d   1     -13.575  -2.991  -0.950  0.00  0.00     0.028 H 
ATOM    150  H91 LEU d   1     -14.076  -1.736  -2.134  0.00  0.00     0.028 H 
ATOM    151  H92 LEU d   1     -14.548  -1.582  -0.407  0.00  0.00     0.028 H 
ENDBRANCH 146 148
BRANCH 146 152
ATOM    152  CD2 LEU d   1     -11.338  -1.646  -1.692  0.00  0.00    -0.073 C 
ATOM    153  H93 LEU d   1     -10.425  -1.072  -1.473  0.00  0.00     0.028 H 
ATOM    154  H94 LEU d   1     -11.606  -1.519  -2.751  0.00  0.00     0.028 H 
ATOM    155  H95 LEU d   1     -11.160  -2.711  -1.484  0.00  0.00     0.028 H 
ENDBRANCH 146 152
ENDBRANCH 143 146
ENDBRANCH 104 143
ENDBRANCH 102 104
ENDBRANCH  98 100
BRANCH  98 156
ATOM    156  CB  LYS d   1     -12.401   4.420  -4.891  0.00  0.00    -0.038 C 
ATOM    157  H74 LYS d   1     -13.339   3.895  -4.658  0.00  0.00     0.036 H 
ATOM    158  H75 LYS d   1     -12.196   4.342  -5.969  0.00  0.00     0.036 H 
BRANCH 156 159
ATOM    159  CG  LYS d   1     -12.622   5.912  -4.575  0.00  0.00    -0.061 C 
ATOM    160  H76 LYS d   1     -12.793   6.005  -3.492  0.00  0.00     0.033 H 
ATOM    161  H77 LYS d   1     -13.520   6.242  -5.118  0.00  0.00     0.033 H 
BRANCH 159 162
ATOM    162  CD  LYS d   1     -11.475   6.852  -4.951  0.00  0.00    -0.043 C 
ATOM    163  H78 LYS d   1     -11.865   7.879  -5.002  0.00  0.00     0.035 H 
ATOM    164  H79 LYS d   1     -11.089   6.557  -5.938  0.00  0.00     0.035 H 
BRANCH 162 165
ATOM    165  CE  LYS d   1     -10.331   6.817  -3.953  0.00  0.00     0.080 C 
ATOM    166  H80 LYS d   1      -9.604   7.598  -4.220  0.00  0.00     0.075 H 
ATOM    167  H81 LYS d   1      -9.845   5.831  -4.006  0.00  0.00     0.075 H 
BRANCH 165 168
ATOM    168  NZ  LYS d   1     -10.790   7.048  -2.564  0.00  0.00    -0.079 N 
ATOM    169  H82 LYS d   1     -10.000   7.016  -1.939  0.00  0.00     0.274 HD
ATOM    170  H83 LYS d   1     -11.452   6.333  -2.305  0.00  0.00     0.274 HD
ATOM    171  H84 LYS d   1     -11.231   7.952  -2.502  0.00  0.00     0.274 HD
ENDBRANCH 165 168
ENDBRANCH 162 165
ENDBRANCH 159 162
ENDBRANCH 156 159
ENDBRANCH  98 156
ENDBRANCH  96  98
ENDBRANCH  92  94
BRANCH  92 172
ATOM    172  CB  ILE d   1      -7.153   2.025  -5.491  0.00  0.00    -0.030 C 
ATOM    173  H63 ILE d   1      -6.407   1.932  -6.294  0.00  0.00     0.043 H 
BRANCH 172 174
ATOM    174  CG1 ILE d   1      -8.210   0.927  -5.717  0.00  0.00    -0.063 C 
ATOM    175  H64 ILE d   1      -9.018   1.070  -4.985  0.00  0.00     0.033 H 
ATOM    176  H65 ILE d   1      -7.733  -0.050  -5.550  0.00  0.00     0.033 H 
BRANCH 174 177
ATOM    177  CD1 ILE d   1      -8.821   0.928  -7.108  0.00  0.00    -0.076 C 
ATOM    178  H69 ILE d   1      -9.561   0.118  -7.184  0.00  0.00     0.027 H 
ATOM    179  H70 ILE d   1      -8.030   0.773  -7.856  0.00  0.00     0.027 H 
ATOM    180  H71 ILE d   1      -9.315   1.894  -7.291  0.00  0.00     0.027 H 
ENDBRANCH 174 177
ENDBRANCH 172 174
BRANCH 172 181
ATOM    181  CG2 ILE d   1      -6.431   1.807  -4.174  0.00  0.00    -0.071 C 
ATOM    182  H66 ILE d   1      -5.682   2.600  -4.031  0.00  0.00     0.028 H 
ATOM    183  H67 ILE d   1      -5.931   0.828  -4.188  0.00  0.00     0.028 H 
ATOM    184  H68 ILE d   1      -7.157   1.836  -3.348  0.00  0.00     0.028 H 
ENDBRANCH 172 181
ENDBRANCH  92 172
ENDBRANCH  90  92
ENDBRANCH   1  88
BRANCH   1 185
ATOM    185  CB  LYS d   1      -5.898   7.305  -6.128  0.00  0.00    -0.038 C 
ATOM    186  H50 LYS d   1      -6.648   7.179  -5.333  0.00  0.00     0.036 H 
ATOM    187  H51 LYS d   1      -6.406   7.441  -7.094  0.00  0.00     0.036 H 
BRANCH 185 188
ATOM    188  CG  LYS d   1      -5.107   8.575  -5.830  0.00  0.00    -0.061 C 
ATOM    189  H52 LYS d   1      -4.357   8.721  -6.621  0.00  0.00     0.033 H 
ATOM    190  H53 LYS d   1      -4.599   8.459  -4.861  0.00  0.00     0.033 H 
BRANCH 188 191
ATOM    191  CD  LYS d   1      -6.010   9.806  -5.771  0.00  0.00    -0.043 C 
ATOM    192  H54 LYS d   1      -6.463   9.961  -6.761  0.00  0.00     0.035 H 
ATOM    193  H55 LYS d   1      -5.399  10.681  -5.506  0.00  0.00     0.035 H 
BRANCH 191 194
ATOM    194  CE  LYS d   1      -7.131   9.655  -4.734  0.00  0.00     0.080 C 
ATOM    195  H56 LYS d   1      -7.772   8.811  -5.030  0.00  0.00     0.075 H 
ATOM    196  H57 LYS d   1      -7.725  10.581  -4.721  0.00  0.00     0.075 H 
BRANCH 194 197
ATOM    197  NZ  LYS d   1      -6.619   9.404  -3.370  0.00  0.00    -0.079 N 
ATOM    198  H58 LYS d   1      -7.394   9.313  -2.732  0.00  0.00     0.274 HD
ATOM    199  H59 LYS d   1      -6.036  10.174  -3.083  0.00  0.00     0.274 HD
ATOM    200  H60 LYS d   1      -6.078   8.553  -3.365  0.00  0.00     0.274 HD
ENDBRANCH 194 197
ENDBRANCH 191 194
ENDBRANCH 188 191
ENDBRANCH 185 188
ENDBRANCH   1 185
TORSDOF 56
