REMARK  7 active torsions:
REMARK  status: ('A' for Active; 'I' for Inactive)
REMARK    1  A    between atoms: C19_17  and  C20_2 
REMARK    2  A    between atoms: C02_4  and  C01_3 
REMARK    3  A    between atoms: C03_5  and  C02_4 
REMARK    4  A    between atoms: O04_21  and  C03_5 
REMARK    5  A    between atoms: C05_6  and  C06_7 
REMARK    6  A    between atoms: C13_12  and  C05_6 
REMARK    7  A    between atoms: C05_6  and  O04_21 
ROOT
ATOM      1  C05 DKP d   1     -25.753  22.284   3.868  0.00  0.00     0.105 C 
ATOM      2  H9  DKP d   1     -25.042  23.106   3.699  0.00  0.00     0.101 H 
ENDROOT
BRANCH   1   3
ATOM      3  C06 DKP d   1     -26.699  22.120   2.687  0.00  0.00    -0.002 A 
ATOM      4  C07 DKP d   1     -27.915  21.470   2.844  0.00  0.00    -0.072 A 
ATOM      5  C08 DKP d   1     -28.798  21.310   1.790  0.00  0.00    -0.082 A 
ATOM      6  H10 DKP d   1     -28.181  21.077   3.819  0.00  0.00     0.084 H 
ATOM      7  C09 DKP d   1     -28.480  21.809   0.541  0.00  0.00    -0.081 A 
ATOM      8  H11 DKP d   1     -29.738  20.794   1.944  0.00  0.00     0.083 H 
ATOM      9  C10 DKP d   1     -27.275  22.464   0.361  0.00  0.00    -0.061 A 
ATOM     10  H12 DKP d   1     -29.167  21.688  -0.288  0.00  0.00     0.083 H 
ATOM     11  C11 DKP d   1     -26.402  22.615   1.426  0.00  0.00     0.043 A 
ATOM     12  H1  DKP d   1     -27.014  22.859  -0.614  0.00  0.00     0.086 H 
ATOM     13 CL1  DKP d   1     -24.908  23.443   1.147  0.00  0.00    -0.084 Cl
ENDBRANCH   1   3
BRANCH   1  14
ATOM     14  C13 DKP d   1     -25.033  20.976   4.160  0.00  0.00     0.046 A 
ATOM     15  C14 DKP d   1     -24.726  19.971   3.250  0.00  0.00    -0.028 A 
ATOM     16  C15 DKP d   1     -24.069  18.946   3.970  0.00  0.00     0.086 A 
ATOM     17  H13 DKP d   1     -24.949  19.973   2.184  0.00  0.00     0.090 H 
ATOM     18  C23 DKP d   1     -24.004  19.374   5.303  0.00  0.00     0.078 A 
ATOM     19  N16 DKP d   1     -23.562  17.764   3.593  0.00  0.00    -0.259 NA
ATOM     20  C19 DKP d   1     -23.402  18.571   6.281  0.00  0.00     0.071 A 
ATOM     21  N24 DKP d   1     -24.596  20.608   5.399  0.00  0.00    -0.354 N 
ATOM     22  C18 DKP d   1     -22.886  17.354   5.861  0.00  0.00    -0.047 A 
ATOM     23  C17 DKP d   1     -22.994  17.005   4.518  0.00  0.00     0.004 A 
ATOM     24  H15 DKP d   1     -22.407  16.686   6.567  0.00  0.00     0.087 H 
ATOM     25  H14 DKP d   1     -22.587  16.049   4.209  0.00  0.00     0.114 H 
ATOM     26  H16 DKP d   1     -24.694  21.163   6.261  0.00  0.00     0.166 HD
BRANCH  20  27
ATOM     27  C20 DKP d   1     -23.326  19.030   7.733  0.00  0.00     0.211 C 
ATOM     28  O21 DKP d   1     -22.578  18.426   8.543  0.00  0.00    -0.644 OA
ATOM     29  O22 DKP d   1     -24.012  20.017   8.110  0.00  0.00    -0.644 OA
ENDBRANCH  20  27
ENDBRANCH   1  14
BRANCH   1  30
ATOM     30  O04 DKP d   1     -26.582  22.509   5.003  0.00  0.00    -0.375 OA
BRANCH  30  31
ATOM     31  C03 DKP d   1     -26.548  23.797   5.539  0.00  0.00     0.021 C 
ATOM     32  H7  DKP d   1     -25.511  24.165   5.541  0.00  0.00     0.074 H 
ATOM     33  H8  DKP d   1     -27.173  24.464   4.927  0.00  0.00     0.074 H 
BRANCH  31  34
ATOM     34  C02 DKP d   1     -27.080  23.772   6.967  0.00  0.00    -0.049 C 
ATOM     35  H5  DKP d   1     -27.769  22.921   7.073  0.00  0.00     0.035 H 
ATOM     36  H6  DKP d   1     -26.233  23.646   7.658  0.00  0.00     0.035 H 
BRANCH  34  37
ATOM     37  C01 DKP d   1     -27.822  25.052   7.329  0.00  0.00    -0.075 C 
ATOM     38  H2  DKP d   1     -28.185  24.985   8.365  0.00  0.00     0.027 H 
ATOM     39  H3  DKP d   1     -28.677  25.185   6.649  0.00  0.00     0.027 H 
ATOM     40  H4  DKP d   1     -27.140  25.910   7.234  0.00  0.00     0.027 H 
ENDBRANCH  34  37
ENDBRANCH  31  34
ENDBRANCH  30  31
ENDBRANCH   1  30
TORSDOF 7
