REMARK  7 active torsions:
REMARK  status: ('A' for Active; 'I' for Inactive)
REMARK    1  A    between atoms: C16_12  and  C17_3 
REMARK    2  A    between atoms: C17_3  and  N18_19 
REMARK    3  A    between atoms: C03_9  and  C02_8 
REMARK    4  A    between atoms: C07_24  and  C06_11 
REMARK    5  A    between atoms: O15_22  and  C16_12 
REMARK    6  A    between atoms: C07_24  and  O15_22 
REMARK    7  A    between atoms: C08_25  and  C07_24 
ROOT
ATOM      1  C07 DQG d   1     -25.570  22.501   3.864  0.00  0.00     0.105 C 
ATOM      2  H21 DQG d   1     -25.046  23.241   4.487  0.00  0.00     0.101 H 
ENDROOT
BRANCH   1   3
ATOM      3  C06 DQG d   1     -24.986  21.310   4.121  0.00  0.00     0.046 A 
ATOM      4  C26 DQG d   1     -24.693  20.218   3.134  0.00  0.00    -0.028 A 
ATOM      5  C27 DQG d   1     -24.100  19.176   3.987  0.00  0.00     0.086 A 
ATOM      6  H10 DQG d   1     -24.873  20.201   2.060  0.00  0.00     0.090 H 
ATOM      7  C04 DQG d   1     -24.046  19.603   5.286  0.00  0.00     0.078 A 
ATOM      8  N28 DQG d   1     -23.660  17.966   3.590  0.00  0.00    -0.259 NA
ATOM      9  C03 DQG d   1     -23.510  18.748   6.256  0.00  0.00     0.071 A 
ATOM     10  N05 DQG d   1     -24.575  20.892   5.374  0.00  0.00    -0.354 N 
ATOM     11  C30 DQG d   1     -23.054  17.495   5.857  0.00  0.00    -0.047 A 
ATOM     12  C29 DQG d   1     -23.151  17.154   4.513  0.00  0.00     0.004 A 
ATOM     13  H18 DQG d   1     -22.634  16.802   6.577  0.00  0.00     0.087 H 
ATOM     14  H17 DQG d   1     -22.794  16.179   4.202  0.00  0.00     0.114 H 
ATOM     15  H19 DQG d   1     -24.648  21.447   6.239  0.00  0.00     0.166 HD
BRANCH   9  16
ATOM     16  C02 DQG d   1     -23.408  19.124   7.691  0.00  0.00     0.211 C 
ATOM     17  O01 DQG d   1     -24.073  20.102   8.120  0.00  0.00    -0.644 OA
ATOM     18  O31 DQG d   1     -22.667  18.463   8.466  0.00  0.00    -0.644 OA
ENDBRANCH   9  16
ENDBRANCH   1   3
BRANCH   1  19
ATOM     19  O15 DQG d   1     -25.523  22.992   2.523  0.00  0.00    -0.373 OA
BRANCH  19  20
ATOM     20  C16 DQG d   1     -25.713  24.422   2.412  0.00  0.00     0.043 C 
ATOM     21  H11 DQG d   1     -26.773  24.663   2.577  0.00  0.00     0.076 H 
ATOM     22  H12 DQG d   1     -25.099  24.931   3.169  0.00  0.00     0.076 H 
BRANCH  20  23
ATOM     23  C17 DQG d   1     -25.304  24.886   1.045  0.00  0.00     0.103 C 
ATOM     24  H2  DQG d   1     -25.941  25.736   0.759  0.00  0.00     0.079 H 
ATOM     25  H3  DQG d   1     -25.456  24.059   0.335  0.00  0.00     0.079 H 
BRANCH  23  26
ATOM     26  N18 DQG d   1     -23.899  25.310   0.974  0.00  0.00    -0.069 N 
ATOM     27  C19 DQG d   1     -23.016  24.143   0.921  0.00  0.00     0.084 C 
ATOM     28  C20 DQG d   1     -21.544  24.552   0.923  0.00  0.00    -0.042 C 
ATOM     29  H13 DQG d   1     -23.211  23.507   1.797  0.00  0.00     0.076 H 
ATOM     30  H14 DQG d   1     -23.228  23.576   0.002  0.00  0.00     0.076 H 
ATOM     31  C21 DQG d   1     -21.394  26.035   0.776  0.00  0.00    -0.062 C 
ATOM     32  H4  DQG d   1     -21.085  24.237   1.872  0.00  0.00     0.035 H 
ATOM     33  H5  DQG d   1     -21.032  24.055   0.086  0.00  0.00     0.035 H 
ATOM     34  C24 DQG d   1     -22.217  26.524  -0.375  0.00  0.00    -0.042 C 
ATOM     35  H6  DQG d   1     -20.336  26.278   0.596  0.00  0.00     0.033 H 
ATOM     36  H7  DQG d   1     -21.731  26.528   1.700  0.00  0.00     0.033 H 
ATOM     37  C25 DQG d   1     -23.685  26.132  -0.218  0.00  0.00     0.084 C 
ATOM     38  H8  DQG d   1     -21.827  26.085  -1.305  0.00  0.00     0.035 H 
ATOM     39  H9  DQG d   1     -22.143  27.620  -0.427  0.00  0.00     0.035 H 
ATOM     40  H15 DQG d   1     -23.999  25.563  -1.105  0.00  0.00     0.076 H 
ATOM     41  H16 DQG d   1     -24.292  27.046  -0.135  0.00  0.00     0.076 H 
ATOM     42  H20 DQG d   1     -23.679  25.853   1.794  0.00  0.00     0.280 HD
ENDBRANCH  23  26
ENDBRANCH  20  23
ENDBRANCH  19  20
ENDBRANCH   1  19
BRANCH   1  43
ATOM     43  C08 DQG d   1     -27.019  22.461   4.297  0.00  0.00    -0.002 A 
ATOM     44  C13 DQG d   1     -27.441  22.953   5.521  0.00  0.00     0.043 A 
ATOM     45  C12 DQG d   1     -28.774  22.932   5.895  0.00  0.00    -0.061 A 
ATOM     46 CL1  DQG d   1     -26.303  23.597   6.642  0.00  0.00    -0.084 Cl
ATOM     47  C11 DQG d   1     -29.729  22.425   5.034  0.00  0.00    -0.081 A 
ATOM     48  H24 DQG d   1     -29.069  23.314   6.865  0.00  0.00     0.086 H 
ATOM     49  C10 DQG d   1     -29.337  21.939   3.800  0.00  0.00    -0.082 A 
ATOM     50  H23 DQG d   1     -30.774  22.409   5.323  0.00  0.00     0.083 H 
ATOM     51  C09 DQG d   1     -27.998  21.969   3.443  0.00  0.00    -0.072 A 
ATOM     52  H1  DQG d   1     -30.074  21.536   3.115  0.00  0.00     0.083 H 
ATOM     53  H22 DQG d   1     -27.706  21.597   2.468  0.00  0.00     0.084 H 
ENDBRANCH   1  43
TORSDOF 7
