REMARK  7 active torsions:
REMARK  status: ('A' for Active; 'I' for Inactive)
REMARK    1  A    between atoms: C17_3  and  C16_17 
REMARK    2  A    between atoms: N18_26  and  C17_3 
REMARK    3  A    between atoms: C03_9  and  C02_8 
REMARK    4  A    between atoms: C07_12  and  C06_11 
REMARK    5  A    between atoms: C07_12  and  C08_13 
REMARK    6  A    between atoms: O15_29  and  C07_12 
REMARK    7  A    between atoms: C16_17  and  O15_29 
ROOT
ATOM      1  C07 DKS d   1     -25.691  22.617   4.200  0.00  0.00     0.105 C 
ATOM      2  H9  DKS d   1     -25.305  23.198   5.051  0.00  0.00     0.101 H 
ENDROOT
BRANCH   1   3
ATOM      3  C06 DKS d   1     -24.997  21.279   4.313  0.00  0.00     0.046 A 
ATOM      4  C26 DKS d   1     -24.748  20.308   3.373  0.00  0.00    -0.028 A 
ATOM      5  C27 DKS d   1     -24.088  19.214   4.036  0.00  0.00     0.086 A 
ATOM      6  H8  DKS d   1     -25.004  20.357   2.316  0.00  0.00     0.090 H 
ATOM      7  C04 DKS d   1     -23.968  19.540   5.389  0.00  0.00     0.078 A 
ATOM      8  N28 DKS d   1     -23.634  18.047   3.529  0.00  0.00    -0.259 NA
ATOM      9  C03 DKS d   1     -23.367  18.656   6.278  0.00  0.00     0.071 A 
ATOM     10  N05 DKS d   1     -24.541  20.804   5.534  0.00  0.00    -0.354 N 
ATOM     11  C30 DKS d   1     -22.886  17.435   5.773  0.00  0.00    -0.047 A 
ATOM     12  C29 DKS d   1     -23.047  17.191   4.415  0.00  0.00     0.004 A 
ATOM     13  H20 DKS d   1     -22.407  16.710   6.420  0.00  0.00     0.087 H 
ATOM     14  H19 DKS d   1     -22.678  16.248   4.029  0.00  0.00     0.114 H 
ATOM     15  H21 DKS d   1     -24.615  21.314   6.426  0.00  0.00     0.166 HD
BRANCH   9  16
ATOM     16  C02 DKS d   1     -23.212  18.969   7.772  0.00  0.00     0.211 C 
ATOM     17  O01 DKS d   1     -23.885  19.950   8.261  0.00  0.00    -0.644 OA
ATOM     18  O31 DKS d   1     -22.426  18.276   8.511  0.00  0.00    -0.644 OA
ENDBRANCH   9  16
ENDBRANCH   1   3
BRANCH   1  19
ATOM     19  C08 DKS d   1     -27.209  22.660   4.374  0.00  0.00    -0.002 A 
ATOM     20  C13 DKS d   1     -27.800  23.222   5.503  0.00  0.00     0.043 A 
ATOM     21  C12 DKS d   1     -29.204  23.243   5.694  0.00  0.00    -0.061 A 
ATOM     22 CL1  DKS d   1     -26.819  23.952   6.728  0.00  0.00    -0.084 Cl
ATOM     23  C11 DKS d   1     -30.058  22.661   4.733  0.00  0.00    -0.081 A 
ATOM     24  H12 DKS d   1     -29.623  23.707   6.580  0.00  0.00     0.086 H 
ATOM     25  C10 DKS d   1     -29.483  22.066   3.595  0.00  0.00    -0.082 A 
ATOM     26  H11 DKS d   1     -31.133  22.672   4.869  0.00  0.00     0.083 H 
ATOM     27  C09 DKS d   1     -28.073  22.061   3.456  0.00  0.00    -0.072 A 
ATOM     28  H1  DKS d   1     -30.111  21.617   2.834  0.00  0.00     0.083 H 
ATOM     29  H10 DKS d   1     -27.643  21.567   2.592  0.00  0.00     0.084 H 
ENDBRANCH   1  19
BRANCH   1  30
ATOM     30  O15 DKS d   1     -25.255  23.337   3.000  0.00  0.00    -0.373 OA
BRANCH  30  31
ATOM     31  C16 DKS d   1     -25.619  22.723   1.726  0.00  0.00     0.043 C 
ATOM     32  H13 DKS d   1     -25.010  21.820   1.571  0.00  0.00     0.076 H 
ATOM     33  H14 DKS d   1     -26.684  22.447   1.747  0.00  0.00     0.076 H 
BRANCH  31  34
ATOM     34  C17 DKS d   1     -25.379  23.681   0.598  0.00  0.00     0.103 C 
ATOM     35  H2  DKS d   1     -26.181  24.434   0.595  0.00  0.00     0.079 H 
ATOM     36  H3  DKS d   1     -25.396  23.124  -0.350  0.00  0.00     0.079 H 
BRANCH  34  37
ATOM     37  N18 DKS d   1     -24.085  24.367   0.722  0.00  0.00    -0.069 N 
ATOM     38  C19 DKS d   1     -23.009  23.378   0.669  0.00  0.00     0.089 C 
ATOM     39  C20 DKS d   1     -21.629  24.051   0.848  0.00  0.00     0.019 C 
ATOM     40  H15 DKS d   1     -23.157  22.642   1.473  0.00  0.00     0.076 H 
ATOM     41  H16 DKS d   1     -23.037  22.868  -0.305  0.00  0.00     0.076 H 
ATOM     42  C21 DKS d   1     -21.428  25.121  -0.180  0.00  0.00     0.246 C 
ATOM     43  H4  DKS d   1     -21.572  24.498   1.851  0.00  0.00     0.044 H 
ATOM     44  H5  DKS d   1     -20.840  23.292   0.739  0.00  0.00     0.044 H 
ATOM     45  C24 DKS d   1     -22.570  26.091  -0.229  0.00  0.00     0.019 C 
ATOM     46  F22 DKS d   1     -20.255  25.799   0.077  0.00  0.00    -0.206 F 
ATOM     47  F23 DKS d   1     -21.252  24.541  -1.430  0.00  0.00    -0.206 F 
ATOM     48  C25 DKS d   1     -23.935  25.363  -0.338  0.00  0.00     0.089 C 
ATOM     49  H6  DKS d   1     -22.444  26.746  -1.104  0.00  0.00     0.044 H 
ATOM     50  H7  DKS d   1     -22.562  26.698   0.688  0.00  0.00     0.044 H 
ATOM     51  H17 DKS d   1     -23.998  24.861  -1.315  0.00  0.00     0.076 H 
ATOM     52  H18 DKS d   1     -24.745  26.103  -0.253  0.00  0.00     0.076 H 
ATOM     53  H22 DKS d   1     -24.049  24.838   1.612  0.00  0.00     0.280 HD
ENDBRANCH  34  37
ENDBRANCH  31  34
ENDBRANCH  30  31
ENDBRANCH   1  30
TORSDOF 7
