REMARK  6 active torsions:
REMARK  status: ('A' for Active; 'I' for Inactive)
REMARK    1  A    between atoms: C11_16  and  C10_1 
REMARK    2  A    between atoms: C20_5  and  C21_6 
REMARK    3  A    between atoms: O19_28  and  C20_5 
REMARK    4  A    between atoms: C03_11  and  C02_10 
REMARK    5  A    between atoms: C11_16  and  C12_17 
REMARK    6  A    between atoms: C11_16  and  O19_28 
ROOT
ATOM      1  C11 DKV d   1     -25.639  22.512   3.710  0.00  0.00     0.105 C 
ATOM      2  H12 DKV d   1     -25.078  23.337   4.173  0.00  0.00     0.101 H 
ENDROOT
BRANCH   1   3
ATOM      3  C10 DKV d   1     -24.957  21.137   4.046  0.00  0.00     0.046 A 
ATOM      4  C29 DKV d   1     -24.651  20.065   3.190  0.00  0.00    -0.028 A 
ATOM      5  C07 DKV d   1     -24.025  19.003   3.971  0.00  0.00     0.086 A 
ATOM      6  H19 DKV d   1     -24.849  20.032   2.120  0.00  0.00     0.090 H 
ATOM      7  C08 DKV d   1     -23.959  19.452   5.298  0.00  0.00     0.078 A 
ATOM      8  N06 DKV d   1     -23.547  17.758   3.603  0.00  0.00    -0.259 NA
ATOM      9  C03 DKV d   1     -23.380  18.600   6.307  0.00  0.00     0.071 A 
ATOM     10  N09 DKV d   1     -24.527  20.748   5.329  0.00  0.00    -0.354 N 
ATOM     11  C04 DKV d   1     -22.904  17.344   5.896  0.00  0.00    -0.047 A 
ATOM     12  C05 DKV d   1     -23.005  16.969   4.566  0.00  0.00     0.004 A 
ATOM     13  H10 DKV d   1     -22.458  16.669   6.618  0.00  0.00     0.087 H 
ATOM     14  H11 DKV d   1     -22.631  15.993   4.279  0.00  0.00     0.114 H 
ATOM     15  H20 DKV d   1     -24.614  21.328   6.176  0.00  0.00     0.166 HD
BRANCH   9  16
ATOM     16  C02 DKV d   1     -23.283  19.039   7.753  0.00  0.00     0.211 C 
ATOM     17  O01 DKV d   1     -23.985  20.031   8.168  0.00  0.00    -0.644 OA
ATOM     18  O30 DKV d   1     -22.530  18.449   8.519  0.00  0.00    -0.644 OA
ENDBRANCH   9  16
ENDBRANCH   1   3
BRANCH   1  19
ATOM     19  C12 DKV d   1     -27.160  22.534   4.181  0.00  0.00    -0.002 A 
ATOM     20  C13 DKV d   1     -28.177  22.083   3.344  0.00  0.00    -0.072 A 
ATOM     21  C14 DKV d   1     -29.543  22.086   3.730  0.00  0.00    -0.082 A 
ATOM     22  H1  DKV d   1     -27.915  21.715   2.358  0.00  0.00     0.084 H 
ATOM     23  C15 DKV d   1     -29.922  22.563   5.007  0.00  0.00    -0.081 A 
ATOM     24  H13 DKV d   1     -30.299  21.721   3.044  0.00  0.00     0.083 H 
ATOM     25  C16 DKV d   1     -28.918  23.029   5.875  0.00  0.00    -0.061 A 
ATOM     26  H2  DKV d   1     -30.963  22.569   5.310  0.00  0.00     0.083 H 
ATOM     27  C17 DKV d   1     -27.566  23.007   5.448  0.00  0.00     0.043 A 
ATOM     28  H14 DKV d   1     -29.175  23.401   6.860  0.00  0.00     0.086 H 
ATOM     29 CL1  DKV d   1     -26.345  23.610   6.593  0.00  0.00    -0.084 Cl
ENDBRANCH   1  19
BRANCH   1  30
ATOM     30  O19 DKV d   1     -25.674  22.640   2.299  0.00  0.00    -0.375 OA
BRANCH  30  31
ATOM     31  C20 DKV d   1     -24.506  23.221   1.690  0.00  0.00     0.024 C 
ATOM     32  H3  DKV d   1     -24.401  24.270   2.002  0.00  0.00     0.074 H 
ATOM     33  H4  DKV d   1     -23.608  22.659   1.986  0.00  0.00     0.074 H 
BRANCH  31  34
ATOM     34  C21 DKV d   1     -24.692  23.144   0.204  0.00  0.00    -0.033 C 
ATOM     35  C22 DKV d   1     -23.382  23.210  -0.545  0.00  0.00    -0.054 C 
ATOM     36  C23 DKV d   1     -23.654  23.149  -2.060  0.00  0.00    -0.004 C 
ATOM     37  H6  DKV d   1     -22.748  22.360  -0.252  0.00  0.00     0.034 H 
ATOM     38  H7  DKV d   1     -22.868  24.152  -0.302  0.00  0.00     0.034 H 
ATOM     39  C24 DKV d   1     -24.421  21.917  -2.457  0.00  0.00     0.243 C 
ATOM     40  H15 DKV d   1     -22.691  23.152  -2.592  0.00  0.00     0.041 H 
ATOM     41  H16 DKV d   1     -24.236  24.036  -2.350  0.00  0.00     0.041 H 
ATOM     42  C27 DKV d   1     -25.666  21.709  -1.648  0.00  0.00    -0.004 C 
ATOM     43  F25 DKV d   1     -23.599  20.804  -2.329  0.00  0.00    -0.206 F 
ATOM     44  F26 DKV d   1     -24.722  21.998  -3.800  0.00  0.00    -0.206 F 
ATOM     45  C28 DKV d   1     -25.395  21.795  -0.140  0.00  0.00    -0.054 C 
ATOM     46  H17 DKV d   1     -26.077  20.715  -1.878  0.00  0.00     0.041 H 
ATOM     47  H18 DKV d   1     -26.400  22.482  -1.921  0.00  0.00     0.041 H 
ATOM     48  H8  DKV d   1     -26.349  21.733   0.405  0.00  0.00     0.034 H 
ATOM     49  H9  DKV d   1     -24.746  20.960   0.161  0.00  0.00     0.034 H 
ATOM     50  H5  DKV d   1     -25.327  23.983  -0.118  0.00  0.00     0.043 H 
ENDBRANCH  31  34
ENDBRANCH  30  31
ENDBRANCH   1  30
TORSDOF 6
