REMARK  8 active torsions:
REMARK  status: ('A' for Active; 'I' for Inactive)
REMARK    1  A    between atoms: C11_16  and  C10_1 
REMARK    2  A    between atoms: C10_1  and  O09_26 
REMARK    3  A    between atoms: C23_21  and  C24_7 
REMARK    4  A    between atoms: C08_15  and  C07_14 
REMARK    5  A    between atoms: C08_15  and  C18_20 
REMARK    6  A    between atoms: O09_26  and  C08_15 
REMARK    7  A    between atoms: C11_16  and  C12_17 
REMARK    8  A    between atoms: N13_23  and  C14_18 
ROOT
ATOM      1  C08 DLJ d   1     -25.609  22.569   3.925  0.00  0.00     0.105 C 
ATOM      2  H12 DLJ d   1     -25.088  23.347   4.502  0.00  0.00     0.101 H 
ENDROOT
BRANCH   1   3
ATOM      3  C07 DLJ d   1     -27.108  22.547   4.246  0.00  0.00    -0.002 A 
ATOM      4  C02 DLJ d   1     -27.622  23.035   5.439  0.00  0.00     0.043 A 
ATOM      5  C03 DLJ d   1     -28.980  23.074   5.752  0.00  0.00    -0.061 A 
ATOM      6 CL1  DLJ d   1     -26.476  23.603   6.641  0.00  0.00    -0.084 Cl
ATOM      7  C04 DLJ d   1     -29.869  22.604   4.806  0.00  0.00    -0.081 A 
ATOM      8  H8  DLJ d   1     -29.326  23.460   6.704  0.00  0.00     0.086 H 
ATOM      9  C05 DLJ d   1     -29.394  22.113   3.567  0.00  0.00    -0.082 A 
ATOM     10  H9  DLJ d   1     -30.933  22.611   5.013  0.00  0.00     0.083 H 
ATOM     11  C06 DLJ d   1     -28.015  22.055   3.300  0.00  0.00    -0.072 A 
ATOM     12  H10 DLJ d   1     -30.101  21.778   2.816  0.00  0.00     0.083 H 
ATOM     13  H11 DLJ d   1     -27.657  21.632   2.368  0.00  0.00     0.084 H 
ENDBRANCH   1   3
BRANCH   1  14
ATOM     14  C18 DLJ d   1     -24.986  21.236   4.170  0.00  0.00     0.046 A 
ATOM     15  C20 DLJ d   1     -24.758  20.215   3.264  0.00  0.00    -0.028 A 
ATOM     16  C21 DLJ d   1     -24.175  19.156   3.990  0.00  0.00     0.086 A 
ATOM     17  H6  DLJ d   1     -24.985  20.227   2.199  0.00  0.00     0.090 H 
ATOM     18  C22 DLJ d   1     -24.108  19.561   5.332  0.00  0.00     0.078 A 
ATOM     19  N29 DLJ d   1     -23.765  17.943   3.591  0.00  0.00    -0.259 NA
ATOM     20  C23 DLJ d   1     -23.576  18.721   6.291  0.00  0.00     0.071 A 
ATOM     21  N19 DLJ d   1     -24.617  20.835   5.396  0.00  0.00    -0.354 N 
ATOM     22  C27 DLJ d   1     -23.131  17.461   5.876  0.00  0.00    -0.047 A 
ATOM     23  C28 DLJ d   1     -23.240  17.138   4.523  0.00  0.00     0.004 A 
ATOM     24  H20 DLJ d   1     -22.713  16.756   6.585  0.00  0.00     0.087 H 
ATOM     25  H7  DLJ d   1     -22.874  16.169   4.205  0.00  0.00     0.114 H 
ATOM     26  H21 DLJ d   1     -24.703  21.397   6.255  0.00  0.00     0.166 HD
BRANCH  20  27
ATOM     27  C24 DLJ d   1     -23.476  19.174   7.727  0.00  0.00     0.211 C 
ATOM     28  O25 DLJ d   1     -24.160  20.163   8.072  0.00  0.00    -0.644 OA
ATOM     29  O26 DLJ d   1     -22.711  18.543   8.477  0.00  0.00    -0.644 OA
ENDBRANCH  20  27
ENDBRANCH   1  14
BRANCH   1  30
ATOM     30  O09 DLJ d   1     -25.572  22.832   2.523  0.00  0.00    -0.375 OA
BRANCH  30  31
ATOM     31  C10 DLJ d   1     -24.286  23.229   1.927  0.00  0.00     0.023 C 
ATOM     32  H1  DLJ d   1     -23.806  24.003   2.544  0.00  0.00     0.074 H 
ATOM     33  H2  DLJ d   1     -23.620  22.357   1.848  0.00  0.00     0.074 H 
BRANCH  31  34
ATOM     34  C11 DLJ d   1     -24.598  23.789   0.519  0.00  0.00    -0.026 C 
ATOM     35  H13 DLJ d   1     -23.876  24.589   0.298  0.00  0.00     0.039 H 
ATOM     36  H14 DLJ d   1     -25.616  24.206   0.531  0.00  0.00     0.039 H 
BRANCH  34  37
ATOM     37  C12 DLJ d   1     -24.515  22.704  -0.645  0.00  0.00     0.016 C 
ATOM     38  C17 DLJ d   1     -25.434  21.509  -0.476  0.00  0.00    -0.030 C 
ATOM     39  C16 DLJ d   1     -25.770  21.177  -1.893  0.00  0.00    -0.086 C 
ATOM     40  H4  DLJ d   1     -26.334  21.774   0.097  0.00  0.00     0.042 H 
ATOM     41  H5  DLJ d   1     -24.917  20.674   0.019  0.00  0.00     0.042 H 
ATOM     42  C15 DLJ d   1     -25.728  22.331  -2.601  0.00  0.00    -0.029 C 
ATOM     43  H19 DLJ d   1     -26.006  20.189  -2.285  0.00  0.00     0.079 H 
ATOM     44  N13 DLJ d   1     -24.983  23.290  -1.928  0.00  0.00    -0.390 N 
ATOM     45  H3  DLJ d   1     -26.212  22.485  -3.564  0.00  0.00     0.110 H 
ATOM     46  H15 DLJ d   1     -23.472  22.364  -0.728  0.00  0.00     0.073 H 
BRANCH  44  47
ATOM     47  C14 DLJ d   1     -25.207  24.730  -2.073  0.00  0.00    -0.019 C 
ATOM     48  H16 DLJ d   1     -25.549  24.947  -3.096  0.00  0.00     0.056 H 
ATOM     49  H17 DLJ d   1     -24.268  25.269  -1.879  0.00  0.00     0.056 H 
ATOM     50  H18 DLJ d   1     -25.973  25.056  -1.354  0.00  0.00     0.056 H 
ENDBRANCH  44  47
ENDBRANCH  34  37
ENDBRANCH  31  34
ENDBRANCH  30  31
ENDBRANCH   1  30
TORSDOF 8
