REMARK  8 active torsions:
REMARK  status: ('A' for Active; 'I' for Inactive)
REMARK    1  A    between atoms: C10_1  and  O09_21 
REMARK    2  A    between atoms: C11_25  and  C10_1 
REMARK    3  A    between atoms: N16_29  and  C17_3 
REMARK    4  A    between atoms: C23_17  and  C24_7 
REMARK    5  A    between atoms: C08_15  and  C07_14 
REMARK    6  A    between atoms: C08_15  and  C18_16 
REMARK    7  A    between atoms: O09_21  and  C08_15 
REMARK    8  A    between atoms: C12_26  and  C11_25 
ROOT
ATOM      1  C08 DNV d   1     -25.577  22.568   3.963  0.00  0.00     0.105 C 
ATOM      2  H13 DNV d   1     -25.098  23.340   4.582  0.00  0.00     0.101 H 
ENDROOT
BRANCH   1   3
ATOM      3  C07 DNV d   1     -27.077  22.523   4.256  0.00  0.00    -0.002 A 
ATOM      4  C02 DNV d   1     -27.586  22.991   5.462  0.00  0.00     0.043 A 
ATOM      5  C03 DNV d   1     -28.945  22.959   5.741  0.00  0.00    -0.061 A 
ATOM      6 CL1  DNV d   1     -26.486  23.655   6.697  0.00  0.00    -0.084 Cl
ATOM      7  C04 DNV d   1     -29.819  22.448   4.804  0.00  0.00    -0.081 A 
ATOM      8  H9  DNV d   1     -29.317  23.333   6.688  0.00  0.00     0.086 H 
ATOM      9  C05 DNV d   1     -29.342  21.975   3.601  0.00  0.00    -0.082 A 
ATOM     10  H10 DNV d   1     -30.882  22.419   5.014  0.00  0.00     0.083 H 
ATOM     11  C06 DNV d   1     -27.986  22.008   3.329  0.00  0.00    -0.072 A 
ATOM     12  H11 DNV d   1     -30.031  21.576   2.866  0.00  0.00     0.083 H 
ATOM     13  H12 DNV d   1     -27.623  21.628   2.381  0.00  0.00     0.084 H 
ENDBRANCH   1   3
BRANCH   1  14
ATOM     14  C18 DNV d   1     -24.952  21.206   4.257  0.00  0.00     0.046 A 
ATOM     15  C20 DNV d   1     -24.718  20.204   3.333  0.00  0.00    -0.028 A 
ATOM     16  C21 DNV d   1     -24.132  19.116   4.032  0.00  0.00     0.086 A 
ATOM     17  H7  DNV d   1     -24.942  20.242   2.268  0.00  0.00     0.090 H 
ATOM     18  C22 DNV d   1     -24.046  19.511   5.347  0.00  0.00     0.078 A 
ATOM     19  N29 DNV d   1     -23.710  17.894   3.600  0.00  0.00    -0.259 NA
ATOM     20  C23 DNV d   1     -23.508  18.644   6.286  0.00  0.00     0.071 A 
ATOM     21  N19 DNV d   1     -24.553  20.777   5.439  0.00  0.00    -0.354 N 
ATOM     22  C27 DNV d   1     -23.084  17.418   5.854  0.00  0.00    -0.047 A 
ATOM     23  C28 DNV d   1     -23.189  17.060   4.517  0.00  0.00     0.004 A 
ATOM     24  H14 DNV d   1     -22.661  16.717   6.564  0.00  0.00     0.087 H 
ATOM     25  H8  DNV d   1     -22.842  16.082   4.204  0.00  0.00     0.114 H 
ATOM     26  H15 DNV d   1     -24.615  21.321   6.311  0.00  0.00     0.166 HD
BRANCH  20  27
ATOM     27  C24 DNV d   1     -23.394  19.047   7.752  0.00  0.00     0.211 C 
ATOM     28  O25 DNV d   1     -22.680  18.370   8.536  0.00  0.00    -0.644 OA
ATOM     29  O26 DNV d   1     -24.014  20.057   8.175  0.00  0.00    -0.644 OA
ENDBRANCH  20  27
ENDBRANCH   1  14
BRANCH   1  30
ATOM     30  O09 DNV d   1     -25.395  22.867   2.577  0.00  0.00    -0.375 OA
BRANCH  30  31
ATOM     31  C10 DNV d   1     -25.499  24.229   2.272  0.00  0.00     0.027 C 
ATOM     32  H1  DNV d   1     -24.541  24.730   2.476  0.00  0.00     0.075 H 
ATOM     33  H2  DNV d   1     -26.291  24.688   2.883  0.00  0.00     0.075 H 
BRANCH  31  34
ATOM     34  C11 DNV d   1     -25.846  24.362   0.793  0.00  0.00     0.010 C 
ATOM     35  H16 DNV d   1     -24.999  23.994   0.195  0.00  0.00     0.047 H 
ATOM     36  H17 DNV d   1     -26.022  25.423   0.564  0.00  0.00     0.047 H 
BRANCH  34  37
ATOM     37  C12 DNV d   1     -27.062  23.585   0.432  0.00  0.00     0.107 A 
ATOM     38  N13 DNV d   1     -28.319  24.020   0.581  0.00  0.00    -0.246 NA
ATOM     39  C14 DNV d   1     -29.109  23.010   0.135  0.00  0.00     0.019 A 
ATOM     40  C15 DNV d   1     -28.348  21.955  -0.285  0.00  0.00    -0.003 A 
ATOM     41  H18 DNV d   1     -30.198  23.037   0.115  0.00  0.00     0.117 H 
ATOM     42  N16 DNV d   1     -27.053  22.319  -0.097  0.00  0.00    -0.348 N 
ATOM     43  H3  DNV d   1     -28.708  21.011  -0.690  0.00  0.00     0.113 H 
BRANCH  42  44
ATOM     44  C17 DNV d   1     -25.880  21.519  -0.399  0.00  0.00    -0.013 C 
ATOM     45  H4  DNV d   1     -26.194  20.549  -0.813  0.00  0.00     0.057 H 
ATOM     46  H5  DNV d   1     -25.301  21.354   0.522  0.00  0.00     0.057 H 
ATOM     47  H6  DNV d   1     -25.256  22.047  -1.135  0.00  0.00     0.057 H 
ENDBRANCH  42  44
ENDBRANCH  34  37
ENDBRANCH  31  34
ENDBRANCH  30  31
ENDBRANCH   1  30
TORSDOF 8
