REMARK  7 active torsions:
REMARK  status: ('A' for Active; 'I' for Inactive)
REMARK    1  A    between atoms: C17_3  and  C16_17 
REMARK    2  A    between atoms: N18_24  and  C17_3 
REMARK    3  A    between atoms: C03_9  and  C02_8 
REMARK    4  A    between atoms: C07_12  and  C06_11 
REMARK    5  A    between atoms: C07_12  and  C08_13 
REMARK    6  A    between atoms: O15_27  and  C07_12 
REMARK    7  A    between atoms: C16_17  and  O15_27 
ROOT
ATOM      1  C07 DO1 d   1     -25.460  22.666   4.032  0.00  0.00     0.105 C 
ATOM      2  H11 DO1 d   1     -25.765  22.673   2.975  0.00  0.00     0.101 H 
ENDROOT
BRANCH   1   3
ATOM      3  C06 DO1 d   1     -24.963  21.436   4.246  0.00  0.00     0.046 A 
ATOM      4  C26 DO1 d   1     -24.767  20.341   3.236  0.00  0.00    -0.028 A 
ATOM      5  C27 DO1 d   1     -24.186  19.262   4.057  0.00  0.00     0.086 A 
ATOM      6  H10 DO1 d   1     -24.995  20.343   2.171  0.00  0.00     0.090 H 
ATOM      7  C04 DO1 d   1     -24.060  19.673   5.355  0.00  0.00     0.078 A 
ATOM      8  N28 DO1 d   1     -23.819  18.035   3.634  0.00  0.00    -0.259 NA
ATOM      9  C03 DO1 d   1     -23.526  18.787   6.296  0.00  0.00     0.071 A 
ATOM     10  N05 DO1 d   1     -24.524  20.983   5.475  0.00  0.00    -0.354 N 
ATOM     11  C30 DO1 d   1     -23.143  17.517   5.869  0.00  0.00    -0.047 A 
ATOM     12  C29 DO1 d   1     -23.311  17.190   4.527  0.00  0.00     0.004 A 
ATOM     13  H22 DO1 d   1     -22.724  16.800   6.566  0.00  0.00     0.087 H 
ATOM     14  H21 DO1 d   1     -23.015  16.202   4.194  0.00  0.00     0.114 H 
ATOM     15  H23 DO1 d   1     -24.537  21.530   6.348  0.00  0.00     0.166 HD
BRANCH   9  16
ATOM     16  C02 DO1 d   1     -23.350  19.147   7.731  0.00  0.00     0.211 C 
ATOM     17  O01 DO1 d   1     -24.008  20.105   8.216  0.00  0.00    -0.644 OA
ATOM     18  O31 DO1 d   1     -22.551  18.501   8.456  0.00  0.00    -0.644 OA
ENDBRANCH   9  16
ENDBRANCH   1   3
BRANCH   1  19
ATOM     19  C08 DO1 d   1     -26.712  22.888   4.853  0.00  0.00    -0.002 A 
ATOM     20  C13 DO1 d   1     -27.967  22.500   4.405  0.00  0.00     0.043 A 
ATOM     21  C12 DO1 d   1     -29.111  22.712   5.160  0.00  0.00    -0.061 A 
ATOM     22 CL1  DO1 d   1     -28.143  21.725   2.869  0.00  0.00    -0.084 Cl
ATOM     23  C11 DO1 d   1     -29.016  23.328   6.397  0.00  0.00    -0.081 A 
ATOM     24  H14 DO1 d   1     -30.077  22.396   4.783  0.00  0.00     0.086 H 
ATOM     25  C10 DO1 d   1     -27.775  23.727   6.866  0.00  0.00    -0.082 A 
ATOM     26  H13 DO1 d   1     -29.905  23.497   6.993  0.00  0.00     0.083 H 
ATOM     27  C09 DO1 d   1     -26.645  23.504   6.095  0.00  0.00    -0.072 A 
ATOM     28  H1  DO1 d   1     -27.688  24.212   7.832  0.00  0.00     0.083 H 
ATOM     29  H12 DO1 d   1     -25.680  23.820   6.473  0.00  0.00     0.084 H 
ENDBRANCH   1  19
BRANCH   1  30
ATOM     30  O15 DO1 d   1     -24.586  23.789   4.183  0.00  0.00    -0.373 OA
BRANCH  30  31
ATOM     31  C16 DO1 d   1     -24.981  24.947   3.403  0.00  0.00     0.043 C 
ATOM     32  H15 DO1 d   1     -25.414  24.613   2.449  0.00  0.00     0.076 H 
ATOM     33  H16 DO1 d   1     -25.731  25.525   3.963  0.00  0.00     0.076 H 
BRANCH  31  34
ATOM     34  C17 DO1 d   1     -23.789  25.814   3.130  0.00  0.00     0.103 C 
ATOM     35  H2  DO1 d   1     -23.666  26.514   3.969  0.00  0.00     0.079 H 
ATOM     36  H3  DO1 d   1     -23.972  26.380   2.204  0.00  0.00     0.079 H 
BRANCH  34  37
ATOM     37  N18 DO1 d   1     -22.542  25.049   2.972  0.00  0.00    -0.069 N 
ATOM     38  C19 DO1 d   1     -22.558  24.306   1.711  0.00  0.00     0.084 C 
ATOM     39  C20 DO1 d   1     -22.640  25.243   0.506  0.00  0.00    -0.042 C 
ATOM     40  H17 DO1 d   1     -21.637  23.709   1.637  0.00  0.00     0.076 H 
ATOM     41  H18 DO1 d   1     -23.431  23.636   1.702  0.00  0.00     0.076 H 
ATOM     42  C21 DO1 d   1     -21.524  26.244   0.500  0.00  0.00    -0.062 C 
ATOM     43  H4  DO1 d   1     -22.585  24.644  -0.415  0.00  0.00     0.035 H 
ATOM     44  H5  DO1 d   1     -23.599  25.780   0.538  0.00  0.00     0.035 H 
ATOM     45  C24 DO1 d   1     -21.425  26.937   1.826  0.00  0.00    -0.042 C 
ATOM     46  H6  DO1 d   1     -21.714  26.991  -0.284  0.00  0.00     0.033 H 
ATOM     47  H7  DO1 d   1     -20.576  25.726   0.292  0.00  0.00     0.033 H 
ATOM     48  C25 DO1 d   1     -21.383  25.941   2.986  0.00  0.00     0.084 C 
ATOM     49  H8  DO1 d   1     -22.299  27.593   1.951  0.00  0.00     0.035 H 
ATOM     50  H9  DO1 d   1     -20.507  27.543   1.843  0.00  0.00     0.035 H 
ATOM     51  H19 DO1 d   1     -21.373  26.498   3.934  0.00  0.00     0.076 H 
ATOM     52  H20 DO1 d   1     -20.467  25.337   2.905  0.00  0.00     0.076 H 
ATOM     53  H24 DO1 d   1     -22.463  24.397   3.737  0.00  0.00     0.280 HD
ENDBRANCH  34  37
ENDBRANCH  31  34
ENDBRANCH  30  31
ENDBRANCH   1  30
TORSDOF 7
