REMARK  7 active torsions:
REMARK  status: ('A' for Active; 'I' for Inactive)
REMARK    1  A    between atoms: C16_12  and  C17_3 
REMARK    2  A    between atoms: C17_3  and  N18_19 
REMARK    3  A    between atoms: C03_9  and  C02_8 
REMARK    4  A    between atoms: C07_24  and  C06_11 
REMARK    5  A    between atoms: O15_22  and  C16_12 
REMARK    6  A    between atoms: C07_24  and  O15_22 
REMARK    7  A    between atoms: C08_25  and  C07_24 
ROOT
ATOM      1  C07 DQG d   1     -25.365  22.487   4.053  0.00  0.00     0.105 C 
ATOM      2  H21 DQG d   1     -24.869  23.171   4.758  0.00  0.00     0.101 H 
ENDROOT
BRANCH   1   3
ATOM      3  C06 DQG d   1     -24.845  21.280   4.274  0.00  0.00     0.046 A 
ATOM      4  C26 DQG d   1     -24.583  20.220   3.250  0.00  0.00    -0.028 A 
ATOM      5  C27 DQG d   1     -23.970  19.160   4.052  0.00  0.00     0.086 A 
ATOM      6  H10 DQG d   1     -24.794  20.234   2.182  0.00  0.00     0.090 H 
ATOM      7  C04 DQG d   1     -23.873  19.559   5.360  0.00  0.00     0.078 A 
ATOM      8  N28 DQG d   1     -23.560  17.950   3.614  0.00  0.00    -0.259 NA
ATOM      9  C03 DQG d   1     -23.322  18.700   6.284  0.00  0.00     0.071 A 
ATOM     10  N05 DQG d   1     -24.385  20.844   5.495  0.00  0.00    -0.354 N 
ATOM     11  C30 DQG d   1     -22.888  17.440   5.857  0.00  0.00    -0.047 A 
ATOM     12  C29 DQG d   1     -23.029  17.107   4.504  0.00  0.00     0.004 A 
ATOM     13  H18 DQG d   1     -22.452  16.737   6.558  0.00  0.00     0.087 H 
ATOM     14  H17 DQG d   1     -22.696  16.132   4.167  0.00  0.00     0.114 H 
ATOM     15  H19 DQG d   1     -24.415  21.385   6.371  0.00  0.00     0.166 HD
BRANCH   9  16
ATOM     16  C02 DQG d   1     -23.189  19.072   7.730  0.00  0.00     0.211 C 
ATOM     17  O01 DQG d   1     -23.841  20.053   8.187  0.00  0.00    -0.644 OA
ATOM     18  O31 DQG d   1     -22.443  18.428   8.494  0.00  0.00    -0.644 OA
ENDBRANCH   9  16
ENDBRANCH   1   3
BRANCH   1  19
ATOM     19  O15 DQG d   1     -25.163  23.030   2.738  0.00  0.00    -0.373 OA
BRANCH  19  20
ATOM     20  C16 DQG d   1     -25.464  24.438   2.616  0.00  0.00     0.043 C 
ATOM     21  H11 DQG d   1     -26.533  24.603   2.818  0.00  0.00     0.076 H 
ATOM     22  H12 DQG d   1     -24.862  25.005   3.341  0.00  0.00     0.076 H 
BRANCH  20  23
ATOM     23  C17 DQG d   1     -25.139  24.905   1.221  0.00  0.00     0.103 C 
ATOM     24  H2  DQG d   1     -25.656  25.859   1.043  0.00  0.00     0.079 H 
ATOM     25  H3  DQG d   1     -25.504  24.152   0.507  0.00  0.00     0.079 H 
BRANCH  23  26
ATOM     26  N18 DQG d   1     -23.694  25.106   0.992  0.00  0.00    -0.069 N 
ATOM     27  C19 DQG d   1     -23.015  23.822   0.788  0.00  0.00     0.084 C 
ATOM     28  C20 DQG d   1     -21.496  23.989   0.718  0.00  0.00    -0.042 C 
ATOM     29  H13 DQG d   1     -23.262  23.152   1.625  0.00  0.00     0.076 H 
ATOM     30  H14 DQG d   1     -23.368  23.378  -0.154  0.00  0.00     0.076 H 
ATOM     31  C21 DQG d   1     -21.117  25.376   0.303  0.00  0.00    -0.062 C 
ATOM     32  H4  DQG d   1     -21.067  23.783   1.710  0.00  0.00     0.035 H 
ATOM     33  H5  DQG d   1     -21.091  23.274  -0.013  0.00  0.00     0.035 H 
ATOM     34  C24 DQG d   1     -22.075  25.893  -0.726  0.00  0.00    -0.042 C 
ATOM     35  H6  DQG d   1     -20.102  25.363  -0.121  0.00  0.00     0.033 H 
ATOM     36  H7  DQG d   1     -21.139  26.036   1.183  0.00  0.00     0.033 H 
ATOM     37  C25 DQG d   1     -23.510  25.951  -0.201  0.00  0.00     0.084 C 
ATOM     38  H8  DQG d   1     -22.045  25.230  -1.603  0.00  0.00     0.035 H 
ATOM     39  H9  DQG d   1     -21.765  26.906  -1.022  0.00  0.00     0.035 H 
ATOM     40  H15 DQG d   1     -24.192  25.604  -0.991  0.00  0.00     0.076 H 
ATOM     41  H16 DQG d   1     -23.751  26.992   0.060  0.00  0.00     0.076 H 
ATOM     42  H20 DQG d   1     -23.293  25.567   1.794  0.00  0.00     0.280 HD
ENDBRANCH  23  26
ENDBRANCH  20  23
ENDBRANCH  19  20
ENDBRANCH   1  19
BRANCH   1  43
ATOM     43  C08 DQG d   1     -26.855  22.502   4.361  0.00  0.00    -0.002 A 
ATOM     44  C13 DQG d   1     -27.390  23.045   5.544  0.00  0.00     0.043 A 
ATOM     45  C12 DQG d   1     -28.753  23.083   5.780  0.00  0.00    -0.061 A 
ATOM     46 CL1  DQG d   1     -26.363  23.682   6.778  0.00  0.00    -0.084 Cl
ATOM     47  C11 DQG d   1     -29.632  22.581   4.830  0.00  0.00    -0.081 A 
ATOM     48  H24 DQG d   1     -29.133  23.503   6.704  0.00  0.00     0.086 H 
ATOM     49  C10 DQG d   1     -29.137  22.043   3.658  0.00  0.00    -0.082 A 
ATOM     50  H23 DQG d   1     -30.701  22.611   5.007  0.00  0.00     0.083 H 
ATOM     51  C09 DQG d   1     -27.772  22.019   3.428  0.00  0.00    -0.072 A 
ATOM     52  H1  DQG d   1     -29.818  21.639   2.918  0.00  0.00     0.083 H 
ATOM     53  H22 DQG d   1     -27.404  21.612   2.493  0.00  0.00     0.084 H 
ENDBRANCH   1  43
TORSDOF 7
