REMARK  6 active torsions:
REMARK  status: ('A' for Active; 'I' for Inactive)
REMARK    1  A    between atoms: C4_1  and  C2_12 
REMARK    2  A    between atoms: C10_5  and  C6_4 
REMARK       I    between atoms: N12_16  and  C10_5 
REMARK    3  A    between atoms: C2_12  and  C3_7 
REMARK    4  A    between atoms: C2_12  and  C1_8 
REMARK    5  A    between atoms: N18_17  and  C15_9 
REMARK    6  A    between atoms: C19_11  and  C21_13 
REMARK       I    between atoms: C19_11  and  N18_17 
ROOT
ATOM      1  C14 90V d   1     -21.647  18.923   7.562  0.00  0.00    -0.030 C 
ATOM      2  C10 90V d   1     -22.945  18.419   4.121  0.00  0.00     0.274 C 
ATOM      3  C13 90V d   1     -21.597  19.381   6.074  0.00  0.00    -0.000 C 
ATOM      4  C15 90V d   1     -23.167  18.652   7.807  0.00  0.00     0.029 C 
ATOM      5  C17 90V d   1     -23.536  18.013   6.476  0.00  0.00     0.017 C 
ATOM      6  N12 90V d   1     -22.689  18.607   5.433  0.00  0.00    -0.345 N 
ATOM      7  O11 90V d   1     -23.867  17.764   3.753  0.00  0.00    -0.266 OA
ATOM      8  H1  90V d   1     -21.276  19.714   8.230  0.00  0.00     0.038 H 
ATOM      9  H2  90V d   1     -21.055  18.008   7.712  0.00  0.00     0.038 H 
ATOM     10  H4  90V d   1     -20.625  19.137   5.621  0.00  0.00     0.064 H 
ATOM     11  H5  90V d   1     -21.780  20.462   5.990  0.00  0.00     0.064 H 
ATOM     12  H12 90V d   1     -23.329  17.968   8.653  0.00  0.00     0.075 H 
ATOM     13  H13 90V d   1     -24.595  18.206   6.251  0.00  0.00     0.067 H 
ATOM     14  H14 90V d   1     -23.363  16.928   6.523  0.00  0.00     0.067 H 
ENDROOT
BRANCH   2  15
ATOM     15  C6  90V d   1     -22.061  19.056   3.078  0.00  0.00     0.146 A 
ATOM     16  C5  90V d   1     -21.196  20.177   3.110  0.00  0.00    -0.024 A 
ATOM     17  C4  90V d   1     -20.666  20.287   1.810  0.00  0.00     0.033 A 
ATOM     18  H3  90V d   1     -20.985  20.820   3.963  0.00  0.00     0.090 H 
ATOM     19  N9  90V d   1     -21.180  19.323   1.065  0.00  0.00    -0.281 N 
ATOM     20  N7  90V d   1     -22.025  18.582   1.820  0.00  0.00    -0.169 NA
ATOM     21  H22 90V d   1     -20.971  19.162   0.069  0.00  0.00     0.189 HD
BRANCH  17  22
ATOM     22  C2  90V d   1     -19.686  21.263   1.207  0.00  0.00    -0.019 C 
ATOM     23  H15 90V d   1     -19.440  22.017   1.970  0.00  0.00     0.048 H 
BRANCH  22  24
ATOM     24  C3  90V d   1     -18.383  20.546   0.800  0.00  0.00    -0.068 C 
ATOM     25  H6  90V d   1     -17.684  21.275   0.364  0.00  0.00     0.028 H 
ATOM     26  H7  90V d   1     -18.610  19.766   0.058  0.00  0.00     0.028 H 
ATOM     27  H8  90V d   1     -17.925  20.085   1.688  0.00  0.00     0.028 H 
ENDBRANCH  22  24
BRANCH  22  28
ATOM     28  C1  90V d   1     -20.306  21.991  -0.007  0.00  0.00    -0.068 C 
ATOM     29  H9  90V d   1     -21.233  22.496   0.302  0.00  0.00     0.028 H 
ATOM     30  H10 90V d   1     -20.533  21.259  -0.797  0.00  0.00     0.028 H 
ATOM     31  H11 90V d   1     -19.594  22.736  -0.391  0.00  0.00     0.028 H 
ENDBRANCH  22  28
ENDBRANCH  17  22
ENDBRANCH   2  15
BRANCH   4  32
ATOM     32  N18 90V d   1     -23.921  19.883   8.020  0.00  0.00    -0.354 N 
ATOM     33  C19 90V d   1     -24.273  20.325   9.233  0.00  0.00     0.222 C 
ATOM     34  O20 90V d   1     -23.979  19.700  10.251  0.00  0.00    -0.273 OA
ATOM     35  H21 90V d   1     -24.188  20.422   7.221  0.00  0.00     0.162 HD
BRANCH  33  36
ATOM     36  C21 90V d   1     -25.042  21.622   9.278  0.00  0.00     0.024 A 
ATOM     37  C22 90V d   1     -24.806  22.535  10.485  0.00  0.00    -0.053 A 
ATOM     38  C23 90V d   1     -26.107  21.733  10.374  0.00  0.00    -0.053 A 
ATOM     39  H17 90V d   1     -24.821  23.628  10.359  0.00  0.00     0.034 H 
ATOM     40  H18 90V d   1     -24.055  22.263  11.242  0.00  0.00     0.034 H 
ATOM     41  H19 90V d   1     -26.290  20.886  11.051  0.00  0.00     0.034 H 
ATOM     42  H20 90V d   1     -27.056  22.250  10.168  0.00  0.00     0.034 H 
ATOM     43  H16 90V d   1     -25.201  22.032   8.270  0.00  0.00     0.054 H 
ENDBRANCH  33  36
ENDBRANCH   4  32
TORSDOF 6
