REMARK  8 active torsions:
REMARK  status: ('A' for Active; 'I' for Inactive)
REMARK    1  A    between atoms: C11_15  and  C10_1 
REMARK    2  A    between atoms: C10_1  and  O09_27 
REMARK    3  A    between atoms: C24_6  and  C25_22 
REMARK    4  A    between atoms: C08_14  and  C07_13 
REMARK    5  A    between atoms: C08_14  and  C19_20 
REMARK    6  A    between atoms: O09_27  and  C08_14 
REMARK    7  A    between atoms: C12_16  and  C11_15 
REMARK    8  A    between atoms: N13_24  and  C12_16 
ROOT
ATOM      1  C08 DNY d   1     -25.594  22.601   3.917  0.00  0.00     0.105 C 
ATOM      2  H13 DNY d   1     -25.105  23.297   4.614  0.00  0.00     0.101 H 
ENDROOT
BRANCH   1   3
ATOM      3  C07 DNY d   1     -27.123  22.590   4.232  0.00  0.00    -0.002 A 
ATOM      4  C02 DNY d   1     -27.659  23.057   5.435  0.00  0.00     0.043 A 
ATOM      5  C03 DNY d   1     -29.026  23.056   5.745  0.00  0.00    -0.061 A 
ATOM      6 CL1  DNY d   1     -26.581  23.691   6.647  0.00  0.00    -0.084 Cl
ATOM      7  C04 DNY d   1     -29.936  22.560   4.813  0.00  0.00    -0.081 A 
ATOM      8  H9  DNY d   1     -29.372  23.437   6.699  0.00  0.00     0.086 H 
ATOM      9  C05 DNY d   1     -29.451  22.079   3.598  0.00  0.00    -0.082 A 
ATOM     10  H10 DNY d   1     -30.998  22.549   5.029  0.00  0.00     0.083 H 
ATOM     11  C06 DNY d   1     -28.081  22.095   3.324  0.00  0.00    -0.072 A 
ATOM     12  H11 DNY d   1     -30.142  21.689   2.860  0.00  0.00     0.083 H 
ATOM     13  H12 DNY d   1     -27.739  21.709   2.370  0.00  0.00     0.084 H 
ENDBRANCH   1   3
BRANCH   1  14
ATOM     14  C19 DNY d   1     -24.951  21.221   4.120  0.00  0.00     0.046 A 
ATOM     15  C21 DNY d   1     -24.664  20.188   3.255  0.00  0.00    -0.028 A 
ATOM     16  C22 DNY d   1     -24.063  19.105   3.965  0.00  0.00     0.086 A 
ATOM     17  H7  DNY d   1     -24.866  20.196   2.185  0.00  0.00     0.090 H 
ATOM     18  C23 DNY d   1     -23.991  19.517   5.326  0.00  0.00     0.078 A 
ATOM     19  N30 DNY d   1     -23.591  17.861   3.594  0.00  0.00    -0.259 NA
ATOM     20  C24 DNY d   1     -23.447  18.698   6.354  0.00  0.00     0.071 A 
ATOM     21  N20 DNY d   1     -24.546  20.841   5.440  0.00  0.00    -0.354 N 
ATOM     22  C28 DNY d   1     -22.987  17.462   5.934  0.00  0.00    -0.047 A 
ATOM     23  C29 DNY d   1     -23.078  17.088   4.555  0.00  0.00     0.004 A 
ATOM     24  H8  DNY d   1     -22.556  16.774   6.652  0.00  0.00     0.087 H 
ATOM     25  H24 DNY d   1     -22.705  16.110   4.271  0.00  0.00     0.114 H 
ATOM     26  H26 DNY d   1     -24.634  21.402   6.299  0.00  0.00     0.166 HD
BRANCH  20  27
ATOM     27  C25 DNY d   1     -23.371  19.148   7.819  0.00  0.00     0.211 C 
ATOM     28  O26 DNY d   1     -24.076  20.122   8.155  0.00  0.00    -0.644 OA
ATOM     29  O27 DNY d   1     -22.615  18.503   8.559  0.00  0.00    -0.644 OA
ENDBRANCH  20  27
ENDBRANCH   1  14
BRANCH   1  30
ATOM     30  O09 DNY d   1     -25.412  23.093   2.603  0.00  0.00    -0.375 OA
BRANCH  30  31
ATOM     31  C10 DNY d   1     -24.111  23.436   2.122  0.00  0.00     0.022 C 
ATOM     32  H1  DNY d   1     -23.971  24.523   2.215  0.00  0.00     0.074 H 
ATOM     33  H2  DNY d   1     -23.357  22.916   2.730  0.00  0.00     0.074 H 
BRANCH  31  34
ATOM     34  C11 DNY d   1     -23.926  23.024   0.618  0.00  0.00    -0.022 C 
ATOM     35  H14 DNY d   1     -23.163  22.233   0.572  0.00  0.00     0.038 H 
ATOM     36  H15 DNY d   1     -23.575  23.906   0.063  0.00  0.00     0.038 H 
BRANCH  34  37
ATOM     37  C12 DNY d   1     -25.218  22.493  -0.082  0.00  0.00     0.085 C 
ATOM     38  H16 DNY d   1     -26.066  23.114   0.241  0.00  0.00     0.076 H 
ATOM     39  H17 DNY d   1     -25.382  21.453   0.238  0.00  0.00     0.076 H 
BRANCH  37  40
ATOM     40  N13 DNY d   1     -25.159  22.520  -1.586  0.00  0.00    -0.071 N 
ATOM     41  C14 DNY d   1     -25.774  21.254  -2.152  0.00  0.00     0.084 C 
ATOM     42  C15 DNY d   1     -26.429  21.396  -3.527  0.00  0.00    -0.042 C 
ATOM     43  H18 DNY d   1     -24.979  20.498  -2.232  0.00  0.00     0.076 H 
ATOM     44  H19 DNY d   1     -26.542  20.905  -1.446  0.00  0.00     0.076 H 
ATOM     45  C16 DNY d   1     -25.787  22.503  -4.322  0.00  0.00    -0.062 C 
ATOM     46  H3  DNY d   1     -27.497  21.622  -3.394  0.00  0.00     0.035 H 
ATOM     47  H4  DNY d   1     -26.320  20.449  -4.076  0.00  0.00     0.035 H 
ATOM     48  C17 DNY d   1     -26.037  23.839  -3.663  0.00  0.00    -0.042 C 
ATOM     49  H20 DNY d   1     -26.212  22.514  -5.336  0.00  0.00     0.033 H 
ATOM     50  H21 DNY d   1     -24.703  22.325  -4.381  0.00  0.00     0.033 H 
ATOM     51  C18 DNY d   1     -25.779  23.794  -2.145  0.00  0.00     0.084 C 
ATOM     52  H5  DNY d   1     -27.084  24.130  -3.836  0.00  0.00     0.035 H 
ATOM     53  H6  DNY d   1     -25.369  24.587  -4.114  0.00  0.00     0.035 H 
ATOM     54  H22 DNY d   1     -26.745  23.942  -1.640  0.00  0.00     0.076 H 
ATOM     55  H23 DNY d   1     -25.104  24.627  -1.898  0.00  0.00     0.076 H 
ATOM     56  H25 DNY d   1     -24.187  22.525  -1.853  0.00  0.00     0.279 HD
ENDBRANCH  37  40
ENDBRANCH  34  37
ENDBRANCH  31  34
ENDBRANCH  30  31
ENDBRANCH   1  30
TORSDOF 8
