REMARK  17 active torsions:
REMARK  status: ('A' for Active; 'I' for Inactive)
REMARK    1  A    between atoms: C1_1  and  O1_2 
REMARK    2  A    between atoms: O1_2  and  P_12 
REMARK    3  A    between atoms: C2_3  and  O2_4 
REMARK    4  A    between atoms: C3_5  and  O3_6 
REMARK    5  A    between atoms: C4_7  and  O4_8 
REMARK    6  A    between atoms: C5_9  and  C6_11 
REMARK    7  A    between atoms: P_12  and  N_15 
REMARK    8  A    between atoms: N_15  and  CA_16 
REMARK    9  A    between atoms: CA_16  and  C_17 
REMARK   10  A    between atoms: CA_16  and  CB_19 
REMARK       I    between atoms: C_17  and  N1_23 
REMARK   11  A    between atoms: CB_19  and  CG_20 
REMARK   12  A    between atoms: CG_20  and  CD1_21 
REMARK   13  A    between atoms: CG_20  and  CD2_22 
REMARK   14  A    between atoms: N1_23  and  CA1_24 
REMARK   15  A    between atoms: CA1_24  and  C7_25 
REMARK   16  A    between atoms: CA1_24  and  CB1_27 
REMARK   17  A    between atoms: CB1_27  and  CG1_28 
ROOT
ATOM      1  CA  RDF d   1      -1.888  18.494 -39.578  0.00  0.00     0.093 C 
ATOM      2  H13 RDF d   1      -2.932  18.193 -39.404  0.00  0.00     0.087 H 
ENDROOT
BRANCH   1   3
ATOM      3  N   RDF d   1      -1.358  17.767 -40.714  0.00  0.00    -0.312 N 
ATOM      4  H12 RDF d   1      -0.419  17.423 -40.695  0.00  0.00     0.166 HD
BRANCH   3   5
ATOM      5  P   RDF d   1      -2.348  17.496 -42.096  0.00  0.00     0.362 P 
ATOM      6  O1P RDF d   1      -3.265  18.675 -42.297  0.00  0.00    -0.630 OA
ATOM      7  O2P RDF d   1      -3.138  16.303 -41.895  0.00  0.00    -0.630 OA
BRANCH   5   8
ATOM      8  O1  RDF d   1      -1.399  17.307 -43.429  0.00  0.00    -0.261 OA
BRANCH   8   9
ATOM      9  C1  RDF d   1      -0.513  18.330 -43.757  0.00  0.00     0.170 C 
ATOM     10  C2  RDF d   1       0.537  17.789 -44.688  0.00  0.00     0.110 C 
ATOM     11  C3  RDF d   1      -0.032  17.423 -46.027  0.00  0.00     0.092 C 
ATOM     12  H2  RDF d   1       0.983  16.891 -44.236  0.00  0.00     0.094 H 
ATOM     13  C4  RDF d   1      -0.797  18.546 -46.634  0.00  0.00     0.087 C 
ATOM     14  H4  RDF d   1      -0.704  16.561 -45.904  0.00  0.00     0.091 H 
ATOM     15  C5  RDF d   1      -1.851  19.093 -45.690  0.00  0.00     0.065 C 
ATOM     16  H6  RDF d   1      -0.096  19.354 -46.892  0.00  0.00     0.091 H 
ATOM     17  O5  RDF d   1      -1.282  19.456 -44.370  0.00  0.00    -0.350 OA
ATOM     18  H8  RDF d   1      -2.627  18.328 -45.542  0.00  0.00     0.086 H 
ATOM     19  H1  RDF d   1      -0.021  18.694 -42.843  0.00  0.00     0.134 H 
BRANCH  10  20
ATOM     20  O2  RDF d   1       1.561  18.795 -44.870  0.00  0.00    -0.388 OA
ATOM     21  H3  RDF d   1       2.229  18.462 -45.457  0.00  0.00     0.210 HD
ENDBRANCH  10  20
BRANCH  11  22
ATOM     22  O3  RDF d   1       1.067  17.063 -46.927  0.00  0.00    -0.390 OA
ATOM     23  H5  RDF d   1       1.655  17.803 -47.019  0.00  0.00     0.210 HD
ENDBRANCH  11  22
BRANCH  13  24
ATOM     24  O4  RDF d   1      -1.472  18.065 -47.864  0.00  0.00    -0.390 OA
ATOM     25  H7  RDF d   1      -0.820  17.752 -48.480  0.00  0.00     0.210 HD
ENDBRANCH  13  24
BRANCH  15  26
ATOM     26  C6  RDF d   1      -2.470  20.323 -46.318  0.00  0.00    -0.050 C 
ATOM     27  H9  RDF d   1      -3.237  20.732 -45.644  0.00  0.00     0.031 H 
ATOM     28  H10 RDF d   1      -2.932  20.051 -47.278  0.00  0.00     0.031 H 
ATOM     29  H11 RDF d   1      -1.690  21.080 -46.488  0.00  0.00     0.031 H 
ENDBRANCH  15  26
ENDBRANCH   8   9
ENDBRANCH   5   8
ENDBRANCH   3   5
ENDBRANCH   1   3
BRANCH   1  30
ATOM     30  C   RDF d   1      -1.832  19.979 -39.860  0.00  0.00     0.241 C 
ATOM     31  O   RDF d   1      -2.749  20.700 -39.510  0.00  0.00    -0.271 OA
ATOM     32  N1  RDF d   1      -0.640  20.566 -40.574  0.00  0.00    -0.344 N 
ATOM     33  H23 RDF d   1       0.114  19.975 -40.861  0.00  0.00     0.163 HD
BRANCH  32  34
ATOM     34  CA1 RDF d   1      -0.591  21.959 -40.837  0.00  0.00     0.100 C 
ATOM     35  H24 RDF d   1      -1.587  22.310 -41.145  0.00  0.00     0.090 H 
BRANCH  34  36
ATOM     36  C7  RDF d   1       0.445  22.235 -41.991  0.00  0.00     0.197 C 
ATOM     37  O6  RDF d   1       0.633  21.367 -42.891  0.00  0.00    -0.646 OA
ATOM     38  OXT RDF d   1       1.110  23.359 -42.019  0.00  0.00    -0.646 OA
ENDBRANCH  34  36
BRANCH  34  39
ATOM     39  CB1 RDF d   1      -0.159  22.701 -39.580  0.00  0.00    -0.011 C 
ATOM     40  H25 RDF d   1      -0.657  22.260 -38.704  0.00  0.00     0.044 H 
ATOM     41  H26 RDF d   1      -0.438  23.762 -39.666  0.00  0.00     0.044 H 
BRANCH  39  42
ATOM     42  CG1 RDF d   1       1.400  22.580 -39.413  0.00  0.00    -0.028 A 
ATOM     43  CD1 RDF d   1       2.107  21.441 -39.057  0.00  0.00    -0.015 A 
ATOM     44  NE1 RDF d   1       3.442  21.771 -39.025  0.00  0.00    -0.365 N 
ATOM     45  H27 RDF d   1       1.682  20.462 -38.842  0.00  0.00     0.112 H 
ATOM     46  CE2 RDF d   1       3.563  23.108 -39.359  0.00  0.00     0.042 A 
ATOM     47  H28 RDF d   1       4.217  21.133 -38.793  0.00  0.00     0.165 HD
ATOM     48  CD2 RDF d   1       2.296  23.607 -39.599  0.00  0.00    -0.002 A 
ATOM     49  CZ2 RDF d   1       4.683  23.951 -39.478  0.00  0.00    -0.056 A 
ATOM     50  CE3 RDF d   1       2.120  24.957 -39.962  0.00  0.00    -0.070 A 
ATOM     51  CZ3 RDF d   1       3.239  25.799 -40.081  0.00  0.00    -0.082 A 
ATOM     52  H29 RDF d   1       1.125  25.345 -40.149  0.00  0.00     0.084 H 
ATOM     53  CH2 RDF d   1       4.509  25.303 -39.842  0.00  0.00    -0.081 A 
ATOM     54  H31 RDF d   1       3.107  26.838 -40.360  0.00  0.00     0.083 H 
ATOM     55  H32 RDF d   1       5.371  25.954 -39.935  0.00  0.00     0.083 H 
ATOM     56  H30 RDF d   1       5.678  23.563 -39.290  0.00  0.00     0.086 H 
ENDBRANCH  39  42
ENDBRANCH  34  39
ENDBRANCH  32  34
ENDBRANCH   1  30
BRANCH   1  57
ATOM     57  CB  RDF d   1      -1.053  18.177 -38.337  0.00  0.00    -0.035 C 
ATOM     58  H14 RDF d   1       0.015  18.179 -38.602  0.00  0.00     0.037 H 
ATOM     59  H15 RDF d   1      -1.333  17.186 -37.950  0.00  0.00     0.037 H 
BRANCH  57  60
ATOM     60  CG  RDF d   1      -1.320  19.258 -37.243  0.00  0.00    -0.059 C 
ATOM     61  H16 RDF d   1      -1.469  20.237 -37.722  0.00  0.00     0.038 H 
BRANCH  60  62
ATOM     62  CD1 RDF d   1      -0.147  19.329 -36.321  0.00  0.00    -0.073 C 
ATOM     63  H17 RDF d   1      -0.333  20.090 -35.549  0.00  0.00     0.028 H 
ATOM     64  H18 RDF d   1       0.753  19.599 -36.893  0.00  0.00     0.028 H 
ATOM     65  H19 RDF d   1       0.003  18.350 -35.842  0.00  0.00     0.028 H 
ENDBRANCH  60  62
BRANCH  60  66
ATOM     66  CD2 RDF d   1      -2.600  18.874 -36.436  0.00  0.00    -0.073 C 
ATOM     67  H20 RDF d   1      -3.462  18.823 -37.118  0.00  0.00     0.028 H 
ATOM     68  H21 RDF d   1      -2.788  19.634 -35.664  0.00  0.00     0.028 H 
ATOM     69  H22 RDF d   1      -2.452  17.895 -35.958  0.00  0.00     0.028 H 
ENDBRANCH  60  66
ENDBRANCH  57  60
ENDBRANCH   1  57
TORSDOF 17
