REMARK WARNING: 32 MAX_TORS EXCEEDED!!!
REMARK  51 active torsions:
REMARK  status: ('A' for Active; 'I' for Inactive)
REMARK    1  A    between atoms: CA_2  and  N_1 
REMARK    2  A    between atoms: C_3  and  CA_2 
REMARK    3  A    between atoms: CA_2  and  CB_5 
REMARK       I    between atoms: N_6  and  C_3 
REMARK    4  A    between atoms: CA_7  and  N_6 
REMARK    5  A    between atoms: C_8  and  CA_7 
REMARK    6  A    between atoms: CA_7  and  CB_10 
REMARK       I    between atoms: N_17  and  C_8 
REMARK    7  A    between atoms: CB_10  and  CG_11 
REMARK    8  A    between atoms: CG_11  and  CD_12 
REMARK    9  A    between atoms: CD_12  and  NE_13 
REMARK       I    between atoms: NE_13  and  CZ_14 
REMARK       I    between atoms: CZ_14  and  NH1_15 
REMARK   10  A    between atoms: CA_18  and  N_17 
REMARK   11  A    between atoms: CA_18  and  CB_19 
REMARK   12  A    between atoms: C_26  and  CA_18 
REMARK   13  A    between atoms: CB_19  and  CG_20 
REMARK   14  A    between atoms: CG_20  and  CD_21 
REMARK   15  A    between atoms: CD_21  and  CE_22 
REMARK   16  A    between atoms: CE_22  and  NZ_23 
REMARK   17  A    between atoms: NZ_23  and  CH1_24 
REMARK   18  A    between atoms: NZ_23  and  CH2_25 
REMARK       I    between atoms: N_28  and  C_26 
REMARK   19  A    between atoms: CA_29  and  N_28 
REMARK   20  A    between atoms: C_30  and  CA_29 
REMARK   21  A    between atoms: CA_29  and  CB_32 
REMARK       I    between atoms: N_34  and  C_30 
REMARK   22  A    between atoms: CB_32  and  OG_33 
REMARK   23  A    between atoms: CA_35  and  N_34 
REMARK   24  A    between atoms: C_36  and  CA_35 
REMARK   25  A    between atoms: CA_35  and  CB_38 
REMARK       I    between atoms: N_41  and  C_36 
REMARK   26  A    between atoms: CB_38  and  OG1_39 
REMARK   27  A    between atoms: CB_38  and  CG2_40 
REMARK   28  A    between atoms: CA_42  and  N_41 
REMARK   29  A    between atoms: C_43  and  CA_42 
REMARK       I    between atoms: N_45  and  C_43 
REMARK   30  A    between atoms: CA_46  and  N_45 
REMARK   31  A    between atoms: C_47  and  CA_46 
REMARK       I    between atoms: N_58  and  C_47 
REMARK   32  A    between atoms: CH_50  and  CH3_51 
REMARK       I    between atoms: NZ_52  and  CH_50 
REMARK   33  A    between atoms: CE_53  and  NZ_52 
REMARK   34  A    between atoms: CD_54  and  CE_53 
REMARK   35  A    between atoms: CG_55  and  CD_54 
REMARK   36  A    between atoms: CB_56  and  CG_55 
REMARK   37  A    between atoms: CA_57  and  CB_56 
REMARK   38  A    between atoms: CA_57  and  N_58 
REMARK   39  A    between atoms: CA_57  and  C_59 
REMARK       I    between atoms: C_59  and  N_61 
REMARK   40  A    between atoms: N_61  and  CA_62 
REMARK   41  A    between atoms: CA_62  and  C_63 
REMARK   42  A    between atoms: CA_62  and  CB_65 
REMARK       I    between atoms: C_63  and  N_66 
REMARK   43  A    between atoms: CA_67  and  C_68 
REMARK       I    between atoms: C_68  and  N_73 
REMARK   44  A    between atoms: N_73  and  CA_74 
REMARK   45  A    between atoms: CA_74  and  C_75 
REMARK   46  A    between atoms: CA_74  and  CB_77 
REMARK       I    between atoms: C_75  and  N_80 
REMARK   47  A    between atoms: CB_77  and  CG_78 
REMARK   48  A    between atoms: CG_78  and  CD_79 
REMARK   49  A    between atoms: N_80  and  CA_81 
REMARK   50  A    between atoms: CA_81  and  C_82 
REMARK   51  A    between atoms: CA_81  and  CB_84 
ROOT
ATOM      1  C   THR d   1      50.942  -4.302  58.399  0.00  0.00     0.243 C 
ATOM      2  O   THR d   1      50.389  -5.393  58.073  0.00  0.00    -0.271 OA
ATOM      3  N   GLY d   1      51.247  -3.373  57.507  0.00  0.00    -0.350 N 
ATOM      4  H50 GLY d   1      51.563  -2.479  57.824  0.00  0.00     0.163 HD
ENDROOT
BRANCH   3   5
ATOM      5  CA  GLY d   1      51.138  -3.610  56.120  0.00  0.00     0.069 C 
ATOM      6  H51 GLY d   1      50.773  -2.686  55.649  0.00  0.00     0.078 H 
ATOM      7  H52 GLY d   1      50.401  -4.413  55.973  0.00  0.00     0.078 H 
BRANCH   5   8
ATOM      8  C   GLY d   1      52.420  -4.020  55.408  0.00  0.00     0.235 C 
ATOM      9  O   GLY d   1      52.474  -4.109  54.180  0.00  0.00    -0.272 OA
ATOM     10  N   GLY d   1      53.475  -4.244  56.208  0.00  0.00    -0.351 N 
ATOM     11  H53 GLY d   1      53.401  -4.113  57.197  0.00  0.00     0.163 HD
BRANCH  10  12
ATOM     12  CA  GLY d   1      54.734  -4.683  55.608  0.00  0.00     0.069 C 
ATOM     13  H54 GLY d   1      54.510  -5.454  54.856  0.00  0.00     0.078 H 
ATOM     14  H55 GLY d   1      55.364  -5.114  56.400  0.00  0.00     0.078 H 
BRANCH  12  15
ATOM     15  C   GLY d   1      55.500  -3.580  54.941  0.00  0.00     0.236 C 
ATOM     16  O   GLY d   1      55.224  -2.416  55.086  0.00  0.00    -0.272 OA
ATOM     17  N   ALY d   1      56.506  -3.999  54.194  0.00  0.00    -0.346 N 
ATOM     18  H69 ALY d   1      56.609  -4.977  54.011  0.00  0.00     0.163 HD
BRANCH  17  19
ATOM     19  CA  ALY d   1      57.474  -3.053  53.628  0.00  0.00     0.089 C 
ATOM     20  H68 ALY d   1      57.441  -2.147  54.252  0.00  0.00     0.087 H 
BRANCH  19  21
ATOM     21  CB  ALY d   1      58.891  -3.641  53.706  0.00  0.00    -0.038 C 
ATOM     22  H66 ALY d   1      58.914  -4.574  53.123  0.00  0.00     0.036 H 
ATOM     23  H67 ALY d   1      59.593  -2.917  53.267  0.00  0.00     0.036 H 
BRANCH  21  24
ATOM     24  CG  ALY d   1      59.347  -3.953  55.148  0.00  0.00    -0.061 C 
ATOM     25  H64 ALY d   1      58.422  -4.101  55.724  0.00  0.00     0.033 H 
ATOM     26  H65 ALY d   1      59.895  -4.904  55.084  0.00  0.00     0.033 H 
BRANCH  24  27
ATOM     27  CD  ALY d   1      60.178  -3.078  55.963  0.00  0.00    -0.050 C 
ATOM     28  H62 ALY d   1      60.430  -3.615  56.889  0.00  0.00     0.035 H 
ATOM     29  H63 ALY d   1      61.099  -2.865  55.401  0.00  0.00     0.035 H 
BRANCH  27  30
ATOM     30  CE  ALY d   1      59.578  -1.817  56.329  0.00  0.00    -0.005 C 
ATOM     31  H60 ALY d   1      60.307  -1.269  56.943  0.00  0.00     0.064 H 
ATOM     32  H61 ALY d   1      59.387  -1.259  55.401  0.00  0.00     0.064 H 
BRANCH  30  33
ATOM     33  NZ  ALY d   1      58.260  -1.873  57.115  0.00  0.00    -0.361 N 
ATOM     34  CH  ALY d   1      57.450  -0.812  57.167  0.00  0.00     0.213 C 
ATOM     35  OH  ALY d   1      57.821   0.284  56.658  0.00  0.00    -0.274 OA
ATOM     36  H59 ALY d   1      58.005  -2.713  57.593  0.00  0.00     0.162 HD
BRANCH  34  37
ATOM     37  CH3 ALY d   1      56.158  -0.967  57.895  0.00  0.00    -0.003 C 
ATOM     38  H56 ALY d   1      56.056  -2.005  58.245  0.00  0.00     0.040 H 
ATOM     39  H57 ALY d   1      55.325  -0.725  57.219  0.00  0.00     0.040 H 
ATOM     40  H58 ALY d   1      56.140  -0.286  58.758  0.00  0.00     0.040 H 
ENDBRANCH  34  37
ENDBRANCH  30  33
ENDBRANCH  27  30
ENDBRANCH  24  27
ENDBRANCH  21  24
ENDBRANCH  19  21
BRANCH  19  41
ATOM     41  C   ALY d   1      57.210  -2.637  52.239  0.00  0.00     0.241 C 
ATOM     42  O   ALY d   1      57.769  -1.634  51.757  0.00  0.00    -0.271 OA
ATOM     43  N   ALA d   1      56.355  -3.378  51.533  0.00  0.00    -0.346 N 
ATOM     44  H70 ALA d   1      55.910  -4.153  51.981  0.00  0.00     0.163 HD
BRANCH  43  45
ATOM     45  CA  ALA d   1      56.041  -3.104  50.128  0.00  0.00     0.086 C 
ATOM     46  H71 ALA d   1      56.270  -2.050  49.911  0.00  0.00     0.086 H 
BRANCH  45  47
ATOM     47  C   ALA d   1      54.563  -3.358  49.894  0.00  0.00     0.243 C 
ATOM     48  O   ALA d   1      53.950  -4.099  50.636  0.00  0.00    -0.271 OA
ATOM     49  N   PRO d   1      54.000  -2.767  48.811  0.00  0.00    -0.337 N 
ATOM     50  CA  PRO d   1      52.578  -3.047  48.563  0.00  0.00     0.091 C 
ATOM     51  CD  PRO d   1      54.566  -1.775  47.889  0.00  0.00    -0.001 C 
ATOM     52  CB  PRO d   1      52.299  -2.276  47.287  0.00  0.00    -0.036 C 
ATOM     53  H75 PRO d   1      51.966  -2.657  49.390  0.00  0.00     0.087 H 
ATOM     54  CG  PRO d   1      53.283  -1.152  47.313  0.00  0.00    -0.048 C 
ATOM     55  H76 PRO d   1      51.268  -1.892  47.281  0.00  0.00     0.036 H 
ATOM     56  H77 PRO d   1      52.458  -2.913  46.404  0.00  0.00     0.036 H 
ATOM     57  H78 PRO d   1      52.924  -0.336  47.958  0.00  0.00     0.035 H 
ATOM     58  H79 PRO d   1      53.460  -0.767  46.298  0.00  0.00     0.035 H 
ATOM     59  H80 PRO d   1      55.172  -2.251  47.104  0.00  0.00     0.064 H 
ATOM     60  H81 PRO d   1      55.175  -1.029  48.421  0.00  0.00     0.064 H 
BRANCH  50  61
ATOM     61  C   PRO d   1      52.285  -4.494  48.403  0.00  0.00     0.241 C 
ATOM     62  O   PRO d   1      53.093  -5.232  47.878  0.00  0.00    -0.271 OA
ATOM     63  N   ARG d   1      51.072  -4.881  48.816  0.00  0.00    -0.346 N 
ATOM     64  H82 ARG d   1      50.485  -4.235  49.304  0.00  0.00     0.163 HD
BRANCH  63  65
ATOM     65  CA  ARG d   1      50.590  -6.264  48.555  0.00  0.00     0.089 C 
ATOM     66  H83 ARG d   1      51.214  -6.996  49.089  0.00  0.00     0.087 H 
BRANCH  65  67
ATOM     67  C   ARG d   1      50.607  -6.544  47.045  0.00  0.00     0.241 C 
ATOM     68  O   ARG d   1      50.219  -5.678  46.217  0.00  0.00    -0.271 OA
ATOM     69  N   LYS d   1      51.103  -7.732  46.700  0.00  0.00    -0.345 N 
ATOM     70  H91 LYS d   1      51.392  -8.368  47.415  0.00  0.00     0.163 HD
BRANCH  69  71
ATOM     71  CA  LYS d   1      51.234  -8.127  45.287  0.00  0.00     0.093 C 
ATOM     72  H92 LYS d   1      51.786  -7.338  44.755  0.00  0.00     0.089 H 
BRANCH  71  73
ATOM     73  C   LYS d   1      49.873  -8.310  44.605  0.00  0.00     0.196 C 
ATOM     74  O   LYS d   1      48.955  -8.726  45.272  0.00  0.00    -0.646 OA
ATOM     75  OXT LYS d   1      49.783  -8.030  43.433  0.00  0.00    -0.646 OA
ENDBRANCH  71  73
BRANCH  71  76
ATOM     76  CB  LYS d   1      52.024  -9.432  45.202  0.00  0.00    -0.048 C 
ATOM     77  H93 LYS d   1      52.125  -9.732  44.148  0.00  0.00     0.030 H 
ATOM     78  H94 LYS d   1      51.493 -10.219  45.758  0.00  0.00     0.030 H 
ATOM     79  H95 LYS d   1      53.023  -9.285  45.639  0.00  0.00     0.030 H 
ENDBRANCH  71  76
ENDBRANCH  69  71
ENDBRANCH  65  67
BRANCH  65  80
ATOM     80  CB  ARG d   1      49.141  -6.340  49.022  0.00  0.00    -0.038 C 
ATOM     81  H84 ARG d   1      48.537  -5.713  48.350  0.00  0.00     0.036 H 
ATOM     82  H85 ARG d   1      49.094  -5.934  50.043  0.00  0.00     0.036 H 
BRANCH  80  83
ATOM     83  CG  ARG d   1      48.514  -7.750  49.045  0.00  0.00    -0.066 C 
ATOM     84  H86 ARG d   1      49.024  -8.351  49.812  0.00  0.00     0.032 H 
ATOM     85  H87 ARG d   1      48.657  -8.216  48.059  0.00  0.00     0.032 H 
BRANCH  83  86
ATOM     86  CD  ARG d   1      47.010  -7.717  49.363  0.00  0.00    -0.076 C 
ATOM     87  H88 ARG d   1      46.614  -8.743  49.367  0.00  0.00     0.027 H 
ATOM     88  H89 ARG d   1      46.486  -7.125  48.598  0.00  0.00     0.027 H 
ATOM     89  H90 ARG d   1      46.854  -7.260  50.351  0.00  0.00     0.027 H 
ENDBRANCH  83  86
ENDBRANCH  80  83
ENDBRANCH  65  80
ENDBRANCH  63  65
ENDBRANCH  50  61
ENDBRANCH  45  47
BRANCH  45  90
ATOM     90  CB  ALA d   1      56.838  -3.978  49.197  0.00  0.00    -0.049 C 
ATOM     91  H72 ALA d   1      56.574  -3.741  48.156  0.00  0.00     0.030 H 
ATOM     92  H73 ALA d   1      56.611  -5.035  49.402  0.00  0.00     0.030 H 
ATOM     93  H74 ALA d   1      57.912  -3.796  49.353  0.00  0.00     0.030 H 
ENDBRANCH  45  90
ENDBRANCH  43  45
ENDBRANCH  19  41
ENDBRANCH  17  19
ENDBRANCH  12  15
ENDBRANCH  10  12
ENDBRANCH   5   8
ENDBRANCH   3   5
BRANCH   1  94
ATOM     94  CA  THR d   1      51.360  -4.025  59.808  0.00  0.00     0.113 C 
ATOM     95  H44 THR d   1      51.516  -2.940  59.898  0.00  0.00     0.091 H 
BRANCH  94  96
ATOM     96  N   THR d   1      50.368  -4.398  60.796  0.00  0.00    -0.344 N 
ATOM     97  C   SER d   1      49.196  -3.762  60.796  0.00  0.00     0.243 C 
ATOM     98  O   SER d   1      48.858  -3.011  59.874  0.00  0.00    -0.271 OA
ATOM     99  H43 THR d   1      50.558  -5.117  61.464  0.00  0.00     0.163 HD
BRANCH  97 100
ATOM    100  CA  SER d   1      48.289  -4.013  61.978  0.00  0.00     0.109 C 
ATOM    101  H39 SER d   1      48.913  -4.177  62.868  0.00  0.00     0.090 H 
BRANCH 100 102
ATOM    102  N   SER d   1      47.463  -2.828  62.191  0.00  0.00    -0.344 N 
ATOM    103  C   MLY d   1      48.013  -1.647  62.502  0.00  0.00     0.241 C 
ATOM    104  O   MLY d   1      49.216  -1.519  62.649  0.00  0.00    -0.271 OA
ATOM    105  H38 SER d   1      46.469  -2.899  62.103  0.00  0.00     0.163 HD
BRANCH 103 106
ATOM    106  CA  MLY d   1      47.113  -0.441  62.646  0.00  0.00     0.089 C 
ATOM    107  H22 MLY d   1      46.124  -0.796  62.972  0.00  0.00     0.087 H 
BRANCH 106 108
ATOM    108  N   MLY d   1      47.629   0.449  63.718  0.00  0.00    -0.346 N 
ATOM    109  C   ARG d   1      47.345   0.238  64.970  0.00  0.00     0.241 C 
ATOM    110  O   ARG d   1      46.597  -0.692  65.283  0.00  0.00    -0.271 OA
ATOM    111  H21 MLY d   1      48.207   1.227  63.472  0.00  0.00     0.163 HD
BRANCH 109 112
ATOM    112  CA  ARG d   1      48.102   1.041  66.004  0.00  0.00     0.089 C 
ATOM    113  H9  ARG d   1      48.595   1.869  65.473  0.00  0.00     0.087 H 
BRANCH 112 114
ATOM    114  N   ARG d   1      47.272   1.629  67.057  0.00  0.00    -0.346 N 
ATOM    115  C   ALA d   1      46.703   2.824  66.934  0.00  0.00     0.248 C 
ATOM    116  O   ALA d   1      46.604   3.436  65.879  0.00  0.00    -0.271 OA
ATOM    117  H8  ARG d   1      47.128   1.112  67.901  0.00  0.00     0.163 HD
BRANCH 115 118
ATOM    118  CA  ALA d   1      46.154   3.453  68.206  0.00  0.00     0.172 C 
ATOM    119  H4  ALA d   1      45.516   2.725  68.729  0.00  0.00     0.098 H 
BRANCH 118 120
ATOM    120  N   ALA d   1      47.300   3.835  69.094  0.00  0.00    -0.067 N 
ATOM    121  H1  ALA d   1      46.945   4.253  69.940  0.00  0.00     0.275 HD
ATOM    122  H2  ALA d   1      47.891   4.497  68.615  0.00  0.00     0.275 HD
ATOM    123  H3  ALA d   1      47.835   3.013  69.325  0.00  0.00     0.275 HD
ENDBRANCH 118 120
BRANCH 118 124
ATOM    124  CB  ALA d   1      45.325   4.681  67.850  0.00  0.00    -0.042 C 
ATOM    125  H5  ALA d   1      44.490   4.383  67.199  0.00  0.00     0.030 H 
ATOM    126  H6  ALA d   1      45.958   5.411  67.324  0.00  0.00     0.030 H 
ATOM    127  H7  ALA d   1      44.929   5.135  68.770  0.00  0.00     0.030 H 
ENDBRANCH 118 124
ENDBRANCH 115 118
ENDBRANCH 112 114
BRANCH 112 128
ATOM    128  CB  ARG d   1      49.159   0.195  66.644  0.00  0.00    -0.036 C 
ATOM    129  H10 ARG d   1      48.668  -0.690  67.076  0.00  0.00     0.036 H 
ATOM    130  H11 ARG d   1      49.623   0.785  67.448  0.00  0.00     0.036 H 
BRANCH 128 131
ATOM    131  CG  ARG d   1      50.263  -0.288  65.725  0.00  0.00    -0.048 C 
ATOM    132  H12 ARG d   1      50.830   0.585  65.369  0.00  0.00     0.035 H 
ATOM    133  H13 ARG d   1      49.805  -0.802  64.867  0.00  0.00     0.035 H 
BRANCH 131 134
ATOM    134  CD  ARG d   1      51.225  -1.244  66.403  0.00  0.00     0.009 C 
ATOM    135  H14 ARG d   1      51.816  -1.751  65.626  0.00  0.00     0.064 H 
ATOM    136  H15 ARG d   1      50.639  -1.988  66.962  0.00  0.00     0.064 H 
BRANCH 134 137
ATOM    137  NE  ARG d   1      52.144  -0.593  67.328  0.00  0.00    -0.227 N 
ATOM    138  CZ  ARG d   1      52.790  -1.239  68.293  0.00  0.00     0.665 C 
ATOM    139  NH1 ARG d   1      52.621  -2.520  68.433  0.00  0.00    -0.235 N 
ATOM    140  NH2 ARG d   1      53.608  -0.602  69.091  0.00  0.00    -0.235 N 
ATOM    141  H17 ARG d   1      53.119  -3.027  69.179  0.00  0.00     0.174 HD
ATOM    142  H18 ARG d   1      51.989  -3.029  67.798  0.00  0.00     0.174 HD
ATOM    143  H19 ARG d   1      53.745   0.413  68.984  0.00  0.00     0.174 HD
ATOM    144  H20 ARG d   1      54.115  -1.116  69.826  0.00  0.00     0.174 HD
ATOM    145  H16 ARG d   1      52.301   0.420  67.229  0.00  0.00     0.177 HD
ENDBRANCH 134 137
ENDBRANCH 131 134
ENDBRANCH 128 131
ENDBRANCH 112 128
ENDBRANCH 109 112
ENDBRANCH 106 108
BRANCH 106 146
ATOM    146  CB  MLY d   1      46.919   0.227  61.316  0.00  0.00    -0.038 C 
ATOM    147  H23 MLY d   1      47.836   0.110  60.720  0.00  0.00     0.036 H 
ATOM    148  H24 MLY d   1      46.721   1.297  61.478  0.00  0.00     0.036 H 
BRANCH 146 149
ATOM    149  CG  MLY d   1      45.733  -0.392  60.540  0.00  0.00    -0.061 C 
ATOM    150  H25 MLY d   1      44.871  -0.494  61.216  0.00  0.00     0.033 H 
ATOM    151  H26 MLY d   1      46.024  -1.384  60.164  0.00  0.00     0.033 H 
BRANCH 149 152
ATOM    152  CD  MLY d   1      45.349   0.487  59.376  0.00  0.00    -0.042 C 
ATOM    153  H27 MLY d   1      46.207   0.561  58.691  0.00  0.00     0.035 H 
ATOM    154  H28 MLY d   1      45.097   1.488  59.757  0.00  0.00     0.035 H 
BRANCH 152 155
ATOM    155  CE  MLY d   1      44.111  -0.077  58.577  0.00  0.00     0.083 C 
ATOM    156  H29 MLY d   1      43.437  -0.549  59.307  0.00  0.00     0.075 H 
ATOM    157  H30 MLY d   1      44.490  -0.840  57.881  0.00  0.00     0.075 H 
BRANCH 155 158
ATOM    158  NZ  MLY d   1      43.319   0.860  57.801  0.00  0.00    -0.079 N 
ATOM    159  H31 MLY d   1      43.024   1.635  58.374  0.00  0.00     0.278 HD
BRANCH 158 160
ATOM    160  CH1 MLY d   1      44.114   1.323  56.665  0.00  0.00     0.066 C 
ATOM    161  H32 MLY d   1      43.523   2.034  56.069  0.00  0.00     0.068 H 
ATOM    162  H33 MLY d   1      44.393   0.463  56.038  0.00  0.00     0.068 H 
ATOM    163  H34 MLY d   1      45.024   1.820  57.032  0.00  0.00     0.068 H 
ENDBRANCH 158 160
BRANCH 158 164
ATOM    164  CH2 MLY d   1      42.133   0.125  57.236  0.00  0.00     0.066 C 
ATOM    165  H35 MLY d   1      41.504  -0.243  58.059  0.00  0.00     0.068 H 
ATOM    166  H36 MLY d   1      42.482  -0.726  56.633  0.00  0.00     0.068 H 
ATOM    167  H37 MLY d   1      41.547   0.807  56.603  0.00  0.00     0.068 H 
ENDBRANCH 158 164
ENDBRANCH 155 158
ENDBRANCH 152 155
ENDBRANCH 149 152
ENDBRANCH 146 149
ENDBRANCH 106 146
ENDBRANCH 103 106
ENDBRANCH 100 102
BRANCH 100 168
ATOM    168  CB  SER d   1      47.404  -5.247  61.781  0.00  0.00     0.044 C 
ATOM    169  H40 SER d   1      46.767  -5.372  62.669  0.00  0.00     0.077 H 
ATOM    170  H41 SER d   1      48.048  -6.131  61.665  0.00  0.00     0.077 H 
BRANCH 168 171
ATOM    171  OG  SER d   1      46.566  -5.130  60.623  0.00  0.00    -0.398 OA
ATOM    172  H42 SER d   1      47.109  -5.028  59.850  0.00  0.00     0.209 HD
ENDBRANCH 168 171
ENDBRANCH 100 168
ENDBRANCH  97 100
ENDBRANCH  94  96
BRANCH  94 173
ATOM    173  CB  THR d   1      52.704  -4.724  60.089  0.00  0.00     0.060 C 
ATOM    174  H45 THR d   1      52.983  -4.522  61.134  0.00  0.00     0.086 H 
BRANCH 173 175
ATOM    175  OG1 THR d   1      53.683  -4.207  59.230  0.00  0.00    -0.393 OA
ATOM    176  H46 THR d   1      53.772  -3.273  59.379  0.00  0.00     0.210 HD
ENDBRANCH 173 175
BRANCH 173 177
ATOM    177  CG2 THR d   1      52.685  -6.239  59.871  0.00  0.00    -0.050 C 
ATOM    178  H47 THR d   1      53.679  -6.654  60.093  0.00  0.00     0.031 H 
ATOM    179  H48 THR d   1      52.423  -6.456  58.825  0.00  0.00     0.031 H 
ATOM    180  H49 THR d   1      51.940  -6.696  60.538  0.00  0.00     0.031 H 
ENDBRANCH 173 177
ENDBRANCH  94 173
ENDBRANCH   1  94
TORSDOF 51
