REMARK WARNING: 32 MAX_TORS EXCEEDED!!!
REMARK  51 active torsions:
REMARK  status: ('A' for Active; 'I' for Inactive)
REMARK    1  A    between atoms: CA_2  and  N_1 
REMARK    2  A    between atoms: C_3  and  CA_2 
REMARK    3  A    between atoms: CA_2  and  CB_5 
REMARK       I    between atoms: N_6  and  C_3 
REMARK    4  A    between atoms: CA_7  and  N_6 
REMARK    5  A    between atoms: C_8  and  CA_7 
REMARK    6  A    between atoms: CA_7  and  CB_10 
REMARK       I    between atoms: N_12  and  C_8 
REMARK    7  A    between atoms: CB_10  and  CG_11 
REMARK    8  A    between atoms: CA_13  and  N_12 
REMARK    9  A    between atoms: CA_13  and  CB_14 
REMARK   10  A    between atoms: C_19  and  CA_13 
REMARK   11  A    between atoms: CB_14  and  CG_15 
REMARK   12  A    between atoms: CG_15  and  CD_16 
REMARK   13  A    between atoms: CD_16  and  CE_17 
REMARK   14  A    between atoms: CE_17  and  NZ_18 
REMARK   15  A    between atoms: NZ_18  and  CM1_21 
REMARK   16  A    between atoms: NZ_18  and  CM2_22 
REMARK   17  A    between atoms: NZ_18  and  CM3_23 
REMARK       I    between atoms: N_24  and  C_19 
REMARK   18  A    between atoms: CA_25  and  N_24 
REMARK   19  A    between atoms: C_26  and  CA_25 
REMARK   20  A    between atoms: CA_25  and  CB_28 
REMARK       I    between atoms: N_30  and  C_26 
REMARK   21  A    between atoms: CB_28  and  OG_29 
REMARK   22  A    between atoms: CA_31  and  N_30 
REMARK   23  A    between atoms: C_32  and  CA_31 
REMARK   24  A    between atoms: CA_31  and  CB_34 
REMARK       I    between atoms: N_37  and  C_32 
REMARK   25  A    between atoms: CB_34  and  OG1_35 
REMARK   26  A    between atoms: CB_34  and  CG2_36 
REMARK   27  A    between atoms: CA_38  and  N_37 
REMARK   28  A    between atoms: C_39  and  CA_38 
REMARK       I    between atoms: N_41  and  C_39 
REMARK   29  A    between atoms: CA_42  and  N_41 
REMARK   30  A    between atoms: C_43  and  CA_42 
REMARK       I    between atoms: N_54  and  C_43 
REMARK   31  A    between atoms: CH_46  and  CH3_47 
REMARK       I    between atoms: NZ_48  and  CH_46 
REMARK   32  A    between atoms: CE_49  and  NZ_48 
REMARK   33  A    between atoms: CD_50  and  CE_49 
REMARK   34  A    between atoms: CG_51  and  CD_50 
REMARK   35  A    between atoms: CB_52  and  CG_51 
REMARK   36  A    between atoms: CA_53  and  CB_52 
REMARK   37  A    between atoms: CA_53  and  N_54 
REMARK   38  A    between atoms: CA_53  and  C_55 
REMARK       I    between atoms: C_55  and  N_57 
REMARK   39  A    between atoms: N_57  and  CA_58 
REMARK   40  A    between atoms: CA_58  and  C_59 
REMARK   41  A    between atoms: CA_58  and  CB_61 
REMARK       I    between atoms: C_59  and  N_62 
REMARK   42  A    between atoms: CA_63  and  C_64 
REMARK       I    between atoms: C_64  and  N_69 
REMARK   43  A    between atoms: N_69  and  CA_70 
REMARK   44  A    between atoms: CA_70  and  C_71 
REMARK   45  A    between atoms: CA_70  and  CB_73 
REMARK       I    between atoms: C_71  and  N_80 
REMARK   46  A    between atoms: CB_73  and  CG_74 
REMARK   47  A    between atoms: CG_74  and  CD_75 
REMARK   48  A    between atoms: CD_75  and  NE_76 
REMARK       I    between atoms: NE_76  and  CZ_77 
REMARK       I    between atoms: CZ_77  and  NH1_78 
REMARK   49  A    between atoms: N_80  and  CA_81 
REMARK   50  A    between atoms: CA_81  and  C_82 
REMARK   51  A    between atoms: CA_81  and  CB_84 
ROOT
ATOM      1  C   GLY d   1      52.558  -4.145  55.134  0.00  0.00     0.235 C 
ATOM      2  O   GLY d   1      52.620  -4.265  53.922  0.00  0.00    -0.272 OA
ATOM      3  N   GLY d   1      53.624  -4.344  55.919  0.00  0.00    -0.351 N 
ATOM      4  H49 GLY d   1      53.539  -4.204  56.905  0.00  0.00     0.163 HD
ENDROOT
BRANCH   3   5
ATOM      5  CA  GLY d   1      54.903  -4.760  55.367  0.00  0.00     0.069 C 
ATOM      6  H50 GLY d   1      54.723  -5.577  54.652  0.00  0.00     0.078 H 
ATOM      7  H51 GLY d   1      55.534  -5.125  56.191  0.00  0.00     0.078 H 
BRANCH   5   8
ATOM      8  C   GLY d   1      55.645  -3.656  54.652  0.00  0.00     0.236 C 
ATOM      9  O   GLY d   1      55.355  -2.483  54.817  0.00  0.00    -0.272 OA
ATOM     10  N   ALY d   1      56.666  -4.044  53.876  0.00  0.00    -0.346 N 
ATOM     11  H65 ALY d   1      56.785  -5.016  53.674  0.00  0.00     0.163 HD
BRANCH  10  12
ATOM     12  CA  ALY d   1      57.604  -3.082  53.321  0.00  0.00     0.089 C 
ATOM     13  H64 ALY d   1      57.562  -2.182  53.952  0.00  0.00     0.087 H 
BRANCH  12  14
ATOM     14  CB  ALY d   1      59.033  -3.660  53.396  0.00  0.00    -0.038 C 
ATOM     15  H62 ALY d   1      59.080  -4.561  52.766  0.00  0.00     0.036 H 
ATOM     16  H63 ALY d   1      59.736  -2.907  53.011  0.00  0.00     0.036 H 
BRANCH  14  17
ATOM     17  CG  ALY d   1      59.459  -4.042  54.836  0.00  0.00    -0.061 C 
ATOM     18  H60 ALY d   1      58.530  -4.224  55.397  0.00  0.00     0.033 H 
ATOM     19  H61 ALY d   1      60.027  -4.980  54.754  0.00  0.00     0.033 H 
BRANCH  17  20
ATOM     20  CD  ALY d   1      60.295  -3.109  55.684  0.00  0.00    -0.050 C 
ATOM     21  H58 ALY d   1      60.445  -3.577  56.668  0.00  0.00     0.035 H 
ATOM     22  H59 ALY d   1      61.269  -2.973  55.191  0.00  0.00     0.035 H 
BRANCH  20  23
ATOM     23  CE  ALY d   1      59.684  -1.765  55.893  0.00  0.00    -0.005 C 
ATOM     24  H56 ALY d   1      60.395  -1.131  56.443  0.00  0.00     0.064 H 
ATOM     25  H57 ALY d   1      59.472  -1.313  54.913  0.00  0.00     0.064 H 
BRANCH  23  26
ATOM     26  NZ  ALY d   1      58.391  -1.856  56.684  0.00  0.00    -0.361 N 
ATOM     27  CH  ALY d   1      57.596  -0.804  56.807  0.00  0.00     0.213 C 
ATOM     28  OH  ALY d   1      57.877   0.292  56.310  0.00  0.00    -0.274 OA
ATOM     29  H55 ALY d   1      58.137  -2.721  57.117  0.00  0.00     0.162 HD
BRANCH  27  30
ATOM     30  CH3 ALY d   1      56.311  -0.982  57.552  0.00  0.00    -0.003 C 
ATOM     31  H52 ALY d   1      56.239  -2.017  57.917  0.00  0.00     0.040 H 
ATOM     32  H53 ALY d   1      55.466  -0.771  56.881  0.00  0.00     0.040 H 
ATOM     33  H54 ALY d   1      56.283  -0.289  58.406  0.00  0.00     0.040 H 
ENDBRANCH  27  30
ENDBRANCH  23  26
ENDBRANCH  20  23
ENDBRANCH  17  20
ENDBRANCH  14  17
ENDBRANCH  12  14
BRANCH  12  34
ATOM     34  C   ALY d   1      57.303  -2.654  51.916  0.00  0.00     0.241 C 
ATOM     35  O   ALY d   1      57.854  -1.667  51.440  0.00  0.00    -0.271 OA
ATOM     36  N   ALA d   1      56.445  -3.410  51.223  0.00  0.00    -0.346 N 
ATOM     37  H66 ALA d   1      56.002  -4.183  51.678  0.00  0.00     0.163 HD
BRANCH  36  38
ATOM     38  CA  ALA d   1      56.136  -3.141  49.824  0.00  0.00     0.086 C 
ATOM     39  H67 ALA d   1      56.367  -2.091  49.593  0.00  0.00     0.086 H 
BRANCH  38  40
ATOM     40  C   ALA d   1      54.650  -3.406  49.616  0.00  0.00     0.243 C 
ATOM     41  O   ALA d   1      54.056  -4.118  50.382  0.00  0.00    -0.271 OA
ATOM     42  N   PRO d   1      54.076  -2.825  48.558  0.00  0.00    -0.337 N 
ATOM     43  CA  PRO d   1      52.638  -3.080  48.359  0.00  0.00     0.091 C 
ATOM     44  CD  PRO d   1      54.582  -1.805  47.642  0.00  0.00    -0.001 C 
ATOM     45  CB  PRO d   1      52.335  -2.320  47.053  0.00  0.00    -0.036 C 
ATOM     46  H71 PRO d   1      52.051  -2.680  49.199  0.00  0.00     0.087 H 
ATOM     47  CG  PRO d   1      53.328  -1.221  47.023  0.00  0.00    -0.048 C 
ATOM     48  H72 PRO d   1      51.311  -1.918  47.066  0.00  0.00     0.036 H 
ATOM     49  H73 PRO d   1      52.459  -2.980  46.182  0.00  0.00     0.036 H 
ATOM     50  H74 PRO d   1      52.971  -0.362  47.611  0.00  0.00     0.035 H 
ATOM     51  H75 PRO d   1      53.521  -0.903  45.988  0.00  0.00     0.035 H 
ATOM     52  H76 PRO d   1      55.226  -2.255  46.872  0.00  0.00     0.064 H 
ATOM     53  H77 PRO d   1      55.146  -1.034  48.187  0.00  0.00     0.064 H 
BRANCH  43  54
ATOM     54  C   PRO d   1      52.333  -4.541  48.189  0.00  0.00     0.241 C 
ATOM     55  O   PRO d   1      53.150  -5.284  47.595  0.00  0.00    -0.271 OA
ATOM     56  N   ARG d   1      51.174  -4.975  48.676  0.00  0.00    -0.346 N 
ATOM     57  H78 ARG d   1      50.573  -4.364  49.191  0.00  0.00     0.163 HD
BRANCH  56  58
ATOM     58  CA  ARG d   1      50.804  -6.361  48.441  0.00  0.00     0.089 C 
ATOM     59  H79 ARG d   1      51.620  -6.988  48.829  0.00  0.00     0.087 H 
BRANCH  58  60
ATOM     60  C   ARG d   1      50.693  -6.650  46.910  0.00  0.00     0.241 C 
ATOM     61  O   ARG d   1      50.280  -5.803  46.104  0.00  0.00    -0.271 OA
ATOM     62  N   LYS d   1      51.138  -7.853  46.522  0.00  0.00    -0.345 N 
ATOM     63  H91 LYS d   1      51.393  -8.521  47.221  0.00  0.00     0.163 HD
BRANCH  62  64
ATOM     64  CA  LYS d   1      51.268  -8.235  45.078  0.00  0.00     0.093 C 
ATOM     65  H92 LYS d   1      51.776  -7.408  44.560  0.00  0.00     0.089 H 
BRANCH  64  66
ATOM     66  C   LYS d   1      49.939  -8.469  44.381  0.00  0.00     0.196 C 
ATOM     67  O   LYS d   1      49.021  -9.030  44.978  0.00  0.00    -0.646 OA
ATOM     68  OXT LYS d   1      49.779  -8.098  43.219  0.00  0.00    -0.646 OA
ENDBRANCH  64  66
BRANCH  64  69
ATOM     69  CB  LYS d   1      52.138  -9.499  44.950  0.00  0.00    -0.048 C 
ATOM     70  H93 LYS d   1      52.230  -9.775  43.889  0.00  0.00     0.030 H 
ATOM     71  H94 LYS d   1      51.668 -10.325  45.504  0.00  0.00     0.030 H 
ATOM     72  H95 LYS d   1      53.137  -9.300  45.365  0.00  0.00     0.030 H 
ENDBRANCH  64  69
ENDBRANCH  62  64
ENDBRANCH  58  60
BRANCH  58  73
ATOM     73  CB  ARG d   1      49.545  -6.745  49.216  0.00  0.00    -0.036 C 
ATOM     74  H80 ARG d   1      49.325  -7.801  49.001  0.00  0.00     0.036 H 
ATOM     75  H81 ARG d   1      48.719  -6.117  48.852  0.00  0.00     0.036 H 
BRANCH  73  76
ATOM     76  CG  ARG d   1      49.627  -6.580  50.744  0.00  0.00    -0.048 C 
ATOM     77  H82 ARG d   1      48.874  -7.252  51.182  0.00  0.00     0.035 H 
ATOM     78  H83 ARG d   1      49.362  -5.537  50.970  0.00  0.00     0.035 H 
BRANCH  76  79
ATOM     79  CD  ARG d   1      50.971  -6.874  51.460  0.00  0.00     0.009 C 
ATOM     80  H84 ARG d   1      51.680  -6.056  51.263  0.00  0.00     0.064 H 
ATOM     81  H85 ARG d   1      51.389  -7.820  51.085  0.00  0.00     0.064 H 
BRANCH  79  82
ATOM     82  NE  ARG d   1      50.734  -6.980  52.901  0.00  0.00    -0.227 N 
ATOM     83  CZ  ARG d   1      51.552  -7.526  53.834  0.00  0.00     0.665 C 
ATOM     84  NH1 ARG d   1      52.698  -8.084  53.509  0.00  0.00    -0.235 N 
ATOM     85  NH2 ARG d   1      51.196  -7.522  55.129  0.00  0.00    -0.235 N 
ATOM     86  H87 ARG d   1      53.298  -8.491  54.240  0.00  0.00     0.174 HD
ATOM     87  H88 ARG d   1      52.995  -8.114  52.523  0.00  0.00     0.174 HD
ATOM     88  H89 ARG d   1      50.305  -7.093  55.417  0.00  0.00     0.174 HD
ATOM     89  H90 ARG d   1      51.814  -7.948  55.834  0.00  0.00     0.174 HD
ATOM     90  H86 ARG d   1      49.843  -6.595  53.246  0.00  0.00     0.177 HD
ENDBRANCH  79  82
ENDBRANCH  76  79
ENDBRANCH  73  76
ENDBRANCH  58  73
ENDBRANCH  56  58
ENDBRANCH  43  54
ENDBRANCH  38  40
BRANCH  38  91
ATOM     91  CB  ALA d   1      56.921  -4.034  48.906  0.00  0.00    -0.049 C 
ATOM     92  H68 ALA d   1      56.663  -3.804  47.862  0.00  0.00     0.030 H 
ATOM     93  H69 ALA d   1      56.678  -5.085  49.120  0.00  0.00     0.030 H 
ATOM     94  H70 ALA d   1      57.997  -3.867  49.063  0.00  0.00     0.030 H 
ENDBRANCH  38  91
ENDBRANCH  36  38
ENDBRANCH  12  34
ENDBRANCH  10  12
ENDBRANCH   5   8
ENDBRANCH   3   5
BRANCH   1  95
ATOM     95  CA  GLY d   1      51.288  -3.714  55.854  0.00  0.00     0.069 C 
ATOM     96  H47 GLY d   1      50.958  -2.762  55.413  0.00  0.00     0.078 H 
ATOM     97  H48 GLY d   1      50.523  -4.485  55.677  0.00  0.00     0.078 H 
BRANCH  95  98
ATOM     98  N   GLY d   1      51.402  -3.522  57.292  0.00  0.00    -0.350 N 
ATOM     99  C   THR d   1      51.197  -4.520  58.138  0.00  0.00     0.243 C 
ATOM    100  O   THR d   1      50.717  -5.615  57.800  0.00  0.00    -0.271 OA
ATOM    101  H46 GLY d   1      51.640  -2.619  57.648  0.00  0.00     0.163 HD
BRANCH  99 102
ATOM    102  CA  THR d   1      51.620  -4.254  59.556  0.00  0.00     0.113 C 
ATOM    103  H40 THR d   1      51.661  -3.162  59.685  0.00  0.00     0.091 H 
BRANCH 102 104
ATOM    104  N   THR d   1      50.710  -4.753  60.541  0.00  0.00    -0.344 N 
ATOM    105  C   SER d   1      49.466  -4.253  60.568  0.00  0.00     0.243 C 
ATOM    106  O   SER d   1      49.049  -3.490  59.667  0.00  0.00    -0.271 OA
ATOM    107  H39 THR d   1      50.994  -5.456  61.192  0.00  0.00     0.163 HD
BRANCH 105 108
ATOM    108  CA  SER d   1      48.581  -4.667  61.715  0.00  0.00     0.109 C 
ATOM    109  H35 SER d   1      49.197  -4.834  62.611  0.00  0.00     0.090 H 
BRANCH 108 110
ATOM    110  N   SER d   1      47.628  -3.590  61.998  0.00  0.00    -0.344 N 
ATOM    111  C   M3L d   1      48.037  -2.361  62.305  0.00  0.00     0.241 C 
ATOM    112  O   M3L d   1      49.211  -2.085  62.574  0.00  0.00    -0.271 OA
ATOM    113  H34 SER d   1      46.648  -3.783  61.960  0.00  0.00     0.163 HD
BRANCH 111 114
ATOM    114  CA  M3L d   1      47.008  -1.271  62.273  0.00  0.00     0.089 C 
ATOM    115  H16 M3L d   1      46.054  -1.631  62.685  0.00  0.00     0.087 H 
BRANCH 114 116
ATOM    116  N   M3L d   1      47.475  -0.144  63.045  0.00  0.00    -0.346 N 
ATOM    117  C   ARG d   1      47.355  -0.179  64.361  0.00  0.00     0.241 C 
ATOM    118  O   ARG d   1      46.694  -1.054  64.941  0.00  0.00    -0.271 OA
ATOM    119  H15 M3L d   1      47.882   0.649  62.592  0.00  0.00     0.163 HD
BRANCH 117 120
ATOM    120  CA  ARG d   1      48.056   0.920  65.109  0.00  0.00     0.089 C 
ATOM    121  H9  ARG d   1      48.028   1.817  64.473  0.00  0.00     0.087 H 
BRANCH 120 122
ATOM    122  N   ARG d   1      47.369   1.232  66.331  0.00  0.00    -0.346 N 
ATOM    123  C   ALA d   1      47.057   2.489  66.614  0.00  0.00     0.248 C 
ATOM    124  O   ALA d   1      47.185   3.423  65.795  0.00  0.00    -0.271 OA
ATOM    125  H8  ARG d   1      47.126   0.501  66.969  0.00  0.00     0.163 HD
BRANCH 123 126
ATOM    126  CA  ALA d   1      46.526   2.747  68.004  0.00  0.00     0.172 C 
ATOM    127  H4  ALA d   1      46.293   1.790  68.495  0.00  0.00     0.098 H 
BRANCH 126 128
ATOM    128  N   ALA d   1      47.590   3.453  68.772  0.00  0.00    -0.067 N 
ATOM    129  H1  ALA d   1      47.262   3.639  69.707  0.00  0.00     0.275 HD
ATOM    130  H2  ALA d   1      47.813   4.323  68.315  0.00  0.00     0.275 HD
ATOM    131  H3  ALA d   1      48.414   2.874  68.814  0.00  0.00     0.275 HD
ENDBRANCH 126 128
BRANCH 126 132
ATOM    132  CB  ALA d   1      45.272   3.581  67.931  0.00  0.00    -0.042 C 
ATOM    133  H5  ALA d   1      44.504   3.039  67.360  0.00  0.00     0.030 H 
ATOM    134  H6  ALA d   1      45.495   4.535  67.431  0.00  0.00     0.030 H 
ATOM    135  H7  ALA d   1      44.903   3.777  68.948  0.00  0.00     0.030 H 
ENDBRANCH 126 132
ENDBRANCH 123 126
ENDBRANCH 120 122
BRANCH 120 136
ATOM    136  CB  ARG d   1      49.546   0.597  65.387  0.00  0.00    -0.041 C 
ATOM    137  H10 ARG d   1      49.838   1.115  66.312  0.00  0.00     0.036 H 
ATOM    138  H11 ARG d   1      50.139   0.986  64.546  0.00  0.00     0.036 H 
BRANCH 136 139
ATOM    139  CG  ARG d   1      49.877  -0.868  65.551  0.00  0.00    -0.074 C 
ATOM    140  H12 ARG d   1      50.954  -0.981  65.743  0.00  0.00     0.027 H 
ATOM    141  H13 ARG d   1      49.610  -1.409  64.632  0.00  0.00     0.027 H 
ATOM    142  H14 ARG d   1      49.308  -1.280  66.398  0.00  0.00     0.027 H 
ENDBRANCH 136 139
ENDBRANCH 120 136
ENDBRANCH 117 120
ENDBRANCH 114 116
BRANCH 114 143
ATOM    143  CB  M3L d   1      46.835  -0.876  60.795  0.00  0.00    -0.038 C 
ATOM    144  H17 M3L d   1      46.788  -1.793  60.190  0.00  0.00     0.036 H 
ATOM    145  H18 M3L d   1      47.705  -0.278  60.487  0.00  0.00     0.036 H 
BRANCH 143 146
ATOM    146  CG  M3L d   1      45.586  -0.071  60.545  0.00  0.00    -0.061 C 
ATOM    147  H19 M3L d   1      45.707   0.932  60.979  0.00  0.00     0.033 H 
ATOM    148  H20 M3L d   1      44.729  -0.574  61.017  0.00  0.00     0.033 H 
BRANCH 146 149
ATOM    149  CD  M3L d   1      45.331   0.056  59.036  0.00  0.00    -0.042 C 
ATOM    150  H21 M3L d   1      45.178  -0.940  58.595  0.00  0.00     0.035 H 
ATOM    151  H22 M3L d   1      46.188   0.544  58.550  0.00  0.00     0.035 H 
BRANCH 149 152
ATOM    152  CE  M3L d   1      44.092   0.894  58.858  0.00  0.00     0.084 C 
ATOM    153  H23 M3L d   1      44.330   1.931  59.139  0.00  0.00     0.076 H 
ATOM    154  H24 M3L d   1      43.309   0.504  59.525  0.00  0.00     0.076 H 
BRANCH 152 155
ATOM    155  NZ  M3L d   1      43.558   0.892  57.439  0.00  0.00    -0.079 N 
BRANCH 155 156
ATOM    156  CM1 M3L d   1      42.749  -0.338  57.295  0.00  0.00     0.067 C 
ATOM    157  H25 M3L d   1      42.336  -0.388  56.277  0.00  0.00     0.068 H 
ATOM    158  H26 M3L d   1      41.926  -0.323  58.024  0.00  0.00     0.068 H 
ATOM    159  H27 M3L d   1      43.384  -1.218  57.477  0.00  0.00     0.068 H 
ENDBRANCH 155 156
BRANCH 155 160
ATOM    160  CM2 M3L d   1      44.599   0.998  56.386  0.00  0.00     0.067 C 
ATOM    161  H28 M3L d   1      45.175   1.924  56.531  0.00  0.00     0.068 H 
ATOM    162  H29 M3L d   1      44.119   1.016  55.396  0.00  0.00     0.068 H 
ATOM    163  H30 M3L d   1      45.275   0.133  56.450  0.00  0.00     0.068 H 
ENDBRANCH 155 160
BRANCH 155 164
ATOM    164  CM3 M3L d   1      42.651   2.064  57.320  0.00  0.00     0.067 C 
ATOM    165  H31 M3L d   1      41.871   2.004  58.093  0.00  0.00     0.068 H 
ATOM    166  H32 M3L d   1      42.182   2.065  56.325  0.00  0.00     0.068 H 
ATOM    167  H33 M3L d   1      43.229   2.990  57.454  0.00  0.00     0.068 H 
ENDBRANCH 155 164
ENDBRANCH 152 155
ENDBRANCH 149 152
ENDBRANCH 146 149
ENDBRANCH 143 146
ENDBRANCH 114 143
ENDBRANCH 111 114
ENDBRANCH 108 110
BRANCH 108 168
ATOM    168  CB  SER d   1      47.903  -5.965  61.345  0.00  0.00     0.044 C 
ATOM    169  H36 SER d   1      47.336  -6.328  62.215  0.00  0.00     0.077 H 
ATOM    170  H37 SER d   1      48.674  -6.702  61.076  0.00  0.00     0.077 H 
BRANCH 168 171
ATOM    171  OG  SER d   1      47.004  -5.817  60.240  0.00  0.00    -0.398 OA
ATOM    172  H38 SER d   1      47.485  -5.510  59.480  0.00  0.00     0.209 HD
ENDBRANCH 168 171
ENDBRANCH 108 168
ENDBRANCH 105 108
ENDBRANCH 102 104
BRANCH 102 173
ATOM    173  CB  THR d   1      53.052  -4.810  59.772  0.00  0.00     0.060 C 
ATOM    174  H41 THR d   1      53.343  -4.595  60.811  0.00  0.00     0.086 H 
BRANCH 173 175
ATOM    175  OG1 THR d   1      53.960  -4.171  58.902  0.00  0.00    -0.393 OA
ATOM    176  H42 THR d   1      53.959  -3.237  59.076  0.00  0.00     0.210 HD
ENDBRANCH 173 175
BRANCH 173 177
ATOM    177  CG2 THR d   1      53.159  -6.318  59.548  0.00  0.00    -0.050 C 
ATOM    178  H43 THR d   1      54.197  -6.641  59.718  0.00  0.00     0.031 H 
ATOM    179  H44 THR d   1      52.865  -6.557  58.516  0.00  0.00     0.031 H 
ATOM    180  H45 THR d   1      52.493  -6.841  60.250  0.00  0.00     0.031 H 
ENDBRANCH 173 177
ENDBRANCH 102 173
ENDBRANCH  99 102
ENDBRANCH  95  98
ENDBRANCH   1  95
TORSDOF 51
