REMARK  29 active torsions:
REMARK  status: ('A' for Active; 'I' for Inactive)
REMARK    1  A    between atoms: C_2  and  CA_1 
REMARK       I    between atoms: N_4  and  C_2 
REMARK    2  A    between atoms: CA_5  and  N_4 
REMARK    3  A    between atoms: C_6  and  CA_5 
REMARK    4  A    between atoms: CA_5  and  CB_8 
REMARK       I    between atoms: N_9  and  C_6 
REMARK    5  A    between atoms: CA_10  and  N_9 
REMARK    6  A    between atoms: C_11  and  CA_10 
REMARK    7  A    between atoms: CA_10  and  CB_13 
REMARK       I    between atoms: N_16  and  C_11 
REMARK    8  A    between atoms: CB_13  and  OG1_14 
REMARK    9  A    between atoms: CB_13  and  CG2_15 
REMARK   10  A    between atoms: CA_17  and  N_16 
REMARK   11  A    between atoms: C_18  and  CA_17 
REMARK       I    between atoms: N_20  and  C_18 
REMARK   12  A    between atoms: CA_21  and  N_20 
REMARK   13  A    between atoms: C_22  and  CA_21 
REMARK       I    between atoms: N_33  and  C_22 
REMARK   14  A    between atoms: CH_25  and  CH3_26 
REMARK       I    between atoms: NZ_27  and  CH_25 
REMARK   15  A    between atoms: CE_28  and  NZ_27 
REMARK   16  A    between atoms: CD_29  and  CE_28 
REMARK   17  A    between atoms: CG_30  and  CD_29 
REMARK   18  A    between atoms: CB_31  and  CG_30 
REMARK   19  A    between atoms: CA_32  and  CB_31 
REMARK   20  A    between atoms: CA_32  and  N_33 
REMARK   21  A    between atoms: CA_32  and  C_34 
REMARK       I    between atoms: C_34  and  N_36 
REMARK   22  A    between atoms: N_36  and  CA_37 
REMARK   23  A    between atoms: CA_37  and  C_38 
REMARK   24  A    between atoms: CA_37  and  CB_40 
REMARK       I    between atoms: C_38  and  N_41 
REMARK   25  A    between atoms: CA_42  and  C_43 
REMARK       I    between atoms: C_43  and  N_48 
REMARK   26  A    between atoms: N_48  and  CA_49 
REMARK   27  A    between atoms: CA_49  and  C_50 
REMARK   28  A    between atoms: CA_49  and  CB_52 
REMARK       I    between atoms: C_50  and  N_53 
REMARK   29  A    between atoms: N_53  and  CA_54 
ROOT
ATOM      1  CA  ALY d   1      58.980  -3.067  53.655  0.00  0.00     0.089 C 
ATOM      2  H34 ALY d   1      58.890  -2.145  54.248  0.00  0.00     0.087 H 
ENDROOT
BRANCH   1   3
ATOM      3  CB  ALY d   1      60.437  -3.577  53.726  0.00  0.00    -0.038 C 
ATOM      4  H32 ALY d   1      60.481  -4.600  53.325  0.00  0.00     0.036 H 
ATOM      5  H33 ALY d   1      61.080  -2.919  53.123  0.00  0.00     0.036 H 
BRANCH   3   6
ATOM      6  CG  ALY d   1      60.935  -3.582  55.162  0.00  0.00    -0.061 C 
ATOM      7  H30 ALY d   1      60.160  -4.004  55.818  0.00  0.00     0.033 H 
ATOM      8  H31 ALY d   1      61.847  -4.193  55.233  0.00  0.00     0.033 H 
BRANCH   6   9
ATOM      9  CD  ALY d   1      61.244  -2.155  55.592  0.00  0.00    -0.050 C 
ATOM     10  H28 ALY d   1      62.298  -1.931  55.371  0.00  0.00     0.035 H 
ATOM     11  H29 ALY d   1      60.597  -1.462  55.035  0.00  0.00     0.035 H 
BRANCH   9  12
ATOM     12  CE  ALY d   1      61.003  -1.982  57.054  0.00  0.00    -0.005 C 
ATOM     13  H26 ALY d   1      61.540  -2.787  57.577  0.00  0.00     0.064 H 
ATOM     14  H27 ALY d   1      61.424  -1.009  57.348  0.00  0.00     0.064 H 
BRANCH  12  15
ATOM     15  NZ  ALY d   1      59.624  -2.015  57.496  0.00  0.00    -0.361 N 
ATOM     16  CH  ALY d   1      58.845  -0.958  57.457  0.00  0.00     0.213 C 
ATOM     17  OH  ALY d   1      59.224   0.107  56.991  0.00  0.00    -0.274 OA
ATOM     18  H25 ALY d   1      59.251  -2.875  57.844  0.00  0.00     0.162 HD
BRANCH  16  19
ATOM     19  CH3 ALY d   1      57.458  -1.140  58.010  0.00  0.00    -0.003 C 
ATOM     20  H22 ALY d   1      57.340  -2.172  58.372  0.00  0.00     0.040 H 
ATOM     21  H23 ALY d   1      56.719  -0.942  57.219  0.00  0.00     0.040 H 
ATOM     22  H24 ALY d   1      57.300  -0.439  58.843  0.00  0.00     0.040 H 
ENDBRANCH  16  19
ENDBRANCH  12  15
ENDBRANCH   9  12
ENDBRANCH   6   9
ENDBRANCH   3   6
ENDBRANCH   1   3
BRANCH   1  23
ATOM     23  N   ALY d   1      58.119  -4.087  54.269  0.00  0.00    -0.346 N 
ATOM     24  C   GLY d   1      57.073  -3.773  55.031  0.00  0.00     0.236 C 
ATOM     25  O   GLY d   1      56.673  -2.617  55.168  0.00  0.00    -0.272 OA
ATOM     26  H35 ALY d   1      58.326  -5.052  54.109  0.00  0.00     0.163 HD
BRANCH  24  27
ATOM     27  CA  GLY d   1      56.375  -4.945  55.722  0.00  0.00     0.069 C 
ATOM     28  H20 GLY d   1      56.216  -5.734  54.972  0.00  0.00     0.078 H 
ATOM     29  H21 GLY d   1      57.043  -5.319  56.512  0.00  0.00     0.078 H 
BRANCH  27  30
ATOM     30  N   GLY d   1      55.077  -4.637  56.336  0.00  0.00    -0.351 N 
ATOM     31  C   GLY d   1      54.026  -4.339  55.581  0.00  0.00     0.235 C 
ATOM     32  O   GLY d   1      54.130  -4.258  54.355  0.00  0.00    -0.272 OA
ATOM     33  H19 GLY d   1      54.984  -4.652  57.331  0.00  0.00     0.163 HD
BRANCH  31  34
ATOM     34  CA  GLY d   1      52.676  -4.077  56.274  0.00  0.00     0.069 C 
ATOM     35  H17 GLY d   1      52.252  -3.153  55.854  0.00  0.00     0.078 H 
ATOM     36  H18 GLY d   1      52.009  -4.922  56.049  0.00  0.00     0.078 H 
BRANCH  34  37
ATOM     37  N   GLY d   1      52.739  -3.925  57.733  0.00  0.00    -0.350 N 
ATOM     38  C   THR d   1      52.537  -4.960  58.550  0.00  0.00     0.243 C 
ATOM     39  O   THR d   1      52.134  -6.054  58.151  0.00  0.00    -0.271 OA
ATOM     40  H16 GLY d   1      52.938  -3.026  58.123  0.00  0.00     0.163 HD
BRANCH  38  41
ATOM     41  CA  THR d   1      52.892  -4.740  60.030  0.00  0.00     0.113 C 
ATOM     42  H10 THR d   1      52.910  -3.652  60.190  0.00  0.00     0.091 H 
BRANCH  41  43
ATOM     43  N   THR d   1      51.919  -5.275  61.019  0.00  0.00    -0.344 N 
ATOM     44  C   SER d   1      50.707  -4.735  61.139  0.00  0.00     0.240 C 
ATOM     45  O   SER d   1      50.287  -3.879  60.341  0.00  0.00    -0.271 OA
ATOM     46  H9  THR d   1      52.177  -6.047  61.599  0.00  0.00     0.163 HD
BRANCH  44  47
ATOM     47  CA  SER d   1      49.799  -5.220  62.307  0.00  0.00     0.086 C 
ATOM     48  H5  SER d   1      49.088  -5.949  61.891  0.00  0.00     0.086 H 
BRANCH  47  49
ATOM     49  N   SER d   1      50.509  -5.886  63.434  0.00  0.00    -0.348 N 
ATOM     50  C   MLY d   1      50.538  -7.217  63.601  0.00  0.00     0.214 C 
ATOM     51  O   MLY d   1      50.071  -8.019  62.780  0.00  0.00    -0.274 OA
ATOM     52  H4  SER d   1      50.988  -5.313  64.099  0.00  0.00     0.163 HD
BRANCH  50  53
ATOM     53  CA  MLY d   1      51.202  -7.718  64.856  0.00  0.00    -0.003 C 
ATOM     54  H1  MLY d   1      51.550  -6.862  65.454  0.00  0.00     0.040 H 
ATOM     55  H2  MLY d   1      52.061  -8.352  64.589  0.00  0.00     0.040 H 
ATOM     56  H3  MLY d   1      50.481  -8.306  65.443  0.00  0.00     0.040 H 
ENDBRANCH  50  53
ENDBRANCH  47  49
BRANCH  47  57
ATOM     57  CB  SER d   1      49.011  -4.018  62.852  0.00  0.00    -0.049 C 
ATOM     58  H6  SER d   1      48.483  -3.520  62.025  0.00  0.00     0.030 H 
ATOM     59  H7  SER d   1      49.706  -3.308  63.324  0.00  0.00     0.030 H 
ATOM     60  H8  SER d   1      48.280  -4.366  63.597  0.00  0.00     0.030 H 
ENDBRANCH  47  57
ENDBRANCH  44  47
ENDBRANCH  41  43
BRANCH  41  61
ATOM     61  CB  THR d   1      54.330  -5.259  60.263  0.00  0.00     0.060 C 
ATOM     62  H11 THR d   1      54.628  -5.024  61.296  0.00  0.00     0.086 H 
BRANCH  61  63
ATOM     63  OG1 THR d   1      55.210  -4.596  59.345  0.00  0.00    -0.393 OA
ATOM     64  H12 THR d   1      55.175  -3.659  59.496  0.00  0.00     0.210 HD
ENDBRANCH  61  63
BRANCH  61  65
ATOM     65  CG2 THR d   1      54.459  -6.793  60.041  0.00  0.00    -0.050 C 
ATOM     66  H13 THR d   1      55.499  -7.103  60.220  0.00  0.00     0.031 H 
ATOM     67  H14 THR d   1      54.176  -7.039  59.007  0.00  0.00     0.031 H 
ATOM     68  H15 THR d   1      53.793  -7.322  60.739  0.00  0.00     0.031 H 
ENDBRANCH  61  65
ENDBRANCH  41  61
ENDBRANCH  38  41
ENDBRANCH  34  37
ENDBRANCH  31  34
ENDBRANCH  27  30
ENDBRANCH  24  27
ENDBRANCH   1  23
BRANCH   1  69
ATOM     69  C   ALY d   1      58.653  -2.728  52.234  0.00  0.00     0.241 C 
ATOM     70  O   ALY d   1      59.124  -1.713  51.722  0.00  0.00    -0.271 OA
ATOM     71  N   ALA d   1      57.879  -3.590  51.557  0.00  0.00    -0.346 N 
ATOM     72  H36 ALA d   1      57.534  -4.400  52.031  0.00  0.00     0.163 HD
BRANCH  71  73
ATOM     73  CA  ALA d   1      57.519  -3.389  50.145  0.00  0.00     0.086 C 
ATOM     74  H37 ALA d   1      57.713  -2.341  49.873  0.00  0.00     0.086 H 
BRANCH  73  75
ATOM     75  C   ALA d   1      56.051  -3.694  49.938  0.00  0.00     0.243 C 
ATOM     76  O   ALA d   1      55.462  -4.457  50.706  0.00  0.00    -0.271 OA
ATOM     77  N   PRO d   1      55.461  -3.137  48.889  0.00  0.00    -0.337 N 
ATOM     78  CA  PRO d   1      54.063  -3.447  48.670  0.00  0.00     0.091 C 
ATOM     79  CD  PRO d   1      55.944  -2.107  47.951  0.00  0.00    -0.001 C 
ATOM     80  CB  PRO d   1      53.738  -2.676  47.378  0.00  0.00    -0.036 C 
ATOM     81  H41 PRO d   1      53.451  -3.084  49.509  0.00  0.00     0.087 H 
ATOM     82  CG  PRO d   1      54.672  -1.526  47.406  0.00  0.00    -0.048 C 
ATOM     83  H42 PRO d   1      52.693  -2.332  47.380  0.00  0.00     0.036 H 
ATOM     84  H43 PRO d   1      53.916  -3.304  46.492  0.00  0.00     0.036 H 
ATOM     85  H44 PRO d   1      54.293  -0.730  48.063  0.00  0.00     0.035 H 
ATOM     86  H45 PRO d   1      54.828  -1.123  46.394  0.00  0.00     0.035 H 
ATOM     87  H46 PRO d   1      56.550  -2.555  47.149  0.00  0.00     0.064 H 
ATOM     88  H47 PRO d   1      56.536  -1.342  48.474  0.00  0.00     0.064 H 
BRANCH  78  89
ATOM     89  C   PRO d   1      53.814  -4.943  48.484  0.00  0.00     0.241 C 
ATOM     90  O   PRO d   1      54.686  -5.656  47.970  0.00  0.00    -0.271 OA
ATOM     91  N   ARG d   1      52.649  -5.397  48.940  0.00  0.00    -0.346 N 
ATOM     92  H48 ARG d   1      52.058  -4.772  49.450  0.00  0.00     0.163 HD
BRANCH  91  93
ATOM     93  CA  ARG d   1      52.193  -6.778  48.726  0.00  0.00     0.086 C 
ATOM     94  H49 ARG d   1      52.953  -7.466  49.124  0.00  0.00     0.086 H 
BRANCH  93  95
ATOM     95  C   ARG d   1      52.013  -7.061  47.222  0.00  0.00     0.239 C 
ATOM     96  O   ARG d   1      51.575  -6.182  46.478  0.00  0.00    -0.271 OA
ATOM     97  N   LYS d   1      52.392  -8.270  46.780  0.00  0.00    -0.364 N 
ATOM     98  H53 LYS d   1      52.808  -8.910  47.427  0.00  0.00     0.161 HD
BRANCH  97  99
ATOM     99  CA  LYS d   1      52.218  -8.695  45.367  0.00  0.00    -0.018 C 
ATOM    100  H54 LYS d   1      52.600  -9.719  45.242  0.00  0.00     0.056 H 
ATOM    101  H55 LYS d   1      52.775  -8.013  44.708  0.00  0.00     0.056 H 
ATOM    102  H56 LYS d   1      51.150  -8.668  45.105  0.00  0.00     0.056 H 
ENDBRANCH  97  99
ENDBRANCH  93  95
BRANCH  93 103
ATOM    103  CB  ARG d   1      50.874  -7.016  49.473  0.00  0.00    -0.049 C 
ATOM    104  H50 ARG d   1      50.541  -8.051  49.307  0.00  0.00     0.030 H 
ATOM    105  H51 ARG d   1      50.109  -6.320  49.098  0.00  0.00     0.030 H 
ATOM    106  H52 ARG d   1      51.027  -6.848  50.549  0.00  0.00     0.030 H 
ENDBRANCH  93 103
ENDBRANCH  91  93
ENDBRANCH  78  89
ENDBRANCH  73  75
BRANCH  73 107
ATOM    107  CB  ALA d   1      58.341  -4.292  49.253  0.00  0.00    -0.049 C 
ATOM    108  H38 ALA d   1      58.057  -4.127  48.203  0.00  0.00     0.030 H 
ATOM    109  H39 ALA d   1      58.154  -5.342  49.522  0.00  0.00     0.030 H 
ATOM    110  H40 ALA d   1      59.409  -4.064  49.385  0.00  0.00     0.030 H 
ENDBRANCH  73 107
ENDBRANCH  71  73
ENDBRANCH   1  69
TORSDOF 29
