REMARK WARNING: 32 MAX_TORS EXCEEDED!!!
REMARK  38 active torsions:
REMARK  status: ('A' for Active; 'I' for Inactive)
REMARK    1  A    between atoms: CA_2  and  N_1 
REMARK    2  A    between atoms: CA_2  and  CB_3 
REMARK    3  A    between atoms: C_8  and  CA_2 
REMARK    4  A    between atoms: CB_3  and  CG_4 
REMARK    5  A    between atoms: CG_4  and  CD_5 
REMARK    6  A    between atoms: CD_5  and  CE_6 
REMARK    7  A    between atoms: CE_6  and  NZ_7 
REMARK    8  A    between atoms: NZ_7  and  CM1_10 
REMARK    9  A    between atoms: NZ_7  and  CM2_11 
REMARK   10  A    between atoms: NZ_7  and  CM3_12 
REMARK       I    between atoms: N_13  and  C_8 
REMARK   11  A    between atoms: CA_14  and  N_13 
REMARK   12  A    between atoms: C_15  and  CA_14 
REMARK   13  A    between atoms: CA_14  and  CB_17 
REMARK       I    between atoms: N_18  and  C_15 
REMARK   14  A    between atoms: CA_19  and  N_18 
REMARK   15  A    between atoms: C_20  and  CA_19 
REMARK   16  A    between atoms: CA_19  and  CB_22 
REMARK       I    between atoms: N_25  and  C_20 
REMARK   17  A    between atoms: CB_22  and  OG1_23 
REMARK   18  A    between atoms: CB_22  and  CG2_24 
REMARK   19  A    between atoms: CA_26  and  N_25 
REMARK   20  A    between atoms: C_27  and  CA_26 
REMARK       I    between atoms: N_29  and  C_27 
REMARK   21  A    between atoms: CA_30  and  N_29 
REMARK   22  A    between atoms: C_31  and  CA_30 
REMARK       I    between atoms: N_42  and  C_31 
REMARK   23  A    between atoms: CH_34  and  CH3_35 
REMARK       I    between atoms: NZ_36  and  CH_34 
REMARK   24  A    between atoms: CE_37  and  NZ_36 
REMARK   25  A    between atoms: CD_38  and  CE_37 
REMARK   26  A    between atoms: CG_39  and  CD_38 
REMARK   27  A    between atoms: CB_40  and  CG_39 
REMARK   28  A    between atoms: CA_41  and  CB_40 
REMARK   29  A    between atoms: CA_41  and  N_42 
REMARK   30  A    between atoms: CA_41  and  C_43 
REMARK       I    between atoms: C_43  and  N_45 
REMARK   31  A    between atoms: N_45  and  CA_46 
REMARK   32  A    between atoms: CA_46  and  C_47 
REMARK   33  A    between atoms: CA_46  and  CB_49 
REMARK       I    between atoms: C_47  and  N_50 
REMARK   34  A    between atoms: CA_51  and  C_52 
REMARK       I    between atoms: C_52  and  N_57 
REMARK   35  A    between atoms: N_57  and  CA_58 
REMARK   36  A    between atoms: CA_58  and  C_59 
REMARK   37  A    between atoms: CA_58  and  CB_61 
REMARK       I    between atoms: C_59  and  N_63 
REMARK   38  A    between atoms: CB_61  and  CG_62 
ROOT
ATOM      1  CA  GLY d   1      56.281  -4.884  56.096  0.00  0.00     0.069 C 
ATOM      2  H38 GLY d   1      56.100  -5.711  55.394  0.00  0.00     0.078 H 
ATOM      3  H39 GLY d   1      56.973  -5.217  56.884  0.00  0.00     0.078 H 
ENDROOT
BRANCH   1   4
ATOM      4  N   GLY d   1      55.041  -4.551  56.712  0.00  0.00    -0.351 N 
ATOM      5  C   GLY d   1      53.945  -4.357  55.945  0.00  0.00     0.235 C 
ATOM      6  O   GLY d   1      53.983  -4.413  54.724  0.00  0.00    -0.272 OA
ATOM      7  H37 GLY d   1      54.981  -4.461  57.706  0.00  0.00     0.163 HD
BRANCH   5   8
ATOM      8  CA  GLY d   1      52.674  -4.034  56.686  0.00  0.00     0.069 C 
ATOM      9  H35 GLY d   1      52.287  -3.092  56.270  0.00  0.00     0.078 H 
ATOM     10  H36 GLY d   1      51.962  -4.846  56.477  0.00  0.00     0.078 H 
BRANCH   8  11
ATOM     11  N   GLY d   1      52.729  -3.875  58.121  0.00  0.00    -0.350 N 
ATOM     12  C   THR d   1      52.542  -4.904  58.969  0.00  0.00     0.243 C 
ATOM     13  O   THR d   1      52.083  -6.008  58.596  0.00  0.00    -0.271 OA
ATOM     14  H34 GLY d   1      52.913  -2.967  58.498  0.00  0.00     0.163 HD
BRANCH  12  15
ATOM     15  CA  THR d   1      52.932  -4.639  60.425  0.00  0.00     0.113 C 
ATOM     16  H28 THR d   1      52.968  -3.546  60.542  0.00  0.00     0.091 H 
BRANCH  15  17
ATOM     17  N   THR d   1      52.014  -5.128  61.487  0.00  0.00    -0.344 N 
ATOM     18  C   SER d   1      50.784  -4.684  61.539  0.00  0.00     0.240 C 
ATOM     19  O   SER d   1      50.305  -4.056  60.591  0.00  0.00    -0.271 OA
ATOM     20  H27 THR d   1      52.335  -5.794  62.160  0.00  0.00     0.163 HD
BRANCH  18  21
ATOM     21  CA  SER d   1      49.930  -4.956  62.789  0.00  0.00     0.086 C 
ATOM     22  H23 SER d   1      48.969  -5.367  62.446  0.00  0.00     0.086 H 
BRANCH  21  23
ATOM     23  N   SER d   1      50.457  -5.878  63.813  0.00  0.00    -0.346 N 
ATOM     24  C   M3L d   1      50.236  -7.169  63.749  0.00  0.00     0.248 C 
ATOM     25  O   M3L d   1      49.832  -7.742  62.708  0.00  0.00    -0.271 OA
ATOM     26  H22 SER d   1      50.994  -5.511  64.572  0.00  0.00     0.163 HD
BRANCH  24  27
ATOM     27  CA  M3L d   1      50.563  -7.937  65.012  0.00  0.00     0.176 C 
ATOM     28  H4  M3L d   1      50.520  -7.260  65.878  0.00  0.00     0.099 H 
BRANCH  27  29
ATOM     29  N   M3L d   1      49.525  -9.023  65.196  0.00  0.00    -0.067 N 
ATOM     30  H1  M3L d   1      49.729  -9.544  66.034  0.00  0.00     0.275 HD
ATOM     31  H2  M3L d   1      49.543  -9.643  64.402  0.00  0.00     0.275 HD
ATOM     32  H3  M3L d   1      48.611  -8.605  65.275  0.00  0.00     0.275 HD
ENDBRANCH  27  29
BRANCH  27  33
ATOM     33  CB  M3L d   1      51.976  -8.473  64.884  0.00  0.00    -0.030 C 
ATOM     34  H5  M3L d   1      52.644  -7.641  64.615  0.00  0.00     0.036 H 
ATOM     35  H6  M3L d   1      51.993  -9.230  64.086  0.00  0.00     0.036 H 
BRANCH  33  36
ATOM     36  CG  M3L d   1      52.489  -9.112  66.174  0.00  0.00    -0.061 C 
ATOM     37  H7  M3L d   1      51.786  -9.885  66.519  0.00  0.00     0.033 H 
ATOM     38  H8  M3L d   1      52.604  -8.347  66.956  0.00  0.00     0.033 H 
BRANCH  36  39
ATOM     39  CD  M3L d   1      53.850  -9.743  65.848  0.00  0.00    -0.042 C 
ATOM     40  H9  M3L d   1      54.584  -8.952  65.637  0.00  0.00     0.035 H 
ATOM     41  H10 M3L d   1      53.754 -10.398  64.970  0.00  0.00     0.035 H 
BRANCH  39  42
ATOM     42  CE  M3L d   1      54.304 -10.556  67.045  0.00  0.00     0.084 C 
ATOM     43  H11 M3L d   1      53.508 -11.270  67.304  0.00  0.00     0.076 H 
ATOM     44  H12 M3L d   1      54.470  -9.870  67.889  0.00  0.00     0.076 H 
BRANCH  42  45
ATOM     45  NZ  M3L d   1      55.542 -11.307  66.805  0.00  0.00    -0.079 N 
BRANCH  45  46
ATOM     46  CM1 M3L d   1      55.692 -12.228  67.949  0.00  0.00     0.067 C 
ATOM     47  H13 M3L d   1      56.609 -12.822  67.824  0.00  0.00     0.068 H 
ATOM     48  H14 M3L d   1      54.823 -12.901  67.994  0.00  0.00     0.068 H 
ATOM     49  H15 M3L d   1      55.755 -11.648  68.881  0.00  0.00     0.068 H 
ENDBRANCH  45  46
BRANCH  45  50
ATOM     50  CM2 M3L d   1      56.726 -10.415  66.721  0.00  0.00     0.067 C 
ATOM     51  H16 M3L d   1      56.610  -9.731  65.868  0.00  0.00     0.068 H 
ATOM     52  H17 M3L d   1      57.633 -11.022  66.584  0.00  0.00     0.068 H 
ATOM     53  H18 M3L d   1      56.812  -9.832  67.650  0.00  0.00     0.068 H 
ENDBRANCH  45  50
BRANCH  45  54
ATOM     54  CM3 M3L d   1      55.462 -12.168  65.589  0.00  0.00     0.067 C 
ATOM     55  H19 M3L d   1      54.582 -12.824  65.662  0.00  0.00     0.068 H 
ATOM     56  H20 M3L d   1      56.372 -12.782  65.514  0.00  0.00     0.068 H 
ATOM     57  H21 M3L d   1      55.373 -11.533  64.695  0.00  0.00     0.068 H 
ENDBRANCH  45  54
ENDBRANCH  42  45
ENDBRANCH  39  42
ENDBRANCH  36  39
ENDBRANCH  33  36
ENDBRANCH  27  33
ENDBRANCH  24  27
ENDBRANCH  21  23
BRANCH  21  58
ATOM     58  CB  SER d   1      49.698  -3.614  63.455  0.00  0.00    -0.049 C 
ATOM     59  H24 SER d   1      49.304  -2.901  62.716  0.00  0.00     0.030 H 
ATOM     60  H25 SER d   1      50.649  -3.236  63.858  0.00  0.00     0.030 H 
ATOM     61  H26 SER d   1      48.973  -3.732  64.274  0.00  0.00     0.030 H 
ENDBRANCH  21  58
ENDBRANCH  18  21
ENDBRANCH  15  17
BRANCH  15  62
ATOM     62  CB  THR d   1      54.368  -5.183  60.635  0.00  0.00     0.060 C 
ATOM     63  H29 THR d   1      54.679  -4.944  61.663  0.00  0.00     0.086 H 
BRANCH  62  64
ATOM     64  OG1 THR d   1      55.270  -4.560  59.721  0.00  0.00    -0.393 OA
ATOM     65  H30 THR d   1      55.268  -3.621  59.867  0.00  0.00     0.210 HD
ENDBRANCH  62  64
BRANCH  62  66
ATOM     66  CG2 THR d   1      54.449  -6.670  60.446  0.00  0.00    -0.050 C 
ATOM     67  H31 THR d   1      55.485  -7.004  60.605  0.00  0.00     0.031 H 
ATOM     68  H32 THR d   1      54.134  -6.927  59.424  0.00  0.00     0.031 H 
ATOM     69  H33 THR d   1      53.788  -7.168  61.170  0.00  0.00     0.031 H 
ENDBRANCH  62  66
ENDBRANCH  15  62
ENDBRANCH  12  15
ENDBRANCH   8  11
ENDBRANCH   5   8
ENDBRANCH   1   4
BRANCH   1  70
ATOM     70  C   GLY d   1      56.942  -3.773  55.340  0.00  0.00     0.236 C 
ATOM     71  O   GLY d   1      56.582  -2.604  55.482  0.00  0.00    -0.272 OA
ATOM     72  N   ALY d   1      57.949  -4.126  54.545  0.00  0.00    -0.346 N 
ATOM     73  H53 ALY d   1      58.104  -5.099  54.374  0.00  0.00     0.163 HD
BRANCH  72  74
ATOM     74  CA  ALY d   1      58.834  -3.161  53.913  0.00  0.00     0.089 C 
ATOM     75  H52 ALY d   1      58.768  -2.246  54.520  0.00  0.00     0.087 H 
BRANCH  74  76
ATOM     76  CB  ALY d   1      60.289  -3.657  53.972  0.00  0.00    -0.038 C 
ATOM     77  H50 ALY d   1      60.335  -4.695  53.611  0.00  0.00     0.036 H 
ATOM     78  H51 ALY d   1      60.918  -3.019  53.334  0.00  0.00     0.036 H 
BRANCH  76  79
ATOM     79  CG  ALY d   1      60.809  -3.596  55.434  0.00  0.00    -0.061 C 
ATOM     80  H48 ALY d   1      60.031  -3.963  56.119  0.00  0.00     0.033 H 
ATOM     81  H49 ALY d   1      61.709  -4.221  55.533  0.00  0.00     0.033 H 
BRANCH  79  82
ATOM     82  CD  ALY d   1      61.156  -2.120  55.780  0.00  0.00    -0.050 C 
ATOM     83  H46 ALY d   1      62.195  -1.900  55.493  0.00  0.00     0.035 H 
ATOM     84  H47 ALY d   1      60.476  -1.438  55.248  0.00  0.00     0.035 H 
BRANCH  82  85
ATOM     85  CE  ALY d   1      60.993  -1.965  57.215  0.00  0.00    -0.005 C 
ATOM     86  H44 ALY d   1      61.569  -2.760  57.711  0.00  0.00     0.064 H 
ATOM     87  H45 ALY d   1      61.402  -0.984  57.500  0.00  0.00     0.064 H 
BRANCH  85  88
ATOM     88  NZ  ALY d   1      59.640  -2.036  57.687  0.00  0.00    -0.361 N 
ATOM     89  CH  ALY d   1      58.836  -0.961  57.666  0.00  0.00     0.213 C 
ATOM     90  OH  ALY d   1      59.106   0.100  57.133  0.00  0.00    -0.274 OA
ATOM     91  H43 ALY d   1      59.289  -2.904  58.039  0.00  0.00     0.162 HD
BRANCH  89  92
ATOM     92  CH3 ALY d   1      57.491  -1.181  58.324  0.00  0.00    -0.003 C 
ATOM     93  H40 ALY d   1      57.449  -2.197  58.742  0.00  0.00     0.040 H 
ATOM     94  H41 ALY d   1      56.693  -1.059  57.577  0.00  0.00     0.040 H 
ATOM     95  H42 ALY d   1      57.353  -0.446  59.131  0.00  0.00     0.040 H 
ENDBRANCH  89  92
ENDBRANCH  85  88
ENDBRANCH  82  85
ENDBRANCH  79  82
ENDBRANCH  76  79
ENDBRANCH  74  76
BRANCH  74  96
ATOM     96  C   ALY d   1      58.519  -2.759  52.520  0.00  0.00     0.241 C 
ATOM     97  O   ALY d   1      58.999  -1.747  52.045  0.00  0.00    -0.271 OA
ATOM     98  N   ALA d   1      57.718  -3.568  51.837  0.00  0.00    -0.346 N 
ATOM     99  H54 ALA d   1      57.341  -4.371  52.299  0.00  0.00     0.163 HD
BRANCH  98 100
ATOM    100  CA  ALA d   1      57.364  -3.334  50.436  0.00  0.00     0.086 C 
ATOM    101  H55 ALA d   1      57.525  -2.274  50.190  0.00  0.00     0.086 H 
BRANCH 100 102
ATOM    102  C   ALA d   1      55.889  -3.689  50.248  0.00  0.00     0.243 C 
ATOM    103  O   ALA d   1      55.372  -4.428  51.020  0.00  0.00    -0.271 OA
ATOM    104  N   PRO d   1      55.241  -3.154  49.171  0.00  0.00    -0.337 N 
ATOM    105  CA  PRO d   1      53.846  -3.455  48.991  0.00  0.00     0.091 C 
ATOM    106  CD  PRO d   1      55.694  -2.128  48.262  0.00  0.00    -0.001 C 
ATOM    107  CB  PRO d   1      53.454  -2.696  47.703  0.00  0.00    -0.036 C 
ATOM    108  H59 PRO d   1      53.259  -3.095  49.849  0.00  0.00     0.087 H 
ATOM    109  CG  PRO d   1      54.441  -1.601  47.630  0.00  0.00    -0.048 C 
ATOM    110  H60 PRO d   1      52.431  -2.298  47.778  0.00  0.00     0.036 H 
ATOM    111  H61 PRO d   1      53.529  -3.352  46.823  0.00  0.00     0.036 H 
ATOM    112  H62 PRO d   1      54.077  -0.721  48.181  0.00  0.00     0.035 H 
ATOM    113  H63 PRO d   1      54.629  -1.326  46.582  0.00  0.00     0.035 H 
ATOM    114  H64 PRO d   1      56.364  -2.553  47.500  0.00  0.00     0.064 H 
ATOM    115  H65 PRO d   1      56.219  -1.330  48.808  0.00  0.00     0.064 H 
BRANCH 105 116
ATOM    116  C   PRO d   1      53.627  -4.920  48.824  0.00  0.00     0.241 C 
ATOM    117  O   PRO d   1      54.521  -5.658  48.292  0.00  0.00    -0.271 OA
ATOM    118  N   ARG d   1      52.470  -5.350  49.314  0.00  0.00    -0.346 N 
ATOM    119  H66 ARG d   1      51.892  -4.724  49.836  0.00  0.00     0.163 HD
BRANCH 118 120
ATOM    120  CA  ARG d   1      52.034  -6.721  49.100  0.00  0.00     0.089 C 
ATOM    121  H67 ARG d   1      52.796  -7.383  49.538  0.00  0.00     0.087 H 
BRANCH 120 122
ATOM    122  C   ARG d   1      51.945  -7.056  47.614  0.00  0.00     0.238 C 
ATOM    123  O   ARG d   1      51.505  -6.246  46.811  0.00  0.00    -0.271 OA
ATOM    124  N   LYS d   1      52.421  -8.239  47.257  0.00  0.00    -0.368 N 
ATOM    125  H73 LYS d   1      52.393  -8.521  46.298  0.00  0.00     0.159 HD
ATOM    126  H74 LYS d   1      52.809  -8.851  47.947  0.00  0.00     0.159 HD
ENDBRANCH 120 122
BRANCH 120 127
ATOM    127  CB  ARG d   1      50.707  -6.994  49.837  0.00  0.00    -0.041 C 
ATOM    128  H68 ARG d   1      50.413  -8.037  49.646  0.00  0.00     0.036 H 
ATOM    129  H69 ARG d   1      49.941  -6.317  49.431  0.00  0.00     0.036 H 
BRANCH 127 130
ATOM    130  CG  ARG d   1      50.781  -6.782  51.376  0.00  0.00    -0.074 C 
ATOM    131  H70 ARG d   1      49.799  -6.996  51.823  0.00  0.00     0.027 H 
ATOM    132  H71 ARG d   1      51.062  -5.740  51.590  0.00  0.00     0.027 H 
ATOM    133  H72 ARG d   1      51.534  -7.460  51.804  0.00  0.00     0.027 H 
ENDBRANCH 127 130
ENDBRANCH 120 127
ENDBRANCH 118 120
ENDBRANCH 105 116
ENDBRANCH 100 102
BRANCH 100 134
ATOM    134  CB  ALA d   1      58.216  -4.198  49.513  0.00  0.00    -0.049 C 
ATOM    135  H56 ALA d   1      57.934  -4.006  48.467  0.00  0.00     0.030 H 
ATOM    136  H57 ALA d   1      58.051  -5.260  49.749  0.00  0.00     0.030 H 
ATOM    137  H58 ALA d   1      59.278  -3.951  49.657  0.00  0.00     0.030 H 
ENDBRANCH 100 134
ENDBRANCH  98 100
ENDBRANCH  74  96
ENDBRANCH  72  74
ENDBRANCH   1  70
TORSDOF 38
