REMARK  8 active torsions:
REMARK  status: ('A' for Active; 'I' for Inactive)
REMARK    1  A    between atoms: C34_1  and  O35_3 
REMARK       I    between atoms: N33_20  and  C34_1 
REMARK    2  A    between atoms: O35_3  and  C36_4 
REMARK    3  A    between atoms: C36_4  and  C37_5 
REMARK    4  A    between atoms: C26_19  and  N33_20 
REMARK    5  A    between atoms: C14_26  and  C23_31 
REMARK    6  A    between atoms: C23_31  and  O24_32 
REMARK    7  A    between atoms: C04_34  and  C05_37 
REMARK    8  A    between atoms: C05_37  and  C06_38 
ROOT
ATOM      1  N18 DW7 d   1      -1.659   3.939   2.021  0.00  0.00    -0.361 N 
ATOM      2  C19 DW7 d   1      -1.000   5.000   2.726  0.00  0.00    -0.003 C 
ATOM      3  C20 DW7 d   1       0.001   4.388   3.691  0.00  0.00    -0.034 C 
ATOM      4  C21 DW7 d   1       0.473   5.540   4.539  0.00  0.00     0.019 C 
ATOM      5  N30 DW7 d   1      -0.202   5.431   5.790  0.00  0.00    -0.261 N 
ATOM      6  C29 DW7 d   1      -1.324   6.045   6.236  0.00  0.00     0.025 A 
ATOM      7  C28 DW7 d   1      -1.631   5.613   7.564  0.00  0.00     0.078 A 
ATOM      8  C27 DW7 d   1      -2.724   5.972   8.526  0.00  0.00     0.005 C 
ATOM      9  C26 DW7 d   1      -3.659   4.804   8.653  0.00  0.00     0.096 C 
ATOM     10  C02 DW7 d   1      -4.586   4.849   7.441  0.00  0.00     0.241 C 
ATOM     11  O01 DW7 d   1      -4.410   4.162   6.482  0.00  0.00    -0.271 OA
ATOM     12  N32 DW7 d   1      -0.647   4.761   7.797  0.00  0.00    -0.135 NA
ATOM     13  N31 DW7 d   1       0.176   4.653   6.760  0.00  0.00    -0.066 NA
ATOM     14  N13 DW7 d   1      -6.609   5.845   3.978  0.00  0.00    -0.353 N 
ATOM     15  C14 DW7 d   1      -6.157   6.176   2.644  0.00  0.00     0.033 C 
ATOM     16  C15 DW7 d   1      -5.409   5.002   2.037  0.00  0.00    -0.036 C 
ATOM     17  C16 DW7 d   1      -3.959   4.982   2.526  0.00  0.00     0.011 C 
ATOM     18  C17 DW7 d   1      -3.092   3.893   1.901  0.00  0.00     0.217 C 
ATOM     19  O22 DW7 d   1      -3.559   2.979   1.332  0.00  0.00    -0.274 OA
ATOM     20  N03 DW7 d   1      -5.663   5.763   7.547  0.00  0.00    -0.346 N 
ATOM     21  C04 DW7 d   1      -6.625   5.892   6.482  0.00  0.00     0.089 C 
ATOM     22  C12 DW7 d   1      -5.982   6.344   5.178  0.00  0.00     0.240 C 
ATOM     23  O25 DW7 d   1      -5.032   7.056   5.156  0.00  0.00    -0.271 OA
ATOM     24  H8  DW7 d   1      -1.110   3.215   1.603  0.00  0.00     0.162 HD
ATOM     25  H9  DW7 d   1      -1.741   5.590   3.285  0.00  0.00     0.064 H 
ATOM     26  H10 DW7 d   1      -0.476   5.651   2.011  0.00  0.00     0.064 H 
ATOM     27  H11 DW7 d   1       0.843   3.940   3.143  0.00  0.00     0.037 H 
ATOM     28  H12 DW7 d   1      -0.481   3.620   4.314  0.00  0.00     0.037 H 
ATOM     29  H13 DW7 d   1       0.222   6.495   4.055  0.00  0.00     0.067 H 
ATOM     30  H14 DW7 d   1       1.561   5.480   4.689  0.00  0.00     0.067 H 
ATOM     31  H15 DW7 d   1      -1.909   6.765   5.665  0.00  0.00     0.117 H 
ATOM     32  H16 DW7 d   1      -3.275   6.847   8.150  0.00  0.00     0.046 H 
ATOM     33  H17 DW7 d   1      -2.289   6.206   9.509  0.00  0.00     0.046 H 
ATOM     34  H18 DW7 d   1      -4.253   4.920   9.572  0.00  0.00     0.088 H 
ATOM     35  H20 DW7 d   1      -7.398   5.238   4.074  0.00  0.00     0.163 HD
ATOM     36  H21 DW7 d   1      -5.504   7.061   2.659  0.00  0.00     0.075 H 
ATOM     37  H22 DW7 d   1      -5.420   5.093   0.941  0.00  0.00     0.036 H 
ATOM     38  H23 DW7 d   1      -5.904   4.065   2.333  0.00  0.00     0.036 H 
ATOM     39  H24 DW7 d   1      -3.967   4.831   3.616  0.00  0.00     0.047 H 
ATOM     40  H25 DW7 d   1      -3.505   5.957   2.294  0.00  0.00     0.047 H 
ATOM     41  H29 DW7 d   1      -5.757   6.324   8.369  0.00  0.00     0.163 HD
ATOM     42  H30 DW7 d   1      -7.128   4.928   6.314  0.00  0.00     0.087 H 
ENDROOT
BRANCH  21  43
ATOM     43  C05 DW7 d   1      -7.618   6.921   6.969  0.00  0.00    -0.035 C 
ATOM     44  H31 DW7 d   1      -8.325   7.137   6.154  0.00  0.00     0.037 H 
ATOM     45  H32 DW7 d   1      -7.070   7.838   7.231  0.00  0.00     0.037 H 
BRANCH  43  46
ATOM     46  C06 DW7 d   1      -8.414   6.467   8.192  0.00  0.00    -0.052 C 
ATOM     47  C11 DW7 d   1      -9.405   7.579   8.533  0.00  0.00    -0.062 C 
ATOM     48  C10 DW7 d   1     -10.471   7.150   9.523  0.00  0.00    -0.065 C 
ATOM     49  H34 DW7 d   1      -9.900   7.902   7.605  0.00  0.00     0.033 H 
ATOM     50  H35 DW7 d   1      -8.847   8.423   8.964  0.00  0.00     0.033 H 
ATOM     51  C09 DW7 d   1     -11.105   5.819   9.173  0.00  0.00    -0.065 C 
ATOM     52  H36 DW7 d   1     -11.258   7.918   9.545  0.00  0.00     0.033 H 
ATOM     53  H37 DW7 d   1     -10.011   7.068  10.519  0.00  0.00     0.033 H 
ATOM     54  C08 DW7 d   1     -10.057   4.747   9.014  0.00  0.00    -0.065 C 
ATOM     55  H38 DW7 d   1     -11.660   5.922   8.229  0.00  0.00     0.033 H 
ATOM     56  H39 DW7 d   1     -11.798   5.528   9.976  0.00  0.00     0.033 H 
ATOM     57  C07 DW7 d   1      -9.094   5.124   7.914  0.00  0.00    -0.062 C 
ATOM     58  H40 DW7 d   1     -10.546   3.795   8.759  0.00  0.00     0.033 H 
ATOM     59  H41 DW7 d   1      -9.505   4.635   9.959  0.00  0.00     0.033 H 
ATOM     60  H42 DW7 d   1      -8.323   4.344   7.833  0.00  0.00     0.033 H 
ATOM     61  H43 DW7 d   1      -9.646   5.194   6.965  0.00  0.00     0.033 H 
ATOM     62  H33 DW7 d   1      -7.728   6.334   9.042  0.00  0.00     0.040 H 
ENDBRANCH  43  46
ENDBRANCH  21  43
BRANCH   9  63
ATOM     63  N33 DW7 d   1      -2.963   3.532   8.720  0.00  0.00    -0.323 N 
ATOM     64  C34 DW7 d   1      -2.889   2.938  10.027  0.00  0.00     0.361 C 
ATOM     65  O43 DW7 d   1      -3.117   3.607  10.987  0.00  0.00    -0.238 OA
ATOM     66  H19 DW7 d   1      -2.563   3.099   7.913  0.00  0.00     0.165 HD
BRANCH  64  67
ATOM     67  O35 DW7 d   1      -2.570   1.594  10.096  0.00  0.00    -0.299 OA
BRANCH  67  68
ATOM     68  C36 DW7 d   1      -2.520   1.059  11.395  0.00  0.00     0.054 C 
ATOM     69  H1  DW7 d   1      -2.733   1.861  12.117  0.00  0.00     0.082 H 
ATOM     70  H2  DW7 d   1      -1.511   0.660  11.576  0.00  0.00     0.082 H 
BRANCH  68  71
ATOM     71  C37 DW7 d   1      -3.544  -0.073  11.593  0.00  0.00    -0.034 A 
ATOM     72  C38 DW7 d   1      -3.782  -1.002  10.586  0.00  0.00    -0.075 A 
ATOM     73  C39 DW7 d   1      -4.695  -2.027  10.799  0.00  0.00    -0.082 A 
ATOM     74  H3  DW7 d   1      -3.258  -0.927   9.640  0.00  0.00     0.084 H 
ATOM     75  C40 DW7 d   1      -5.372  -2.137  12.011  0.00  0.00    -0.083 A 
ATOM     76  H4  DW7 d   1      -4.883  -2.749  10.013  0.00  0.00     0.083 H 
ATOM     77  C41 DW7 d   1      -5.137  -1.215  13.014  0.00  0.00    -0.082 A 
ATOM     78  H5  DW7 d   1      -6.080  -2.942  12.167  0.00  0.00     0.083 H 
ATOM     79  C42 DW7 d   1      -4.221  -0.191  12.810  0.00  0.00    -0.075 A 
ATOM     80  H6  DW7 d   1      -5.666  -1.291  13.957  0.00  0.00     0.083 H 
ATOM     81  H7  DW7 d   1      -4.029   0.523  13.602  0.00  0.00     0.084 H 
ENDBRANCH  68  71
ENDBRANCH  67  68
ENDBRANCH  64  67
ENDBRANCH   9  63
BRANCH  15  82
ATOM     82  C23 DW7 d   1      -7.427   6.461   1.883  0.00  0.00     0.035 C 
ATOM     83  H26 DW7 d   1      -8.050   5.556   1.829  0.00  0.00     0.077 H 
ATOM     84  H27 DW7 d   1      -7.192   6.805   0.865  0.00  0.00     0.077 H 
BRANCH  82  85
ATOM     85  O24 DW7 d   1      -8.108   7.487   2.606  0.00  0.00    -0.399 OA
ATOM     86  H28 DW7 d   1      -8.299   7.180   3.485  0.00  0.00     0.209 HD
ENDBRANCH  82  85
ENDBRANCH  15  82
TORSDOF 8
