REMARK  10 active torsions:
REMARK  status: ('A' for Active; 'I' for Inactive)
REMARK    1  A    between atoms: C26_1  and  O35_3 
REMARK       I    between atoms: N25_20  and  C26_1 
REMARK    2  A    between atoms: O35_3  and  C1_4 
REMARK    3  A    between atoms: C1_4  and  C2_5 
REMARK    4  A    between atoms: C24_19  and  N25_20 
REMARK    5  A    between atoms: C06_26  and  C07_29 
REMARK    6  A    between atoms: C07_29  and  C08_30 
REMARK    7  A    between atoms: C08_30  and  C10_31 
REMARK    8  A    between atoms: C08_30  and  C09_32 
REMARK    9  A    between atoms: C03_34  and  C02_39 
REMARK   10  A    between atoms: C02_39  and  O01_40 
ROOT
ATOM      1  N16 MOL d   1      39.129  68.923  -2.040  0.00  0.00    -0.361 N 
ATOM      2  C17 MOL d   1      38.437  70.121  -2.505  0.00  0.00    -0.003 C 
ATOM      3  C18 MOL d   1      37.071  69.784  -3.143  0.00  0.00    -0.034 C 
ATOM      4  C19 MOL d   1      36.783  70.803  -4.213  0.00  0.00     0.019 C 
ATOM      5  N20 MOL d   1      37.439  70.390  -5.448  0.00  0.00    -0.261 N 
ATOM      6  C21 MOL d   1      38.391  71.027  -6.173  0.00  0.00     0.025 A 
ATOM      7  C22 MOL d   1      38.771  70.264  -7.355  0.00  0.00     0.078 A 
ATOM      8  C23 MOL d   1      39.804  70.574  -8.470  0.00  0.00     0.005 C 
ATOM      9  C24 MOL d   1      40.772  69.431  -8.769  0.00  0.00     0.096 C 
ATOM     10  C36 MOL d   1      41.888  69.437  -7.716  0.00  0.00     0.241 C 
ATOM     11  O37 MOL d   1      41.840  68.771  -6.728  0.00  0.00    -0.271 OA
ATOM     12  N38 MOL d   1      37.989  69.200  -7.222  0.00  0.00    -0.135 NA
ATOM     13  N39 MOL d   1      37.224  69.276  -6.119  0.00  0.00    -0.066 NA
ATOM     14  N11 MOL d   1      43.044  70.316  -7.977  0.00  0.00    -0.346 N 
ATOM     15  C06 MOL d   1      44.149  70.384  -7.030  0.00  0.00     0.089 C 
ATOM     16  C05 MOL d   1      43.599  70.948  -5.719  0.00  0.00     0.240 C 
ATOM     17  O12 MOL d   1      42.672  71.699  -5.717  0.00  0.00    -0.271 OA
ATOM     18  N04 MOL d   1      44.234  70.508  -4.472  0.00  0.00    -0.353 N 
ATOM     19  C03 MOL d   1      43.729  71.007  -3.185  0.00  0.00     0.033 C 
ATOM     20  C13 MOL d   1      42.927  69.883  -2.507  0.00  0.00    -0.036 C 
ATOM     21  C14 MOL d   1      41.413  70.111  -2.543  0.00  0.00     0.011 C 
ATOM     22  C15 MOL d   1      40.587  68.892  -2.036  0.00  0.00     0.217 C 
ATOM     23  O40 MOL d   1      41.122  67.908  -1.648  0.00  0.00    -0.274 OA
ATOM     24  H8  MOL d   1      38.607  68.129  -1.726  0.00  0.00     0.162 HD
ATOM     25  H9  MOL d   1      39.065  70.626  -3.254  0.00  0.00     0.064 H 
ATOM     26  H10 MOL d   1      38.274  70.793  -1.649  0.00  0.00     0.064 H 
ATOM     27  H11 MOL d   1      36.284  69.818  -2.376  0.00  0.00     0.037 H 
ATOM     28  H12 MOL d   1      37.106  68.778  -3.587  0.00  0.00     0.037 H 
ATOM     29  H13 MOL d   1      37.168  71.785  -3.901  0.00  0.00     0.067 H 
ATOM     30  H14 MOL d   1      35.697  70.870  -4.376  0.00  0.00     0.067 H 
ATOM     31  H15 MOL d   1      38.820  71.992  -5.905  0.00  0.00     0.117 H 
ATOM     32  H16 MOL d   1      40.392  71.451  -8.160  0.00  0.00     0.046 H 
ATOM     33  H17 MOL d   1      39.254  70.809  -9.393  0.00  0.00     0.046 H 
ATOM     34  H18 MOL d   1      41.225  69.610  -9.755  0.00  0.00     0.088 H 
ATOM     35  H20 MOL d   1      43.069  70.869  -8.810  0.00  0.00     0.163 HD
ATOM     36  H21 MOL d   1      44.547  69.373  -6.856  0.00  0.00     0.087 H 
ATOM     37  H31 MOL d   1      45.006  69.873  -4.497  0.00  0.00     0.163 HD
ATOM     38  H32 MOL d   1      43.075  71.874  -3.360  0.00  0.00     0.075 H 
ATOM     39  H33 MOL d   1      43.244  69.813  -1.456  0.00  0.00     0.036 H 
ATOM     40  H34 MOL d   1      43.150  68.936  -3.021  0.00  0.00     0.036 H 
ATOM     41  H35 MOL d   1      41.118  70.323  -3.581  0.00  0.00     0.047 H 
ATOM     42  H36 MOL d   1      41.177  70.979  -1.910  0.00  0.00     0.047 H 
ENDROOT
BRANCH   9  43
ATOM     43  N25 MOL d   1      40.083  68.138  -8.820  0.00  0.00    -0.323 N 
ATOM     44  C26 MOL d   1      40.001  67.423 -10.131  0.00  0.00     0.361 C 
ATOM     45  O27 MOL d   1      40.417  67.965 -11.107  0.00  0.00    -0.238 OA
ATOM     46  H19 MOL d   1      39.677  67.743  -7.996  0.00  0.00     0.165 HD
BRANCH  44  47
ATOM     47  O35 MOL d   1      39.443  66.108 -10.249  0.00  0.00    -0.299 OA
BRANCH  47  48
ATOM     48  C1  MOL d   1      40.160  65.093  -9.563  0.00  0.00     0.054 C 
ATOM     49  H1  MOL d   1      39.465  64.488  -8.962  0.00  0.00     0.082 H 
ATOM     50  H2  MOL d   1      40.912  65.550  -8.904  0.00  0.00     0.082 H 
BRANCH  48  51
ATOM     51  C2  MOL d   1      40.860  64.197 -10.613  0.00  0.00    -0.034 A 
ATOM     52  C3  MOL d   1      40.816  64.530 -11.965  0.00  0.00    -0.075 A 
ATOM     53  C4  MOL d   1      41.459  63.727 -12.913  0.00  0.00    -0.082 A 
ATOM     54  H3  MOL d   1      40.280  65.417 -12.284  0.00  0.00     0.084 H 
ATOM     55  C5  MOL d   1      42.152  62.598 -12.501  0.00  0.00    -0.083 A 
ATOM     56  H4  MOL d   1      41.416  63.986 -13.965  0.00  0.00     0.083 H 
ATOM     57  C6  MOL d   1      42.199  62.268 -11.143  0.00  0.00    -0.082 A 
ATOM     58  H5  MOL d   1      42.656  61.973 -13.230  0.00  0.00     0.083 H 
ATOM     59  C7  MOL d   1      41.554  63.067 -10.204  0.00  0.00    -0.075 A 
ATOM     60  H6  MOL d   1      42.740  61.386 -10.820  0.00  0.00     0.083 H 
ATOM     61  H7  MOL d   1      41.594  62.807  -9.152  0.00  0.00     0.084 H 
ENDBRANCH  48  51
ENDBRANCH  47  48
ENDBRANCH  44  47
ENDBRANCH   9  43
BRANCH  15  62
ATOM     62  C07 MOL d   1      45.262  71.262  -7.573  0.00  0.00    -0.035 C 
ATOM     63  H22 MOL d   1      46.024  71.395  -6.791  0.00  0.00     0.037 H 
ATOM     64  H23 MOL d   1      44.842  72.241  -7.846  0.00  0.00     0.037 H 
BRANCH  62  65
ATOM     65  C08 MOL d   1      45.935  70.632  -8.832  0.00  0.00    -0.059 C 
ATOM     66  H24 MOL d   1      45.147  70.482  -9.585  0.00  0.00     0.038 H 
BRANCH  65  67
ATOM     67  C10 MOL d   1      46.579  69.276  -8.574  0.00  0.00    -0.073 C 
ATOM     68  H25 MOL d   1      47.029  68.901  -9.505  0.00  0.00     0.028 H 
ATOM     69  H26 MOL d   1      45.814  68.567  -8.225  0.00  0.00     0.028 H 
ATOM     70  H27 MOL d   1      47.359  69.381  -7.806  0.00  0.00     0.028 H 
ENDBRANCH  65  67
BRANCH  65  71
ATOM     71  C09 MOL d   1      46.959  71.596  -9.407  0.00  0.00    -0.073 C 
ATOM     72  H28 MOL d   1      46.483  72.571  -9.589  0.00  0.00     0.028 H 
ATOM     73  H29 MOL d   1      47.348  71.195 -10.355  0.00  0.00     0.028 H 
ATOM     74  H30 MOL d   1      47.787  71.720  -8.694  0.00  0.00     0.028 H 
ENDBRANCH  65  71
ENDBRANCH  62  65
ENDBRANCH  15  62
BRANCH  19  75
ATOM     75  C02 MOL d   1      44.882  71.424  -2.288  0.00  0.00     0.035 C 
ATOM     76  H37 MOL d   1      45.575  70.580  -2.157  0.00  0.00     0.077 H 
ATOM     77  H38 MOL d   1      44.495  71.737  -1.307  0.00  0.00     0.077 H 
BRANCH  75  78
ATOM     78  O01 MOL d   1      45.552  72.497  -2.897  0.00  0.00    -0.399 OA
ATOM     79  H39 MOL d   1      45.882  72.223  -3.745  0.00  0.00     0.209 HD
ENDBRANCH  75  78
ENDBRANCH  19  75
TORSDOF 10
