REMARK  8 active torsions:
REMARK  status: ('A' for Active; 'I' for Inactive)
REMARK    1  A    between atoms: C33_1  and  O34_3 
REMARK       I    between atoms: N32_23  and  C33_1 
REMARK    2  A    between atoms: O34_3  and  C35_4 
REMARK    3  A    between atoms: C35_4  and  C36_5 
REMARK    4  A    between atoms: C25_17  and  N32_23 
REMARK    5  A    between atoms: C14_25  and  C22_30 
REMARK    6  A    between atoms: C22_30  and  O23_31 
REMARK    7  A    between atoms: C04_33  and  C05_36 
REMARK    8  A    between atoms: C05_36  and  C06_37 
ROOT
ATOM      1  N18 DW4 d   1      83.447 -46.861 134.792  0.00  0.00    -0.359 N 
ATOM      2  C19 DW4 d   1      82.151 -47.372 134.356  0.00  0.00     0.012 C 
ATOM      3  C20 DW4 d   1      82.075 -48.904 134.445  0.00  0.00     0.033 C 
ATOM      4  N29 DW4 d   1      82.563 -49.385 135.729  0.00  0.00    -0.259 N 
ATOM      5  O01 DW4 d   1      86.535 -47.888 137.133  0.00  0.00    -0.271 OA
ATOM      6  C02 DW4 d   1      86.775 -48.969 137.569  0.00  0.00     0.241 C 
ATOM      7  C25 DW4 d   1      85.987 -49.595 138.726  0.00  0.00     0.096 C 
ATOM      8  C26 DW4 d   1      85.083 -50.711 138.225  0.00  0.00     0.005 C 
ATOM      9  C27 DW4 d   1      83.896 -50.196 137.427  0.00  0.00     0.078 A 
ATOM     10  C28 DW4 d   1      83.812 -49.780 136.048  0.00  0.00     0.026 A 
ATOM     11  N30 DW4 d   1      81.874 -49.553 136.839  0.00  0.00    -0.066 NA
ATOM     12  N31 DW4 d   1      82.643 -50.022 137.828  0.00  0.00    -0.135 NA
ATOM     13  N13 DW4 d   1      88.285 -47.647 134.086  0.00  0.00    -0.353 N 
ATOM     14  C14 DW4 d   1      87.622 -47.176 132.874  0.00  0.00     0.033 C 
ATOM     15  C15 DW4 d   1      86.847 -45.902 133.203  0.00  0.00    -0.036 C 
ATOM     16  C16 DW4 d   1      85.845 -46.111 134.316  0.00  0.00     0.011 C 
ATOM     17  C17 DW4 d   1      84.502 -46.658 133.814  0.00  0.00     0.217 C 
ATOM     18  O21 DW4 d   1      84.311 -46.926 132.667  0.00  0.00    -0.274 OA
ATOM     19  N03 DW4 d   1      87.867 -49.771 137.051  0.00  0.00    -0.346 N 
ATOM     20  C04 DW4 d   1      88.683 -49.236 135.992  0.00  0.00     0.089 C 
ATOM     21  C12 DW4 d   1      87.867 -48.876 134.753  0.00  0.00     0.240 C 
ATOM     22  O24 DW4 d   1      86.975 -49.553 134.353  0.00  0.00    -0.271 OA
ATOM     23  H8  DW4 d   1      83.608 -46.652 135.757  0.00  0.00     0.162 HD
ATOM     24  H9  DW4 d   1      81.983 -47.069 133.312  0.00  0.00     0.066 H 
ATOM     25  H10 DW4 d   1      81.366 -46.940 134.994  0.00  0.00     0.066 H 
ATOM     26  H11 DW4 d   1      82.688 -49.340 133.643  0.00  0.00     0.070 H 
ATOM     27  H12 DW4 d   1      81.028 -49.219 134.319  0.00  0.00     0.070 H 
ATOM     28  H13 DW4 d   1      86.694 -50.026 139.450  0.00  0.00     0.088 H 
ATOM     29  H14 DW4 d   1      84.706 -51.273 139.092  0.00  0.00     0.046 H 
ATOM     30  H15 DW4 d   1      85.674 -51.380 137.583  0.00  0.00     0.046 H 
ATOM     31  H16 DW4 d   1      84.651 -49.785 135.353  0.00  0.00     0.117 H 
ATOM     32  H18 DW4 d   1      89.042 -47.116 134.468  0.00  0.00     0.163 HD
ATOM     33  H19 DW4 d   1      86.926 -47.944 132.506  0.00  0.00     0.075 H 
ATOM     34  H20 DW4 d   1      86.310 -45.572 132.301  0.00  0.00     0.036 H 
ATOM     35  H21 DW4 d   1      87.561 -45.123 133.511  0.00  0.00     0.036 H 
ATOM     36  H22 DW4 d   1      85.667 -45.147 134.814  0.00  0.00     0.047 H 
ATOM     37  H23 DW4 d   1      86.267 -46.825 135.039  0.00  0.00     0.047 H 
ATOM     38  H27 DW4 d   1      88.050 -50.681 137.423  0.00  0.00     0.163 HD
ATOM     39  H28 DW4 d   1      89.181 -48.328 136.364  0.00  0.00     0.087 H 
ENDROOT
BRANCH  20  40
ATOM     40  C05 DW4 d   1      89.740 -50.254 135.576  0.00  0.00    -0.035 C 
ATOM     41  H29 DW4 d   1      90.267 -49.862 134.694  0.00  0.00     0.037 H 
ATOM     42  H30 DW4 d   1      89.230 -51.192 135.312  0.00  0.00     0.037 H 
BRANCH  40  43
ATOM     43  C06 DW4 d   1      90.784 -50.562 136.665  0.00  0.00    -0.052 C 
ATOM     44  C11 DW4 d   1      91.806 -51.427 135.999  0.00  0.00    -0.062 C 
ATOM     45  C10 DW4 d   1      92.952 -51.805 136.913  0.00  0.00    -0.065 C 
ATOM     46  H32 DW4 d   1      92.213 -50.884 135.133  0.00  0.00     0.033 H 
ATOM     47  H33 DW4 d   1      91.314 -52.349 135.655  0.00  0.00     0.033 H 
ATOM     48  C09 DW4 d   1      93.622 -50.563 137.540  0.00  0.00    -0.065 C 
ATOM     49  H34 DW4 d   1      93.703 -52.359 136.331  0.00  0.00     0.033 H 
ATOM     50  H35 DW4 d   1      92.567 -52.447 137.719  0.00  0.00     0.033 H 
ATOM     51  C08 DW4 d   1      92.636 -49.466 138.042  0.00  0.00    -0.065 C 
ATOM     52  H36 DW4 d   1      94.279 -50.111 136.782  0.00  0.00     0.033 H 
ATOM     53  H37 DW4 d   1      94.226 -50.897 138.397  0.00  0.00     0.033 H 
ATOM     54  C07 DW4 d   1      91.426 -49.274 137.118  0.00  0.00    -0.062 C 
ATOM     55  H38 DW4 d   1      93.179 -48.512 138.110  0.00  0.00     0.033 H 
ATOM     56  H39 DW4 d   1      92.272 -49.753 139.040  0.00  0.00     0.033 H 
ATOM     57  H40 DW4 d   1      90.671 -48.683 137.657  0.00  0.00     0.033 H 
ATOM     58  H41 DW4 d   1      91.757 -48.721 136.226  0.00  0.00     0.033 H 
ATOM     59  H31 DW4 d   1      90.325 -51.080 137.520  0.00  0.00     0.040 H 
ENDBRANCH  40  43
ENDBRANCH  20  40
BRANCH   7  60
ATOM     60  N32 DW4 d   1      85.244 -48.540 139.374  0.00  0.00    -0.323 N 
ATOM     61  C33 DW4 d   1      85.195 -48.528 140.821  0.00  0.00     0.361 C 
ATOM     62  O42 DW4 d   1      85.801 -49.326 141.463  0.00  0.00    -0.238 OA
ATOM     63  H17 DW4 d   1      84.776 -47.837 138.838  0.00  0.00     0.165 HD
BRANCH  61  64
ATOM     64  O34 DW4 d   1      84.402 -47.518 141.375  0.00  0.00    -0.299 OA
BRANCH  64  65
ATOM     65  C35 DW4 d   1      84.184 -47.588 142.760  0.00  0.00     0.054 C 
ATOM     66  H1  DW4 d   1      84.379 -48.611 143.116  0.00  0.00     0.082 H 
ATOM     67  H2  DW4 d   1      83.143 -47.313 142.987  0.00  0.00     0.082 H 
BRANCH  65  68
ATOM     68  C36 DW4 d   1      85.138 -46.611 143.448  0.00  0.00    -0.034 A 
ATOM     69  C37 DW4 d   1      85.799 -46.988 144.605  0.00  0.00    -0.075 A 
ATOM     70  C38 DW4 d   1      86.660 -46.100 145.237  0.00  0.00    -0.082 A 
ATOM     71  H3  DW4 d   1      85.644 -47.978 145.018  0.00  0.00     0.084 H 
ATOM     72  C39 DW4 d   1      86.852 -44.838 144.710  0.00  0.00    -0.083 A 
ATOM     73  H4  DW4 d   1      87.180 -46.397 146.141  0.00  0.00     0.083 H 
ATOM     74  C40 DW4 d   1      86.184 -44.460 143.553  0.00  0.00    -0.082 A 
ATOM     75  H5  DW4 d   1      87.524 -44.143 145.200  0.00  0.00     0.083 H 
ATOM     76  C41 DW4 d   1      85.324 -45.346 142.926  0.00  0.00    -0.075 A 
ATOM     77  H6  DW4 d   1      86.336 -43.469 143.140  0.00  0.00     0.083 H 
ATOM     78  H7  DW4 d   1      84.798 -45.047 142.027  0.00  0.00     0.084 H 
ENDBRANCH  65  68
ENDBRANCH  64  65
ENDBRANCH  61  64
ENDBRANCH   7  60
BRANCH  14  79
ATOM     79  C22 DW4 d   1      88.680 -46.902 131.817  0.00  0.00     0.035 C 
ATOM     80  H24 DW4 d   1      89.394 -46.159 132.202  0.00  0.00     0.077 H 
ATOM     81  H25 DW4 d   1      88.195 -46.509 130.911  0.00  0.00     0.077 H 
BRANCH  79  82
ATOM     82  O23 DW4 d   1      89.369 -48.084 131.498  0.00  0.00    -0.399 OA
ATOM     83  H26 DW4 d   1      89.791 -48.424 132.279  0.00  0.00     0.209 HD
ENDBRANCH  79  82
ENDBRANCH  14  79
TORSDOF 8
