REMARK WARNING: 32 MAX_TORS EXCEEDED!!!
REMARK  51 active torsions:
REMARK  status: ('A' for Active; 'I' for Inactive)
REMARK    1  A    between atoms: CA_2  and  N_1 
REMARK    2  A    between atoms: C_3  and  CA_2 
REMARK       I    between atoms: N_5  and  C_3 
REMARK    3  A    between atoms: CA_6  and  N_5 
REMARK    4  A    between atoms: C_7  and  CA_6 
REMARK       I    between atoms: N_9  and  C_7 
REMARK    5  A    between atoms: CA_10  and  N_9 
REMARK    6  A    between atoms: C_11  and  CA_10 
REMARK    7  A    between atoms: CA_10  and  CB_13 
REMARK       I    between atoms: N2_24  and  C_11 
REMARK    8  A    between atoms: CB_13  and  CG_14 
REMARK    9  A    between atoms: CZ_19  and  OH_20 
REMARK   10  A    between atoms: C1_21  and  O1_22 
REMARK   11  A    between atoms: C1_21  and  C2_23 
REMARK   12  A    between atoms: N_32  and  C1_21 
REMARK   13  A    between atoms: C2_23  and  N2_24 
REMARK   14  A    between atoms: C2_23  and  C3_25 
REMARK   15  A    between atoms: C3_25  and  C4_26 
REMARK   16  A    between atoms: C4_26  and  C5_27 
REMARK   17  A    between atoms: C5_27  and  N6_28 
REMARK       I    between atoms: N6_28  and  C7_29 
REMARK       I    between atoms: C7_29  and  N8_31 
REMARK   18  A    between atoms: CA_33  and  N_32 
REMARK   19  A    between atoms: C_34  and  CA_33 
REMARK   20  A    between atoms: CA_33  and  CB_36 
REMARK       I    between atoms: N2_40  and  C_34 
REMARK   21  A    between atoms: C2_39  and  C1_37 
REMARK       I    between atoms: C1_37  and  N_48 
REMARK   22  A    between atoms: C2_39  and  N2_40 
REMARK   23  A    between atoms: C2_39  and  C3_41 
REMARK   24  A    between atoms: C3_41  and  C4_42 
REMARK   25  A    between atoms: C4_42  and  C5_43 
REMARK   26  A    between atoms: C5_43  and  N6_44 
REMARK       I    between atoms: N6_44  and  C7_45 
REMARK       I    between atoms: C7_45  and  N8_47 
REMARK   27  A    between atoms: CA_49  and  C_50 
REMARK       I    between atoms: C_50  and  N_55 
REMARK   28  A    between atoms: N_55  and  CA_56 
REMARK   29  A    between atoms: CA_56  and  C_57 
REMARK   30  A    between atoms: CA_56  and  CB_59 
REMARK       I    between atoms: C_57  and  N_60 
REMARK   31  A    between atoms: N_60  and  CA_61 
REMARK   32  A    between atoms: CA_61  and  C_62 
REMARK   33  A    between atoms: CA_61  and  CB_64 
REMARK       I    between atoms: C_62  and  N_69 
REMARK   34  A    between atoms: CB_64  and  CG_65 
REMARK   35  A    between atoms: CG_65  and  CD_66 
REMARK   36  A    between atoms: CD_66  and  CE_67 
REMARK   37  A    between atoms: CE_67  and  NZ_68 
REMARK   38  A    between atoms: N_69  and  CA_70 
REMARK   39  A    between atoms: CA_70  and  C_71 
REMARK   40  A    between atoms: CA_70  and  CB_73 
REMARK       I    between atoms: C_71  and  N_74 
REMARK   41  A    between atoms: N_74  and  CA_75 
REMARK   42  A    between atoms: CA_75  and  C_76 
REMARK   43  A    between atoms: CA_75  and  CB_78 
REMARK       I    between atoms: C_76  and  N_79 
REMARK   44  A    between atoms: N_79  and  CA_80 
REMARK   45  A    between atoms: CA_80  and  C_81 
REMARK   46  A    between atoms: CA_80  and  CB_83 
REMARK       I    between atoms: C_81  and  N_84 
REMARK   47  A    between atoms: N_84  and  CA_85 
REMARK   48  A    between atoms: CA_85  and  C_86 
REMARK   49  A    between atoms: CA_85  and  CB_88 
REMARK   50  A    between atoms: CB_88  and  OG1_89 
REMARK   51  A    between atoms: CB_88  and  CG2_90 
ROOT
ATOM      1  C1  CIR d   1      52.276  21.377  -5.678  0.00  0.00     0.243 C 
ATOM      2  O1  CIR d   1      51.484  22.276  -5.309  0.00  0.00    -0.271 OA
ATOM      3  N   PRO d   1      53.563  21.767  -5.692  0.00  0.00    -0.337 N 
ATOM      4  CA  PRO d   1      54.035  23.101  -5.294  0.00  0.00     0.091 C 
ATOM      5  CB  PRO d   1      55.567  22.946  -5.297  0.00  0.00    -0.036 C 
ATOM      6  CG  PRO d   1      55.811  21.461  -5.123  0.00  0.00    -0.048 C 
ATOM      7  CD  PRO d   1      54.676  20.815  -5.883  0.00  0.00    -0.001 C 
ATOM      8  H48 PRO d   1      53.668  23.346  -4.287  0.00  0.00     0.087 H 
ATOM      9  H49 PRO d   1      56.014  23.511  -4.466  0.00  0.00     0.036 H 
ATOM     10  H50 PRO d   1      55.989  23.298  -6.250  0.00  0.00     0.036 H 
ATOM     11  H51 PRO d   1      55.779  21.181  -4.060  0.00  0.00     0.035 H 
ATOM     12  H52 PRO d   1      56.783  21.171  -5.550  0.00  0.00     0.035 H 
ATOM     13  H53 PRO d   1      54.925  20.707  -6.949  0.00  0.00     0.064 H 
ATOM     14  H54 PRO d   1      54.429  19.829  -5.462  0.00  0.00     0.064 H 
ENDROOT
BRANCH   1  15
ATOM     15  C2  CIR d   1      51.736  20.021  -5.929  0.00  0.00     0.089 C 
ATOM     16  H37 CIR d   1      52.569  19.318  -6.078  0.00  0.00     0.087 H 
BRANCH  15  17
ATOM     17  N2  CIR d   1      50.950  19.591  -4.784  0.00  0.00    -0.346 N 
ATOM     18  C   ALA d   1      51.667  19.177  -3.743  0.00  0.00     0.248 C 
ATOM     19  O   ALA d   1      52.814  18.722  -3.806  0.00  0.00    -0.271 OA
ATOM     20  H38 CIR d   1      49.950  19.605  -4.779  0.00  0.00     0.163 HD
BRANCH  18  21
ATOM     21  CA  ALA d   1      50.788  18.921  -2.523  0.00  0.00     0.177 C 
ATOM     22  H33 ALA d   1      49.740  18.922  -2.856  0.00  0.00     0.099 H 
BRANCH  21  23
ATOM     23  N   ALA d   1      51.060  17.631  -1.911  0.00  0.00    -0.035 N 
ATOM     24  H31 ALA d   1      52.015  17.712  -1.597  0.00  0.00     0.281 HD
ATOM     25  H32 ALA d   1      50.445  17.610  -1.113  0.00  0.00     0.281 HD
BRANCH  23  26
ATOM     26  C1  CIR d   1      50.987  16.340  -2.417  0.00  0.00     0.210 C 
ATOM     27  H18 CIR d   1      51.758  16.270  -3.199  0.00  0.00     0.132 H 
BRANCH  26  28
ATOM     28  O1  CIR d   1      49.877  16.453  -3.002  0.00  0.00    -0.368 OA
ATOM     29  H19 CIR d   1      49.657  15.630  -3.422  0.00  0.00     0.212 HD
ENDBRANCH  26  28
BRANCH  26  30
ATOM     30  C2  CIR d   1      51.261  15.142  -1.595  0.00  0.00     0.062 C 
ATOM     31  H20 CIR d   1      51.762  15.445  -0.664  0.00  0.00     0.079 H 
BRANCH  30  32
ATOM     32  N2  CIR d   1      50.039  14.471  -1.302  0.00  0.00    -0.350 N 
ATOM     33  C   TYR d   1      49.701  14.154  -0.081  0.00  0.00     0.241 C 
ATOM     34  O   TYR d   1      50.367  14.672   0.803  0.00  0.00    -0.271 OA
ATOM     35  H21 CIR d   1      49.422  14.236  -2.053  0.00  0.00     0.163 HD
BRANCH  33  36
ATOM     36  CA  TYR d   1      48.437  13.392   0.268  0.00  0.00     0.093 C 
ATOM     37  H10 TYR d   1      48.188  12.711  -0.560  0.00  0.00     0.088 H 
BRANCH  36  38
ATOM     38  N   TYR d   1      48.696  12.599   1.472  0.00  0.00    -0.346 N 
ATOM     39  C   GLY d   1      49.571  11.596   1.483  0.00  0.00     0.236 C 
ATOM     40  O   GLY d   1      50.128  11.171   0.460  0.00  0.00    -0.272 OA
ATOM     41  H9  TYR d   1      48.200  12.818   2.312  0.00  0.00     0.163 HD
BRANCH  39  42
ATOM     42  CA  GLY d   1      49.833  10.959   2.825  0.00  0.00     0.069 C 
ATOM     43  H7  GLY d   1      50.815  11.287   3.196  0.00  0.00     0.078 H 
ATOM     44  H8  GLY d   1      49.051  11.271   3.533  0.00  0.00     0.078 H 
BRANCH  42  45
ATOM     45  N   GLY d   1      49.824   9.507   2.708  0.00  0.00    -0.351 N 
ATOM     46  C   GLY d   1      48.887   8.755   3.267  0.00  0.00     0.243 C 
ATOM     47  O   GLY d   1      47.944   9.235   3.893  0.00  0.00    -0.272 OA
ATOM     48  H6  GLY d   1      50.552   9.061   2.187  0.00  0.00     0.163 HD
BRANCH  46  49
ATOM     49  CA  GLY d   1      49.021   7.253   3.121  0.00  0.00     0.152 C 
ATOM     50  H4  GLY d   1      48.945   6.984   2.057  0.00  0.00     0.090 H 
ATOM     51  H5  GLY d   1      50.000   6.937   3.510  0.00  0.00     0.090 H 
BRANCH  49  52
ATOM     52  N   GLY d   1      47.969   6.578   3.863  0.00  0.00    -0.071 N 
ATOM     53  H1  GLY d   1      48.070   5.581   3.757  0.00  0.00     0.274 HD
ATOM     54  H2  GLY d   1      47.070   6.864   3.507  0.00  0.00     0.274 HD
ATOM     55  H3  GLY d   1      48.037   6.821   4.839  0.00  0.00     0.274 HD
ENDBRANCH  49  52
ENDBRANCH  46  49
ENDBRANCH  42  45
ENDBRANCH  39  42
ENDBRANCH  36  38
BRANCH  36  56
ATOM     56  CB  TYR d   1      47.251  14.364   0.474  0.00  0.00    -0.014 C 
ATOM     57  H11 TYR d   1      47.345  15.197  -0.238  0.00  0.00     0.043 H 
ATOM     58  H12 TYR d   1      47.285  14.755   1.502  0.00  0.00     0.043 H 
BRANCH  56  59
ATOM     59  CG  TYR d   1      45.920  13.678   0.254  0.00  0.00    -0.056 A 
ATOM     60  CD1 TYR d   1      45.393  13.551  -1.018  0.00  0.00    -0.074 A 
ATOM     61  CE1 TYR d   1      44.201  12.919  -1.242  0.00  0.00    -0.051 A 
ATOM     62  H13 TYR d   1      45.939  13.963  -1.859  0.00  0.00     0.084 H 
ATOM     63  CZ  TYR d   1      43.491  12.409  -0.195  0.00  0.00     0.065 A 
ATOM     64  H15 TYR d   1      43.820  12.823  -2.252  0.00  0.00     0.087 H 
ATOM     65  CE2 TYR d   1      43.977  12.517   1.091  0.00  0.00    -0.051 A 
ATOM     66  CD2 TYR d   1      45.196  13.152   1.312  0.00  0.00    -0.074 A 
ATOM     67  H16 TYR d   1      43.414  12.111   1.923  0.00  0.00     0.087 H 
ATOM     68  H14 TYR d   1      45.583  13.236   2.321  0.00  0.00     0.084 H 
BRANCH  63  69
ATOM     69  OH  TYR d   1      42.310  11.765  -0.451  0.00  0.00    -0.361 OA
ATOM     70  H17 TYR d   1      42.134  11.788  -1.384  0.00  0.00     0.217 HD
ENDBRANCH  63  69
ENDBRANCH  56  59
ENDBRANCH  36  56
ENDBRANCH  33  36
ENDBRANCH  30  32
BRANCH  30  71
ATOM     71  C3  CIR d   1      52.114  14.163  -2.340  0.00  0.00    -0.041 C 
ATOM     72  H22 CIR d   1      51.529  13.720  -3.159  0.00  0.00     0.036 H 
ATOM     73  H23 CIR d   1      52.441  13.369  -1.653  0.00  0.00     0.036 H 
BRANCH  71  74
ATOM     74  C4  CIR d   1      53.325  14.859  -2.911  0.00  0.00    -0.048 C 
ATOM     75  H24 CIR d   1      54.134  14.880  -2.166  0.00  0.00     0.035 H 
ATOM     76  H25 CIR d   1      53.067  15.888  -3.201  0.00  0.00     0.035 H 
BRANCH  74  77
ATOM     77  C5  CIR d   1      53.760  14.071  -4.128  0.00  0.00    -0.003 C 
ATOM     78  H26 CIR d   1      53.229  14.451  -5.013  0.00  0.00     0.064 H 
ATOM     79  H27 CIR d   1      53.513  13.010  -3.979  0.00  0.00     0.064 H 
BRANCH  77  80
ATOM     80  N6  CIR d   1      55.194  14.203  -4.337  0.00  0.00    -0.343 N 
ATOM     81  C7  CIR d   1      55.718  14.750  -5.567  0.00  0.00     0.313 C 
ATOM     82  O7  CIR d   1      54.957  15.125  -6.462  0.00  0.00    -0.248 OA
ATOM     83  N8  CIR d   1      57.153  14.846  -5.728  0.00  0.00    -0.352 N 
ATOM     84  H29 CIR d   1      57.538  15.222  -6.571  0.00  0.00     0.160 HD
ATOM     85  H30 CIR d   1      57.760  14.537  -4.996  0.00  0.00     0.160 HD
ATOM     86  H28 CIR d   1      55.826  13.911  -3.619  0.00  0.00     0.164 HD
ENDBRANCH  77  80
ENDBRANCH  74  77
ENDBRANCH  71  74
ENDBRANCH  30  71
ENDBRANCH  26  30
ENDBRANCH  23  26
ENDBRANCH  21  23
BRANCH  21  87
ATOM     87  CB  ALA d   1      50.964  20.030  -1.513  0.00  0.00    -0.041 C 
ATOM     88  H34 ALA d   1      50.755  20.998  -1.991  0.00  0.00     0.030 H 
ATOM     89  H35 ALA d   1      51.998  20.023  -1.137  0.00  0.00     0.030 H 
ATOM     90  H36 ALA d   1      50.268  19.877  -0.675  0.00  0.00     0.030 H 
ENDBRANCH  21  87
ENDBRANCH  18  21
ENDBRANCH  15  17
BRANCH  15  91
ATOM     91  C3  CIR d   1      50.886  20.051  -7.172  0.00  0.00    -0.036 C 
ATOM     92  H39 CIR d   1      49.981  20.644  -6.971  0.00  0.00     0.036 H 
ATOM     93  H40 CIR d   1      50.599  19.021  -7.432  0.00  0.00     0.036 H 
BRANCH  91  94
ATOM     94  C4  CIR d   1      51.623  20.665  -8.343  0.00  0.00    -0.048 C 
ATOM     95  H41 CIR d   1      52.507  21.209  -7.980  0.00  0.00     0.035 H 
ATOM     96  H42 CIR d   1      50.958  21.360  -8.876  0.00  0.00     0.035 H 
BRANCH  94  97
ATOM     97  C5  CIR d   1      52.058  19.552  -9.282  0.00  0.00    -0.003 C 
ATOM     98  H43 CIR d   1      52.586  19.991 -10.141  0.00  0.00     0.064 H 
ATOM     99  H44 CIR d   1      51.169  19.010  -9.636  0.00  0.00     0.064 H 
BRANCH  97 100
ATOM    100  N6  CIR d   1      52.953  18.612  -8.595  0.00  0.00    -0.343 N 
ATOM    101  C7  CIR d   1      54.356  18.676  -8.919  0.00  0.00     0.313 C 
ATOM    102  O7  CIR d   1      54.745  19.503  -9.734  0.00  0.00    -0.248 OA
ATOM    103  N8  CIR d   1      55.324  17.797  -8.305  0.00  0.00    -0.352 N 
ATOM    104  H46 CIR d   1      56.291  17.867  -8.552  0.00  0.00     0.160 HD
ATOM    105  H47 CIR d   1      55.028  17.118  -7.633  0.00  0.00     0.160 HD
ATOM    106  H45 CIR d   1      52.603  17.954  -7.929  0.00  0.00     0.164 HD
ENDBRANCH  97 100
ENDBRANCH  94  97
ENDBRANCH  91  94
ENDBRANCH  15  91
ENDBRANCH   1  15
BRANCH   4 107
ATOM    107  C   PRO d   1      53.618  24.223  -6.259  0.00  0.00     0.241 C 
ATOM    108  O   PRO d   1      53.573  24.019  -7.474  0.00  0.00    -0.271 OA
ATOM    109  N   ALA d   1      53.312  25.398  -5.709  0.00  0.00    -0.346 N 
ATOM    110  H55 ALA d   1      53.210  25.462  -4.716  0.00  0.00     0.163 HD
BRANCH 109 111
ATOM    111  CA  ALA d   1      53.123  26.588  -6.522  0.00  0.00     0.086 C 
ATOM    112  H56 ALA d   1      52.455  26.339  -7.359  0.00  0.00     0.086 H 
BRANCH 111 113
ATOM    113  C   ALA d   1      54.461  27.057  -7.080  0.00  0.00     0.240 C 
ATOM    114  O   ALA d   1      55.533  26.664  -6.618  0.00  0.00    -0.271 OA
ATOM    115  N   LYS d   1      54.401  27.892  -8.101  0.00  0.00    -0.346 N 
ATOM    116  H60 LYS d   1      53.510  28.192  -8.443  0.00  0.00     0.163 HD
BRANCH 115 117
ATOM    117  CA  LYS d   1      55.614  28.380  -8.732  0.00  0.00     0.089 C 
ATOM    118  H61 LYS d   1      56.478  28.024  -8.152  0.00  0.00     0.087 H 
BRANCH 117 119
ATOM    119  C   LYS d   1      55.605  29.896  -8.718  0.00  0.00     0.241 C 
ATOM    120  O   LYS d   1      54.600  30.514  -9.075  0.00  0.00    -0.271 OA
ATOM    121  N   ALA d   1      56.737  30.481  -8.330  0.00  0.00    -0.346 N 
ATOM    122  H73 ALA d   1      57.520  29.911  -8.080  0.00  0.00     0.163 HD
BRANCH 121 123
ATOM    123  CA  ALA d   1      56.863  31.929  -8.261  0.00  0.00     0.086 C 
ATOM    124  H74 ALA d   1      56.039  32.326  -7.649  0.00  0.00     0.086 H 
BRANCH 123 125
ATOM    125  C   ALA d   1      56.768  32.538  -9.654  0.00  0.00     0.240 C 
ATOM    126  O   ALA d   1      57.465  32.108 -10.579  0.00  0.00    -0.271 OA
ATOM    127  N   ALA d   1      55.902  33.542  -9.798  0.00  0.00    -0.346 N 
ATOM    128  H78 ALA d   1      55.360  33.837  -9.011  0.00  0.00     0.163 HD
BRANCH 127 129
ATOM    129  CA  ALA d   1      55.729  34.213 -11.068  0.00  0.00     0.086 C 
ATOM    130  H79 ALA d   1      55.553  33.451 -11.841  0.00  0.00     0.086 H 
BRANCH 129 131
ATOM    131  C   ALA d   1      56.977  35.012 -11.444  0.00  0.00     0.240 C 
ATOM    132  O   ALA d   1      57.792  35.405 -10.597  0.00  0.00    -0.271 OA
ATOM    133  N   ALA d   1      57.088  35.278 -12.742  0.00  0.00    -0.346 N 
ATOM    134  H83 ALA d   1      56.411  34.900 -13.373  0.00  0.00     0.163 HD
BRANCH 133 135
ATOM    135  CA  ALA d   1      58.159  36.099 -13.272  0.00  0.00     0.086 C 
ATOM    136  H84 ALA d   1      59.113  35.754 -12.848  0.00  0.00     0.086 H 
BRANCH 135 137
ATOM    137  C   ALA d   1      57.949  37.555 -12.892  0.00  0.00     0.240 C 
ATOM    138  O   ALA d   1      56.843  38.099 -13.018  0.00  0.00    -0.271 OA
ATOM    139  N   THR d   1      59.021  38.198 -12.445  0.00  0.00    -0.343 N 
ATOM    140  H88 THR d   1      59.875  37.701 -12.290  0.00  0.00     0.163 HD
BRANCH 139 141
ATOM    141  CA  THR d   1      58.952  39.628 -12.181  0.00  0.00     0.120 C 
ATOM    142  H89 THR d   1      57.904  39.890 -11.975  0.00  0.00     0.093 H 
BRANCH 141 143
ATOM    143  C   THR d   1      59.416  40.422 -13.398  0.00  0.00     0.199 C 
ATOM    144  O   THR d   1      59.278  41.644 -13.428  0.00  0.00    -0.646 OA
ATOM    145  OXT THR d   1      59.930  39.843 -14.354  0.00  0.00    -0.646 OA
ENDBRANCH 141 143
BRANCH 141 146
ATOM    146  CB  THR d   1      59.791  40.000 -10.957  0.00  0.00     0.061 C 
ATOM    147  H90 THR d   1      59.636  41.060 -10.708  0.00  0.00     0.086 H 
BRANCH 146 148
ATOM    148  OG1 THR d   1      61.180  39.765 -11.236  0.00  0.00    -0.393 OA
ATOM    149  H91 THR d   1      61.698  39.997 -10.474  0.00  0.00     0.210 HD
ENDBRANCH 146 148
BRANCH 146 150
ATOM    150  CG2 THR d   1      59.372  39.131  -9.792  0.00  0.00    -0.050 C 
ATOM    151  H92 THR d   1      59.970  39.392  -8.906  0.00  0.00     0.031 H 
ATOM    152  H93 THR d   1      59.535  38.073 -10.046  0.00  0.00     0.031 H 
ATOM    153  H94 THR d   1      58.306  39.296  -9.576  0.00  0.00     0.031 H 
ENDBRANCH 146 150
ENDBRANCH 141 146
ENDBRANCH 139 141
ENDBRANCH 135 137
BRANCH 135 154
ATOM    154  CB  ALA d   1      58.217  35.973 -14.794  0.00  0.00    -0.049 C 
ATOM    155  H85 ALA d   1      59.033  36.600 -15.183  0.00  0.00     0.030 H 
ATOM    156  H86 ALA d   1      57.261  36.305 -15.226  0.00  0.00     0.030 H 
ATOM    157  H87 ALA d   1      58.399  34.923 -15.068  0.00  0.00     0.030 H 
ENDBRANCH 135 154
ENDBRANCH 133 135
ENDBRANCH 129 131
BRANCH 129 158
ATOM    158  CB  ALA d   1      54.527  35.155 -11.024  0.00  0.00    -0.049 C 
ATOM    159  H80 ALA d   1      54.416  35.653 -11.998  0.00  0.00     0.030 H 
ATOM    160  H81 ALA d   1      54.683  35.912 -10.241  0.00  0.00     0.030 H 
ATOM    161  H82 ALA d   1      53.617  34.578 -10.801  0.00  0.00     0.030 H 
ENDBRANCH 129 158
ENDBRANCH 127 129
ENDBRANCH 123 125
BRANCH 123 162
ATOM    162  CB  ALA d   1      58.193  32.306  -7.597  0.00  0.00    -0.049 C 
ATOM    163  H75 ALA d   1      58.281  33.401  -7.548  0.00  0.00     0.030 H 
ATOM    164  H76 ALA d   1      59.026  31.897  -8.187  0.00  0.00     0.030 H 
ATOM    165  H77 ALA d   1      58.226  31.890  -6.579  0.00  0.00     0.030 H 
ENDBRANCH 123 162
ENDBRANCH 121 123
ENDBRANCH 117 119
BRANCH 117 166
ATOM    166  CB  LYS d   1      55.750  27.869 -10.158  0.00  0.00    -0.038 C 
ATOM    167  H62 LYS d   1      54.951  28.318 -10.767  0.00  0.00     0.036 H 
ATOM    168  H63 LYS d   1      55.634  26.775 -10.149  0.00  0.00     0.036 H 
BRANCH 166 169
ATOM    169  CG  LYS d   1      57.092  28.207 -10.797  0.00  0.00    -0.061 C 
ATOM    170  H64 LYS d   1      57.124  29.288 -10.998  0.00  0.00     0.033 H 
ATOM    171  H65 LYS d   1      57.179  27.655 -11.745  0.00  0.00     0.033 H 
BRANCH 169 172
ATOM    172  CD  LYS d   1      58.293  27.835  -9.895  0.00  0.00    -0.043 C 
ATOM    173  H66 LYS d   1      58.192  28.362  -8.935  0.00  0.00     0.035 H 
ATOM    174  H67 LYS d   1      59.222  28.152 -10.392  0.00  0.00     0.035 H 
BRANCH 172 175
ATOM    175  CE  LYS d   1      58.365  26.338  -9.629  0.00  0.00     0.080 C 
ATOM    176  H68 LYS d   1      58.044  25.791 -10.528  0.00  0.00     0.075 H 
ATOM    177  H69 LYS d   1      57.703  26.083  -8.789  0.00  0.00     0.075 H 
BRANCH 175 178
ATOM    178  NZ  LYS d   1      59.777  25.953  -9.287  0.00  0.00    -0.079 N 
ATOM    179  H70 LYS d   1      59.822  24.961  -9.111  0.00  0.00     0.274 HD
ATOM    180  H71 LYS d   1      60.072  26.454  -8.463  0.00  0.00     0.274 HD
ATOM    181  H72 LYS d   1      60.385  26.186 -10.057  0.00  0.00     0.274 HD
ENDBRANCH 175 178
ENDBRANCH 172 175
ENDBRANCH 169 172
ENDBRANCH 166 169
ENDBRANCH 117 166
ENDBRANCH 115 117
ENDBRANCH 111 113
BRANCH 111 182
ATOM    182  CB  ALA d   1      52.487  27.719  -5.703  0.00  0.00    -0.049 C 
ATOM    183  H57 ALA d   1      52.356  28.605  -6.341  0.00  0.00     0.030 H 
ATOM    184  H58 ALA d   1      53.142  27.971  -4.856  0.00  0.00     0.030 H 
ATOM    185  H59 ALA d   1      51.508  27.392  -5.324  0.00  0.00     0.030 H 
ENDBRANCH 111 182
ENDBRANCH 109 111
ENDBRANCH   4 107
TORSDOF 51
