REMARK  13 active torsions:
REMARK  status: ('A' for Active; 'I' for Inactive)
REMARK    1  A    between atoms: C2_12  and  C4_1 
REMARK    2  A    between atoms: N13_14  and  C14_2 
REMARK    3  A    between atoms: C5_3  and  C2_12 
REMARK    4  A    between atoms: C8_7  and  C11_5 
REMARK       I    between atoms: C11_5  and  N13_14 
REMARK    5  A    between atoms: C2_12  and  C3_10 
REMARK    6  A    between atoms: C2_12  and  C1_11 
REMARK    7  A    between atoms: C18_18  and  C22_22 
REMARK    8  A    between atoms: C19_19  and  C20_20 
REMARK    9  A    between atoms: C20_20  and  O21_21 
REMARK   10  A    between atoms: C24_24  and  N30_30 
REMARK   11  A    between atoms: N27_27  and  C29_29 
REMARK   12  A    between atoms: N30_30  and  C31_31 
REMARK   13  A    between atoms: C34_34  and  C37_37 
REMARK       I    between atoms: C37_37  and  N39_39 
ROOT
ATOM      1  C14 DTJ d   1     103.885 -48.503  -7.714  0.00  0.00     0.044 A 
ATOM      2  C15 DTJ d   1     104.111 -49.503  -8.641  0.00  0.00    -0.057 A 
ATOM      3  C16 DTJ d   1     103.620 -49.400  -9.927  0.00  0.00    -0.080 A 
ATOM      4  C17 DTJ d   1     102.903 -48.286 -10.317  0.00  0.00    -0.070 A 
ATOM      5  C18 DTJ d   1     102.687 -47.251  -9.407  0.00  0.00     0.003 A 
ATOM      6  C19 DTJ d   1     103.163 -47.376  -8.094  0.00  0.00     0.004 A 
ATOM      7  H15 DTJ d   1     104.681 -50.379  -8.354  0.00  0.00     0.086 H 
ATOM      8  H16 DTJ d   1     103.799 -50.200 -10.636  0.00  0.00     0.083 H 
ATOM      9  H17 DTJ d   1     102.510 -48.216 -11.325  0.00  0.00     0.084 H 
ENDROOT
BRANCH   5  10
ATOM     10  C22 DTJ d   1     101.907 -46.065  -9.823  0.00  0.00     0.061 A 
ATOM     11  C23 DTJ d   1     102.167 -45.406 -11.050  0.00  0.00    -0.022 A 
ATOM     12  C24 DTJ d   1     101.389 -44.329 -11.393  0.00  0.00     0.130 A 
ATOM     13  H21 DTJ d   1     102.966 -45.747 -11.706  0.00  0.00     0.091 H 
ATOM     14  C25 DTJ d   1     100.368 -43.891 -10.522  0.00  0.00     0.290 A 
ATOM     15  O26 DTJ d   1      99.688 -42.914 -10.822  0.00  0.00    -0.264 OA
ATOM     16  N27 DTJ d   1     100.166 -44.530  -9.364  0.00  0.00    -0.260 N 
ATOM     17  N28 DTJ d   1     100.946 -45.643  -9.036  0.00  0.00    -0.295 N 
ATOM     18  H22 DTJ d   1     100.762 -46.144  -8.155  0.00  0.00     0.187 HD
BRANCH  12  19
ATOM     19  N30 DTJ d   1     101.519 -43.592 -12.567  0.00  0.00    -0.224 NA
BRANCH  19  20
ATOM     20  C31 DTJ d   1     102.382 -43.796 -13.625  0.00  0.00     0.149 A 
ATOM     21  C32 DTJ d   1     102.127 -43.011 -14.744  0.00  0.00    -0.036 A 
ATOM     22  C33 DTJ d   1     102.926 -43.133 -15.835  0.00  0.00    -0.063 A 
ATOM     23  H26 DTJ d   1     101.300 -42.310 -14.745  0.00  0.00     0.089 H 
ATOM     24  C34 DTJ d   1     103.997 -44.039 -15.785  0.00  0.00     0.049 A 
ATOM     25  H27 DTJ d   1     102.741 -42.543 -16.726  0.00  0.00     0.085 H 
ATOM     26  C35 DTJ d   1     104.202 -44.811 -14.632  0.00  0.00     0.020 A 
ATOM     27  N36 DTJ d   1     103.391 -44.663 -13.593  0.00  0.00    -0.240 NA
ATOM     28  H28 DTJ d   1     105.018 -45.524 -14.590  0.00  0.00     0.116 H 
BRANCH  24  29
ATOM     29  C37 DTJ d   1     104.860 -44.176 -16.969  0.00  0.00     0.255 C 
ATOM     30  O38 DTJ d   1     105.050 -45.288 -17.407  0.00  0.00    -0.267 OA
ATOM     31  N39 DTJ d   1     105.419 -43.101 -17.571  0.00  0.00    -0.344 N 
ATOM     32  C40 DTJ d   1     105.231 -41.724 -17.076  0.00  0.00     0.018 C 
ATOM     33  C44 DTJ d   1     106.271 -43.255 -18.760  0.00  0.00     0.018 C 
ATOM     34  C41 DTJ d   1     106.093 -40.791 -17.931  0.00  0.00     0.034 C 
ATOM     35  H29 DTJ d   1     105.543 -41.660 -16.023  0.00  0.00     0.067 H 
ATOM     36  H30 DTJ d   1     104.172 -41.438 -17.163  0.00  0.00     0.067 H 
ATOM     37  O42 DTJ d   1     105.688 -40.937 -19.293  0.00  0.00    -0.388 OA
ATOM     38  H31 DTJ d   1     107.154 -41.063 -17.826  0.00  0.00     0.076 H 
ATOM     39  H32 DTJ d   1     105.948 -39.749 -17.608  0.00  0.00     0.076 H 
ATOM     40  C43 DTJ d   1     105.754 -42.270 -19.821  0.00  0.00     0.034 C 
ATOM     41  H33 DTJ d   1     106.434 -42.282 -20.685  0.00  0.00     0.076 H 
ATOM     42  H34 DTJ d   1     104.749 -42.581 -20.141  0.00  0.00     0.076 H 
ATOM     43  H35 DTJ d   1     106.206 -44.285 -19.139  0.00  0.00     0.067 H 
ATOM     44  H36 DTJ d   1     107.316 -43.022 -18.507  0.00  0.00     0.067 H 
ENDBRANCH  24  29
ENDBRANCH  19  20
ENDBRANCH  12  19
BRANCH  16  45
ATOM     45  C29 DTJ d   1      99.124 -44.064  -8.455  0.00  0.00     0.004 C 
ATOM     46  H23 DTJ d   1      98.626 -43.184  -8.888  0.00  0.00     0.059 H 
ATOM     47  H24 DTJ d   1      99.575 -43.792  -7.489  0.00  0.00     0.059 H 
ATOM     48  H25 DTJ d   1      98.385 -44.865  -8.302  0.00  0.00     0.059 H 
ENDBRANCH  16  45
ENDBRANCH   5  10
BRANCH   6  49
ATOM     49  C20 DTJ d   1     102.976 -46.266  -7.086  0.00  0.00     0.043 C 
ATOM     50  H18 DTJ d   1     102.693 -45.350  -7.625  0.00  0.00     0.081 H 
ATOM     51  H19 DTJ d   1     103.931 -46.104  -6.564  0.00  0.00     0.081 H 
BRANCH  49  52
ATOM     52  O21 DTJ d   1     101.977 -46.546  -6.119  0.00  0.00    -0.396 OA
ATOM     53  H20 DTJ d   1     101.144 -46.679  -6.556  0.00  0.00     0.209 HD
ENDBRANCH  49  52
ENDBRANCH   6  49
BRANCH   1  54
ATOM     54  N13 DTJ d   1     104.369 -48.558  -6.386  0.00  0.00    -0.322 N 
ATOM     55  C11 DTJ d   1     103.696 -49.157  -5.371  0.00  0.00     0.256 C 
ATOM     56  O12 DTJ d   1     102.635 -49.746  -5.578  0.00  0.00    -0.267 OA
ATOM     57  H14 DTJ d   1     105.252 -48.134  -6.185  0.00  0.00     0.169 HD
BRANCH  55  58
ATOM     58  C8  DTJ d   1     104.275 -49.123  -3.996  0.00  0.00     0.032 A 
ATOM     59  C7  DTJ d   1     103.873 -50.039  -3.010  0.00  0.00    -0.067 A 
ATOM     60  C6  DTJ d   1     104.432 -49.998  -1.734  0.00  0.00    -0.075 A 
ATOM     61  H5  DTJ d   1     103.121 -50.784  -3.244  0.00  0.00     0.085 H 
ATOM     62  C5  DTJ d   1     105.379 -49.026  -1.415  0.00  0.00    -0.051 A 
ATOM     63  H4  DTJ d   1     104.130 -50.724  -0.988  0.00  0.00     0.084 H 
ATOM     64  C10 DTJ d   1     105.782 -48.115  -2.385  0.00  0.00    -0.075 A 
ATOM     65  C9  DTJ d   1     105.241 -48.154  -3.664  0.00  0.00    -0.067 A 
ATOM     66  H7  DTJ d   1     106.527 -47.366  -2.141  0.00  0.00     0.084 H 
ATOM     67  H6  DTJ d   1     105.564 -47.436  -4.409  0.00  0.00     0.085 H 
BRANCH  62  68
ATOM     68  C2  DTJ d   1     105.999 -48.972  -0.039  0.00  0.00    -0.024 C 
BRANCH  68  69
ATOM     69  C4  DTJ d   1     105.363 -50.041   0.853  0.00  0.00    -0.066 C 
ATOM     70  H1  DTJ d   1     105.816 -50.000   1.855  0.00  0.00     0.028 H 
ATOM     71  H2  DTJ d   1     105.534 -51.035   0.414  0.00  0.00     0.028 H 
ATOM     72  H3  DTJ d   1     104.281 -49.857   0.932  0.00  0.00     0.028 H 
ENDBRANCH  68  69
BRANCH  68  73
ATOM     73  C3  DTJ d   1     107.488 -49.291  -0.124  0.00  0.00    -0.066 C 
ATOM     74  H8  DTJ d   1     107.987 -48.544  -0.759  0.00  0.00     0.028 H 
ATOM     75  H9  DTJ d   1     107.624 -50.292  -0.559  0.00  0.00     0.028 H 
ATOM     76  H10 DTJ d   1     107.926 -49.267   0.885  0.00  0.00     0.028 H 
ENDBRANCH  68  73
BRANCH  68  77
ATOM     77  C1  DTJ d   1     105.826 -47.584   0.585  0.00  0.00    -0.066 C 
ATOM     78  H11 DTJ d   1     104.755 -47.343   0.651  0.00  0.00     0.028 H 
ATOM     79  H12 DTJ d   1     106.332 -46.835  -0.041  0.00  0.00     0.028 H 
ATOM     80  H13 DTJ d   1     106.266 -47.578   1.593  0.00  0.00     0.028 H 
ENDBRANCH  68  77
ENDBRANCH  62  68
ENDBRANCH  55  58
ENDBRANCH   1  54
TORSDOF 13
