REMARK WARNING: 32 MAX_TORS EXCEEDED!!!
REMARK  51 active torsions:
REMARK  status: ('A' for Active; 'I' for Inactive)
REMARK    1  A    between atoms: CA_2  and  N_1 
REMARK    2  A    between atoms: C_3  and  CA_2 
REMARK       I    between atoms: N_5  and  C_3 
REMARK    3  A    between atoms: CA_6  and  N_5 
REMARK    4  A    between atoms: C_7  and  CA_6 
REMARK       I    between atoms: N_9  and  C_7 
REMARK    5  A    between atoms: CA_10  and  N_9 
REMARK    6  A    between atoms: C_11  and  CA_10 
REMARK    7  A    between atoms: CA_10  and  CB_13 
REMARK       I    between atoms: N_21  and  C_11 
REMARK    8  A    between atoms: CB_13  and  CG_14 
REMARK    9  A    between atoms: CZ_19  and  OH_20 
REMARK   10  A    between atoms: CA_22  and  N_21 
REMARK   11  A    between atoms: C_23  and  CA_22 
REMARK   12  A    between atoms: CA_22  and  CB_25 
REMARK       I    between atoms: N_32  and  C_23 
REMARK   13  A    between atoms: CB_25  and  CG_26 
REMARK   14  A    between atoms: CG_26  and  CD_27 
REMARK   15  A    between atoms: CD_27  and  NE_28 
REMARK       I    between atoms: NE_28  and  CZ_29 
REMARK       I    between atoms: CZ_29  and  NH1_30 
REMARK   16  A    between atoms: CA_33  and  N_32 
REMARK   17  A    between atoms: C_34  and  CA_33 
REMARK   18  A    between atoms: CA_33  and  CB_36 
REMARK       I    between atoms: N2_40  and  C_34 
REMARK   19  A    between atoms: C1_37  and  O1_38 
REMARK   20  A    between atoms: C2_39  and  C1_37 
REMARK   21  A    between atoms: C1_37  and  N_48 
REMARK   22  A    between atoms: C2_39  and  N2_40 
REMARK   23  A    between atoms: C2_39  and  C3_41 
REMARK   24  A    between atoms: C3_41  and  C4_42 
REMARK   25  A    between atoms: C4_42  and  C5_43 
REMARK   26  A    between atoms: C5_43  and  N6_44 
REMARK       I    between atoms: N6_44  and  C7_45 
REMARK       I    between atoms: C7_45  and  N8_47 
REMARK   27  A    between atoms: CA_49  and  C_50 
REMARK       I    between atoms: C_50  and  N_55 
REMARK   28  A    between atoms: N_55  and  CA_56 
REMARK   29  A    between atoms: CA_56  and  C_57 
REMARK   30  A    between atoms: CA_56  and  CB_59 
REMARK       I    between atoms: C_57  and  N_60 
REMARK   31  A    between atoms: N_60  and  CA_61 
REMARK   32  A    between atoms: CA_61  and  C_62 
REMARK   33  A    between atoms: CA_61  and  CB_64 
REMARK       I    between atoms: C_62  and  N_69 
REMARK   34  A    between atoms: CB_64  and  CG_65 
REMARK   35  A    between atoms: CG_65  and  CD_66 
REMARK   36  A    between atoms: CD_66  and  CE_67 
REMARK   37  A    between atoms: CE_67  and  NZ_68 
REMARK   38  A    between atoms: N_69  and  CA_70 
REMARK   39  A    between atoms: CA_70  and  C_71 
REMARK   40  A    between atoms: CA_70  and  CB_73 
REMARK       I    between atoms: C_71  and  N_74 
REMARK   41  A    between atoms: N_74  and  CA_75 
REMARK   42  A    between atoms: CA_75  and  C_76 
REMARK   43  A    between atoms: CA_75  and  CB_78 
REMARK       I    between atoms: C_76  and  N_79 
REMARK   44  A    between atoms: N_79  and  CA_80 
REMARK   45  A    between atoms: CA_80  and  C_81 
REMARK   46  A    between atoms: CA_80  and  CB_83 
REMARK       I    between atoms: C_81  and  N_84 
REMARK   47  A    between atoms: N_84  and  CA_85 
REMARK   48  A    between atoms: CA_85  and  C_86 
REMARK   49  A    between atoms: CA_85  and  CB_88 
REMARK   50  A    between atoms: CB_88  and  OG1_89 
REMARK   51  A    between atoms: CB_88  and  CG2_90 
ROOT
ATOM      1  C1  CIR d   1      52.451  22.967  -5.982  0.00  0.00     0.212 C 
ATOM      2  H36 CIR d   1      52.084  23.394  -6.927  0.00  0.00     0.132 H 
ENDROOT
BRANCH   1   3
ATOM      3  O1  CIR d   1      51.921  23.672  -5.089  0.00  0.00    -0.368 OA
ATOM      4  H37 CIR d   1      50.990  23.486  -5.051  0.00  0.00     0.212 HD
ENDBRANCH   1   3
BRANCH   1   5
ATOM      5  C2  CIR d   1      52.050  21.546  -6.124  0.00  0.00     0.062 C 
ATOM      6  H38 CIR d   1      52.944  20.918  -6.250  0.00  0.00     0.079 H 
BRANCH   5   7
ATOM      7  N2  CIR d   1      51.331  21.137  -4.945  0.00  0.00    -0.350 N 
ATOM      8  C   ALA d   1      52.020  20.806  -3.857  0.00  0.00     0.240 C 
ATOM      9  O   ALA d   1      53.109  20.245  -3.975  0.00  0.00    -0.271 OA
ATOM     10  H39 CIR d   1      50.332  21.103  -4.945  0.00  0.00     0.163 HD
BRANCH   8  11
ATOM     11  CA  ALA d   1      51.065  20.421  -2.734  0.00  0.00     0.086 C 
ATOM     12  H32 ALA d   1      50.051  20.333  -3.152  0.00  0.00     0.086 H 
BRANCH  11  13
ATOM     13  N   ALA d   1      51.447  19.133  -2.170  0.00  0.00    -0.346 N 
ATOM     14  C   ARG d   1      50.817  18.008  -2.490  0.00  0.00     0.241 C 
ATOM     15  O   ARG d   1      49.843  17.966  -3.248  0.00  0.00    -0.271 OA
ATOM     16  H31 ALA d   1      52.207  19.095  -1.522  0.00  0.00     0.163 HD
BRANCH  14  17
ATOM     17  CA  ARG d   1      51.361  16.738  -1.853  0.00  0.00     0.089 C 
ATOM     18  H19 ARG d   1      51.989  17.012  -0.992  0.00  0.00     0.087 H 
BRANCH  17  19
ATOM     19  N   ARG d   1      50.259  15.917  -1.381  0.00  0.00    -0.346 N 
ATOM     20  C   TYR d   1      50.045  15.659  -0.097  0.00  0.00     0.241 C 
ATOM     21  O   TYR d   1      50.772  16.087   0.805  0.00  0.00    -0.271 OA
ATOM     22  H18 ARG d   1      49.632  15.528  -2.056  0.00  0.00     0.163 HD
BRANCH  20  23
ATOM     23  CA  TYR d   1      48.834  14.784   0.202  0.00  0.00     0.093 C 
ATOM     24  H10 TYR d   1      48.647  14.134  -0.666  0.00  0.00     0.088 H 
BRANCH  23  25
ATOM     25  N   TYR d   1      49.086  13.946   1.363  0.00  0.00    -0.346 N 
ATOM     26  C   GLY d   1      50.007  12.989   1.335  0.00  0.00     0.236 C 
ATOM     27  O   GLY d   1      50.657  12.682   0.333  0.00  0.00    -0.272 OA
ATOM     28  H9  TYR d   1      48.556  14.093   2.198  0.00  0.00     0.163 HD
BRANCH  26  29
ATOM     29  CA  GLY d   1      50.211  12.249   2.652  0.00  0.00     0.069 C 
ATOM     30  H7  GLY d   1      51.220  12.462   3.035  0.00  0.00     0.078 H 
ATOM     31  H8  GLY d   1      49.462  12.592   3.381  0.00  0.00     0.078 H 
BRANCH  29  32
ATOM     32  N   GLY d   1      50.067  10.825   2.454  0.00  0.00    -0.351 N 
ATOM     33  C   GLY d   1      49.128  10.108   3.060  0.00  0.00     0.243 C 
ATOM     34  O   GLY d   1      48.305  10.590   3.843  0.00  0.00    -0.272 OA
ATOM     35  H6  GLY d   1      50.700  10.360   1.835  0.00  0.00     0.163 HD
BRANCH  33  36
ATOM     36  CA  GLY d   1      49.128   8.629   2.729  0.00  0.00     0.152 C 
ATOM     37  H4  GLY d   1      48.091   8.313   2.543  0.00  0.00     0.090 H 
ATOM     38  H5  GLY d   1      49.727   8.475   1.820  0.00  0.00     0.090 H 
BRANCH  36  39
ATOM     39  N   GLY d   1      49.677   7.807   3.787  0.00  0.00    -0.071 N 
ATOM     40  H1  GLY d   1      49.650   6.839   3.509  0.00  0.00     0.274 HD
ATOM     41  H2  GLY d   1      49.132   7.931   4.626  0.00  0.00     0.274 HD
ATOM     42  H3  GLY d   1      50.631   8.079   3.963  0.00  0.00     0.274 HD
ENDBRANCH  36  39
ENDBRANCH  33  36
ENDBRANCH  29  32
ENDBRANCH  26  29
ENDBRANCH  23  25
BRANCH  23  43
ATOM     43  CB  TYR d   1      47.601  15.656   0.434  0.00  0.00    -0.014 C 
ATOM     44  H11 TYR d   1      47.675  16.538  -0.220  0.00  0.00     0.043 H 
ATOM     45  H12 TYR d   1      47.601  15.978   1.486  0.00  0.00     0.043 H 
BRANCH  43  46
ATOM     46  CG  TYR d   1      46.284  14.966   0.150  0.00  0.00    -0.056 A 
ATOM     47  CD1 TYR d   1      45.889  14.700  -1.153  0.00  0.00    -0.074 A 
ATOM     48  CE1 TYR d   1      44.686  14.077  -1.424  0.00  0.00    -0.051 A 
ATOM     49  H13 TYR d   1      46.536  14.986  -1.974  0.00  0.00     0.084 H 
ATOM     50  CZ  TYR d   1      43.853  13.717  -0.384  0.00  0.00     0.065 A 
ATOM     51  H15 TYR d   1      44.398  13.872  -2.449  0.00  0.00     0.087 H 
ATOM     52  CE2 TYR d   1      44.218  13.976   0.920  0.00  0.00    -0.051 A 
ATOM     53  CD2 TYR d   1      45.427  14.599   1.182  0.00  0.00    -0.074 A 
ATOM     54  H16 TYR d   1      43.562  13.694   1.736  0.00  0.00     0.087 H 
ATOM     55  H14 TYR d   1      45.710  14.804   2.208  0.00  0.00     0.084 H 
BRANCH  50  56
ATOM     56  OH  TYR d   1      42.652  13.098  -0.645  0.00  0.00    -0.361 OA
ATOM     57  H17 TYR d   1      42.549  12.992  -1.583  0.00  0.00     0.217 HD
ENDBRANCH  50  56
ENDBRANCH  43  46
ENDBRANCH  23  43
ENDBRANCH  20  23
ENDBRANCH  17  19
BRANCH  17  58
ATOM     58  CB  ARG d   1      52.223  15.977  -2.863  0.00  0.00    -0.036 C 
ATOM     59  H20 ARG d   1      52.941  16.683  -3.305  0.00  0.00     0.036 H 
ATOM     60  H21 ARG d   1      51.565  15.582  -3.651  0.00  0.00     0.036 H 
BRANCH  58  61
ATOM     61  CG  ARG d   1      52.999  14.819  -2.266  0.00  0.00    -0.048 C 
ATOM     62  H22 ARG d   1      52.293  14.120  -1.794  0.00  0.00     0.035 H 
ATOM     63  H23 ARG d   1      53.695  15.207  -1.507  0.00  0.00     0.035 H 
BRANCH  61  64
ATOM     64  CD  ARG d   1      53.790  14.080  -3.332  0.00  0.00     0.009 C 
ATOM     65  H24 ARG d   1      54.454  14.794  -3.841  0.00  0.00     0.064 H 
ATOM     66  H25 ARG d   1      53.088  13.648  -4.061  0.00  0.00     0.064 H 
BRANCH  64  67
ATOM     67  NE  ARG d   1      54.598  13.007  -2.761  0.00  0.00    -0.227 N 
ATOM     68  CZ  ARG d   1      55.239  12.091  -3.480  0.00  0.00     0.665 C 
ATOM     69  NH1 ARG d   1      55.165  12.113  -4.804  0.00  0.00    -0.235 N 
ATOM     70  NH2 ARG d   1      55.952  11.151  -2.875  0.00  0.00    -0.235 N 
ATOM     71  H27 ARG d   1      55.662  11.402  -5.359  0.00  0.00     0.174 HD
ATOM     72  H28 ARG d   1      54.610  12.841  -5.277  0.00  0.00     0.174 HD
ATOM     73  H29 ARG d   1      56.011  11.131  -1.847  0.00  0.00     0.174 HD
ATOM     74  H30 ARG d   1      56.447  10.441  -3.433  0.00  0.00     0.174 HD
ATOM     75  H26 ARG d   1      54.676  12.956  -1.735  0.00  0.00     0.177 HD
ENDBRANCH  64  67
ENDBRANCH  61  64
ENDBRANCH  58  61
ENDBRANCH  17  58
ENDBRANCH  14  17
ENDBRANCH  11  13
BRANCH  11  76
ATOM     76  CB  ALA d   1      51.048  21.493  -1.655  0.00  0.00    -0.049 C 
ATOM     77  H33 ALA d   1      50.758  22.456  -2.100  0.00  0.00     0.030 H 
ATOM     78  H34 ALA d   1      52.050  21.582  -1.210  0.00  0.00     0.030 H 
ATOM     79  H35 ALA d   1      50.324  21.216  -0.875  0.00  0.00     0.030 H 
ENDBRANCH  11  76
ENDBRANCH   8  11
ENDBRANCH   5   7
BRANCH   5  80
ATOM     80  C3  CIR d   1      51.161  21.406  -7.319  0.00  0.00    -0.041 C 
ATOM     81  H40 CIR d   1      50.248  22.001  -7.167  0.00  0.00     0.036 H 
ATOM     82  H41 CIR d   1      50.891  20.348  -7.451  0.00  0.00     0.036 H 
BRANCH  80  83
ATOM     83  C4  CIR d   1      51.882  21.899  -8.555  0.00  0.00    -0.048 C 
ATOM     84  H42 CIR d   1      52.760  22.491  -8.258  0.00  0.00     0.035 H 
ATOM     85  H43 CIR d   1      51.203  22.524  -9.153  0.00  0.00     0.035 H 
BRANCH  83  86
ATOM     86  C5  CIR d   1      52.327  20.710  -9.373  0.00  0.00    -0.003 C 
ATOM     87  H44 CIR d   1      52.764  21.060 -10.320  0.00  0.00     0.064 H 
ATOM     88  H45 CIR d   1      51.460  20.067  -9.585  0.00  0.00     0.064 H 
BRANCH  86  89
ATOM     89  N6  CIR d   1      53.322  19.951  -8.633  0.00  0.00    -0.343 N 
ATOM     90  C7  CIR d   1      54.721  20.158  -8.898  0.00  0.00     0.313 C 
ATOM     91  O7  CIR d   1      55.066  20.968  -9.742  0.00  0.00    -0.248 OA
ATOM     92  N8  CIR d   1      55.713  19.409  -8.167  0.00  0.00    -0.352 N 
ATOM     93  H47 CIR d   1      56.685  19.553  -8.352  0.00  0.00     0.160 HD
ATOM     94  H48 CIR d   1      55.429  18.745  -7.475  0.00  0.00     0.160 HD
ATOM     95  H46 CIR d   1      53.035  19.287  -7.942  0.00  0.00     0.164 HD
ENDBRANCH  86  89
ENDBRANCH  83  86
ENDBRANCH  80  83
ENDBRANCH   5  80
ENDBRANCH   1   5
BRANCH   1  96
ATOM     96  N   PRO d   1      53.740  23.311  -5.942  0.00  0.00    -0.030 N 
ATOM     97  CA  PRO d   1      54.223  24.615  -5.474  0.00  0.00     0.182 C 
ATOM     98  CB  PRO d   1      55.741  24.419  -5.381  0.00  0.00    -0.028 C 
ATOM     99  H50 PRO d   1      53.797  24.851  -4.488  0.00  0.00     0.100 H 
ATOM    100  CG  PRO d   1      55.934  22.946  -5.274  0.00  0.00    -0.040 C 
ATOM    101  H51 PRO d   1      56.143  24.927  -4.492  0.00  0.00     0.036 H 
ATOM    102  H52 PRO d   1      56.237  24.809  -6.282  0.00  0.00     0.036 H 
ATOM    103  CD  PRO d   1      54.835  22.338  -6.087  0.00  0.00     0.087 C 
ATOM    104  H53 PRO d   1      55.859  22.624  -4.225  0.00  0.00     0.035 H 
ATOM    105  H54 PRO d   1      56.916  22.657  -5.677  0.00  0.00     0.035 H 
ATOM    106  H55 PRO d   1      55.134  22.233  -7.140  0.00  0.00     0.076 H 
ATOM    107  H56 PRO d   1      54.546  21.355  -5.688  0.00  0.00     0.076 H 
ATOM    108  H49 PRO d   1      53.740  23.575  -6.915  0.00  0.00     0.284 HD
BRANCH  97 109
ATOM    109  C   PRO d   1      53.891  25.743  -6.443  0.00  0.00     0.249 C 
ATOM    110  O   PRO d   1      53.913  25.535  -7.656  0.00  0.00    -0.271 OA
ATOM    111  N   ALA d   1      53.581  26.921  -5.911  0.00  0.00    -0.346 N 
ATOM    112  H57 ALA d   1      53.456  27.002  -4.922  0.00  0.00     0.163 HD
BRANCH 111 113
ATOM    113  CA  ALA d   1      53.422  28.092  -6.755  0.00  0.00     0.086 C 
ATOM    114  H58 ALA d   1      52.835  27.809  -7.641  0.00  0.00     0.086 H 
BRANCH 113 115
ATOM    115  C   ALA d   1      54.788  28.592  -7.213  0.00  0.00     0.240 C 
ATOM    116  O   ALA d   1      55.818  28.335  -6.582  0.00  0.00    -0.271 OA
ATOM    117  N   LYS d   1      54.794  29.312  -8.330  0.00  0.00    -0.346 N 
ATOM    118  H62 LYS d   1      53.926  29.499  -8.790  0.00  0.00     0.163 HD
BRANCH 117 119
ATOM    119  CA  LYS d   1      56.023  29.836  -8.904  0.00  0.00     0.089 C 
ATOM    120  H63 LYS d   1      56.864  29.519  -8.270  0.00  0.00     0.087 H 
BRANCH 119 121
ATOM    121  C   LYS d   1      55.979  31.357  -8.927  0.00  0.00     0.241 C 
ATOM    122  O   LYS d   1      54.966  31.954  -9.305  0.00  0.00    -0.271 OA
ATOM    123  N   ALA d   1      57.085  31.976  -8.519  0.00  0.00    -0.346 N 
ATOM    124  H75 ALA d   1      57.878  31.432  -8.246  0.00  0.00     0.163 HD
BRANCH 123 125
ATOM    125  CA  ALA d   1      57.164  33.429  -8.462  0.00  0.00     0.086 C 
ATOM    126  H76 ALA d   1      56.288  33.806  -7.914  0.00  0.00     0.086 H 
BRANCH 125 127
ATOM    127  C   ALA d   1      57.147  34.018  -9.867  0.00  0.00     0.240 C 
ATOM    128  O   ALA d   1      57.894  33.579 -10.747  0.00  0.00    -0.271 OA
ATOM    129  N   ALA d   1      56.295  35.020 -10.073  0.00  0.00    -0.346 N 
ATOM    130  H80 ALA d   1      55.757  35.368  -9.305  0.00  0.00     0.163 HD
BRANCH 129 131
ATOM    131  CA  ALA d   1      56.127  35.620 -11.385  0.00  0.00     0.086 C 
ATOM    132  H81 ALA d   1      56.016  34.813 -12.124  0.00  0.00     0.086 H 
BRANCH 131 133
ATOM    133  C   ALA d   1      57.351  36.454 -11.759  0.00  0.00     0.240 C 
ATOM    134  O   ALA d   1      58.221  36.746 -10.934  0.00  0.00    -0.271 OA
ATOM    135  N   ALA d   1      57.411  36.839 -13.031  0.00  0.00    -0.346 N 
ATOM    136  H85 ALA d   1      56.717  36.522 -13.677  0.00  0.00     0.163 HD
BRANCH 135 137
ATOM    137  CA  ALA d   1      58.476  37.717 -13.492  0.00  0.00     0.086 C 
ATOM    138  H86 ALA d   1      59.427  37.372 -13.060  0.00  0.00     0.086 H 
BRANCH 137 139
ATOM    139  C   ALA d   1      58.220  39.145 -13.026  0.00  0.00     0.240 C 
ATOM    140  O   ALA d   1      57.081  39.620 -13.024  0.00  0.00    -0.271 OA
ATOM    141  N   THR d   1      59.288  39.828 -12.628  0.00  0.00    -0.343 N 
ATOM    142  H90 THR d   1      60.189  39.398 -12.683  0.00  0.00     0.163 HD
BRANCH 141 143
ATOM    143  CA  THR d   1      59.180  41.189 -12.113  0.00  0.00     0.120 C 
ATOM    144  H91 THR d   1      58.122  41.381 -11.881  0.00  0.00     0.093 H 
BRANCH 143 145
ATOM    145  C   THR d   1      59.642  42.217 -13.143  0.00  0.00     0.199 C 
ATOM    146  O   THR d   1      60.296  41.876 -14.129  0.00  0.00    -0.646 OA
ATOM    147  OXT THR d   1      59.371  43.411 -13.012  0.00  0.00    -0.646 OA
ENDBRANCH 143 145
BRANCH 143 148
ATOM    148  CB  THR d   1      60.003  41.368 -10.822  0.00  0.00     0.061 C 
ATOM    149  H92 THR d   1      59.773  42.349 -10.380  0.00  0.00     0.086 H 
BRANCH 148 150
ATOM    150  OG1 THR d   1      61.401  41.300 -11.128  0.00  0.00    -0.393 OA
ATOM    151  H93 THR d   1      61.904  41.411 -10.330  0.00  0.00     0.210 HD
ENDBRANCH 148 150
BRANCH 148 152
ATOM    152  CG2 THR d   1      59.662  40.276  -9.823  0.00  0.00    -0.050 C 
ATOM    153  H94 THR d   1      60.257  40.417  -8.908  0.00  0.00     0.031 H 
ATOM    154  H95 THR d   1      59.891  39.294 -10.261  0.00  0.00     0.031 H 
ATOM    155  H96 THR d   1      58.591  40.327  -9.576  0.00  0.00     0.031 H 
ENDBRANCH 148 152
ENDBRANCH 143 148
ENDBRANCH 141 143
ENDBRANCH 137 139
BRANCH 137 156
ATOM    156  CB  ALA d   1      58.586  37.668 -15.016  0.00  0.00    -0.049 C 
ATOM    157  H87 ALA d   1      59.395  38.336 -15.347  0.00  0.00     0.030 H 
ATOM    158  H88 ALA d   1      57.635  37.994 -15.463  0.00  0.00     0.030 H 
ATOM    159  H89 ALA d   1      58.808  36.639 -15.335  0.00  0.00     0.030 H 
ENDBRANCH 137 156
ENDBRANCH 135 137
ENDBRANCH 131 133
BRANCH 131 160
ATOM    160  CB  ALA d   1      54.868  36.486 -11.420  0.00  0.00    -0.049 C 
ATOM    161  H82 ALA d   1      54.757  36.931 -12.420  0.00  0.00     0.030 H 
ATOM    162  H83 ALA d   1      54.952  37.286 -10.669  0.00  0.00     0.030 H 
ATOM    163  H84 ALA d   1      53.989  35.864 -11.196  0.00  0.00     0.030 H 
ENDBRANCH 131 160
ENDBRANCH 129 131
ENDBRANCH 125 127
BRANCH 125 164
ATOM    164  CB  ALA d   1      58.426  33.863  -7.719  0.00  0.00    -0.049 C 
ATOM    165  H77 ALA d   1      58.471  34.962  -7.684  0.00  0.00     0.030 H 
ATOM    166  H78 ALA d   1      59.312  33.476  -8.244  0.00  0.00     0.030 H 
ATOM    167  H79 ALA d   1      58.404  33.464  -6.694  0.00  0.00     0.030 H 
ENDBRANCH 125 164
ENDBRANCH 123 125
ENDBRANCH 119 121
BRANCH 119 168
ATOM    168  CB  LYS d   1      56.255  29.293 -10.318  0.00  0.00    -0.038 C 
ATOM    169  H64 LYS d   1      55.539  29.776 -10.999  0.00  0.00     0.036 H 
ATOM    170  H65 LYS d   1      56.078  28.207 -10.309  0.00  0.00     0.036 H 
BRANCH 168 171
ATOM    171  CG  LYS d   1      57.660  29.548 -10.836  0.00  0.00    -0.061 C 
ATOM    172  H66 LYS d   1      57.770  30.617 -11.071  0.00  0.00     0.033 H 
ATOM    173  H67 LYS d   1      57.822  28.954 -11.748  0.00  0.00     0.033 H 
BRANCH 171 174
ATOM    174  CD  LYS d   1      58.699  29.156  -9.793  0.00  0.00    -0.043 C 
ATOM    175  H68 LYS d   1      58.667  28.066  -9.649  0.00  0.00     0.035 H 
ATOM    176  H69 LYS d   1      58.459  29.658  -8.844  0.00  0.00     0.035 H 
BRANCH 174 177
ATOM    177  CE  LYS d   1      60.099  29.556 -10.222  0.00  0.00     0.080 C 
ATOM    178  H70 LYS d   1      60.358  29.013 -11.143  0.00  0.00     0.075 H 
ATOM    179  H71 LYS d   1      60.807  29.284  -9.425  0.00  0.00     0.075 H 
BRANCH 177 180
ATOM    180  NZ  LYS d   1      60.203  31.021 -10.480  0.00  0.00    -0.079 N 
ATOM    181  H72 LYS d   1      61.144  31.247 -10.762  0.00  0.00     0.274 HD
ATOM    182  H73 LYS d   1      59.973  31.527  -9.639  0.00  0.00     0.274 HD
ATOM    183  H74 LYS d   1      59.562  31.279 -11.214  0.00  0.00     0.274 HD
ENDBRANCH 177 180
ENDBRANCH 174 177
ENDBRANCH 171 174
ENDBRANCH 168 171
ENDBRANCH 119 168
ENDBRANCH 117 119
ENDBRANCH 113 115
BRANCH 113 184
ATOM    184  CB  ALA d   1      52.675  29.199  -6.011  0.00  0.00    -0.049 C 
ATOM    185  H59 ALA d   1      52.567  30.074  -6.669  0.00  0.00     0.030 H 
ATOM    186  H60 ALA d   1      53.242  29.484  -5.112  0.00  0.00     0.030 H 
ATOM    187  H61 ALA d   1      51.679  28.836  -5.717  0.00  0.00     0.030 H 
ENDBRANCH 113 184
ENDBRANCH 111 113
ENDBRANCH  97 109
ENDBRANCH   1  96
TORSDOF 51
