REMARK WARNING: 32 MAX_TORS EXCEEDED!!!
REMARK  58 active torsions:
REMARK  status: ('A' for Active; 'I' for Inactive)
REMARK    1  A    between atoms: CA_2  and  N_1 
REMARK    2  A    between atoms: C_3  and  CA_2 
REMARK    3  A    between atoms: CA_2  and  CB_5 
REMARK       I    between atoms: N_10  and  C_3 
REMARK    4  A    between atoms: CB_5  and  CG_6 
REMARK    5  A    between atoms: CG_6  and  CD_7 
REMARK       I    between atoms: CD_7  and  NE2_9 
REMARK    6  A    between atoms: CA_11  and  N_10 
REMARK    7  A    between atoms: C_12  and  CA_11 
REMARK    8  A    between atoms: CA_11  and  CB_14 
REMARK       I    between atoms: N_22  and  C_12 
REMARK    9  A    between atoms: CB_14  and  CG_15 
REMARK   10  A    between atoms: CZ_20  and  OH_21 
REMARK   11  A    between atoms: CA_23  and  N_22 
REMARK   12  A    between atoms: C_24  and  CA_23 
REMARK   13  A    between atoms: CA_23  and  CB_26 
REMARK   14  A    between atoms: C_24  and  O_25 
REMARK   15  A    between atoms: N2_33  and  C_24 
REMARK   16  A    between atoms: CB_26  and  CG_27 
REMARK   17  A    between atoms: CG_27  and  SD_28 
REMARK   18  A    between atoms: SD_28  and  CE_29 
REMARK   19  A    between atoms: C2_32  and  C1_30 
REMARK       I    between atoms: C1_30  and  N_41 
REMARK   20  A    between atoms: C2_32  and  N2_33 
REMARK   21  A    between atoms: C2_32  and  C3_34 
REMARK   22  A    between atoms: C3_34  and  C4_35 
REMARK   23  A    between atoms: C4_35  and  C5_36 
REMARK   24  A    between atoms: C5_36  and  N6_37 
REMARK       I    between atoms: N6_37  and  C7_38 
REMARK       I    between atoms: C7_38  and  N8_40 
REMARK   25  A    between atoms: N_41  and  CA_42 
REMARK   26  A    between atoms: CA_42  and  C_43 
REMARK   27  A    between atoms: CA_42  and  CB_45 
REMARK       I    between atoms: C_43  and  N_46 
REMARK   28  A    between atoms: N_46  and  CA_47 
REMARK   29  A    between atoms: CA_47  and  C_48 
REMARK   30  A    between atoms: CA_47  and  CB_50 
REMARK       I    between atoms: C_48  and  N_54 
REMARK   31  A    between atoms: CB_50  and  CG_51 
REMARK   32  A    between atoms: N_54  and  CA_55 
REMARK   33  A    between atoms: CA_55  and  C_56 
REMARK   34  A    between atoms: CA_55  and  CB_58 
REMARK       I    between atoms: C_56  and  N_63 
REMARK   35  A    between atoms: CB_58  and  CG_59 
REMARK   36  A    between atoms: CG_59  and  CD_60 
REMARK       I    between atoms: CD_60  and  NE2_62 
REMARK   37  A    between atoms: N_63  and  CA_64 
REMARK   38  A    between atoms: CA_64  and  C_65 
REMARK   39  A    between atoms: CA_64  and  CB_67 
REMARK       I    between atoms: C_65  and  N_68 
REMARK   40  A    between atoms: N_68  and  CA_69 
REMARK   41  A    between atoms: CA_69  and  C_70 
REMARK   42  A    between atoms: CA_69  and  CB_72 
REMARK       I    between atoms: C_70  and  N_73 
REMARK   43  A    between atoms: N_73  and  CA_74 
REMARK   44  A    between atoms: CA_74  and  C_75 
REMARK       I    between atoms: C_75  and  N_77 
REMARK   45  A    between atoms: N_77  and  CA_78 
REMARK   46  A    between atoms: CA_78  and  C_79 
REMARK       I    between atoms: C_79  and  N_81 
REMARK   47  A    between atoms: N_81  and  CA_82 
REMARK   48  A    between atoms: CA_82  and  C_83 
REMARK   49  A    between atoms: CA_82  and  CB_85 
REMARK       I    between atoms: C_83  and  N_89 
REMARK   50  A    between atoms: CB_85  and  CG_86 
REMARK   51  A    between atoms: CG_86  and  CD1_87 
REMARK   52  A    between atoms: CG_86  and  CD2_88 
REMARK   53  A    between atoms: N_89  and  CA_90 
REMARK   54  A    between atoms: CA_90  and  C_91 
REMARK   55  A    between atoms: CA_90  and  CB_93 
REMARK   56  A    between atoms: CB_93  and  CG_94 
REMARK   57  A    between atoms: CG_94  and  CD_95 
REMARK   58  A    between atoms: CD_95  and  NE_96 
REMARK       I    between atoms: NE_96  and  CZ_97 
REMARK       I    between atoms: CZ_97  and  NH1_98 
ROOT
ATOM      1  CA  ASP d   1      52.055  21.396  -6.310  0.00  0.00     0.098 C 
ATOM      2  H49 ASP d   1      52.915  20.728  -6.462  0.00  0.00     0.088 H 
ENDROOT
BRANCH   1   3
ATOM      3  N   ASP d   1      51.314  20.941  -5.143  0.00  0.00    -0.346 N 
ATOM      4  C   ALA d   1      51.891  20.237  -4.174  0.00  0.00     0.240 C 
ATOM      5  O   ALA d   1      53.066  19.874  -4.219  0.00  0.00    -0.271 OA
ATOM      6  H48 ASP d   1      50.342  21.165  -5.068  0.00  0.00     0.163 HD
BRANCH   4   7
ATOM      7  CA  ALA d   1      51.013  19.886  -2.979  0.00  0.00     0.086 C 
ATOM      8  H44 ALA d   1      49.990  19.706  -3.342  0.00  0.00     0.086 H 
BRANCH   7   9
ATOM      9  N   ALA d   1      51.487  18.672  -2.325  0.00  0.00    -0.346 N 
ATOM     10  C1  CIR d   1      50.870  17.602  -2.746  0.00  0.00     0.249 C 
ATOM     11  O1  CIR d   1      49.670  17.658  -3.110  0.00  0.00    -0.271 OA
ATOM     12  H43 ALA d   1      52.206  18.661  -1.630  0.00  0.00     0.163 HD
BRANCH  10  13
ATOM     13  C2  CIR d   1      51.416  16.335  -2.201  0.00  0.00     0.180 C 
ATOM     14  H31 CIR d   1      52.113  16.552  -1.378  0.00  0.00     0.099 H 
BRANCH  13  15
ATOM     15  N2  CIR d   1      50.334  15.516  -1.719  0.00  0.00    -0.034 N 
ATOM     16  H32 CIR d   1      49.556  15.650  -2.346  0.00  0.00     0.281 HD
ATOM     17  H33 CIR d   1      50.642  14.557  -1.766  0.00  0.00     0.281 HD
BRANCH  15  18
ATOM     18  C   MET d   1      49.893  15.722  -0.504  0.00  0.00     0.210 C 
ATOM     19  H22 MET d   1      49.224  16.590  -0.595  0.00  0.00     0.132 H 
BRANCH  18  20
ATOM     20  CA  MET d   1      48.960  14.540  -0.275  0.00  0.00     0.062 C 
ATOM     21  H21 MET d   1      49.101  13.816  -1.091  0.00  0.00     0.079 H 
BRANCH  20  22
ATOM     22  N   MET d   1      49.292  13.890   0.985  0.00  0.00    -0.350 N 
ATOM     23  C   TYR d   1      50.097  12.833   1.028  0.00  0.00     0.241 C 
ATOM     24  O   TYR d   1      50.536  12.276   0.018  0.00  0.00    -0.271 OA
ATOM     25  H20 MET d   1      48.906  14.246   1.836  0.00  0.00     0.163 HD
BRANCH  23  26
ATOM     26  CA  TYR d   1      50.463  12.330   2.417  0.00  0.00     0.093 C 
ATOM     27  H12 TYR d   1      49.691  12.659   3.128  0.00  0.00     0.088 H 
BRANCH  26  28
ATOM     28  N   TYR d   1      50.514  10.876   2.430  0.00  0.00    -0.346 N 
ATOM     29  C   GLN d   1      49.552  10.123   2.953  0.00  0.00     0.249 C 
ATOM     30  O   GLN d   1      48.535  10.588   3.468  0.00  0.00    -0.271 OA
ATOM     31  H11 TYR d   1      51.309  10.423   2.027  0.00  0.00     0.163 HD
BRANCH  29  32
ATOM     32  CA  GLN d   1      49.779   8.618   2.886  0.00  0.00     0.176 C 
ATOM     33  H4  GLN d   1      49.745   8.306   1.832  0.00  0.00     0.099 H 
BRANCH  32  34
ATOM     34  N   GLN d   1      51.093   8.286   3.423  0.00  0.00    -0.066 N 
ATOM     35  H1  GLN d   1      51.234   7.289   3.374  0.00  0.00     0.275 HD
ATOM     36  H2  GLN d   1      51.149   8.587   4.383  0.00  0.00     0.275 HD
ATOM     37  H3  GLN d   1      51.805   8.752   2.882  0.00  0.00     0.275 HD
ENDBRANCH  32  34
BRANCH  32  38
ATOM     38  CB  GLN d   1      48.675   7.874   3.644  0.00  0.00    -0.022 C 
ATOM     39  H5  GLN d   1      47.703   8.234   3.276  0.00  0.00     0.037 H 
ATOM     40  H6  GLN d   1      48.772   8.112   4.714  0.00  0.00     0.037 H 
BRANCH  38  41
ATOM     41  CG  GLN d   1      48.712   6.357   3.488  0.00  0.00     0.011 C 
ATOM     42  H7  GLN d   1      48.825   6.116   2.421  0.00  0.00     0.047 H 
ATOM     43  H8  GLN d   1      47.763   5.942   3.859  0.00  0.00     0.047 H 
BRANCH  41  44
ATOM     44  CD  GLN d   1      49.854   5.714   4.253  0.00  0.00     0.215 C 
ATOM     45  OE1 GLN d   1      50.171   6.117   5.372  0.00  0.00    -0.274 OA
ATOM     46  NE2 GLN d   1      50.486   4.716   3.645  0.00  0.00    -0.370 N 
ATOM     47  H9  GLN d   1      51.247   4.254   4.101  0.00  0.00     0.159 HD
ATOM     48  H10 GLN d   1      50.201   4.426   2.731  0.00  0.00     0.159 HD
ENDBRANCH  41  44
ENDBRANCH  38  41
ENDBRANCH  32  38
ENDBRANCH  29  32
ENDBRANCH  26  28
BRANCH  26  49
ATOM     49  CB  TYR d   1      51.806  12.926   2.842  0.00  0.00    -0.014 C 
ATOM     50  H13 TYR d   1      51.906  13.917   2.375  0.00  0.00     0.043 H 
ATOM     51  H14 TYR d   1      52.606  12.266   2.477  0.00  0.00     0.043 H 
BRANCH  49  52
ATOM     52  CG  TYR d   1      51.973  13.089   4.335  0.00  0.00    -0.056 A 
ATOM     53  CD1 TYR d   1      52.290  12.005   5.143  0.00  0.00    -0.074 A 
ATOM     54  CE1 TYR d   1      52.446  12.153   6.509  0.00  0.00    -0.051 A 
ATOM     55  H15 TYR d   1      52.417  11.026   4.695  0.00  0.00     0.084 H 
ATOM     56  CZ  TYR d   1      52.290  13.398   7.082  0.00  0.00     0.065 A 
ATOM     57  H17 TYR d   1      52.690  11.296   7.126  0.00  0.00     0.087 H 
ATOM     58  CE2 TYR d   1      51.978  14.491   6.300  0.00  0.00    -0.051 A 
ATOM     59  CD2 TYR d   1      51.824  14.333   4.936  0.00  0.00    -0.074 A 
ATOM     60  H18 TYR d   1      51.854  15.468   6.753  0.00  0.00     0.087 H 
ATOM     61  H16 TYR d   1      51.583  15.195   4.324  0.00  0.00     0.084 H 
BRANCH  56  62
ATOM     62  OH  TYR d   1      52.445  13.553   8.441  0.00  0.00    -0.361 OA
ATOM     63  H19 TYR d   1      52.656  12.713   8.832  0.00  0.00     0.217 HD
ENDBRANCH  56  62
ENDBRANCH  49  52
ENDBRANCH  26  49
ENDBRANCH  23  26
ENDBRANCH  20  22
BRANCH  20  64
ATOM     64  CB  MET d   1      47.502  15.004  -0.286  0.00  0.00    -0.034 C 
ATOM     65  H24 MET d   1      47.235  15.279  -1.317  0.00  0.00     0.037 H 
ATOM     66  H25 MET d   1      47.416  15.888   0.363  0.00  0.00     0.037 H 
BRANCH  64  67
ATOM     67  CG  MET d   1      46.512  13.959   0.200  0.00  0.00    -0.022 C 
ATOM     68  H26 MET d   1      46.540  13.931   1.299  0.00  0.00     0.049 H 
ATOM     69  H27 MET d   1      46.810  12.979  -0.200  0.00  0.00     0.049 H 
BRANCH  67  70
ATOM     70  SD  MET d   1      44.824  14.307  -0.325  0.00  0.00    -0.173 SA
BRANCH  70  71
ATOM     71  CE  MET d   1      44.921  13.891  -2.063  0.00  0.00    -0.035 C 
ATOM     72  H28 MET d   1      43.941  14.056  -2.535  0.00  0.00     0.041 H 
ATOM     73  H29 MET d   1      45.207  12.835  -2.172  0.00  0.00     0.041 H 
ATOM     74  H30 MET d   1      45.674  14.527  -2.551  0.00  0.00     0.041 H 
ENDBRANCH  70  71
ENDBRANCH  67  70
ENDBRANCH  64  67
ENDBRANCH  20  64
ENDBRANCH  18  20
BRANCH  18  75
ATOM     75  O   MET d   1      50.657  16.098   0.386  0.00  0.00    -0.368 OA
ATOM     76  H23 MET d   1      50.172  16.196   1.197  0.00  0.00     0.212 HD
ENDBRANCH  18  75
ENDBRANCH  15  18
ENDBRANCH  13  15
BRANCH  13  77
ATOM     77  C3  CIR d   1      52.132  15.609  -3.295  0.00  0.00    -0.028 C 
ATOM     78  H34 CIR d   1      52.560  16.338  -3.999  0.00  0.00     0.036 H 
ATOM     79  H35 CIR d   1      51.422  14.959  -3.827  0.00  0.00     0.036 H 
BRANCH  77  80
ATOM     80  C4  CIR d   1      53.243  14.766  -2.708  0.00  0.00    -0.048 C 
ATOM     81  H36 CIR d   1      52.830  14.098  -1.938  0.00  0.00     0.035 H 
ATOM     82  H37 CIR d   1      54.002  15.421  -2.256  0.00  0.00     0.035 H 
BRANCH  80  83
ATOM     83  C5  CIR d   1      53.875  13.943  -3.805  0.00  0.00    -0.003 C 
ATOM     84  H38 CIR d   1      54.357  14.612  -4.534  0.00  0.00     0.064 H 
ATOM     85  H39 CIR d   1      53.100  13.348  -4.310  0.00  0.00     0.064 H 
BRANCH  83  86
ATOM     86  N6  CIR d   1      54.872  13.053  -3.231  0.00  0.00    -0.343 N 
ATOM     87  C7  CIR d   1      55.511  12.054  -4.048  0.00  0.00     0.313 C 
ATOM     88  O7  CIR d   1      55.219  11.947  -5.228  0.00  0.00    -0.248 OA
ATOM     89  N8  CIR d   1      56.498  11.176  -3.469  0.00  0.00    -0.352 N 
ATOM     90  H41 CIR d   1      56.943  10.482  -4.035  0.00  0.00     0.160 HD
ATOM     91  H42 CIR d   1      56.737  11.262  -2.502  0.00  0.00     0.160 HD
ATOM     92  H40 CIR d   1      55.115  13.135  -2.264  0.00  0.00     0.164 HD
ENDBRANCH  83  86
ENDBRANCH  80  83
ENDBRANCH  77  80
ENDBRANCH  13  77
ENDBRANCH  10  13
ENDBRANCH   7   9
BRANCH   7  93
ATOM     93  CB  ALA d   1      50.976  21.042  -1.991  0.00  0.00    -0.049 C 
ATOM     94  H45 ALA d   1      50.617  21.948  -2.500  0.00  0.00     0.030 H 
ATOM     95  H46 ALA d   1      51.987  21.220  -1.597  0.00  0.00     0.030 H 
ATOM     96  H47 ALA d   1      50.297  20.794  -1.162  0.00  0.00     0.030 H 
ENDBRANCH   7  93
ENDBRANCH   4   7
ENDBRANCH   1   3
BRANCH   1  97
ATOM     97  C   ASP d   1      52.570  22.811  -6.078  0.00  0.00     0.241 C 
ATOM     98  O   ASP d   1      51.862  23.662  -5.532  0.00  0.00    -0.271 OA
ATOM     99  N   GLN d   1      53.808  23.053  -6.498  0.00  0.00    -0.346 N 
ATOM    100  H52 GLN d   1      54.304  22.343  -6.998  0.00  0.00     0.163 HD
BRANCH  99 101
ATOM    101  CA  GLN d   1      54.456  24.332  -6.244  0.00  0.00     0.090 C 
ATOM    102  H53 GLN d   1      54.280  24.610  -5.194  0.00  0.00     0.087 H 
BRANCH 101 103
ATOM    103  C   GLN d   1      53.880  25.425  -7.137  0.00  0.00     0.241 C 
ATOM    104  O   GLN d   1      53.629  25.213  -8.326  0.00  0.00    -0.271 OA
ATOM    105  N   ALA d   1      53.667  26.602  -6.551  0.00  0.00    -0.346 N 
ATOM    106  H60 ALA d   1      53.766  26.679  -5.559  0.00  0.00     0.163 HD
BRANCH 105 107
ATOM    107  CA  ALA d   1      53.293  27.779  -7.323  0.00  0.00     0.086 C 
ATOM    108  H61 ALA d   1      52.630  27.468  -8.144  0.00  0.00     0.086 H 
BRANCH 107 109
ATOM    109  C   ALA d   1      54.543  28.417  -7.914  0.00  0.00     0.240 C 
ATOM    110  O   ALA d   1      55.547  28.596  -7.218  0.00  0.00    -0.271 OA
ATOM    111  N   ALA d   1      54.484  28.756  -9.200  0.00  0.00    -0.346 N 
ATOM    112  H65 ALA d   1      53.630  28.623  -9.703  0.00  0.00     0.163 HD
BRANCH 111 113
ATOM    113  CA  ALA d   1      55.637  29.317  -9.890  0.00  0.00     0.086 C 
ATOM    114  H66 ALA d   1      56.547  28.845  -9.491  0.00  0.00     0.086 H 
BRANCH 113 115
ATOM    115  C   ALA d   1      55.723  30.819  -9.647  0.00  0.00     0.240 C 
ATOM    116  O   ALA d   1      54.747  31.548  -9.852  0.00  0.00    -0.271 OA
ATOM    117  N   GLY d   1      56.895  31.278  -9.215  0.00  0.00    -0.351 N 
ATOM    118  H70 GLY d   1      57.657  30.645  -9.079  0.00  0.00     0.163 HD
BRANCH 117 119
ATOM    119  CA  GLY d   1      57.076  32.695  -8.939  0.00  0.00     0.069 C 
ATOM    120  H71 GLY d   1      57.999  32.832  -8.357  0.00  0.00     0.078 H 
ATOM    121  H72 GLY d   1      56.218  33.060  -8.356  0.00  0.00     0.078 H 
BRANCH 119 122
ATOM    122  C   GLY d   1      57.177  33.495 -10.225  0.00  0.00     0.235 C 
ATOM    123  O   GLY d   1      57.975  33.173 -11.115  0.00  0.00    -0.272 OA
ATOM    124  N   GLY d   1      56.373  34.549 -10.326  0.00  0.00    -0.351 N 
ATOM    125  H73 GLY d   1      55.779  34.789  -9.558  0.00  0.00     0.163 HD
BRANCH 124 126
ATOM    126  CA  GLY d   1      56.342  35.355 -11.528  0.00  0.00     0.069 C 
ATOM    127  H74 GLY d   1      55.457  36.008 -11.490  0.00  0.00     0.078 H 
ATOM    128  H75 GLY d   1      56.267  34.685 -12.398  0.00  0.00     0.078 H 
BRANCH 126 129
ATOM    129  C   GLY d   1      57.577  36.223 -11.691  0.00  0.00     0.236 C 
ATOM    130  O   GLY d   1      58.407  36.374 -10.793  0.00  0.00    -0.272 OA
ATOM    131  N   LEU d   1      57.690  36.805 -12.882  0.00  0.00    -0.346 N 
ATOM    132  H76 LEU d   1      56.989  36.642 -13.576  0.00  0.00     0.163 HD
BRANCH 131 133
ATOM    133  CA  LEU d   1      58.814  37.675 -13.195  0.00  0.00     0.089 C 
ATOM    134  H77 LEU d   1      59.743  37.173 -12.886  0.00  0.00     0.087 H 
BRANCH 133 135
ATOM    135  C   LEU d   1      58.698  38.992 -12.433  0.00  0.00     0.241 C 
ATOM    136  O   LEU d   1      57.600  39.506 -12.209  0.00  0.00    -0.271 OA
ATOM    137  N   ARG d   1      59.856  39.537 -12.054  0.00  0.00    -0.345 N 
ATOM    138  H87 ARG d   1      60.695  39.117 -12.399  0.00  0.00     0.163 HD
BRANCH 137 139
ATOM    139  CA  ARG d   1      60.001  40.706 -11.169  0.00  0.00     0.096 C 
ATOM    140  H88 ARG d   1      61.053  41.026 -11.205  0.00  0.00     0.089 H 
BRANCH 139 141
ATOM    141  C   ARG d   1      59.663  40.328  -9.731  0.00  0.00     0.196 C 
ATOM    142  O   ARG d   1      60.292  40.811  -8.788  0.00  0.00    -0.646 OA
ATOM    143  OXT ARG d   1      58.755  39.533  -9.485  0.00  0.00    -0.646 OA
ENDBRANCH 139 141
BRANCH 139 144
ATOM    144  CB  ARG d   1      59.130  41.895 -11.608  0.00  0.00    -0.035 C 
ATOM    145  H89 ARG d   1      59.467  42.785 -11.055  0.00  0.00     0.036 H 
ATOM    146  H90 ARG d   1      58.087  41.669 -11.340  0.00  0.00     0.036 H 
BRANCH 144 147
ATOM    147  CG  ARG d   1      59.172  42.221 -13.091  0.00  0.00    -0.047 C 
ATOM    148  H91 ARG d   1      58.667  43.184 -13.258  0.00  0.00     0.035 H 
ATOM    149  H92 ARG d   1      58.644  41.430 -13.644  0.00  0.00     0.035 H 
BRANCH 147 150
ATOM    150  CD  ARG d   1      60.590  42.317 -13.610  0.00  0.00     0.009 C 
ATOM    151  H93 ARG d   1      61.174  41.471 -13.219  0.00  0.00     0.064 H 
ATOM    152  H94 ARG d   1      61.036  43.261 -13.264  0.00  0.00     0.064 H 
BRANCH 150 153
ATOM    153  NE  ARG d   1      60.619  42.282 -15.068  0.00  0.00    -0.227 N 
ATOM    154  CZ  ARG d   1      61.725  42.146 -15.790  0.00  0.00     0.665 C 
ATOM    155  NH1 ARG d   1      62.901  42.028 -15.188  0.00  0.00    -0.235 N 
ATOM    156  NH2 ARG d   1      61.656  42.123 -17.114  0.00  0.00    -0.235 N 
ATOM    157  H96 ARG d   1      63.758  41.922 -15.749  0.00  0.00     0.174 HD
ATOM    158  H97 ARG d   1      62.957  42.042 -14.160  0.00  0.00     0.174 HD
ATOM    159  H98 ARG d   1      60.744  42.214 -17.584  0.00  0.00     0.174 HD
ATOM    160  H99 ARG d   1      62.514  42.014 -17.673  0.00  0.00     0.174 HD
ATOM    161  H95 ARG d   1      59.724  42.368 -15.570  0.00  0.00     0.177 HD
ENDBRANCH 150 153
ENDBRANCH 147 150
ENDBRANCH 144 147
ENDBRANCH 139 144
ENDBRANCH 137 139
ENDBRANCH 133 135
BRANCH 133 162
ATOM    162  CB  LEU d   1      58.877  37.932 -14.703  0.00  0.00    -0.035 C 
ATOM    163  H78 LEU d   1      57.939  38.433 -14.986  0.00  0.00     0.037 H 
ATOM    164  H79 LEU d   1      58.933  36.951 -15.197  0.00  0.00     0.037 H 
BRANCH 162 165
ATOM    165  CG  LEU d   1      60.025  38.780 -15.252  0.00  0.00    -0.059 C 
ATOM    166  H80 LEU d   1      59.891  39.814 -14.902  0.00  0.00     0.038 H 
BRANCH 165 167
ATOM    167  CD1 LEU d   1      61.364  38.272 -14.741  0.00  0.00    -0.073 C 
ATOM    168  H81 LEU d   1      62.173  38.896 -15.149  0.00  0.00     0.028 H 
ATOM    169  H82 LEU d   1      61.508  37.230 -15.063  0.00  0.00     0.028 H 
ATOM    170  H83 LEU d   1      61.380  38.322 -13.642  0.00  0.00     0.028 H 
ENDBRANCH 165 167
BRANCH 165 171
ATOM    171  CD2 LEU d   1      59.998  38.780 -16.773  0.00  0.00    -0.073 C 
ATOM    172  H84 LEU d   1      59.023  39.150 -17.122  0.00  0.00     0.028 H 
ATOM    173  H85 LEU d   1      60.155  37.756 -17.142  0.00  0.00     0.028 H 
ATOM    174  H86 LEU d   1      60.796  39.434 -17.154  0.00  0.00     0.028 H 
ENDBRANCH 165 171
ENDBRANCH 162 165
ENDBRANCH 133 162
ENDBRANCH 131 133
ENDBRANCH 126 129
ENDBRANCH 124 126
ENDBRANCH 119 122
ENDBRANCH 117 119
ENDBRANCH 113 115
BRANCH 113 175
ATOM    175  CB  ALA d   1      55.556  29.025 -11.388  0.00  0.00    -0.049 C 
ATOM    176  H67 ALA d   1      56.433  29.455 -11.893  0.00  0.00     0.030 H 
ATOM    177  H68 ALA d   1      54.640  29.473 -11.800  0.00  0.00     0.030 H 
ATOM    178  H69 ALA d   1      55.537  27.937 -11.549  0.00  0.00     0.030 H 
ENDBRANCH 113 175
ENDBRANCH 111 113
ENDBRANCH 107 109
BRANCH 107 179
ATOM    179  CB  ALA d   1      52.545  28.782  -6.446  0.00  0.00    -0.049 C 
ATOM    180  H62 ALA d   1      52.272  29.662  -7.047  0.00  0.00     0.030 H 
ATOM    181  H63 ALA d   1      53.191  29.093  -5.612  0.00  0.00     0.030 H 
ATOM    182  H64 ALA d   1      51.633  28.313  -6.048  0.00  0.00     0.030 H 
ENDBRANCH 107 179
ENDBRANCH 105 107
ENDBRANCH 101 103
BRANCH 101 183
ATOM    183  CB  GLN d   1      55.964  24.208  -6.472  0.00  0.00    -0.030 C 
ATOM    184  H54 GLN d   1      56.124  23.685  -7.426  0.00  0.00     0.037 H 
ATOM    185  H55 GLN d   1      56.386  23.610  -5.651  0.00  0.00     0.037 H 
BRANCH 183 186
ATOM    186  CG  GLN d   1      56.714  25.532  -6.527  0.00  0.00     0.011 C 
ATOM    187  H56 GLN d   1      56.058  26.288  -6.983  0.00  0.00     0.047 H 
ATOM    188  H57 GLN d   1      57.611  25.402  -7.150  0.00  0.00     0.047 H 
BRANCH 186 189
ATOM    189  CD  GLN d   1      57.142  26.024  -5.158  0.00  0.00     0.215 C 
ATOM    190  OE1 GLN d   1      57.241  25.246  -4.209  0.00  0.00    -0.274 OA
ATOM    191  NE2 GLN d   1      57.403  27.322  -5.050  0.00  0.00    -0.370 N 
ATOM    192  H58 GLN d   1      57.690  27.703  -4.171  0.00  0.00     0.159 HD
ATOM    193  H59 GLN d   1      57.313  27.918  -5.848  0.00  0.00     0.159 HD
ENDBRANCH 186 189
ENDBRANCH 183 186
ENDBRANCH 101 183
ENDBRANCH  99 101
ENDBRANCH   1  97
BRANCH   1 194
ATOM    194  CB  ASP d   1      51.178  21.352  -7.563  0.00  0.00     0.043 C 
ATOM    195  H50 ASP d   1      50.412  22.137  -7.485  0.00  0.00     0.052 H 
ATOM    196  H51 ASP d   1      50.690  20.368  -7.617  0.00  0.00     0.052 H 
BRANCH 194 197
ATOM    197  CG  ASP d   1      51.971  21.572  -8.838  0.00  0.00     0.175 C 
ATOM    198  OD1 ASP d   1      51.559  22.419  -9.659  0.00  0.00    -0.648 OA
ATOM    199  OD2 ASP d   1      53.005  20.894  -9.020  0.00  0.00    -0.648 OA
ENDBRANCH 194 197
ENDBRANCH   1 194
TORSDOF 58
