REMARK WARNING: 32 MAX_TORS EXCEEDED!!!
REMARK  52 active torsions:
REMARK  status: ('A' for Active; 'I' for Inactive)
REMARK    1  A    between atoms: CA_2  and  N_1 
REMARK    2  A    between atoms: C_3  and  CA_2 
REMARK    3  A    between atoms: CA_2  and  CB_5 
REMARK       I    between atoms: N_6  and  C_3 
REMARK    4  A    between atoms: CA_7  and  N_6 
REMARK    5  A    between atoms: C_8  and  CA_7 
REMARK    6  A    between atoms: CA_7  and  CB_10 
REMARK       I    between atoms: N_13  and  C_8 
REMARK    7  A    between atoms: CB_10  and  OG1_11 
REMARK    8  A    between atoms: CB_10  and  CG2_12 
REMARK    9  A    between atoms: CA_14  and  N_13 
REMARK   10  A    between atoms: C_15  and  CA_14 
REMARK   11  A    between atoms: CA_14  and  CB_17 
REMARK       I    between atoms: N_20  and  C_15 
REMARK   12  A    between atoms: CB_17  and  CG1_18 
REMARK   13  A    between atoms: CB_17  and  CG2_19 
REMARK   14  A    between atoms: CA_21  and  N_20 
REMARK   15  A    between atoms: C_22  and  CA_21 
REMARK   16  A    between atoms: CA_21  and  CB_24 
REMARK       I    between atoms: N_26  and  C_22 
REMARK   17  A    between atoms: CB_24  and  SG_25 
REMARK   18  A    between atoms: C_28  and  CA_27 
REMARK       I    between atoms: N2_36  and  C_28 
REMARK   19  A    between atoms: C2_35  and  C1_33 
REMARK       I    between atoms: C1_33  and  N_44 
REMARK   20  A    between atoms: C2_35  and  N2_36 
REMARK   21  A    between atoms: C2_35  and  C3_37 
REMARK   22  A    between atoms: C3_37  and  C4_38 
REMARK   23  A    between atoms: C4_38  and  C5_39 
REMARK   24  A    between atoms: C5_39  and  N6_40 
REMARK       I    between atoms: N6_40  and  C7_41 
REMARK       I    between atoms: C7_41  and  N8_43 
REMARK   25  A    between atoms: N_44  and  CA_45 
REMARK   26  A    between atoms: CA_45  and  C_46 
REMARK   27  A    between atoms: CA_45  and  CB_48 
REMARK       I    between atoms: C_46  and  N_51 
REMARK   28  A    between atoms: CB_48  and  OG1_49 
REMARK   29  A    between atoms: CB_48  and  CG2_50 
REMARK   30  A    between atoms: N_51  and  CA_52 
REMARK   31  A    between atoms: CA_52  and  C_53 
REMARK   32  A    between atoms: CA_52  and  CB_55 
REMARK       I    between atoms: C_53  and  N_58 
REMARK   33  A    between atoms: CB_55  and  OG1_56 
REMARK   34  A    between atoms: CB_55  and  CG2_57 
REMARK   35  A    between atoms: N_58  and  CA_59 
REMARK   36  A    between atoms: CA_59  and  C_60 
REMARK   37  A    between atoms: CA_59  and  CB_62 
REMARK       I    between atoms: C_60  and  N_67 
REMARK   38  A    between atoms: CB_62  and  CG_63 
REMARK   39  A    between atoms: CG_63  and  CD_64 
REMARK       I    between atoms: CD_64  and  NE2_66 
REMARK   40  A    between atoms: N_67  and  CA_68 
REMARK   41  A    between atoms: CA_68  and  C_69 
REMARK   42  A    between atoms: CA_68  and  CB_71 
REMARK       I    between atoms: C_69  and  N_76 
REMARK   43  A    between atoms: CB_71  and  CG_72 
REMARK   44  A    between atoms: CG_72  and  CD_73 
REMARK       I    between atoms: CD_73  and  NE2_75 
REMARK   45  A    between atoms: N_76  and  CA_77 
REMARK   46  A    between atoms: CA_77  and  C_78 
REMARK   47  A    between atoms: CA_77  and  CB_80 
REMARK       I    between atoms: C_78  and  N_82 
REMARK   48  A    between atoms: CB_80  and  OG_81 
REMARK   49  A    between atoms: CA_83  and  C_84 
REMARK       I    between atoms: C_84  and  N_89 
REMARK   50  A    between atoms: N_89  and  CA_90 
REMARK   51  A    between atoms: CA_90  and  C_91 
REMARK   52  A    between atoms: CA_90  and  CB_93 
ROOT
ATOM      1  CA  THR d   1     -53.497 -24.148  -5.159  0.00  0.00     0.113 C 
ATOM      2  H48 THR d   1     -53.275 -24.392  -4.110  0.00  0.00     0.091 H 
ENDROOT
BRANCH   1   3
ATOM      3  N   THR d   1     -52.817 -22.936  -5.527  0.00  0.00    -0.344 N 
ATOM      4  C1  CIR d   1     -51.703 -22.506  -5.012  0.00  0.00     0.241 C 
ATOM      5  O1  CIR d   1     -50.945 -23.239  -4.497  0.00  0.00    -0.271 OA
ATOM      6  H47 THR d   1     -53.237 -22.375  -6.241  0.00  0.00     0.163 HD
BRANCH   4   7
ATOM      7  C2  CIR d   1     -51.425 -21.052  -5.042  0.00  0.00     0.089 C 
ATOM      8  H36 CIR d   1     -52.395 -20.533  -5.054  0.00  0.00     0.087 H 
BRANCH   7   9
ATOM      9  N2  CIR d   1     -50.676 -20.641  -3.858  0.00  0.00    -0.346 N 
ATOM     10  C   PRO d   1     -51.215 -19.876  -2.964  0.00  0.00     0.241 C 
ATOM     11  O   PRO d   1     -52.322 -19.435  -3.080  0.00  0.00    -0.271 OA
ATOM     12  H37 CIR d   1     -49.734 -20.955  -3.736  0.00  0.00     0.163 HD
BRANCH  10  13
ATOM     13  CA  PRO d   1     -50.413 -19.583  -1.751  0.00  0.00     0.091 C 
ATOM     14  N   PRO d   1     -50.862 -18.384  -1.064  0.00  0.00    -0.337 N 
ATOM     15  C   CYS d   1     -50.386 -17.181  -1.330  0.00  0.00     0.244 C 
ATOM     16  CD  PRO d   1     -51.636 -18.723   0.118  0.00  0.00    -0.001 C 
ATOM     17  O   CYS d   1     -49.577 -16.973  -2.193  0.00  0.00    -0.271 OA
ATOM     18  CG  PRO d   1     -51.900 -20.165  -0.086  0.00  0.00    -0.048 C 
ATOM     19  H34 PRO d   1     -52.573 -18.148   0.160  0.00  0.00     0.064 H 
ATOM     20  H35 PRO d   1     -51.057 -18.549   1.037  0.00  0.00     0.064 H 
ATOM     21  CB  PRO d   1     -50.728 -20.665  -0.763  0.00  0.00    -0.036 C 
ATOM     22  H32 PRO d   1     -52.036 -20.674   0.880  0.00  0.00     0.035 H 
ATOM     23  H33 PRO d   1     -52.797 -20.310  -0.706  0.00  0.00     0.035 H 
ATOM     24  H30 PRO d   1     -49.897 -20.809  -0.057  0.00  0.00     0.036 H 
ATOM     25  H31 PRO d   1     -50.943 -21.615  -1.274  0.00  0.00     0.036 H 
ATOM     26  H29 PRO d   1     -49.342 -19.529  -1.996  0.00  0.00     0.087 H 
BRANCH  15  27
ATOM     27  CA  CYS d   1     -50.955 -16.031  -0.555  0.00  0.00     0.097 C 
ATOM     28  H25 CYS d   1     -51.504 -16.410   0.320  0.00  0.00     0.088 H 
BRANCH  27  29
ATOM     29  N   CYS d   1     -49.937 -15.106  -0.114  0.00  0.00    -0.345 N 
ATOM     30  C   VAL d   1     -49.526 -15.042   1.134  0.00  0.00     0.241 C 
ATOM     31  O   VAL d   1     -49.954 -15.809   2.005  0.00  0.00    -0.271 OA
ATOM     32  H24 CYS d   1     -49.528 -14.488  -0.785  0.00  0.00     0.163 HD
BRANCH  30  33
ATOM     33  CA  VAL d   1     -48.433 -14.032   1.456  0.00  0.00     0.092 C 
ATOM     34  H16 VAL d   1     -48.410 -13.273   0.661  0.00  0.00     0.088 H 
BRANCH  33  35
ATOM     35  N   VAL d   1     -48.752 -13.381   2.720  0.00  0.00    -0.346 N 
ATOM     36  C   THR d   1     -49.608 -12.369   2.793  0.00  0.00     0.243 C 
ATOM     37  O   THR d   1     -50.160 -11.872   1.807  0.00  0.00    -0.271 OA
ATOM     38  H15 VAL d   1     -48.313 -13.706   3.558  0.00  0.00     0.163 HD
BRANCH  36  39
ATOM     39  CA  THR d   1     -49.877 -11.820   4.186  0.00  0.00     0.113 C 
ATOM     40  H9  THR d   1     -49.136 -12.242   4.880  0.00  0.00     0.091 H 
BRANCH  39  41
ATOM     41  N   THR d   1     -49.726 -10.372   4.172  0.00  0.00    -0.344 N 
ATOM     42  C   GLU d   1     -48.865  -9.737   4.962  0.00  0.00     0.248 C 
ATOM     43  O   GLU d   1     -48.160 -10.322   5.781  0.00  0.00    -0.271 OA
ATOM     44  H8  THR d   1     -50.291  -9.835   3.545  0.00  0.00     0.163 HD
BRANCH  42  45
ATOM     45  CA  GLU d   1     -48.789  -8.220   4.809  0.00  0.00     0.172 C 
ATOM     46  H4  GLU d   1     -47.757  -7.951   4.539  0.00  0.00     0.098 H 
BRANCH  45  47
ATOM     47  N   GLU d   1     -49.674  -7.750   3.750  0.00  0.00    -0.067 N 
ATOM     48  H1  GLU d   1     -49.602  -6.747   3.673  0.00  0.00     0.275 HD
ATOM     49  H2  GLU d   1     -50.625  -8.003   3.970  0.00  0.00     0.275 HD
ATOM     50  H3  GLU d   1     -49.407  -8.174   2.876  0.00  0.00     0.275 HD
ENDBRANCH  45  47
BRANCH  45  51
ATOM     51  CB  GLU d   1     -49.133  -7.543   6.136  0.00  0.00    -0.042 C 
ATOM     52  H5  GLU d   1     -48.456  -7.910   6.921  0.00  0.00     0.030 H 
ATOM     53  H6  GLU d   1     -50.172  -7.778   6.409  0.00  0.00     0.030 H 
ATOM     54  H7  GLU d   1     -49.019  -6.454   6.032  0.00  0.00     0.030 H 
ENDBRANCH  45  51
ENDBRANCH  42  45
ENDBRANCH  39  41
BRANCH  39  55
ATOM     55  CB  THR d   1     -51.275 -12.228   4.668  0.00  0.00     0.060 C 
ATOM     56  H10 THR d   1     -52.015 -11.523   4.261  0.00  0.00     0.086 H 
BRANCH  55  57
ATOM     57  OG1 THR d   1     -51.316 -12.183   6.097  0.00  0.00    -0.393 OA
ATOM     58  H11 THR d   1     -52.182 -12.436   6.396  0.00  0.00     0.210 HD
ENDBRANCH  55  57
BRANCH  55  59
ATOM     59  CG2 THR d   1     -51.619 -13.635   4.198  0.00  0.00    -0.050 C 
ATOM     60  H12 THR d   1     -52.624 -13.905   4.555  0.00  0.00     0.031 H 
ATOM     61  H13 THR d   1     -50.883 -14.346   4.601  0.00  0.00     0.031 H 
ATOM     62  H14 THR d   1     -51.599 -13.670   3.099  0.00  0.00     0.031 H 
ENDBRANCH  55  59
ENDBRANCH  39  55
ENDBRANCH  36  39
ENDBRANCH  33  35
BRANCH  33  63
ATOM     63  CB  VAL d   1     -47.051 -14.700   1.527  0.00  0.00    -0.033 C 
ATOM     64  H17 VAL d   1     -46.923 -15.126   2.533  0.00  0.00     0.042 H 
BRANCH  63  65
ATOM     65  CG1 VAL d   1     -46.942 -15.826   0.514  0.00  0.00    -0.071 C 
ATOM     66  H18 VAL d   1     -45.946 -16.287   0.584  0.00  0.00     0.028 H 
ATOM     67  H19 VAL d   1     -47.089 -15.423  -0.499  0.00  0.00     0.028 H 
ATOM     68  H20 VAL d   1     -47.712 -16.583   0.723  0.00  0.00     0.028 H 
ENDBRANCH  63  65
BRANCH  63  69
ATOM     69  CG2 VAL d   1     -45.954 -13.669   1.296  0.00  0.00    -0.071 C 
ATOM     70  H21 VAL d   1     -46.048 -12.862   2.037  0.00  0.00     0.028 H 
ATOM     71  H22 VAL d   1     -46.052 -13.250   0.283  0.00  0.00     0.028 H 
ATOM     72  H23 VAL d   1     -44.971 -14.150   1.400  0.00  0.00     0.028 H 
ENDBRANCH  63  69
ENDBRANCH  33  63
ENDBRANCH  30  33
ENDBRANCH  27  29
BRANCH  27  73
ATOM     73  CB  CYS d   1     -51.891 -15.307  -1.490  0.00  0.00     0.001 C 
ATOM     74  H26 CYS d   1     -52.145 -15.983  -2.320  0.00  0.00     0.052 H 
ATOM     75  H27 CYS d   1     -51.371 -14.421  -1.885  0.00  0.00     0.052 H 
BRANCH  73  76
ATOM     76  SG  CYS d   1     -53.407 -14.772  -0.715  0.00  0.00    -0.180 SA
ATOM     77  H28 CYS d   1     -53.981 -14.298  -1.395  0.00  0.00     0.101 HD
ENDBRANCH  73  76
ENDBRANCH  27  73
ENDBRANCH  15  27
ENDBRANCH  10  13
ENDBRANCH   7   9
BRANCH   7  78
ATOM     78  C3  CIR d   1     -50.627 -20.584  -6.218  0.00  0.00    -0.036 C 
ATOM     79  H38 CIR d   1     -49.589 -20.921  -6.082  0.00  0.00     0.036 H 
ATOM     80  H39 CIR d   1     -50.656 -19.485  -6.234  0.00  0.00     0.036 H 
BRANCH  78  81
ATOM     81  C4  CIR d   1     -51.103 -21.078  -7.541  0.00  0.00    -0.048 C 
ATOM     82  H40 CIR d   1     -51.669 -22.009  -7.385  0.00  0.00     0.035 H 
ATOM     83  H41 CIR d   1     -50.227 -21.283  -8.174  0.00  0.00     0.035 H 
BRANCH  81  84
ATOM     84  C5  CIR d   1     -51.981 -20.101  -8.246  0.00  0.00    -0.003 C 
ATOM     85  H42 CIR d   1     -52.570 -20.627  -9.012  0.00  0.00     0.064 H 
ATOM     86  H43 CIR d   1     -51.358 -19.332  -8.727  0.00  0.00     0.064 H 
BRANCH  84  87
ATOM     87  N6  CIR d   1     -52.853 -19.487  -7.328  0.00  0.00    -0.343 N 
ATOM     88  C7  CIR d   1     -54.110 -19.794  -7.246  0.00  0.00     0.313 C 
ATOM     89  O7  CIR d   1     -54.552 -20.840  -7.602  0.00  0.00    -0.248 OA
ATOM     90  N8  CIR d   1     -54.915 -18.819  -6.671  0.00  0.00    -0.352 N 
ATOM     91  H45 CIR d   1     -55.897 -18.977  -6.570  0.00  0.00     0.160 HD
ATOM     92  H46 CIR d   1     -54.512 -17.959  -6.358  0.00  0.00     0.160 HD
ATOM     93  H44 CIR d   1     -52.489 -18.786  -6.715  0.00  0.00     0.164 HD
ENDBRANCH  84  87
ENDBRANCH  81  84
ENDBRANCH  78  81
ENDBRANCH   7  78
ENDBRANCH   4   7
ENDBRANCH   1   3
BRANCH   1  94
ATOM     94  C   THR d   1     -53.033 -25.236  -6.069  0.00  0.00     0.243 C 
ATOM     95  O   THR d   1     -52.848 -25.024  -7.233  0.00  0.00    -0.271 OA
ATOM     96  N   THR d   1     -52.848 -26.416  -5.531  0.00  0.00    -0.344 N 
ATOM     97  H54 THR d   1     -53.003 -26.538  -4.551  0.00  0.00     0.163 HD
BRANCH  96  98
ATOM     98  CA  THR d   1     -52.427 -27.536  -6.323  0.00  0.00     0.113 C 
ATOM     99  H55 THR d   1     -51.920 -27.172  -7.229  0.00  0.00     0.091 H 
BRANCH  98 100
ATOM    100  C   THR d   1     -53.670 -28.282  -6.716  0.00  0.00     0.243 C 
ATOM    101  O   THR d   1     -54.573 -28.438  -5.950  0.00  0.00    -0.271 OA
ATOM    102  N   GLN d   1     -53.708 -28.725  -7.947  0.00  0.00    -0.346 N 
ATOM    103  H61 GLN d   1     -52.923 -28.573  -8.548  0.00  0.00     0.163 HD
BRANCH 102 104
ATOM    104  CA  GLN d   1     -54.843 -29.418  -8.445  0.00  0.00     0.090 C 
ATOM    105  H62 GLN d   1     -55.720 -29.074  -7.878  0.00  0.00     0.087 H 
BRANCH 104 106
ATOM    106  C   GLN d   1     -54.732 -30.886  -8.247  0.00  0.00     0.241 C 
ATOM    107  O   GLN d   1     -53.679 -31.412  -8.071  0.00  0.00    -0.271 OA
ATOM    108  N   GLN d   1     -55.861 -31.549  -8.285  0.00  0.00    -0.346 N 
ATOM    109  H69 GLN d   1     -56.703 -31.048  -8.484  0.00  0.00     0.163 HD
BRANCH 108 110
ATOM    110  CA  GLN d   1     -55.940 -32.952  -8.055  0.00  0.00     0.090 C 
ATOM    111  H70 GLN d   1     -55.003 -33.303  -7.598  0.00  0.00     0.087 H 
BRANCH 110 112
ATOM    112  C   GLN d   1     -56.148 -33.705  -9.338  0.00  0.00     0.241 C 
ATOM    113  O   GLN d   1     -57.024 -33.436 -10.071  0.00  0.00    -0.271 OA
ATOM    114  N   SER d   1     -55.311 -34.666  -9.601  0.00  0.00    -0.344 N 
ATOM    115  H77 SER d   1     -54.588 -34.876  -8.943  0.00  0.00     0.163 HD
BRANCH 114 116
ATOM    116  CA  SER d   1     -55.399 -35.443 -10.827  0.00  0.00     0.109 C 
ATOM    117  H78 SER d   1     -55.467 -34.747 -11.676  0.00  0.00     0.090 H 
BRANCH 116 118
ATOM    118  C   SER d   1     -56.644 -36.331 -10.821  0.00  0.00     0.245 C 
ATOM    119  O   SER d   1     -57.161 -36.686  -9.759  0.00  0.00    -0.271 OA
ATOM    120  N   PRO d   1     -57.147 -36.703 -12.000  0.00  0.00    -0.337 N 
ATOM    121  CA  PRO d   1     -58.262 -37.659 -12.052  0.00  0.00     0.091 C 
ATOM    122  CD  PRO d   1     -56.790 -36.197 -13.337  0.00  0.00    -0.001 C 
ATOM    123  CB  PRO d   1     -58.738 -37.573 -13.507  0.00  0.00    -0.036 C 
ATOM    124  H82 PRO d   1     -59.066 -37.363 -11.362  0.00  0.00     0.087 H 
ATOM    125  CG  PRO d   1     -57.536 -37.117 -14.265  0.00  0.00    -0.048 C 
ATOM    126  H83 PRO d   1     -59.559 -36.847 -13.606  0.00  0.00     0.036 H 
ATOM    127  H84 PRO d   1     -59.074 -38.557 -13.865  0.00  0.00     0.036 H 
ATOM    128  H85 PRO d   1     -57.839 -36.579 -15.176  0.00  0.00     0.035 H 
ATOM    129  H86 PRO d   1     -56.907 -37.977 -14.539  0.00  0.00     0.035 H 
ATOM    130  H87 PRO d   1     -55.705 -36.261 -13.506  0.00  0.00     0.064 H 
ATOM    131  H88 PRO d   1     -57.120 -35.156 -13.465  0.00  0.00     0.064 H 
BRANCH 121 132
ATOM    132  C   PRO d   1     -57.785 -39.061 -11.696  0.00  0.00     0.241 C 
ATOM    133  O   PRO d   1     -56.770 -39.536 -12.210  0.00  0.00    -0.271 OA
ATOM    134  N   GLU d   1     -58.525 -39.716 -10.805  0.00  0.00    -0.345 N 
ATOM    135  H89 GLU d   1     -59.350 -39.280 -10.445  0.00  0.00     0.163 HD
BRANCH 134 136
ATOM    136  CA  GLU d   1     -58.168 -41.051 -10.338  0.00  0.00     0.093 C 
ATOM    137  H90 GLU d   1     -57.072 -41.109 -10.267  0.00  0.00     0.089 H 
BRANCH 136 138
ATOM    138  C   GLU d   1     -58.641 -42.123 -11.316  0.00  0.00     0.196 C 
ATOM    139  O   GLU d   1     -58.371 -42.046 -12.515  0.00  0.00    -0.646 OA
ATOM    140  OXT GLU d   1     -59.302 -43.086 -10.925  0.00  0.00    -0.646 OA
ENDBRANCH 136 138
BRANCH 136 141
ATOM    141  CB  GLU d   1     -58.758 -41.307  -8.948  0.00  0.00    -0.048 C 
ATOM    142  H91 GLU d   1     -58.479 -42.317  -8.612  0.00  0.00     0.030 H 
ATOM    143  H92 GLU d   1     -59.854 -41.225  -8.994  0.00  0.00     0.030 H 
ATOM    144  H93 GLU d   1     -58.364 -40.563  -8.240  0.00  0.00     0.030 H 
ENDBRANCH 136 141
ENDBRANCH 134 136
ENDBRANCH 121 132
ENDBRANCH 116 118
BRANCH 116 145
ATOM    145  CB  SER d   1     -54.155 -36.309 -11.001  0.00  0.00     0.044 C 
ATOM    146  H79 SER d   1     -54.395 -37.155 -11.662  0.00  0.00     0.077 H 
ATOM    147  H80 SER d   1     -53.841 -36.689 -10.018  0.00  0.00     0.077 H 
BRANCH 145 148
ATOM    148  OG  SER d   1     -53.094 -35.564 -11.570  0.00  0.00    -0.398 OA
ATOM    149  H81 SER d   1     -53.359 -35.236 -12.421  0.00  0.00     0.209 HD
ENDBRANCH 145 148
ENDBRANCH 116 145
ENDBRANCH 114 116
ENDBRANCH 110 112
BRANCH 110 150
ATOM    150  CB  GLN d   1     -57.075 -33.149  -7.080  0.00  0.00    -0.030 C 
ATOM    151  H71 GLN d   1     -57.964 -32.660  -7.505  0.00  0.00     0.037 H 
ATOM    152  H72 GLN d   1     -56.795 -32.649  -6.141  0.00  0.00     0.037 H 
BRANCH 150 153
ATOM    153  CG  GLN d   1     -57.456 -34.563  -6.742  0.00  0.00     0.011 C 
ATOM    154  H73 GLN d   1     -57.775 -35.069  -7.665  0.00  0.00     0.047 H 
ATOM    155  H74 GLN d   1     -58.293 -34.539  -6.029  0.00  0.00     0.047 H 
BRANCH 153 156
ATOM    156  CD  GLN d   1     -56.343 -35.340  -6.137  0.00  0.00     0.215 C 
ATOM    157  OE1 GLN d   1     -55.888 -35.045  -5.055  0.00  0.00    -0.274 OA
ATOM    158  NE2 GLN d   1     -55.918 -36.356  -6.826  0.00  0.00    -0.370 N 
ATOM    159  H75 GLN d   1     -55.171 -36.921  -6.475  0.00  0.00     0.159 HD
ATOM    160  H76 GLN d   1     -56.338 -36.573  -7.707  0.00  0.00     0.159 HD
ENDBRANCH 153 156
ENDBRANCH 150 153
ENDBRANCH 110 150
ENDBRANCH 108 110
ENDBRANCH 104 106
BRANCH 104 161
ATOM    161  CB  GLN d   1     -55.067 -29.074  -9.894  0.00  0.00    -0.030 C 
ATOM    162  H63 GLN d   1     -56.056 -29.452 -10.190  0.00  0.00     0.037 H 
ATOM    163  H64 GLN d   1     -54.290 -29.572 -10.492  0.00  0.00     0.037 H 
BRANCH 161 164
ATOM    164  CG  GLN d   1     -55.017 -27.596 -10.189  0.00  0.00     0.011 C 
ATOM    165  H65 GLN d   1     -55.339 -27.438 -11.229  0.00  0.00     0.047 H 
ATOM    166  H66 GLN d   1     -53.978 -27.253 -10.071  0.00  0.00     0.047 H 
BRANCH 164 167
ATOM    167  CD  GLN d   1     -55.891 -26.773  -9.293  0.00  0.00     0.215 C 
ATOM    168  OE1 GLN d   1     -55.463 -25.812  -8.713  0.00  0.00    -0.274 OA
ATOM    169  NE2 GLN d   1     -57.117 -27.133  -9.207  0.00  0.00    -0.370 N 
ATOM    170  H67 GLN d   1     -57.748 -26.622  -8.624  0.00  0.00     0.159 HD
ATOM    171  H68 GLN d   1     -57.443 -27.925  -9.723  0.00  0.00     0.159 HD
ENDBRANCH 164 167
ENDBRANCH 161 164
ENDBRANCH 104 161
ENDBRANCH 102 104
ENDBRANCH  98 100
BRANCH  98 172
ATOM    172  CB  THR d   1     -51.457 -28.427  -5.554  0.00  0.00     0.060 C 
ATOM    173  H56 THR d   1     -51.983 -28.912  -4.718  0.00  0.00     0.086 H 
BRANCH 172 174
ATOM    174  OG1 THR d   1     -50.391 -27.640  -5.078  0.00  0.00    -0.393 OA
ATOM    175  H57 THR d   1     -49.783 -28.190  -4.598  0.00  0.00     0.210 HD
ENDBRANCH 172 174
BRANCH 172 176
ATOM    176  CG2 THR d   1     -50.881 -29.410  -6.409  0.00  0.00    -0.050 C 
ATOM    177  H58 THR d   1     -50.187 -30.038  -5.831  0.00  0.00     0.031 H 
ATOM    178  H59 THR d   1     -50.334 -28.913  -7.223  0.00  0.00     0.031 H 
ATOM    179  H60 THR d   1     -51.677 -30.039  -6.833  0.00  0.00     0.031 H 
ENDBRANCH 172 176
ENDBRANCH  98 172
ENDBRANCH  96  98
ENDBRANCH   1  94
BRANCH   1 180
ATOM    180  CB  THR d   1     -55.011 -24.047  -5.366  0.00  0.00     0.060 C 
ATOM    181  H49 THR d   1     -55.258 -24.355  -6.393  0.00  0.00     0.086 H 
BRANCH 180 182
ATOM    182  OG1 THR d   1     -55.456 -22.728  -5.137  0.00  0.00    -0.393 OA
ATOM    183  H50 THR d   1     -55.022 -22.139  -5.743  0.00  0.00     0.210 HD
ENDBRANCH 180 182
BRANCH 180 184
ATOM    184  CG2 THR d   1     -55.704 -24.881  -4.419  0.00  0.00    -0.050 C 
ATOM    185  H51 THR d   1     -56.789 -24.797  -4.581  0.00  0.00     0.031 H 
ATOM    186  H52 THR d   1     -55.460 -24.556  -3.397  0.00  0.00     0.031 H 
ATOM    187  H53 THR d   1     -55.393 -25.927  -4.555  0.00  0.00     0.031 H 
ENDBRANCH 180 184
ENDBRANCH   1 180
TORSDOF 52
