REMARK WARNING: 32 MAX_TORS EXCEEDED!!!
REMARK  56 active torsions:
REMARK  status: ('A' for Active; 'I' for Inactive)
REMARK    1  A    between atoms: CA_2  and  N_1 
REMARK    2  A    between atoms: C_3  and  CA_2 
REMARK    3  A    between atoms: CA_2  and  CB_5 
REMARK       I    between atoms: N_10  and  C_3 
REMARK    4  A    between atoms: CB_5  and  CG_6 
REMARK    5  A    between atoms: CG_6  and  CD_7 
REMARK    6  A    between atoms: CA_11  and  N_10 
REMARK    7  A    between atoms: C_12  and  CA_11 
REMARK    8  A    between atoms: CA_11  and  CB_14 
REMARK       I    between atoms: N_17  and  C_12 
REMARK    9  A    between atoms: CB_14  and  OG1_15 
REMARK   10  A    between atoms: CB_14  and  CG2_16 
REMARK   11  A    between atoms: CA_18  and  N_17 
REMARK   12  A    between atoms: C_19  and  CA_18 
REMARK   13  A    between atoms: CA_18  and  CB_21 
REMARK       I    between atoms: N_24  and  C_19 
REMARK   14  A    between atoms: CB_21  and  CG1_22 
REMARK   15  A    between atoms: CB_21  and  CG2_23 
REMARK   16  A    between atoms: CA_25  and  N_24 
REMARK   17  A    between atoms: C_26  and  CA_25 
REMARK   18  A    between atoms: CA_25  and  CB_28 
REMARK       I    between atoms: N_30  and  C_26 
REMARK   19  A    between atoms: CB_28  and  SG_29 
REMARK   20  A    between atoms: C_32  and  CA_31 
REMARK       I    between atoms: N2_40  and  C_32 
REMARK   21  A    between atoms: C2_39  and  C1_37 
REMARK       I    between atoms: C1_37  and  N_48 
REMARK   22  A    between atoms: C2_39  and  N2_40 
REMARK   23  A    between atoms: C2_39  and  C3_41 
REMARK   24  A    between atoms: C3_41  and  C4_42 
REMARK   25  A    between atoms: C4_42  and  C5_43 
REMARK   26  A    between atoms: C5_43  and  N6_44 
REMARK       I    between atoms: N6_44  and  C7_45 
REMARK       I    between atoms: C7_45  and  N8_47 
REMARK   27  A    between atoms: N_48  and  CA_49 
REMARK   28  A    between atoms: CA_49  and  C_50 
REMARK   29  A    between atoms: CA_49  and  CB_52 
REMARK       I    between atoms: C_50  and  N_55 
REMARK   30  A    between atoms: CB_52  and  OG1_53 
REMARK   31  A    between atoms: CB_52  and  CG2_54 
REMARK   32  A    between atoms: N_55  and  CA_56 
REMARK   33  A    between atoms: CA_56  and  C_57 
REMARK   34  A    between atoms: CA_56  and  CB_59 
REMARK       I    between atoms: C_57  and  N_62 
REMARK   35  A    between atoms: CB_59  and  OG1_60 
REMARK   36  A    between atoms: CB_59  and  CG2_61 
REMARK   37  A    between atoms: N_62  and  CA_63 
REMARK   38  A    between atoms: CA_63  and  C_64 
REMARK   39  A    between atoms: CA_63  and  CB_66 
REMARK       I    between atoms: C_64  and  N_71 
REMARK   40  A    between atoms: CB_66  and  CG_67 
REMARK   41  A    between atoms: CG_67  and  CD_68 
REMARK       I    between atoms: CD_68  and  NE2_70 
REMARK   42  A    between atoms: N_71  and  CA_72 
REMARK   43  A    between atoms: CA_72  and  C_73 
REMARK   44  A    between atoms: CA_72  and  CB_75 
REMARK       I    between atoms: C_73  and  N_80 
REMARK   45  A    between atoms: CB_75  and  CG_76 
REMARK   46  A    between atoms: CG_76  and  CD_77 
REMARK       I    between atoms: CD_77  and  NE2_79 
REMARK   47  A    between atoms: N_80  and  CA_81 
REMARK   48  A    between atoms: CA_81  and  C_82 
REMARK   49  A    between atoms: CA_81  and  CB_84 
REMARK       I    between atoms: C_82  and  N_86 
REMARK   50  A    between atoms: CB_84  and  OG_85 
REMARK   51  A    between atoms: CA_87  and  C_88 
REMARK       I    between atoms: C_88  and  N_93 
REMARK   52  A    between atoms: N_93  and  CA_94 
REMARK   53  A    between atoms: CA_94  and  C_95 
REMARK   54  A    between atoms: CA_94  and  CB_97 
REMARK   55  A    between atoms: CB_97  and  CG_98 
REMARK   56  A    between atoms: CG_98  and  CD_99 
ROOT
ATOM      1  CA  THR d   1     -54.173 -24.432  -5.899  0.00  0.00     0.113 C 
ATOM      2  H49 THR d   1     -53.719 -24.673  -4.927  0.00  0.00     0.091 H 
ENDROOT
BRANCH   1   3
ATOM      3  N   THR d   1     -53.737 -23.101  -6.288  0.00  0.00    -0.344 N 
ATOM      4  C1  CIR d   1     -52.449 -22.682  -6.214  0.00  0.00     0.241 C 
ATOM      5  O1  CIR d   1     -51.703 -23.395  -5.487  0.00  0.00    -0.271 OA
ATOM      6  H48 THR d   1     -54.424 -22.459  -6.629  0.00  0.00     0.163 HD
BRANCH   4   7
ATOM      7  C2  CIR d   1     -52.057 -21.277  -6.499  0.00  0.00     0.089 C 
ATOM      8  H37 CIR d   1     -52.958 -20.659  -6.629  0.00  0.00     0.087 H 
BRANCH   7   9
ATOM      9  N2  CIR d   1     -51.267 -20.768  -5.396  0.00  0.00    -0.346 N 
ATOM     10  C   PRO d   1     -51.899 -20.213  -4.387  0.00  0.00     0.241 C 
ATOM     11  O   PRO d   1     -53.036 -19.740  -4.448  0.00  0.00    -0.271 OA
ATOM     12  H38 CIR d   1     -50.269 -20.837  -5.403  0.00  0.00     0.163 HD
BRANCH  10  13
ATOM     13  CA  PRO d   1     -51.052 -19.942  -3.150  0.00  0.00     0.091 C 
ATOM     14  N   PRO d   1     -51.438 -18.692  -2.478  0.00  0.00    -0.337 N 
ATOM     15  C   CYS d   1     -50.947 -17.488  -2.842  0.00  0.00     0.244 C 
ATOM     16  CD  PRO d   1     -52.372 -18.948  -1.366  0.00  0.00    -0.001 C 
ATOM     17  O   CYS d   1     -50.088 -17.381  -3.730  0.00  0.00    -0.271 OA
ATOM     18  CG  PRO d   1     -52.498 -20.458  -1.355  0.00  0.00    -0.048 C 
ATOM     19  H35 PRO d   1     -53.346 -18.473  -1.553  0.00  0.00     0.064 H 
ATOM     20  H36 PRO d   1     -51.961 -18.580  -0.414  0.00  0.00     0.064 H 
ATOM     21  CB  PRO d   1     -51.311 -21.002  -2.081  0.00  0.00    -0.036 C 
ATOM     22  H33 PRO d   1     -52.509 -20.828  -0.319  0.00  0.00     0.035 H 
ATOM     23  H34 PRO d   1     -53.424 -20.763  -1.864  0.00  0.00     0.035 H 
ATOM     24  H31 PRO d   1     -50.447 -21.104  -1.407  0.00  0.00     0.036 H 
ATOM     25  H32 PRO d   1     -51.538 -21.977  -2.537  0.00  0.00     0.036 H 
ATOM     26  H30 PRO d   1     -49.990 -19.919  -3.435  0.00  0.00     0.087 H 
BRANCH  15  27
ATOM     27  CA  CYS d   1     -51.411 -16.235  -2.112  0.00  0.00     0.097 C 
ATOM     28  H26 CYS d   1     -51.997 -16.532  -1.230  0.00  0.00     0.088 H 
BRANCH  27  29
ATOM     29  N   CYS d   1     -50.260 -15.463  -1.687  0.00  0.00    -0.345 N 
ATOM     30  C   VAL d   1     -49.811 -15.391  -0.446  0.00  0.00     0.241 C 
ATOM     31  O   VAL d   1     -50.228 -16.110   0.464  0.00  0.00    -0.271 OA
ATOM     32  H25 CYS d   1     -49.768 -14.945  -2.387  0.00  0.00     0.163 HD
BRANCH  30  33
ATOM     33  CA  VAL d   1     -48.713 -14.377  -0.186  0.00  0.00     0.092 C 
ATOM     34  H17 VAL d   1     -48.654 -13.685  -1.039  0.00  0.00     0.088 H 
BRANCH  33  35
ATOM     35  N   VAL d   1     -49.052 -13.623   1.013  0.00  0.00    -0.346 N 
ATOM     36  C   THR d   1     -50.055 -12.744   1.010  0.00  0.00     0.243 C 
ATOM     37  O   THR d   1     -50.690 -12.439  -0.006  0.00  0.00    -0.271 OA
ATOM     38  H16 VAL d   1     -48.525 -13.766   1.851  0.00  0.00     0.163 HD
BRANCH  36  39
ATOM     39  CA  THR d   1     -50.382 -12.098   2.347  0.00  0.00     0.113 C 
ATOM     40  H10 THR d   1     -49.649 -12.443   3.091  0.00  0.00     0.091 H 
BRANCH  39  41
ATOM     41  N   THR d   1     -50.267 -10.648   2.230  0.00  0.00    -0.344 N 
ATOM     42  C   GLU d   1     -49.264  -9.982   2.794  0.00  0.00     0.249 C 
ATOM     43  O   GLU d   1     -48.362 -10.564   3.408  0.00  0.00    -0.271 OA
ATOM     44  H9  THR d   1     -50.959 -10.143   1.714  0.00  0.00     0.163 HD
BRANCH  42  45
ATOM     45  CA  GLU d   1     -49.239  -8.457   2.625  0.00  0.00     0.176 C 
ATOM     46  H4  GLU d   1     -48.215  -8.168   2.344  0.00  0.00     0.099 H 
BRANCH  45  47
ATOM     47  N   GLU d   1     -50.132  -8.002   1.575  0.00  0.00    -0.066 N 
ATOM     48  H1  GLU d   1     -50.081  -6.998   1.502  0.00  0.00     0.275 HD
ATOM     49  H2  GLU d   1     -51.077  -8.275   1.796  0.00  0.00     0.275 HD
ATOM     50  H3  GLU d   1     -49.858  -8.417   0.698  0.00  0.00     0.275 HD
ENDBRANCH  45  47
BRANCH  45  51
ATOM     51  CB  GLU d   1     -49.583  -7.767   3.946  0.00  0.00    -0.021 C 
ATOM     52  H5  GLU d   1     -50.660  -7.898   4.129  0.00  0.00     0.037 H 
ATOM     53  H6  GLU d   1     -49.356  -6.696   3.840  0.00  0.00     0.037 H 
BRANCH  51  54
ATOM     54  CG  GLU d   1     -48.822  -8.297   5.175  0.00  0.00     0.018 C 
ATOM     55  H7  GLU d   1     -48.958  -9.387   5.228  0.00  0.00     0.049 H 
ATOM     56  H8  GLU d   1     -49.245  -7.831   6.077  0.00  0.00     0.049 H 
BRANCH  54  57
ATOM     57  CD  GLU d   1     -47.328  -7.995   5.128  0.00  0.00     0.172 C 
ATOM     58  OE1 GLU d   1     -46.645  -8.176   6.166  0.00  0.00    -0.648 OA
ATOM     59  OE2 GLU d   1     -46.840  -7.558   4.059  0.00  0.00    -0.648 OA
ENDBRANCH  54  57
ENDBRANCH  51  54
ENDBRANCH  45  51
ENDBRANCH  42  45
ENDBRANCH  39  41
BRANCH  39  60
ATOM     60  CB  THR d   1     -51.771 -12.521   2.818  0.00  0.00     0.060 C 
ATOM     61  H11 THR d   1     -52.534 -12.151   2.117  0.00  0.00     0.086 H 
BRANCH  60  62
ATOM     62  OG1 THR d   1     -51.995 -11.990   4.121  0.00  0.00    -0.393 OA
ATOM     63  H12 THR d   1     -51.336 -12.327   4.717  0.00  0.00     0.210 HD
ENDBRANCH  60  62
BRANCH  60  64
ATOM     64  CG2 THR d   1     -51.842 -14.044   2.917  0.00  0.00    -0.050 C 
ATOM     65  H13 THR d   1     -52.845 -14.343   3.257  0.00  0.00     0.031 H 
ATOM     66  H14 THR d   1     -51.090 -14.400   3.636  0.00  0.00     0.031 H 
ATOM     67  H15 THR d   1     -51.643 -14.485   1.929  0.00  0.00     0.031 H 
ENDBRANCH  60  64
ENDBRANCH  39  60
ENDBRANCH  36  39
ENDBRANCH  33  35
BRANCH  33  68
ATOM     68  CB  VAL d   1     -47.359 -15.077  -0.031  0.00  0.00    -0.033 C 
ATOM     69  H18 VAL d   1     -47.318 -15.542   0.965  0.00  0.00     0.042 H 
BRANCH  68  70
ATOM     70  CG1 VAL d   1     -47.242 -16.179  -1.085  0.00  0.00    -0.071 C 
ATOM     71  H19 VAL d   1     -46.272 -16.686  -0.979  0.00  0.00     0.028 H 
ATOM     72  H20 VAL d   1     -47.317 -15.736  -2.089  0.00  0.00     0.028 H 
ATOM     73  H21 VAL d   1     -48.054 -16.908  -0.945  0.00  0.00     0.028 H 
ENDBRANCH  68  70
BRANCH  68  74
ATOM     74  CG2 VAL d   1     -46.219 -14.088  -0.135  0.00  0.00    -0.071 C 
ATOM     75  H22 VAL d   1     -46.335 -13.312   0.636  0.00  0.00     0.028 H 
ATOM     76  H23 VAL d   1     -46.229 -13.620  -1.131  0.00  0.00     0.028 H 
ATOM     77  H24 VAL d   1     -45.264 -14.613   0.014  0.00  0.00     0.028 H 
ENDBRANCH  68  74
ENDBRANCH  33  68
ENDBRANCH  30  33
ENDBRANCH  27  29
BRANCH  27  78
ATOM     78  CB  CYS d   1     -52.291 -15.355  -3.031  0.00  0.00     0.001 C 
ATOM     79  H27 CYS d   1     -51.641 -14.940  -3.816  0.00  0.00     0.052 H 
ATOM     80  H28 CYS d   1     -52.695 -14.536  -2.418  0.00  0.00     0.052 H 
BRANCH  78  81
ATOM     81  SG  CYS d   1     -53.677 -16.160  -3.844  0.00  0.00    -0.180 SA
ATOM     82  H29 CYS d   1     -53.335 -16.907  -4.428  0.00  0.00     0.101 HD
ENDBRANCH  78  81
ENDBRANCH  27  78
ENDBRANCH  15  27
ENDBRANCH  10  13
ENDBRANCH   7   9
BRANCH   7  83
ATOM     83  C3  CIR d   1     -51.228 -21.236  -7.750  0.00  0.00    -0.036 C 
ATOM     84  H39 CIR d   1     -50.310 -21.820  -7.589  0.00  0.00     0.036 H 
ATOM     85  H40 CIR d   1     -50.964 -20.191  -7.969  0.00  0.00     0.036 H 
BRANCH  83  86
ATOM     86  C4  CIR d   1     -51.979 -21.816  -8.942  0.00  0.00    -0.048 C 
ATOM     87  H41 CIR d   1     -52.918 -22.278  -8.603  0.00  0.00     0.035 H 
ATOM     88  H42 CIR d   1     -51.358 -22.573  -9.442  0.00  0.00     0.035 H 
BRANCH  86  89
ATOM     89  C5  CIR d   1     -52.281 -20.681  -9.903  0.00  0.00    -0.003 C 
ATOM     90  H43 CIR d   1     -52.810 -21.072 -10.784  0.00  0.00     0.064 H 
ATOM     91  H44 CIR d   1     -51.342 -20.204 -10.221  0.00  0.00     0.064 H 
BRANCH  89  92
ATOM     92  N6  CIR d   1     -53.117 -19.710  -9.221  0.00  0.00    -0.343 N 
ATOM     93  C7  CIR d   1     -54.401 -19.377  -9.783  0.00  0.00     0.313 C 
ATOM     94  O7  CIR d   1     -54.765 -19.914 -10.813  0.00  0.00    -0.248 OA
ATOM     95  N8  CIR d   1     -55.266 -18.420  -9.142  0.00  0.00    -0.352 N 
ATOM     96  H46 CIR d   1     -56.154 -18.200  -9.545  0.00  0.00     0.160 HD
ATOM     97  H47 CIR d   1     -54.978 -17.976  -8.294  0.00  0.00     0.160 HD
ATOM     98  H45 CIR d   1     -52.806 -19.279  -8.374  0.00  0.00     0.164 HD
ENDBRANCH  89  92
ENDBRANCH  86  89
ENDBRANCH  83  86
ENDBRANCH   7  83
ENDBRANCH   4   7
ENDBRANCH   1   3
BRANCH   1  99
ATOM     99  C   THR d   1     -53.732 -25.461  -6.926  0.00  0.00     0.243 C 
ATOM    100  O   THR d   1     -53.542 -25.145  -8.103  0.00  0.00    -0.271 OA
ATOM    101  N   THR d   1     -53.574 -26.692  -6.478  0.00  0.00    -0.344 N 
ATOM    102  H55 THR d   1     -53.584 -26.852  -5.491  0.00  0.00     0.163 HD
BRANCH 101 103
ATOM    103  CA  THR d   1     -53.386 -27.822  -7.369  0.00  0.00     0.113 C 
ATOM    104  H56 THR d   1     -53.082 -27.458  -8.361  0.00  0.00     0.091 H 
BRANCH 103 105
ATOM    105  C   THR d   1     -54.712 -28.563  -7.481  0.00  0.00     0.243 C 
ATOM    106  O   THR d   1     -55.492 -28.596  -6.529  0.00  0.00    -0.271 OA
ATOM    107  N   GLN d   1     -54.973 -29.155  -8.646  0.00  0.00    -0.346 N 
ATOM    108  H62 GLN d   1     -54.298 -29.109  -9.383  0.00  0.00     0.163 HD
BRANCH 107 109
ATOM    109  CA  GLN d   1     -56.223 -29.867  -8.864  0.00  0.00     0.090 C 
ATOM    110  H63 GLN d   1     -56.847 -29.755  -7.965  0.00  0.00     0.087 H 
BRANCH 109 111
ATOM    111  C   GLN d   1     -55.948 -31.344  -9.092  0.00  0.00     0.241 C 
ATOM    112  O   GLN d   1     -54.848 -31.741  -9.506  0.00  0.00    -0.271 OA
ATOM    113  N   GLN d   1     -56.977 -32.154  -8.842  0.00  0.00    -0.346 N 
ATOM    114  H70 GLN d   1     -57.865 -31.761  -8.603  0.00  0.00     0.163 HD
BRANCH 113 115
ATOM    115  CA  GLN d   1     -56.831 -33.601  -8.911  0.00  0.00     0.090 C 
ATOM    116  H71 GLN d   1     -55.827 -33.863  -8.545  0.00  0.00     0.087 H 
BRANCH 115 117
ATOM    117  C   GLN d   1     -56.963 -34.093 -10.346  0.00  0.00     0.241 C 
ATOM    118  O   GLN d   1     -57.857 -33.663 -11.080  0.00  0.00    -0.271 OA
ATOM    119  N   SER d   1     -56.045 -34.978 -10.747  0.00  0.00    -0.344 N 
ATOM    120  H78 SER d   1     -55.262 -35.162 -10.153  0.00  0.00     0.163 HD
BRANCH 119 121
ATOM    121  CA  SER d   1     -56.144 -35.683 -12.015  0.00  0.00     0.109 C 
ATOM    122  H79 SER d   1     -56.158 -34.949 -12.834  0.00  0.00     0.090 H 
BRANCH 121 123
ATOM    123  C   SER d   1     -57.427 -36.509 -12.056  0.00  0.00     0.245 C 
ATOM    124  O   SER d   1     -57.989 -36.836 -11.011  0.00  0.00    -0.271 OA
ATOM    125  N   PRO d   1     -57.884 -36.891 -13.251  0.00  0.00    -0.337 N 
ATOM    126  CA  PRO d   1     -58.969 -37.879 -13.339  0.00  0.00     0.091 C 
ATOM    127  CD  PRO d   1     -57.463 -36.416 -14.581  0.00  0.00    -0.001 C 
ATOM    128  CB  PRO d   1     -59.373 -37.827 -14.818  0.00  0.00    -0.036 C 
ATOM    129  H83 PRO d   1     -59.812 -37.591 -12.694  0.00  0.00     0.087 H 
ATOM    130  CG  PRO d   1     -58.117 -37.398 -15.526  0.00  0.00    -0.048 C 
ATOM    131  H84 PRO d   1     -60.180 -37.096 -14.977  0.00  0.00     0.036 H 
ATOM    132  H85 PRO d   1     -59.700 -38.817 -15.169  0.00  0.00     0.036 H 
ATOM    133  H86 PRO d   1     -58.357 -36.914 -16.484  0.00  0.00     0.035 H 
ATOM    134  H87 PRO d   1     -57.459 -38.261 -15.706  0.00  0.00     0.035 H 
ATOM    135  H88 PRO d   1     -56.368 -36.444 -14.681  0.00  0.00     0.064 H 
ATOM    136  H89 PRO d   1     -57.822 -35.393 -14.766  0.00  0.00     0.064 H 
BRANCH 126 137
ATOM    137  C   PRO d   1     -58.489 -39.273 -12.945  0.00  0.00     0.241 C 
ATOM    138  O   PRO d   1     -57.364 -39.676 -13.254  0.00  0.00    -0.271 OA
ATOM    139  N   GLU d   1     -59.359 -40.017 -12.268  0.00  0.00    -0.345 N 
ATOM    140  H90 GLU d   1     -60.253 -39.636 -12.033  0.00  0.00     0.163 HD
BRANCH 139 141
ATOM    141  CA  GLU d   1     -59.028 -41.390 -11.860  0.00  0.00     0.097 C 
ATOM    142  H91 GLU d   1     -57.939 -41.445 -11.716  0.00  0.00     0.089 H 
BRANCH 141 143
ATOM    143  C   GLU d   1     -59.415 -42.419 -12.921  0.00  0.00     0.196 C 
ATOM    144  O   GLU d   1     -59.362 -42.141 -14.121  0.00  0.00    -0.646 OA
ATOM    145  OXT GLU d   1     -59.789 -43.549 -12.600  0.00  0.00    -0.646 OA
ENDBRANCH 141 143
BRANCH 141 146
ATOM    146  CB  GLU d   1     -59.708 -41.735 -10.529  0.00  0.00    -0.028 C 
ATOM    147  H92 GLU d   1     -59.390 -42.744 -10.227  0.00  0.00     0.037 H 
ATOM    148  H93 GLU d   1     -60.797 -41.724 -10.682  0.00  0.00     0.037 H 
BRANCH 146 149
ATOM    149  CG  GLU d   1     -59.370 -40.765  -9.400  0.00  0.00     0.018 C 
ATOM    150  H94 GLU d   1     -59.449 -39.738  -9.787  0.00  0.00     0.049 H 
ATOM    151  H95 GLU d   1     -58.337 -40.955  -9.074  0.00  0.00     0.049 H 
BRANCH 149 152
ATOM    152  CD  GLU d   1     -60.289 -40.899  -8.194  0.00  0.00     0.172 C 
ATOM    153  OE1 GLU d   1     -61.402 -40.329  -8.229  0.00  0.00    -0.648 OA
ATOM    154  OE2 GLU d   1     -59.895 -41.564  -7.208  0.00  0.00    -0.648 OA
ENDBRANCH 149 152
ENDBRANCH 146 149
ENDBRANCH 141 146
ENDBRANCH 139 141
ENDBRANCH 126 137
ENDBRANCH 121 123
BRANCH 121 155
ATOM    155  CB  SER d   1     -54.944 -36.616 -12.195  0.00  0.00     0.044 C 
ATOM    156  H80 SER d   1     -55.138 -37.284 -13.047  0.00  0.00     0.077 H 
ATOM    157  H81 SER d   1     -54.818 -37.214 -11.281  0.00  0.00     0.077 H 
BRANCH 155 158
ATOM    158  OG  SER d   1     -53.747 -35.896 -12.440  0.00  0.00    -0.398 OA
ATOM    159  H82 SER d   1     -53.569 -35.320 -11.706  0.00  0.00     0.209 HD
ENDBRANCH 155 158
ENDBRANCH 121 155
ENDBRANCH 119 121
ENDBRANCH 115 117
BRANCH 115 160
ATOM    160  CB  GLN d   1     -57.866 -34.298  -8.025  0.00  0.00    -0.030 C 
ATOM    161  H72 GLN d   1     -58.865 -34.160  -8.465  0.00  0.00     0.037 H 
ATOM    162  H73 GLN d   1     -57.841 -33.846  -7.022  0.00  0.00     0.037 H 
BRANCH 160 163
ATOM    163  CG  GLN d   1     -57.580 -35.792  -7.903  0.00  0.00     0.011 C 
ATOM    164  H74 GLN d   1     -56.536 -35.922  -7.583  0.00  0.00     0.047 H 
ATOM    165  H75 GLN d   1     -57.722 -36.256  -8.890  0.00  0.00     0.047 H 
BRANCH 163 166
ATOM    166  CD  GLN d   1     -58.481 -36.498  -6.905  0.00  0.00     0.215 C 
ATOM    167  OE1 GLN d   1     -59.147 -37.472  -7.249  0.00  0.00    -0.274 OA
ATOM    168  NE2 GLN d   1     -58.492 -36.021  -5.661  0.00  0.00    -0.370 N 
ATOM    169  H76 GLN d   1     -59.069 -36.450  -4.966  0.00  0.00     0.159 HD
ATOM    170  H77 GLN d   1     -57.924 -35.233  -5.422  0.00  0.00     0.159 HD
ENDBRANCH 163 166
ENDBRANCH 160 163
ENDBRANCH 115 160
ENDBRANCH 113 115
ENDBRANCH 109 111
BRANCH 109 171
ATOM    171  CB  GLN d   1     -56.994 -29.313 -10.063  0.00  0.00    -0.030 C 
ATOM    172  H64 GLN d   1     -57.190 -28.244  -9.895  0.00  0.00     0.037 H 
ATOM    173  H65 GLN d   1     -57.949 -29.852 -10.150  0.00  0.00     0.037 H 
BRANCH 171 174
ATOM    174  CG  GLN d   1     -56.232 -29.469 -11.349  0.00  0.00     0.011 C 
ATOM    175  H66 GLN d   1     -56.941 -29.675 -12.165  0.00  0.00     0.047 H 
ATOM    176  H67 GLN d   1     -55.530 -30.310 -11.252  0.00  0.00     0.047 H 
BRANCH 174 177
ATOM    177  CD  GLN d   1     -55.463 -28.223 -11.670  0.00  0.00     0.215 C 
ATOM    178  OE1 GLN d   1     -55.686 -27.190 -11.043  0.00  0.00    -0.274 OA
ATOM    179  NE2 GLN d   1     -54.573 -28.294 -12.656  0.00  0.00    -0.370 N 
ATOM    180  H68 GLN d   1     -54.037 -27.487 -12.905  0.00  0.00     0.159 HD
ATOM    181  H69 GLN d   1     -54.440 -29.154 -13.149  0.00  0.00     0.159 HD
ENDBRANCH 174 177
ENDBRANCH 171 174
ENDBRANCH 109 171
ENDBRANCH 107 109
ENDBRANCH 103 105
BRANCH 103 182
ATOM    182  CB  THR d   1     -52.310 -28.763  -6.832  0.00  0.00     0.060 C 
ATOM    183  H57 THR d   1     -52.169 -29.601  -7.531  0.00  0.00     0.086 H 
BRANCH 182 184
ATOM    184  OG1 THR d   1     -52.741 -29.250  -5.560  0.00  0.00    -0.393 OA
ATOM    185  H58 THR d   1     -53.563 -29.716  -5.662  0.00  0.00     0.210 HD
ENDBRANCH 182 184
BRANCH 182 186
ATOM    186  CG2 THR d   1     -50.974 -28.020  -6.639  0.00  0.00    -0.050 C 
ATOM    187  H59 THR d   1     -50.218 -28.719  -6.252  0.00  0.00     0.031 H 
ATOM    188  H60 THR d   1     -51.112 -27.197  -5.923  0.00  0.00     0.031 H 
ATOM    189  H61 THR d   1     -50.638 -27.614  -7.604  0.00  0.00     0.031 H 
ENDBRANCH 182 186
ENDBRANCH 103 182
ENDBRANCH 101 103
ENDBRANCH   1  99
BRANCH   1 190
ATOM    190  CB  THR d   1     -55.700 -24.531  -5.772  0.00  0.00     0.060 C 
ATOM    191  H50 THR d   1     -55.973 -25.577  -5.569  0.00  0.00     0.086 H 
BRANCH 190 192
ATOM    192  OG1 THR d   1     -56.301 -24.118  -7.006  0.00  0.00    -0.393 OA
ATOM    193  H51 THR d   1     -56.053 -23.220  -7.193  0.00  0.00     0.210 HD
ENDBRANCH 190 192
BRANCH 190 194
ATOM    194  CG2 THR d   1     -56.215 -23.661  -4.634  0.00  0.00    -0.050 C 
ATOM    195  H52 THR d   1     -57.309 -23.753  -4.569  0.00  0.00     0.031 H 
ATOM    196  H53 THR d   1     -55.946 -22.611  -4.824  0.00  0.00     0.031 H 
ATOM    197  H54 THR d   1     -55.762 -23.990  -3.687  0.00  0.00     0.031 H 
ENDBRANCH 190 194
ENDBRANCH   1 190
TORSDOF 56
