REMARK WARNING: 32 MAX_TORS EXCEEDED!!!
REMARK  62 active torsions:
REMARK  status: ('A' for Active; 'I' for Inactive)
REMARK    1  A    between atoms: N_1  and  CA_2 
REMARK    2  A    between atoms: CA_2  and  C_3 
REMARK    3  A    between atoms: CA_2  and  CB_5 
REMARK       I    between atoms: C_3  and  N_9 
REMARK    4  A    between atoms: CB_5  and  CG_6 
REMARK    5  A    between atoms: N_9  and  CA_10 
REMARK    6  A    between atoms: CA_10  and  C_11 
REMARK    7  A    between atoms: CA_10  and  CB_13 
REMARK       I    between atoms: C_11  and  N_17 
REMARK    8  A    between atoms: CB_13  and  CG1_14 
REMARK    9  A    between atoms: CB_13  and  CG2_15 
REMARK   10  A    between atoms: CG1_14  and  CD1_16 
REMARK   11  A    between atoms: N_17  and  CA_18 
REMARK   12  A    between atoms: CA_18  and  C_19 
REMARK   13  A    between atoms: CA_18  and  CB_21 
REMARK       I    between atoms: C_19  and  N_28 
REMARK   14  A    between atoms: CB_21  and  CG_22 
REMARK   15  A    between atoms: N_28  and  CA_29 
REMARK   16  A    between atoms: CA_29  and  C_30 
REMARK   17  A    between atoms: CA_29  and  CB_32 
REMARK       I    between atoms: C_30  and  N_37 
REMARK   18  A    between atoms: CB_32  and  CG_33 
REMARK   19  A    between atoms: CG_33  and  CD_34 
REMARK   20  A    between atoms: N_37  and  CA_38 
REMARK   21  A    between atoms: CA_38  and  C_39 
REMARK   22  A    between atoms: CA_38  and  CB_41 
REMARK       I    between atoms: C_39  and  N_48 
REMARK   23  A    between atoms: CB_41  and  CG_42 
REMARK   24  A    between atoms: CG_42  and  CD_43 
REMARK   25  A    between atoms: CD_43  and  NE_44 
REMARK       I    between atoms: NE_44  and  CZ_45 
REMARK       I    between atoms: CZ_45  and  NH1_46 
REMARK       I    between atoms: CZ_45  and  NH2_47 
REMARK   26  A    between atoms: N_48  and  CA_49 
REMARK   27  A    between atoms: CA_49  and  C_50 
REMARK   28  A    between atoms: CA_49  and  CB_52 
REMARK       I    between atoms: C_50  and  N_56 
REMARK   29  A    between atoms: CB_52  and  CG1_53 
REMARK   30  A    between atoms: CB_52  and  CG2_54 
REMARK   31  A    between atoms: CG1_53  and  CD1_55 
REMARK   32  A    between atoms: N_56  and  CA_57 
REMARK   33  A    between atoms: CA_57  and  C_58 
REMARK   34  A    between atoms: CA_57  and  CB_60 
REMARK       I    between atoms: C_58  and  N_61 
REMARK   35  A    between atoms: N_61  and  CA_62 
REMARK   36  A    between atoms: CA_62  and  C_63 
REMARK   37  A    between atoms: CA_62  and  CB_65 
REMARK       I    between atoms: C_63  and  N_67 
REMARK   38  A    between atoms: CB_65  and  OG_66 
REMARK   39  A    between atoms: N_67  and  CA_68 
REMARK   40  A    between atoms: CA_68  and  C_69 
REMARK   41  A    between atoms: CA_68  and  CB_71 
REMARK       I    between atoms: C_69  and  N_76 
REMARK   42  A    between atoms: CB_71  and  CG_72 
REMARK   43  A    between atoms: CG_72  and  CD_73 
REMARK   44  A    between atoms: N_76  and  CA_77 
REMARK   45  A    between atoms: CA_77  and  C_78 
REMARK   46  A    between atoms: CA_77  and  CB_80 
REMARK       I    between atoms: C_78  and  N_81 
REMARK   47  A    between atoms: N_81  and  CA_82 
REMARK   48  A    between atoms: CA_82  and  C_83 
REMARK   49  A    between atoms: CA_82  and  CB_85 
REMARK       I    between atoms: C_83  and  N_87 
REMARK   50  A    between atoms: CB_85  and  OG_86 
REMARK   51  A    between atoms: N_87  and  CA_88 
REMARK   52  A    between atoms: CA_88  and  C_89 
REMARK   53  A    between atoms: CA_88  and  CB_91 
REMARK       I    between atoms: C_89  and  N_98 
REMARK   54  A    between atoms: CB_91  and  CG_92 
REMARK   55  A    between atoms: CG_92  and  CD_93 
REMARK   56  A    between atoms: CD_93  and  NE_94 
REMARK       I    between atoms: NE_94  and  CZ_95 
REMARK       I    between atoms: CZ_95  and  NH1_96 
REMARK   57  A    between atoms: N_98  and  CA_99 
REMARK   58  A    between atoms: CA_99  and  C_100 
REMARK   59  A    between atoms: CA_99  and  CB_102 
REMARK   60  A    between atoms: CB_102  and  CG_103 
REMARK   61  A    between atoms: CG_103  and  CD1_104 
REMARK   62  A    between atoms: CG_103  and  CD2_105 
ROOT
ATOM      1  CA  ILE d   1      52.730  20.995  -5.311  0.00  0.00     0.092 C 
ATOM      2  H47 ILE d   1      53.687  20.478  -5.146  0.00  0.00     0.088 H 
ENDROOT
BRANCH   1   3
ATOM      3  N   ILE d   1      51.769  20.511  -4.330  0.00  0.00    -0.346 N 
ATOM      4  C   ARG d   1      52.171  19.782  -3.312  0.00  0.00     0.241 C 
ATOM      5  O   ARG d   1      53.312  19.328  -3.233  0.00  0.00    -0.271 OA
ATOM      6  H46 ILE d   1      50.799  20.734  -4.431  0.00  0.00     0.163 HD
BRANCH   4   7
ATOM      7  CA  ARG d   1      51.135  19.499  -2.238  0.00  0.00     0.089 C 
ATOM      8  H34 ARG d   1      50.142  19.434  -2.707  0.00  0.00     0.087 H 
BRANCH   7   9
ATOM      9  N   ARG d   1      51.440  18.225  -1.612  0.00  0.00    -0.346 N 
ATOM     10  C   GLU d   1      50.865  17.103  -2.034  0.00  0.00     0.241 C 
ATOM     11  O   GLU d   1      49.879  17.083  -2.781  0.00  0.00    -0.271 OA
ATOM     12  H33 ARG d   1      52.091  18.191  -0.854  0.00  0.00     0.163 HD
BRANCH  10  13
ATOM     13  CA  GLU d   1      51.476  15.803  -1.536  0.00  0.00     0.090 C 
ATOM     14  H28 GLU d   1      52.191  16.027  -0.731  0.00  0.00     0.087 H 
BRANCH  13  15
ATOM     15  N   GLU d   1      50.423  14.955  -1.006  0.00  0.00    -0.346 N 
ATOM     16  C   PHE d   1      50.193  14.853   0.291  0.00  0.00     0.241 C 
ATOM     17  O   PHE d   1      50.903  15.397   1.139  0.00  0.00    -0.271 OA
ATOM     18  H27 GLU d   1      49.855  14.432  -1.642  0.00  0.00     0.163 HD
BRANCH  16  19
ATOM     19  CA  PHE d   1      48.972  14.053   0.698  0.00  0.00     0.093 C 
ATOM     20  H19 PHE d   1      48.602  13.481  -0.166  0.00  0.00     0.088 H 
BRANCH  19  21
ATOM     21  N   PHE d   1      49.304  13.133   1.778  0.00  0.00    -0.346 N 
ATOM     22  C   ILE d   1      50.171  12.132   1.624  0.00  0.00     0.241 C 
ATOM     23  O   ILE d   1      50.642  11.795   0.529  0.00  0.00    -0.271 OA
ATOM     24  H18 PHE d   1      48.865  13.257   2.668  0.00  0.00     0.163 HD
BRANCH  22  25
ATOM     25  CA  ILE d   1      50.554  11.384   2.893  0.00  0.00     0.092 C 
ATOM     26  H8  ILE d   1      49.956  11.772   3.731  0.00  0.00     0.088 H 
BRANCH  25  27
ATOM     27  N   ILE d   1      50.239   9.970   2.709  0.00  0.00    -0.346 N 
ATOM     28  C   ASP d   1      49.119   9.426   3.175  0.00  0.00     0.249 C 
ATOM     29  O   ASP d   1      48.333  10.048   3.902  0.00  0.00    -0.271 OA
ATOM     30  H7  ILE d   1      50.888   9.391   2.216  0.00  0.00     0.163 HD
BRANCH  28  31
ATOM     31  CA  ASP d   1      48.829   7.970   2.770  0.00  0.00     0.185 C 
ATOM     32  H4  ASP d   1      47.994   7.980   2.054  0.00  0.00     0.100 H 
BRANCH  31  33
ATOM     33  N   ASP d   1      49.970   7.333   2.112  0.00  0.00    -0.066 N 
ATOM     34  H1  ASP d   1      49.730   6.385   1.867  0.00  0.00     0.275 HD
ATOM     35  H2  ASP d   1      50.760   7.329   2.738  0.00  0.00     0.275 HD
ATOM     36  H3  ASP d   1      50.206   7.846   1.277  0.00  0.00     0.275 HD
ENDBRANCH  31  33
BRANCH  31  37
ATOM     37  CB  ASP d   1      48.395   7.161   4.001  0.00  0.00     0.050 C 
ATOM     38  H5  ASP d   1      48.460   6.090   3.759  0.00  0.00     0.052 H 
ATOM     39  H6  ASP d   1      47.354   7.420   4.243  0.00  0.00     0.052 H 
BRANCH  37  40
ATOM     40  CG  ASP d   1      49.262   7.438   5.220  0.00  0.00     0.175 C 
ATOM     41  OD1 ASP d   1      50.503   7.351   5.088  0.00  0.00    -0.648 OA
ATOM     42  OD2 ASP d   1      48.706   7.744   6.304  0.00  0.00    -0.648 OA
ENDBRANCH  37  40
ENDBRANCH  31  37
ENDBRANCH  28  31
ENDBRANCH  25  27
BRANCH  25  43
ATOM     43  CB  ILE d   1      52.037  11.605   3.217  0.00  0.00    -0.030 C 
ATOM     44  H9  ILE d   1      52.628  11.318   2.335  0.00  0.00     0.043 H 
BRANCH  43  45
ATOM     45  CG1 ILE d   1      52.477  10.712   4.382  0.00  0.00    -0.063 C 
ATOM     46  H10 ILE d   1      53.544  10.477   4.254  0.00  0.00     0.033 H 
ATOM     47  H11 ILE d   1      51.890   9.783   4.347  0.00  0.00     0.033 H 
BRANCH  45  48
ATOM     48  CD1 ILE d   1      52.288  11.345   5.746  0.00  0.00    -0.076 C 
ATOM     49  H15 ILE d   1      52.625  10.645   6.525  0.00  0.00     0.027 H 
ATOM     50  H16 ILE d   1      51.224  11.578   5.898  0.00  0.00     0.027 H 
ATOM     51  H17 ILE d   1      52.878  12.271   5.805  0.00  0.00     0.027 H 
ENDBRANCH  45  48
ENDBRANCH  43  45
BRANCH  43  52
ATOM     52  CG2 ILE d   1      52.292  13.088   3.491  0.00  0.00    -0.071 C 
ATOM     53  H12 ILE d   1      51.960  13.683   2.627  0.00  0.00     0.028 H 
ATOM     54  H13 ILE d   1      53.367  13.251   3.656  0.00  0.00     0.028 H 
ATOM     55  H14 ILE d   1      51.732  13.397   4.386  0.00  0.00     0.028 H 
ENDBRANCH  43  52
ENDBRANCH  25  43
ENDBRANCH  22  25
ENDBRANCH  19  21
BRANCH  19  56
ATOM     56  CB  PHE d   1      47.902  15.025   1.166  0.00  0.00    -0.014 C 
ATOM     57  H20 PHE d   1      48.246  16.046   0.944  0.00  0.00     0.043 H 
ATOM     58  H21 PHE d   1      47.784  14.906   2.253  0.00  0.00     0.043 H 
BRANCH  56  59
ATOM     59  CG  PHE d   1      46.574  14.839   0.535  0.00  0.00    -0.056 A 
ATOM     60  CD1 PHE d   1      46.325  15.345  -0.727  0.00  0.00    -0.077 A 
ATOM     61  CE1 PHE d   1      45.091  15.209  -1.300  0.00  0.00    -0.082 A 
ATOM     62  H22 PHE d   1      47.115  15.854  -1.267  0.00  0.00     0.084 H 
ATOM     63  CZ  PHE d   1      44.080  14.594  -0.605  0.00  0.00    -0.083 A 
ATOM     64  H24 PHE d   1      44.912  15.586  -2.300  0.00  0.00     0.083 H 
ATOM     65  CE2 PHE d   1      44.304  14.090   0.665  0.00  0.00    -0.082 A 
ATOM     66  H26 PHE d   1      43.098  14.502  -1.054  0.00  0.00     0.083 H 
ATOM     67  CD2 PHE d   1      45.546  14.228   1.234  0.00  0.00    -0.077 A 
ATOM     68  H25 PHE d   1      43.507  13.591   1.205  0.00  0.00     0.083 H 
ATOM     69  H23 PHE d   1      45.723  13.856   2.237  0.00  0.00     0.084 H 
ENDBRANCH  56  59
ENDBRANCH  19  56
ENDBRANCH  16  19
ENDBRANCH  13  15
BRANCH  13  70
ATOM     70  CB  GLU d   1      52.222  15.105  -2.674  0.00  0.00    -0.029 C 
ATOM     71  H29 GLU d   1      52.686  15.875  -3.308  0.00  0.00     0.037 H 
ATOM     72  H30 GLU d   1      51.493  14.533  -3.267  0.00  0.00     0.037 H 
BRANCH  70  73
ATOM     73  CG  GLU d   1      53.307  14.155  -2.204  0.00  0.00     0.018 C 
ATOM     74  H31 GLU d   1      53.653  13.558  -3.061  0.00  0.00     0.049 H 
ATOM     75  H32 GLU d   1      52.888  13.487  -1.437  0.00  0.00     0.049 H 
BRANCH  73  76
ATOM     76  CD  GLU d   1      54.483  14.894  -1.617  0.00  0.00     0.172 C 
ATOM     77  OE1 GLU d   1      54.817  14.639  -0.436  0.00  0.00    -0.648 OA
ATOM     78  OE2 GLU d   1      55.060  15.738  -2.341  0.00  0.00    -0.648 OA
ENDBRANCH  73  76
ENDBRANCH  70  73
ENDBRANCH  13  70
ENDBRANCH  10  13
ENDBRANCH   7   9
BRANCH   7  79
ATOM     79  CB  ARG d   1      51.115  20.632  -1.213  0.00  0.00    -0.036 C 
ATOM     80  H35 ARG d   1      50.309  20.429  -0.493  0.00  0.00     0.036 H 
ATOM     81  H36 ARG d   1      50.905  21.572  -1.744  0.00  0.00     0.036 H 
BRANCH  79  82
ATOM     82  CG  ARG d   1      52.389  20.802  -0.451  0.00  0.00    -0.048 C 
ATOM     83  H37 ARG d   1      53.230  20.490  -1.087  0.00  0.00     0.035 H 
ATOM     84  H38 ARG d   1      52.355  20.169   0.448  0.00  0.00     0.035 H 
BRANCH  82  85
ATOM     85  CD  ARG d   1      52.600  22.253  -0.027  0.00  0.00     0.009 C 
ATOM     86  H39 ARG d   1      51.897  22.502   0.781  0.00  0.00     0.064 H 
ATOM     87  H40 ARG d   1      52.419  22.914  -0.887  0.00  0.00     0.064 H 
BRANCH  85  88
ATOM     88  NE  ARG d   1      53.964  22.440   0.446  0.00  0.00    -0.227 N 
ATOM     89  CZ  ARG d   1      54.858  23.227  -0.140  0.00  0.00     0.665 C 
ATOM     90  NH1 ARG d   1      56.087  23.313   0.350  0.00  0.00    -0.235 N 
ATOM     91  NH2 ARG d   1      54.521  23.934  -1.208  0.00  0.00    -0.235 N 
ATOM     92  H42 ARG d   1      56.781  23.924  -0.104  0.00  0.00     0.174 HD
ATOM     93  H43 ARG d   1      56.348  22.769   1.185  0.00  0.00     0.174 HD
ATOM     94  H44 ARG d   1      53.566  23.868  -1.589  0.00  0.00     0.174 HD
ATOM     95  H45 ARG d   1      55.213  24.550  -1.657  0.00  0.00     0.174 HD
ATOM     96  H41 ARG d   1      54.255  21.928   1.291  0.00  0.00     0.177 HD
ENDBRANCH  85  88
ENDBRANCH  82  85
ENDBRANCH  79  82
ENDBRANCH   7  79
ENDBRANCH   4   7
ENDBRANCH   1   3
BRANCH   1  97
ATOM     97  C   ILE d   1      52.940  22.480  -5.070  0.00  0.00     0.241 C 
ATOM     98  O   ILE d   1      52.013  23.199  -4.654  0.00  0.00    -0.271 OA
ATOM     99  N   ALA d   1      54.177  22.929  -5.262  0.00  0.00    -0.346 N 
ATOM    100  H57 ALA d   1      54.900  22.288  -5.518  0.00  0.00     0.163 HD
BRANCH  99 101
ATOM    101  CA  ALA d   1      54.492  24.339  -5.105  0.00  0.00     0.086 C 
ATOM    102  H58 ALA d   1      54.115  24.675  -4.128  0.00  0.00     0.086 H 
BRANCH 101 103
ATOM    103  C   ALA d   1      53.821  25.159  -6.197  0.00  0.00     0.240 C 
ATOM    104  O   ALA d   1      53.630  24.696  -7.328  0.00  0.00    -0.271 OA
ATOM    105  N   SER d   1      53.457  26.390  -5.841  0.00  0.00    -0.344 N 
ATOM    106  H62 SER d   1      53.425  26.629  -4.870  0.00  0.00     0.163 HD
BRANCH 105 107
ATOM    107  CA  SER d   1      53.105  27.394  -6.831  0.00  0.00     0.109 C 
ATOM    108  H63 SER d   1      52.590  26.900  -7.669  0.00  0.00     0.090 H 
BRANCH 107 109
ATOM    109  C   SER d   1      54.366  28.065  -7.359  0.00  0.00     0.243 C 
ATOM    110  O   SER d   1      55.315  28.307  -6.610  0.00  0.00    -0.271 OA
ATOM    111  N   GLU d   1      54.373  28.358  -8.659  0.00  0.00    -0.346 N 
ATOM    112  H67 GLU d   1      53.548  28.189  -9.198  0.00  0.00     0.163 HD
BRANCH 111 113
ATOM    113  CA  GLU d   1      55.545  28.917  -9.320  0.00  0.00     0.090 C 
ATOM    114  H68 GLU d   1      56.445  28.435  -8.911  0.00  0.00     0.087 H 
BRANCH 113 115
ATOM    115  C   GLU d   1      55.629  30.414  -9.064  0.00  0.00     0.241 C 
ATOM    116  O   GLU d   1      54.618  31.124  -9.109  0.00  0.00    -0.271 OA
ATOM    117  N   ALA d   1      56.847  30.900  -8.811  0.00  0.00    -0.346 N 
ATOM    118  H73 ALA d   1      57.638  30.294  -8.891  0.00  0.00     0.163 HD
BRANCH 117 119
ATOM    119  CA  ALA d   1      57.056  32.290  -8.421  0.00  0.00     0.086 C 
ATOM    120  H74 ALA d   1      56.127  32.673  -7.974  0.00  0.00     0.086 H 
BRANCH 119 121
ATOM    121  C   ALA d   1      57.393  33.137  -9.641  0.00  0.00     0.240 C 
ATOM    122  O   ALA d   1      58.333  32.822 -10.378  0.00  0.00    -0.271 OA
ATOM    123  N   SER d   1      56.639  34.213  -9.857  0.00  0.00    -0.344 N 
ATOM    124  H78 SER d   1      55.814  34.374  -9.315  0.00  0.00     0.163 HD
BRANCH 123 125
ATOM    125  CA  SER d   1      57.036  35.148 -10.893  0.00  0.00     0.109 C 
ATOM    126  H79 SER d   1      57.326  34.581 -11.790  0.00  0.00     0.090 H 
BRANCH 125 127
ATOM    127  C   SER d   1      58.231  35.960 -10.408  0.00  0.00     0.243 C 
ATOM    128  O   SER d   1      58.503  36.054  -9.210  0.00  0.00    -0.271 OA
ATOM    129  N   ARG d   1      58.954  36.546 -11.347  0.00  0.00    -0.346 N 
ATOM    130  H83 ARG d   1      58.740  36.395 -12.312  0.00  0.00     0.163 HD
BRANCH 129 131
ATOM    131  CA  ARG d   1      60.062  37.411 -10.971  0.00  0.00     0.089 C 
ATOM    132  H84 ARG d   1      60.414  37.106  -9.975  0.00  0.00     0.087 H 
BRANCH 131 133
ATOM    133  C   ARG d   1      59.604  38.864 -10.896  0.00  0.00     0.241 C 
ATOM    134  O   ARG d   1      58.677  39.285 -11.599  0.00  0.00    -0.271 OA
ATOM    135  N   LEU d   1      60.271  39.629 -10.029  0.00  0.00    -0.345 N 
ATOM    136  H96 LEU d   1      61.005  39.218  -9.487  0.00  0.00     0.163 HD
BRANCH 135 137
ATOM    137  CA  LEU d   1      59.966  41.043  -9.845  0.00  0.00     0.096 C 
ATOM    138  H97 LEU d   1      58.884  41.142  -9.672  0.00  0.00     0.089 H 
BRANCH 137 139
ATOM    139  C   LEU d   1      60.326  41.847 -11.089  0.00  0.00     0.196 C 
ATOM    140  O   LEU d   1      59.450  42.205 -11.876  0.00  0.00    -0.646 OA
ATOM    141  OXT LEU d   1      61.497  42.147 -11.321  0.00  0.00    -0.646 OA
ENDBRANCH 137 139
BRANCH 137 142
ATOM    142  CB  LEU d   1      60.703  41.598  -8.621  0.00  0.00    -0.034 C 
ATOM    143  H98 LEU d   1      60.788  42.687  -8.754  0.00  0.00     0.037 H 
ATOM    144  H99 LEU d   1      61.708  41.150  -8.611  0.00  0.00     0.037 H 
BRANCH 142 145
ATOM    145  CG  LEU d   1      60.076  41.351  -7.240  0.00  0.00    -0.059 C 
ATOM    146 0H10 LEU d   1      59.855  40.277  -7.157  0.00  0.00     0.038 H 
BRANCH 145 147
ATOM    147  CD1 LEU d   1      61.051  41.719  -6.121  0.00  0.00    -0.073 C 
ATOM    148 1H10 LEU d   1      60.577  41.533  -5.146  0.00  0.00     0.028 H 
ATOM    149 2H10 LEU d   1      61.317  42.783  -6.202  0.00  0.00     0.028 H 
ATOM    150 3H10 LEU d   1      61.960  41.106  -6.210  0.00  0.00     0.028 H 
ENDBRANCH 145 147
BRANCH 145 151
ATOM    151  CD2 LEU d   1      58.765  42.113  -7.086  0.00  0.00    -0.073 C 
ATOM    152 4H10 LEU d   1      58.080  41.833  -7.900  0.00  0.00     0.028 H 
ATOM    153 5H10 LEU d   1      58.962  43.194  -7.128  0.00  0.00     0.028 H 
ATOM    154 6H10 LEU d   1      58.306  41.861  -6.118  0.00  0.00     0.028 H 
ENDBRANCH 145 151
ENDBRANCH 142 145
ENDBRANCH 137 142
ENDBRANCH 135 137
ENDBRANCH 131 133
BRANCH 131 155
ATOM    155  CB  ARG d   1      61.224  37.274 -11.953  0.00  0.00    -0.036 C 
ATOM    156  H85 ARG d   1      61.465  36.205 -12.052  0.00  0.00     0.036 H 
ATOM    157  H86 ARG d   1      62.090  37.808 -11.535  0.00  0.00     0.036 H 
BRANCH 155 158
ATOM    158  CG  ARG d   1      60.954  37.823 -13.329  0.00  0.00    -0.048 C 
ATOM    159  H87 ARG d   1      60.502  38.822 -13.245  0.00  0.00     0.035 H 
ATOM    160  H88 ARG d   1      60.266  37.153 -13.864  0.00  0.00     0.035 H 
BRANCH 158 161
ATOM    161  CD  ARG d   1      62.264  37.921 -14.092  0.00  0.00     0.009 C 
ATOM    162  H89 ARG d   1      62.931  37.112 -13.759  0.00  0.00     0.064 H 
ATOM    163  H90 ARG d   1      62.730  38.893 -13.875  0.00  0.00     0.064 H 
BRANCH 161 164
ATOM    164  NE  ARG d   1      62.065  37.805 -15.533  0.00  0.00    -0.227 N 
ATOM    165  CZ  ARG d   1      63.046  37.593 -16.408  0.00  0.00     0.665 C 
ATOM    166  NH1 ARG d   1      62.772  37.501 -17.709  0.00  0.00    -0.235 N 
ATOM    167  NH2 ARG d   1      64.302  37.473 -15.983  0.00  0.00    -0.235 N 
ATOM    168  H92 ARG d   1      63.532  37.337 -18.385  0.00  0.00     0.174 HD
ATOM    169  H93 ARG d   1      61.801  37.594 -18.038  0.00  0.00     0.174 HD
ATOM    170  H94 ARG d   1      64.514  37.544 -14.978  0.00  0.00     0.174 HD
ATOM    171  H95 ARG d   1      65.061  37.309 -16.660  0.00  0.00     0.174 HD
ATOM    172  H91 ARG d   1      61.105  37.893 -15.896  0.00  0.00     0.177 HD
ENDBRANCH 161 164
ENDBRANCH 158 161
ENDBRANCH 155 158
ENDBRANCH 131 155
ENDBRANCH 129 131
ENDBRANCH 125 127
BRANCH 125 173
ATOM    173  CB  SER d   1      55.887  36.095 -11.259  0.00  0.00     0.044 C 
ATOM    174  H80 SER d   1      56.242  36.818 -12.008  0.00  0.00     0.077 H 
ATOM    175  H81 SER d   1      55.562  36.632 -10.356  0.00  0.00     0.077 H 
BRANCH 173 176
ATOM    176  OG  SER d   1      54.789  35.381 -11.791  0.00  0.00    -0.398 OA
ATOM    177  H82 SER d   1      54.093  35.989 -12.009  0.00  0.00     0.209 HD
ENDBRANCH 173 176
ENDBRANCH 125 173
ENDBRANCH 123 125
ENDBRANCH 119 121
BRANCH 119 178
ATOM    178  CB  ALA d   1      58.175  32.388  -7.382  0.00  0.00    -0.049 C 
ATOM    179  H75 ALA d   1      58.321  33.441  -7.098  0.00  0.00     0.030 H 
ATOM    180  H76 ALA d   1      59.108  31.991  -7.809  0.00  0.00     0.030 H 
ATOM    181  H77 ALA d   1      57.901  31.803  -6.492  0.00  0.00     0.030 H 
ENDBRANCH 119 178
ENDBRANCH 117 119
ENDBRANCH 113 115
BRANCH 113 182
ATOM    182  CB  GLU d   1      55.483  28.651 -10.824  0.00  0.00    -0.029 C 
ATOM    183  H69 GLU d   1      54.917  29.468 -11.295  0.00  0.00     0.037 H 
ATOM    184  H70 GLU d   1      54.955  27.699 -10.984  0.00  0.00     0.037 H 
BRANCH 182 185
ATOM    185  CG  GLU d   1      56.830  28.562 -11.496  0.00  0.00     0.018 C 
ATOM    186  H71 GLU d   1      57.510  29.294 -11.036  0.00  0.00     0.049 H 
ATOM    187  H72 GLU d   1      56.714  28.791 -12.566  0.00  0.00     0.049 H 
BRANCH 185 188
ATOM    188  CD  GLU d   1      57.419  27.184 -11.349  0.00  0.00     0.172 C 
ATOM    189  OE1 GLU d   1      58.141  26.954 -10.353  0.00  0.00    -0.648 OA
ATOM    190  OE2 GLU d   1      57.129  26.324 -12.211  0.00  0.00    -0.648 OA
ENDBRANCH 185 188
ENDBRANCH 182 185
ENDBRANCH 113 182
ENDBRANCH 111 113
ENDBRANCH 107 109
BRANCH 107 191
ATOM    191  CB  SER d   1      52.160  28.433  -6.219  0.00  0.00     0.044 C 
ATOM    192  H64 SER d   1      51.978  29.237  -6.948  0.00  0.00     0.077 H 
ATOM    193  H65 SER d   1      52.618  28.856  -5.313  0.00  0.00     0.077 H 
BRANCH 191 194
ATOM    194  OG  SER d   1      50.924  27.812  -5.879  0.00  0.00    -0.398 OA
ATOM    195  H66 SER d   1      50.340  28.458  -5.500  0.00  0.00     0.209 HD
ENDBRANCH 191 194
ENDBRANCH 107 191
ENDBRANCH 105 107
ENDBRANCH 101 103
BRANCH 101 196
ATOM    196  CB  ALA d   1      56.003  24.567  -5.154  0.00  0.00    -0.049 C 
ATOM    197  H59 ALA d   1      56.216  25.639  -5.033  0.00  0.00     0.030 H 
ATOM    198  H60 ALA d   1      56.395  24.222  -6.122  0.00  0.00     0.030 H 
ATOM    199  H61 ALA d   1      56.485  24.004  -4.342  0.00  0.00     0.030 H 
ENDBRANCH 101 196
ENDBRANCH  99 101
ENDBRANCH   1  97
BRANCH   1 200
ATOM    200  CB  ILE d   1      52.279  20.693  -6.756  0.00  0.00    -0.030 C 
ATOM    201  H48 ILE d   1      52.020  19.625  -6.814  0.00  0.00     0.043 H 
BRANCH 200 202
ATOM    202  CG1 ILE d   1      53.433  20.950  -7.727  0.00  0.00    -0.063 C 
ATOM    203  H49 ILE d   1      54.374  20.662  -7.236  0.00  0.00     0.033 H 
ATOM    204  H50 ILE d   1      53.457  22.024  -7.965  0.00  0.00     0.033 H 
BRANCH 202 205
ATOM    205  CD1 ILE d   1      53.308  20.179  -9.010  0.00  0.00    -0.076 C 
ATOM    206  H54 ILE d   1      54.165  20.408  -9.660  0.00  0.00     0.027 H 
ATOM    207  H55 ILE d   1      52.375  20.463  -9.519  0.00  0.00     0.027 H 
ATOM    208  H56 ILE d   1      53.292  19.101  -8.790  0.00  0.00     0.027 H 
ENDBRANCH 202 205
ENDBRANCH 200 202
BRANCH 200 209
ATOM    209  CG2 ILE d   1      51.034  21.490  -7.133  0.00  0.00    -0.071 C 
ATOM    210  H51 ILE d   1      50.230  21.277  -6.412  0.00  0.00     0.028 H 
ATOM    211  H52 ILE d   1      50.706  21.202  -8.143  0.00  0.00     0.028 H 
ATOM    212  H53 ILE d   1      51.267  22.565  -7.115  0.00  0.00     0.028 H 
ENDBRANCH 200 209
ENDBRANCH   1 200
TORSDOF 62
