REMARK WARNING: 32 MAX_TORS EXCEEDED!!!
REMARK  62 active torsions:
REMARK  status: ('A' for Active; 'I' for Inactive)
REMARK    1  A    between atoms: CA_2  and  N_1 
REMARK    2  A    between atoms: C_3  and  CA_2 
REMARK    3  A    between atoms: CA_2  and  CB_5 
REMARK       I    between atoms: N_9  and  C_3 
REMARK    4  A    between atoms: CB_5  and  CG_6 
REMARK    5  A    between atoms: CA_10  and  N_9 
REMARK    6  A    between atoms: C_11  and  CA_10 
REMARK    7  A    between atoms: CA_10  and  CB_13 
REMARK       I    between atoms: N_17  and  C_11 
REMARK    8  A    between atoms: CB_13  and  CG1_14 
REMARK    9  A    between atoms: CB_13  and  CG2_15 
REMARK   10  A    between atoms: CG1_14  and  CD1_16 
REMARK   11  A    between atoms: CA_18  and  N_17 
REMARK   12  A    between atoms: C_19  and  CA_18 
REMARK   13  A    between atoms: CA_18  and  CB_21 
REMARK       I    between atoms: N_28  and  C_19 
REMARK   14  A    between atoms: CB_21  and  CG_22 
REMARK   15  A    between atoms: CA_29  and  N_28 
REMARK   16  A    between atoms: C_30  and  CA_29 
REMARK   17  A    between atoms: CA_29  and  CB_32 
REMARK       I    between atoms: N2_39  and  C_30 
REMARK   18  A    between atoms: CB_32  and  CG_33 
REMARK   19  A    between atoms: CG_33  and  CD_34 
REMARK   20  A    between atoms: C1_36  and  C2_38 
REMARK       I    between atoms: N_47  and  C1_36 
REMARK   21  A    between atoms: C2_38  and  N2_39 
REMARK   22  A    between atoms: C2_38  and  C3_40 
REMARK   23  A    between atoms: C3_40  and  C4_41 
REMARK   24  A    between atoms: C4_41  and  C5_42 
REMARK   25  A    between atoms: C5_42  and  N6_43 
REMARK       I    between atoms: N6_43  and  C7_44 
REMARK       I    between atoms: C7_44  and  N8_46 
REMARK   26  A    between atoms: CA_48  and  N_47 
REMARK   27  A    between atoms: C_49  and  CA_48 
REMARK   28  A    between atoms: CA_48  and  CB_51 
REMARK       I    between atoms: N_55  and  C_49 
REMARK   29  A    between atoms: CB_51  and  CG1_52 
REMARK   30  A    between atoms: CB_51  and  CG2_53 
REMARK   31  A    between atoms: CG1_52  and  CD1_54 
REMARK   32  A    between atoms: CA_56  and  N_55 
REMARK   33  A    between atoms: C_57  and  CA_56 
REMARK   34  A    between atoms: CA_56  and  CB_59 
REMARK       I    between atoms: N_60  and  C_57 
REMARK   35  A    between atoms: CA_61  and  N_60 
REMARK   36  A    between atoms: C_62  and  CA_61 
REMARK   37  A    between atoms: CA_61  and  CB_64 
REMARK       I    between atoms: N_66  and  C_62 
REMARK   38  A    between atoms: CB_64  and  OG_65 
REMARK   39  A    between atoms: CA_67  and  N_66 
REMARK   40  A    between atoms: C_68  and  CA_67 
REMARK   41  A    between atoms: CA_67  and  CB_70 
REMARK       I    between atoms: N_75  and  C_68 
REMARK   42  A    between atoms: CB_70  and  CG_71 
REMARK   43  A    between atoms: CG_71  and  CD_72 
REMARK   44  A    between atoms: CA_76  and  N_75 
REMARK   45  A    between atoms: C_77  and  CA_76 
REMARK   46  A    between atoms: CA_76  and  CB_79 
REMARK       I    between atoms: N_80  and  C_77 
REMARK   47  A    between atoms: CA_81  and  N_80 
REMARK   48  A    between atoms: C_82  and  CA_81 
REMARK   49  A    between atoms: CA_81  and  CB_84 
REMARK       I    between atoms: N2_89  and  C_82 
REMARK   50  A    between atoms: CB_84  and  OG_85 
REMARK   51  A    between atoms: C2_88  and  C1_86 
REMARK       I    between atoms: C1_86  and  N_97 
REMARK   52  A    between atoms: C2_88  and  N2_89 
REMARK   53  A    between atoms: C2_88  and  C3_90 
REMARK   54  A    between atoms: C3_90  and  C4_91 
REMARK   55  A    between atoms: C4_91  and  C5_92 
REMARK   56  A    between atoms: C5_92  and  N6_93 
REMARK       I    between atoms: N6_93  and  C7_94 
REMARK       I    between atoms: C7_94  and  N8_96 
REMARK   57  A    between atoms: N_97  and  CA_98 
REMARK   58  A    between atoms: CA_98  and  C_99 
REMARK   59  A    between atoms: CA_98  and  CB_101 
REMARK   60  A    between atoms: CB_101  and  CG_102 
REMARK   61  A    between atoms: CG_102  and  CD1_103 
REMARK   62  A    between atoms: CG_102  and  CD2_104 
ROOT
ATOM      1  CA  ILE d   1      52.899  20.964  -5.210  0.00  0.00     0.092 C 
ATOM      2  H46 ILE d   1      53.818  20.447  -4.897  0.00  0.00     0.088 H 
ENDROOT
BRANCH   1   3
ATOM      3  N   ILE d   1      51.805  20.534  -4.332  0.00  0.00    -0.346 N 
ATOM      4  C1  CIR d   1      52.248  19.791  -3.379  0.00  0.00     0.241 C 
ATOM      5  O1  CIR d   1      53.402  19.315  -3.330  0.00  0.00    -0.271 OA
ATOM      6  H45 ILE d   1      50.845  20.784  -4.457  0.00  0.00     0.163 HD
BRANCH   4   7
ATOM      7  C2  CIR d   1      51.323  19.543  -2.222  0.00  0.00     0.089 C 
ATOM      8  H34 CIR d   1      50.290  19.481  -2.595  0.00  0.00     0.087 H 
BRANCH   7   9
ATOM      9  N2  CIR d   1      51.682  18.258  -1.607  0.00  0.00    -0.346 N 
ATOM     10  C   GLU d   1      51.128  17.171  -2.013  0.00  0.00     0.241 C 
ATOM     11  O   GLU d   1      50.091  17.170  -2.679  0.00  0.00    -0.271 OA
ATOM     12  H35 CIR d   1      52.358  18.229  -0.871  0.00  0.00     0.163 HD
BRANCH  10  13
ATOM     13  CA  GLU d   1      51.694  15.861  -1.489  0.00  0.00     0.089 C 
ATOM     14  H28 GLU d   1      52.388  16.081  -0.664  0.00  0.00     0.087 H 
BRANCH  13  15
ATOM     15  N   GLU d   1      50.611  15.025  -0.978  0.00  0.00    -0.346 N 
ATOM     16  C   PHE d   1      50.417  14.898   0.328  0.00  0.00     0.241 C 
ATOM     17  O   PHE d   1      51.154  15.423   1.163  0.00  0.00    -0.271 OA
ATOM     18  H27 GLU d   1      50.011  14.545  -1.618  0.00  0.00     0.163 HD
BRANCH  16  19
ATOM     19  CA  PHE d   1      49.194  14.106   0.759  0.00  0.00     0.093 C 
ATOM     20  H19 PHE d   1      48.822  13.518  -0.093  0.00  0.00     0.088 H 
BRANCH  19  21
ATOM     21  N   PHE d   1      49.517  13.205   1.857  0.00  0.00    -0.346 N 
ATOM     22  C   ILE d   1      50.361  12.189   1.698  0.00  0.00     0.241 C 
ATOM     23  O   ILE d   1      50.869  11.891   0.610  0.00  0.00    -0.271 OA
ATOM     24  H18 PHE d   1      49.094  13.354   2.751  0.00  0.00     0.163 HD
BRANCH  22  25
ATOM     25  CA  ILE d   1      50.703  11.399   2.951  0.00  0.00     0.092 C 
ATOM     26  H8  ILE d   1      50.098  11.774   3.790  0.00  0.00     0.088 H 
BRANCH  25  27
ATOM     27  N   ILE d   1      50.368   9.998   2.718  0.00  0.00    -0.346 N 
ATOM     28  C   ASP d   1      49.258   9.438   3.190  0.00  0.00     0.249 C 
ATOM     29  O   ASP d   1      48.473  10.046   3.932  0.00  0.00    -0.271 OA
ATOM     30  H7  ILE d   1      50.998   9.437   2.182  0.00  0.00     0.163 HD
BRANCH  28  31
ATOM     31  CA  ASP d   1      48.980   7.977   2.774  0.00  0.00     0.185 C 
ATOM     32  H4  ASP d   1      48.127   7.982   2.080  0.00  0.00     0.100 H 
BRANCH  31  33
ATOM     33  N   ASP d   1      50.104   7.337   2.088  0.00  0.00    -0.066 N 
ATOM     34  H1  ASP d   1      49.855   6.391   1.846  0.00  0.00     0.275 HD
ATOM     35  H2  ASP d   1      50.908   7.328   2.696  0.00  0.00     0.275 HD
ATOM     36  H3  ASP d   1      50.323   7.851   1.249  0.00  0.00     0.275 HD
ENDBRANCH  31  33
BRANCH  31  37
ATOM     37  CB  ASP d   1      48.594   7.171   4.010  0.00  0.00     0.050 C 
ATOM     38  H5  ASP d   1      48.596   6.102   3.751  0.00  0.00     0.052 H 
ATOM     39  H6  ASP d   1      47.584   7.469   4.326  0.00  0.00     0.052 H 
BRANCH  37  40
ATOM     40  CG  ASP d   1      49.553   7.396   5.164  0.00  0.00     0.175 C 
ATOM     41  OD1 ASP d   1      50.784   7.284   4.935  0.00  0.00    -0.648 OA
ATOM     42  OD2 ASP d   1      49.078   7.703   6.285  0.00  0.00    -0.648 OA
ENDBRANCH  37  40
ENDBRANCH  31  37
ENDBRANCH  28  31
ENDBRANCH  25  27
BRANCH  25  43
ATOM     43  CB  ILE d   1      52.186  11.580   3.303  0.00  0.00    -0.030 C 
ATOM     44  H9  ILE d   1      52.778  11.379   2.398  0.00  0.00     0.043 H 
BRANCH  43  45
ATOM     45  CG1 ILE d   1      52.617  10.565   4.367  0.00  0.00    -0.063 C 
ATOM     46  H10 ILE d   1      53.716  10.547   4.404  0.00  0.00     0.033 H 
ATOM     47  H11 ILE d   1      52.243   9.573   4.072  0.00  0.00     0.033 H 
BRANCH  45  48
ATOM     48  CD1 ILE d   1      52.098  10.877   5.754  0.00  0.00    -0.076 C 
ATOM     49  H15 ILE d   1      52.448  10.108   6.458  0.00  0.00     0.027 H 
ATOM     50  H16 ILE d   1      50.998  10.888   5.740  0.00  0.00     0.027 H 
ATOM     51  H17 ILE d   1      52.471  11.862   6.072  0.00  0.00     0.027 H 
ENDBRANCH  45  48
ENDBRANCH  43  45
BRANCH  43  52
ATOM     52  CG2 ILE d   1      52.452  13.034   3.715  0.00  0.00    -0.071 C 
ATOM     53  H12 ILE d   1      52.122  13.709   2.912  0.00  0.00     0.028 H 
ATOM     54  H13 ILE d   1      53.529  13.174   3.892  0.00  0.00     0.028 H 
ATOM     55  H14 ILE d   1      51.896  13.261   4.637  0.00  0.00     0.028 H 
ENDBRANCH  43  52
ENDBRANCH  25  43
ENDBRANCH  22  25
ENDBRANCH  19  21
BRANCH  19  56
ATOM     56  CB  PHE d   1      48.127  15.084   1.207  0.00  0.00    -0.014 C 
ATOM     57  H20 PHE d   1      48.457  16.099   0.942  0.00  0.00     0.043 H 
ATOM     58  H21 PHE d   1      48.025  15.005   2.299  0.00  0.00     0.043 H 
BRANCH  56  59
ATOM     59  CG  PHE d   1      46.804  14.858   0.603  0.00  0.00    -0.056 A 
ATOM     60  CD1 PHE d   1      46.531  15.320  -0.666  0.00  0.00    -0.077 A 
ATOM     61  CE1 PHE d   1      45.292  15.146  -1.219  0.00  0.00    -0.082 A 
ATOM     62  H22 PHE d   1      47.305  15.826  -1.231  0.00  0.00     0.084 H 
ATOM     63  CZ  PHE d   1      44.308  14.529  -0.493  0.00  0.00    -0.083 A 
ATOM     64  H24 PHE d   1      45.090  15.494  -2.225  0.00  0.00     0.083 H 
ATOM     65  CE2 PHE d   1      44.563  14.062   0.786  0.00  0.00    -0.082 A 
ATOM     66  H26 PHE d   1      43.321  14.405  -0.923  0.00  0.00     0.083 H 
ATOM     67  CD2 PHE d   1      45.803  14.244   1.331  0.00  0.00    -0.077 A 
ATOM     68  H25 PHE d   1      43.786  13.557   1.349  0.00  0.00     0.083 H 
ATOM     69  H23 PHE d   1      46.002  13.905   2.341  0.00  0.00     0.084 H 
ENDBRANCH  56  59
ENDBRANCH  19  56
ENDBRANCH  16  19
ENDBRANCH  13  15
BRANCH  13  70
ATOM     70  CB  GLU d   1      52.463  15.137  -2.590  0.00  0.00    -0.032 C 
ATOM     71  H29 GLU d   1      52.850  15.889  -3.294  0.00  0.00     0.037 H 
ATOM     72  H30 GLU d   1      51.767  14.467  -3.115  0.00  0.00     0.037 H 
BRANCH  70  73
ATOM     73  CG  GLU d   1      53.635  14.308  -2.083  0.00  0.00    -0.014 C 
ATOM     74  H31 GLU d   1      53.867  13.531  -2.826  0.00  0.00     0.043 H 
ATOM     75  H32 GLU d   1      53.348  13.833  -1.133  0.00  0.00     0.043 H 
BRANCH  73  76
ATOM     76  CD  GLU d   1      54.878  15.150  -1.852  0.00  0.00     0.088 C 
ATOM     77  OE1 GLU d   1      55.480  15.029  -0.759  0.00  0.00    -0.307 OA
ATOM     78  H33 GLU d   1      55.236  15.840  -2.615  0.00  0.00     0.143 H 
ENDBRANCH  73  76
ENDBRANCH  70  73
ENDBRANCH  13  70
ENDBRANCH  10  13
ENDBRANCH   7   9
BRANCH   7  79
ATOM     79  C3  CIR d   1      51.404  20.692  -1.215  0.00  0.00    -0.036 C 
ATOM     80  H36 CIR d   1      50.563  20.613  -0.510  0.00  0.00     0.036 H 
ATOM     81  H37 CIR d   1      51.342  21.649  -1.754  0.00  0.00     0.036 H 
BRANCH  79  82
ATOM     82  C4  CIR d   1      52.710  20.640  -0.441  0.00  0.00    -0.048 C 
ATOM     83  H38 CIR d   1      53.539  20.471  -1.143  0.00  0.00     0.035 H 
ATOM     84  H39 CIR d   1      52.668  19.813   0.283  0.00  0.00     0.035 H 
BRANCH  82  85
ATOM     85  C5  CIR d   1      52.946  21.948   0.306  0.00  0.00    -0.003 C 
ATOM     86  H40 CIR d   1      53.592  21.754   1.175  0.00  0.00     0.064 H 
ATOM     87  H41 CIR d   1      51.979  22.345   0.649  0.00  0.00     0.064 H 
BRANCH  85  88
ATOM     88  N6  CIR d   1      53.580  22.924  -0.543  0.00  0.00    -0.343 N 
ATOM     89  C7  CIR d   1      54.830  23.326  -0.354  0.00  0.00     0.313 C 
ATOM     90  O7  CIR d   1      55.565  22.762   0.443  0.00  0.00    -0.248 OA
ATOM     91  N8  CIR d   1      55.234  24.369  -1.080  0.00  0.00    -0.352 N 
ATOM     92  H43 CIR d   1      56.166  24.717  -0.980  0.00  0.00     0.160 HD
ATOM     93  H44 CIR d   1      54.605  24.804  -1.724  0.00  0.00     0.160 HD
ATOM     94  H42 CIR d   1      53.059  23.313  -1.303  0.00  0.00     0.164 HD
ENDBRANCH  85  88
ENDBRANCH  82  85
ENDBRANCH  79  82
ENDBRANCH   7  79
ENDBRANCH   4   7
ENDBRANCH   1   3
BRANCH   1  95
ATOM     95  C   ILE d   1      53.116  22.460  -5.044  0.00  0.00     0.241 C 
ATOM     96  O   ILE d   1      52.176  23.201  -4.733  0.00  0.00    -0.271 OA
ATOM     97  N   ALA d   1      54.357  22.908  -5.207  0.00  0.00    -0.346 N 
ATOM     98  H56 ALA d   1      55.090  22.273  -5.451  0.00  0.00     0.163 HD
BRANCH  97  99
ATOM     99  CA  ALA d   1      54.650  24.324  -5.030  0.00  0.00     0.086 C 
ATOM    100  H57 ALA d   1      54.187  24.655  -4.089  0.00  0.00     0.086 H 
BRANCH  99 101
ATOM    101  C   ALA d   1      54.059  25.151  -6.175  0.00  0.00     0.240 C 
ATOM    102  O   ALA d   1      53.842  24.661  -7.290  0.00  0.00    -0.271 OA
ATOM    103  N   SER d   1      53.774  26.411  -5.876  0.00  0.00    -0.344 N 
ATOM    104  H61 SER d   1      53.839  26.708  -4.923  0.00  0.00     0.163 HD
BRANCH 103 105
ATOM    105  CA  SER d   1      53.371  27.372  -6.884  0.00  0.00     0.109 C 
ATOM    106  H62 SER d   1      52.889  26.837  -7.715  0.00  0.00     0.090 H 
BRANCH 105 107
ATOM    107  C   SER d   1      54.602  28.092  -7.404  0.00  0.00     0.243 C 
ATOM    108  O   SER d   1      55.504  28.443  -6.636  0.00  0.00    -0.271 OA
ATOM    109  N   GLU d   1      54.627  28.328  -8.711  0.00  0.00    -0.346 N 
ATOM    110  H66 GLU d   1      53.825  28.111  -9.268  0.00  0.00     0.163 HD
BRANCH 109 111
ATOM    111  CA  GLU d   1      55.808  28.899  -9.343  0.00  0.00     0.090 C 
ATOM    112  H67 GLU d   1      56.700  28.391  -8.948  0.00  0.00     0.087 H 
BRANCH 111 113
ATOM    113  C   GLU d   1      55.914  30.382  -9.034  0.00  0.00     0.241 C 
ATOM    114  O   GLU d   1      54.928  31.117  -9.098  0.00  0.00    -0.271 OA
ATOM    115  N   ALA d   1      57.132  30.835  -8.753  0.00  0.00    -0.346 N 
ATOM    116  H72 ALA d   1      57.910  30.209  -8.813  0.00  0.00     0.163 HD
BRANCH 115 117
ATOM    117  CA  ALA d   1      57.365  32.216  -8.360  0.00  0.00     0.086 C 
ATOM    118  H73 ALA d   1      56.443  32.615  -7.912  0.00  0.00     0.086 H 
BRANCH 117 119
ATOM    119  C   ALA d   1      57.708  33.053  -9.588  0.00  0.00     0.240 C 
ATOM    120  O   ALA d   1      58.668  32.747 -10.305  0.00  0.00    -0.271 OA
ATOM    121  N   SER d   1      56.935  34.111  -9.831  0.00  0.00    -0.344 N 
ATOM    122  H77 SER d   1      56.130  34.286  -9.264  0.00  0.00     0.163 HD
BRANCH 121 123
ATOM    123  CA  SER d   1      57.268  35.014 -10.929  0.00  0.00     0.109 C 
ATOM    124  H78 SER d   1      57.442  34.418 -11.837  0.00  0.00     0.090 H 
BRANCH 123 125
ATOM    125  C   SER d   1      58.538  35.765 -10.575  0.00  0.00     0.243 C 
ATOM    126  O   SER d   1      58.703  36.168  -9.429  0.00  0.00    -0.271 OA
ATOM    127  N2  CIR d   1      59.144  36.504 -11.414  0.00  0.00    -0.346 N 
ATOM    128  H83 CIR d   1      58.872  36.452 -12.375  0.00  0.00     0.163 HD
BRANCH 127 129
ATOM    129  C2  CIR d   1      60.234  37.439 -11.041  0.00  0.00     0.089 C 
ATOM    130  H82 CIR d   1      60.548  37.206 -10.013  0.00  0.00     0.087 H 
BRANCH 129 131
ATOM    131  C1  CIR d   1      59.732  38.864 -11.072  0.00  0.00     0.241 C 
ATOM    132  O1  CIR d   1      58.885  39.201 -11.940  0.00  0.00    -0.271 OA
ATOM    133  N   LEU d   1      60.431  39.373 -10.022  0.00  0.00    -0.345 N 
ATOM    134  H93 LEU d   1      60.959  38.776  -9.418  0.00  0.00     0.163 HD
BRANCH 133 135
ATOM    135  CA  LEU d   1      60.389  40.816  -9.801  0.00  0.00     0.096 C 
ATOM    136  H94 LEU d   1      59.347  41.102  -9.594  0.00  0.00     0.089 H 
BRANCH 135 137
ATOM    137  C   LEU d   1      60.855  41.566 -11.045  0.00  0.00     0.196 C 
ATOM    138  O   LEU d   1      60.083  42.308 -11.656  0.00  0.00    -0.646 OA
ATOM    139  OXT LEU d   1      62.010  41.441 -11.457  0.00  0.00    -0.646 OA
ENDBRANCH 135 137
BRANCH 135 140
ATOM    140  CB  LEU d   1      61.247  41.209  -8.590  0.00  0.00    -0.034 C 
ATOM    141  H95 LEU d   1      61.623  42.226  -8.773  0.00  0.00     0.037 H 
ATOM    142  H96 LEU d   1      62.093  40.507  -8.547  0.00  0.00     0.037 H 
BRANCH 140 143
ATOM    143  CG  LEU d   1      60.583  41.210  -7.199  0.00  0.00    -0.059 C 
ATOM    144  H97 LEU d   1      60.378  40.162  -6.933  0.00  0.00     0.038 H 
BRANCH 143 145
ATOM    145  CD1 LEU d   1      61.530  41.783  -6.139  0.00  0.00    -0.073 C 
ATOM    146  H98 LEU d   1      61.032  41.772  -5.158  0.00  0.00     0.028 H 
ATOM    147  H99 LEU d   1      61.795  42.817  -6.404  0.00  0.00     0.028 H 
ATOM    148 0H10 LEU d   1      62.443  41.171  -6.094  0.00  0.00     0.028 H 
ENDBRANCH 143 145
BRANCH 143 149
ATOM    149  CD2 LEU d   1      59.247  41.953  -7.188  0.00  0.00    -0.073 C 
ATOM    150 1H10 LEU d   1      58.584  41.526  -7.955  0.00  0.00     0.028 H 
ATOM    151 2H10 LEU d   1      59.418  43.018  -7.403  0.00  0.00     0.028 H 
ATOM    152 3H10 LEU d   1      58.778  41.849  -6.199  0.00  0.00     0.028 H 
ENDBRANCH 143 149
ENDBRANCH 140 143
ENDBRANCH 135 140
ENDBRANCH 133 135
ENDBRANCH 129 131
BRANCH 129 153
ATOM    153  C3  CIR d   1      61.452  37.276 -11.958  0.00  0.00    -0.036 C 
ATOM    154  H84 CIR d   1      61.771  36.224 -11.925  0.00  0.00     0.036 H 
ATOM    155  H85 CIR d   1      62.261  37.917 -11.576  0.00  0.00     0.036 H 
BRANCH 153 156
ATOM    156  C4  CIR d   1      61.187  37.653 -13.415  0.00  0.00    -0.048 C 
ATOM    157  H86 CIR d   1      60.657  38.616 -13.445  0.00  0.00     0.035 H 
ATOM    158  H87 CIR d   1      60.562  36.875 -13.879  0.00  0.00     0.035 H 
BRANCH 156 159
ATOM    159  C5  CIR d   1      62.493  37.778 -14.201  0.00  0.00    -0.003 C 
ATOM    160  H88 CIR d   1      63.126  36.906 -13.979  0.00  0.00     0.064 H 
ATOM    161  H89 CIR d   1      63.010  38.696 -13.886  0.00  0.00     0.064 H 
BRANCH 159 162
ATOM    162  N6  CIR d   1      62.264  37.838 -15.638  0.00  0.00    -0.343 N 
ATOM    163  C7  CIR d   1      63.194  37.490 -16.539  0.00  0.00     0.313 C 
ATOM    164  O7  CIR d   1      62.893  37.183 -17.695  0.00  0.00    -0.248 OA
ATOM    165  N8  CIR d   1      64.472  37.485 -16.144  0.00  0.00    -0.352 N 
ATOM    166  H91 CIR d   1      65.193  37.231 -16.788  0.00  0.00     0.160 HD
ATOM    167  H92 CIR d   1      64.706  37.735 -15.204  0.00  0.00     0.160 HD
ATOM    168  H90 CIR d   1      61.374  38.153 -15.967  0.00  0.00     0.164 HD
ENDBRANCH 159 162
ENDBRANCH 156 159
ENDBRANCH 153 156
ENDBRANCH 129 153
ENDBRANCH 127 129
ENDBRANCH 123 125
BRANCH 123 169
ATOM    169  CB  SER d   1      56.141  36.008 -11.209  0.00  0.00     0.044 C 
ATOM    170  H79 SER d   1      56.518  36.802 -11.871  0.00  0.00     0.077 H 
ATOM    171  H80 SER d   1      55.808  36.450 -10.259  0.00  0.00     0.077 H 
BRANCH 169 172
ATOM    172  OG  SER d   1      55.048  35.373 -11.829  0.00  0.00    -0.398 OA
ATOM    173  H81 SER d   1      54.363  36.011 -11.992  0.00  0.00     0.209 HD
ENDBRANCH 169 172
ENDBRANCH 123 169
ENDBRANCH 121 123
ENDBRANCH 117 119
BRANCH 117 174
ATOM    174  CB  ALA d   1      58.480  32.286  -7.315  0.00  0.00    -0.049 C 
ATOM    175  H74 ALA d   1      58.647  33.334  -7.026  0.00  0.00     0.030 H 
ATOM    176  H75 ALA d   1      59.406  31.871  -7.739  0.00  0.00     0.030 H 
ATOM    177  H76 ALA d   1      58.189  31.703  -6.429  0.00  0.00     0.030 H 
ENDBRANCH 117 174
ENDBRANCH 115 117
ENDBRANCH 111 113
BRANCH 111 178
ATOM    178  CB  GLU d   1      55.748  28.688 -10.853  0.00  0.00    -0.029 C 
ATOM    179  H68 GLU d   1      55.217  29.542 -11.299  0.00  0.00     0.037 H 
ATOM    180  H69 GLU d   1      55.186  27.763 -11.049  0.00  0.00     0.037 H 
BRANCH 178 181
ATOM    181  CG  GLU d   1      57.089  28.572 -11.515  0.00  0.00     0.018 C 
ATOM    182  H70 GLU d   1      57.777  29.301 -11.063  0.00  0.00     0.049 H 
ATOM    183  H71 GLU d   1      56.980  28.787 -12.588  0.00  0.00     0.049 H 
BRANCH 181 184
ATOM    184  CD  GLU d   1      57.659  27.186 -11.346  0.00  0.00     0.172 C 
ATOM    185  OE1 GLU d   1      58.336  26.938 -10.309  0.00  0.00    -0.648 OA
ATOM    186  OE2 GLU d   1      57.393  26.346 -12.240  0.00  0.00    -0.648 OA
ENDBRANCH 181 184
ENDBRANCH 178 181
ENDBRANCH 111 178
ENDBRANCH 109 111
ENDBRANCH 105 107
BRANCH 105 187
ATOM    187  CB  SER d   1      52.379  28.383  -6.308  0.00  0.00     0.044 C 
ATOM    188  H63 SER d   1      52.099  29.101  -7.093  0.00  0.00     0.077 H 
ATOM    189  H64 SER d   1      52.854  28.919  -5.473  0.00  0.00     0.077 H 
BRANCH 187 190
ATOM    190  OG  SER d   1      51.211  27.729  -5.837  0.00  0.00    -0.398 OA
ATOM    191  H65 SER d   1      50.609  28.374  -5.484  0.00  0.00     0.209 HD
ENDBRANCH 187 190
ENDBRANCH 105 187
ENDBRANCH 103 105
ENDBRANCH  99 101
BRANCH  99 192
ATOM    192  CB  ALA d   1      56.160  24.564  -4.935  0.00  0.00    -0.049 C 
ATOM    193  H58 ALA d   1      56.353  25.639  -4.802  0.00  0.00     0.030 H 
ATOM    194  H59 ALA d   1      56.645  24.216  -5.859  0.00  0.00     0.030 H 
ATOM    195  H60 ALA d   1      56.566  24.010  -4.076  0.00  0.00     0.030 H 
ENDBRANCH  99 192
ENDBRANCH  97  99
ENDBRANCH   1  95
BRANCH   1 196
ATOM    196  CB  ILE d   1      52.619  20.580  -6.686  0.00  0.00    -0.030 C 
ATOM    197  H47 ILE d   1      52.356  19.512  -6.710  0.00  0.00     0.043 H 
BRANCH 196 198
ATOM    198  CG1 ILE d   1      53.872  20.769  -7.549  0.00  0.00    -0.063 C 
ATOM    199  H48 ILE d   1      54.717  20.271  -7.050  0.00  0.00     0.033 H 
ATOM    200  H49 ILE d   1      54.078  21.846  -7.631  0.00  0.00     0.033 H 
BRANCH 198 201
ATOM    201  CD1 ILE d   1      53.735  20.193  -8.960  0.00  0.00    -0.076 C 
ATOM    202  H53 ILE d   1      54.667  20.365  -9.518  0.00  0.00     0.027 H 
ATOM    203  H54 ILE d   1      52.901  20.688  -9.479  0.00  0.00     0.027 H 
ATOM    204  H55 ILE d   1      53.539  19.113  -8.898  0.00  0.00     0.027 H 
ENDBRANCH 198 201
ENDBRANCH 196 198
BRANCH 196 205
ATOM    205  CG2 ILE d   1      51.433  21.359  -7.241  0.00  0.00    -0.071 C 
ATOM    206  H50 ILE d   1      50.556  21.199  -6.597  0.00  0.00     0.028 H 
ATOM    207  H51 ILE d   1      51.209  21.009  -8.260  0.00  0.00     0.028 H 
ATOM    208  H52 ILE d   1      51.678  22.431  -7.267  0.00  0.00     0.028 H 
ENDBRANCH 196 205
ENDBRANCH   1 196
TORSDOF 62
