REMARK WARNING: 32 MAX_TORS EXCEEDED!!!
REMARK  42 active torsions:
REMARK  status: ('A' for Active; 'I' for Inactive)
REMARK    1  A    between atoms: N_1  and  CA_2 
REMARK    2  A    between atoms: CA_2  and  C_3 
REMARK    3  A    between atoms: CA_2  and  CB_5 
REMARK       I    between atoms: C_3  and  N_9 
REMARK    4  A    between atoms: CB_5  and  CG1_6 
REMARK    5  A    between atoms: CB_5  and  CG2_7 
REMARK    6  A    between atoms: CG1_6  and  CD1_8 
REMARK    7  A    between atoms: CA_10  and  C_11 
REMARK       I    between atoms: C_11  and  N_16 
REMARK    8  A    between atoms: N_16  and  CA_17 
REMARK    9  A    between atoms: CA_17  and  C_18 
REMARK   10  A    between atoms: CA_17  and  CB_20 
REMARK       I    between atoms: C_18  and  N_24 
REMARK   11  A    between atoms: CB_20  and  CG_21 
REMARK   12  A    between atoms: CG_21  and  CD1_22 
REMARK   13  A    between atoms: CG_21  and  CD2_23 
REMARK   14  A    between atoms: N_24  and  CA_25 
REMARK   15  A    between atoms: CA_25  and  C_26 
REMARK   16  A    between atoms: CA_25  and  CB_28 
REMARK       I    between atoms: C_26  and  N_31 
REMARK   17  A    between atoms: CB_28  and  OG1_29 
REMARK   18  A    between atoms: CB_28  and  CG2_30 
REMARK   19  A    between atoms: N_31  and  CA_32 
REMARK   20  A    between atoms: CA_32  and  C_33 
REMARK   21  A    between atoms: CA_32  and  CB_35 
REMARK       I    between atoms: C_33  and  N_40 
REMARK   22  A    between atoms: CB_35  and  CG_36 
REMARK   23  A    between atoms: CG_36  and  CD_37 
REMARK   24  A    between atoms: N_40  and  CA_41 
REMARK   25  A    between atoms: CA_41  and  C_42 
REMARK   26  A    between atoms: CA_41  and  CB_44 
REMARK       I    between atoms: C_42  and  N_49 
REMARK   27  A    between atoms: CB_44  and  CG_45 
REMARK   28  A    between atoms: CG_45  and  CD_46 
REMARK   29  A    between atoms: N_49  and  CA_50 
REMARK   30  A    between atoms: CA_50  and  C_51 
REMARK   31  A    between atoms: CA_50  and  CB_53 
REMARK       I    between atoms: C_51  and  N_54 
REMARK   32  A    between atoms: N_54  and  CA_55 
REMARK   33  A    between atoms: CA_55  and  C_56 
REMARK   34  A    between atoms: CA_55  and  CB_58 
REMARK       I    between atoms: C_56  and  N_63 
REMARK   35  A    between atoms: CB_58  and  CG_59 
REMARK   36  A    between atoms: CG_59  and  CD_60 
REMARK   37  A    between atoms: N_63  and  CA_64 
REMARK   38  A    between atoms: CA_64  and  C_65 
REMARK   39  A    between atoms: CA_64  and  CB_67 
REMARK   40  A    between atoms: CB_67  and  CG_68 
REMARK   41  A    between atoms: CG_68  and  CD1_69 
REMARK   42  A    between atoms: CG_68  and  CD2_70 
ROOT
ATOM      1  CA  GLU d   1     -24.993 -24.875 120.313  0.00  0.00     0.090 C 
ATOM      2  H40 GLU d   1     -25.612 -23.967 120.257  0.00  0.00     0.087 H 
ENDROOT
BRANCH   1   3
ATOM      3  N   GLU d   1     -25.443 -25.807 119.292  0.00  0.00    -0.346 N 
ATOM      4  C   THR d   1     -26.459 -25.554 118.474  0.00  0.00     0.243 C 
ATOM      5  O   THR d   1     -27.082 -24.485 118.510  0.00  0.00    -0.271 OA
ATOM      6  H39 GLU d   1     -24.965 -26.680 119.201  0.00  0.00     0.163 HD
BRANCH   4   7
ATOM      7  CA  THR d   1     -26.830 -26.644 117.477  0.00  0.00     0.113 C 
ATOM      8  H33 THR d   1     -27.611 -26.248 116.811  0.00  0.00     0.091 H 
BRANCH   7   9
ATOM      9  N   THR d   1     -25.686 -27.035 116.658  0.00  0.00    -0.344 N 
ATOM     10  C   LEU d   1     -25.130 -26.170 115.812  0.00  0.00     0.241 C 
ATOM     11  O   LEU d   1     -25.408 -24.967 115.801  0.00  0.00    -0.271 OA
ATOM     12  H32 THR d   1     -25.317 -27.961 116.733  0.00  0.00     0.163 HD
BRANCH  10  13
ATOM     13  CA  LEU d   1     -24.115 -26.749 114.834  0.00  0.00     0.089 C 
ATOM     14  H22 LEU d   1     -24.184 -27.846 114.864  0.00  0.00     0.087 H 
BRANCH  13  15
ATOM     15  N   LEU d   1     -24.431 -26.297 113.488  0.00  0.00    -0.346 N 
ATOM     16  C   PRO d   1     -25.507 -26.755 112.854  0.00  0.00     0.241 C 
ATOM     17  O   PRO d   1     -26.267 -27.604 113.345  0.00  0.00    -0.271 OA
ATOM     18  H21 LEU d   1     -23.834 -25.636 113.035  0.00  0.00     0.163 HD
BRANCH  16  19
ATOM     19  CA  PRO d   1     -25.744 -26.153 111.472  0.00  0.00     0.091 C 
ATOM     20  N   PRO d   1     -27.003 -26.647 110.916  0.00  0.00    -0.337 N 
ATOM     21  C   ILE d   1     -27.083 -27.838 110.340  0.00  0.00     0.251 C 
ATOM     22  CD  PRO d   1     -28.084 -25.657 111.043  0.00  0.00    -0.001 C 
ATOM     23  O   ILE d   1     -26.121 -28.579 110.209  0.00  0.00    -0.271 OA
ATOM     24  CG  PRO d   1     -27.436 -24.518 111.798  0.00  0.00    -0.048 C 
ATOM     25  H19 PRO d   1     -28.931 -26.071 111.609  0.00  0.00     0.064 H 
ATOM     26  H20 PRO d   1     -28.431 -25.325 110.053  0.00  0.00     0.064 H 
ATOM     27  CB  PRO d   1     -25.977 -24.642 111.542  0.00  0.00    -0.036 C 
ATOM     28  H17 PRO d   1     -27.809 -23.552 111.428  0.00  0.00     0.035 H 
ATOM     29  H18 PRO d   1     -27.645 -24.604 112.874  0.00  0.00     0.035 H 
ATOM     30  H15 PRO d   1     -25.704 -24.159 110.592  0.00  0.00     0.036 H 
ATOM     31  H16 PRO d   1     -25.396 -24.194 112.362  0.00  0.00     0.036 H 
ATOM     32  H14 PRO d   1     -24.894 -26.392 110.815  0.00  0.00     0.087 H 
BRANCH  21  33
ATOM     33  CA  ILE d   1     -28.456 -28.260 109.821  0.00  0.00     0.179 C 
ATOM     34  H4  ILE d   1     -29.048 -27.352 109.636  0.00  0.00     0.099 H 
BRANCH  33  35
ATOM     35  N   ILE d   1     -28.326 -28.981 108.564  0.00  0.00    -0.066 N 
ATOM     36  H1  ILE d   1     -27.839 -28.405 107.895  0.00  0.00     0.275 HD
ATOM     37  H2  ILE d   1     -29.242 -29.206 108.209  0.00  0.00     0.275 HD
ATOM     38  H3  ILE d   1     -27.807 -29.831 108.716  0.00  0.00     0.275 HD
ENDBRANCH  33  35
BRANCH  33  39
ATOM     39  CB  ILE d   1     -29.198 -29.110 110.873  0.00  0.00    -0.022 C 
ATOM     40  H5  ILE d   1     -29.070 -28.629 111.854  0.00  0.00     0.043 H 
BRANCH  39  41
ATOM     41  CG1 ILE d   1     -28.601 -30.512 110.953  0.00  0.00    -0.063 C 
ATOM     42  H6  ILE d   1     -27.547 -30.424 111.256  0.00  0.00     0.033 H 
ATOM     43  H7  ILE d   1     -28.659 -30.971 109.955  0.00  0.00     0.033 H 
BRANCH  41  44
ATOM     44  CD1 ILE d   1     -29.306 -31.418 111.937  0.00  0.00    -0.076 C 
ATOM     45  H11 ILE d   1     -28.821 -32.406 111.939  0.00  0.00     0.027 H 
ATOM     46  H12 ILE d   1     -30.360 -31.528 111.644  0.00  0.00     0.027 H 
ATOM     47  H13 ILE d   1     -29.249 -30.980 112.945  0.00  0.00     0.027 H 
ENDBRANCH  41  44
ENDBRANCH  39  41
BRANCH  39  48
ATOM     48  CG2 ILE d   1     -30.683 -29.161 110.566  0.00  0.00    -0.070 C 
ATOM     49  H8  ILE d   1     -31.082 -28.137 110.515  0.00  0.00     0.028 H 
ATOM     50  H9  ILE d   1     -31.203 -29.718 111.359  0.00  0.00     0.028 H 
ATOM     51  H10 ILE d   1     -30.841 -29.665 109.601  0.00  0.00     0.028 H 
ENDBRANCH  39  48
ENDBRANCH  33  39
ENDBRANCH  21  33
ENDBRANCH  16  19
ENDBRANCH  13  15
BRANCH  13  52
ATOM     52  CB  LEU d   1     -22.682 -26.341 115.216  0.00  0.00    -0.035 C 
ATOM     53  H23 LEU d   1     -22.659 -25.246 115.318  0.00  0.00     0.037 H 
ATOM     54  H24 LEU d   1     -22.014 -26.647 114.397  0.00  0.00     0.037 H 
BRANCH  52  55
ATOM     55  CG  LEU d   1     -22.143 -26.945 116.512  0.00  0.00    -0.059 C 
ATOM     56  H25 LEU d   1     -22.683 -26.489 117.355  0.00  0.00     0.038 H 
BRANCH  55  57
ATOM     57  CD1 LEU d   1     -22.382 -28.441 116.543  0.00  0.00    -0.073 C 
ATOM     58  H26 LEU d   1     -21.988 -28.856 117.482  0.00  0.00     0.028 H 
ATOM     59  H27 LEU d   1     -21.870 -28.912 115.691  0.00  0.00     0.028 H 
ATOM     60  H28 LEU d   1     -23.462 -28.641 116.479  0.00  0.00     0.028 H 
ENDBRANCH  55  57
BRANCH  55  61
ATOM     61  CD2 LEU d   1     -20.650 -26.645 116.679  0.00  0.00    -0.073 C 
ATOM     62  H29 LEU d   1     -20.490 -25.557 116.655  0.00  0.00     0.028 H 
ATOM     63  H30 LEU d   1     -20.087 -27.117 115.860  0.00  0.00     0.028 H 
ATOM     64  H31 LEU d   1     -20.301 -27.046 117.642  0.00  0.00     0.028 H 
ENDBRANCH  55  61
ENDBRANCH  52  55
ENDBRANCH  13  52
ENDBRANCH  10  13
ENDBRANCH   7   9
BRANCH   7  65
ATOM     65  CB  THR d   1     -27.390 -27.863 118.208  0.00  0.00     0.060 C 
ATOM     66  H34 THR d   1     -26.611 -28.275 118.867  0.00  0.00     0.086 H 
BRANCH  65  67
ATOM     67  OG1 THR d   1     -27.773 -28.858 117.252  0.00  0.00    -0.393 OA
ATOM     68  H35 THR d   1     -28.121 -29.616 117.707  0.00  0.00     0.210 HD
ENDBRANCH  65  67
BRANCH  65  69
ATOM     69  CG2 THR d   1     -28.593 -27.475 119.047  0.00  0.00    -0.050 C 
ATOM     70  H36 THR d   1     -28.981 -28.365 119.565  0.00  0.00     0.031 H 
ATOM     71  H37 THR d   1     -29.376 -27.059 118.395  0.00  0.00     0.031 H 
ATOM     72  H38 THR d   1     -28.294 -26.720 119.789  0.00  0.00     0.031 H 
ENDBRANCH  65  69
ENDBRANCH   7  65
ENDBRANCH   4   7
ENDBRANCH   1   3
BRANCH   1  73
ATOM     73  C   GLU d   1     -23.542 -24.495 120.060  0.00  0.00     0.241 C 
ATOM     74  O   GLU d   1     -22.713 -25.351 119.734  0.00  0.00    -0.271 OA
ATOM     75  N   GLU d   1     -23.246 -23.207 120.217  0.00  0.00    -0.346 N 
ATOM     76  H45 GLU d   1     -23.966 -22.590 120.536  0.00  0.00     0.163 HD
BRANCH  75  77
ATOM     77  CA  GLU d   1     -21.927 -22.650 119.948  0.00  0.00     0.090 C 
ATOM     78  H46 GLU d   1     -21.303 -23.431 119.490  0.00  0.00     0.087 H 
BRANCH  77  79
ATOM     79  C   GLU d   1     -21.281 -22.198 121.247  0.00  0.00     0.241 C 
ATOM     80  O   GLU d   1     -21.923 -21.529 122.064  0.00  0.00    -0.271 OA
ATOM     81  N   ALA d   1     -20.011 -22.552 121.425  0.00  0.00    -0.346 N 
ATOM     82  H51 ALA d   1     -19.594 -23.224 120.813  0.00  0.00     0.163 HD
BRANCH  81  83
ATOM     83  CA  ALA d   1     -19.224 -21.972 122.498  0.00  0.00     0.086 C 
ATOM     84  H52 ALA d   1     -19.810 -22.017 123.428  0.00  0.00     0.086 H 
BRANCH  83  85
ATOM     85  C   ALA d   1     -18.919 -20.510 122.183  0.00  0.00     0.240 C 
ATOM     86  O   ALA d   1     -19.138 -20.025 121.069  0.00  0.00    -0.271 OA
ATOM     87  N   GLU d   1     -18.408 -19.801 123.181  0.00  0.00    -0.346 N 
ATOM     88  H56 GLU d   1     -18.271 -20.240 124.069  0.00  0.00     0.163 HD
BRANCH  87  89
ATOM     89  CA  GLU d   1     -18.042 -18.404 123.019  0.00  0.00     0.090 C 
ATOM     90  H57 GLU d   1     -18.337 -18.084 122.009  0.00  0.00     0.087 H 
BRANCH  89  91
ATOM     91  C   GLU d   1     -16.534 -18.246 123.153  0.00  0.00     0.241 C 
ATOM     92  O   GLU d   1     -15.815 -19.172 123.540  0.00  0.00    -0.271 OA
ATOM     93  N   LEU d   1     -16.061 -17.049 122.829  0.00  0.00    -0.345 N 
ATOM     94  H62 LEU d   1     -16.702 -16.314 122.610  0.00  0.00     0.163 HD
BRANCH  93  95
ATOM     95  CA  LEU d   1     -14.633 -16.781 122.785  0.00  0.00     0.096 C 
ATOM     96  H63 LEU d   1     -14.099 -17.730 122.940  0.00  0.00     0.089 H 
BRANCH  95  97
ATOM     97  C   LEU d   1     -14.221 -15.814 123.889  0.00  0.00     0.196 C 
ATOM     98  O   LEU d   1     -14.118 -16.194 125.055  0.00  0.00    -0.646 OA
ATOM     99  OXT LEU d   1     -13.983 -14.633 123.637  0.00  0.00    -0.646 OA
ENDBRANCH  95  97
BRANCH  95 100
ATOM    100  CB  LEU d   1     -14.238 -16.222 121.417  0.00  0.00    -0.034 C 
ATOM    101  H64 LEU d   1     -13.261 -15.734 121.547  0.00  0.00     0.037 H 
ATOM    102  H65 LEU d   1     -14.993 -15.466 121.156  0.00  0.00     0.037 H 
BRANCH 100 103
ATOM    103  CG  LEU d   1     -14.107 -17.148 120.202  0.00  0.00    -0.059 C 
ATOM    104  H66 LEU d   1     -13.372 -17.929 120.446  0.00  0.00     0.038 H 
BRANCH 103 105
ATOM    105  CD1 LEU d   1     -15.419 -17.834 119.847  0.00  0.00    -0.073 C 
ATOM    106  H67 LEU d   1     -15.268 -18.483 118.972  0.00  0.00     0.028 H 
ATOM    107  H68 LEU d   1     -16.179 -17.074 119.613  0.00  0.00     0.028 H 
ATOM    108  H69 LEU d   1     -15.758 -18.441 120.700  0.00  0.00     0.028 H 
ENDBRANCH 103 105
BRANCH 103 109
ATOM    109  CD2 LEU d   1     -13.589 -16.352 119.015  0.00  0.00    -0.073 C 
ATOM    110  H70 LEU d   1     -12.642 -15.863 119.287  0.00  0.00     0.028 H 
ATOM    111  H71 LEU d   1     -14.329 -15.588 118.735  0.00  0.00     0.028 H 
ATOM    112  H72 LEU d   1     -13.421 -17.029 118.165  0.00  0.00     0.028 H 
ENDBRANCH 103 109
ENDBRANCH 100 103
ENDBRANCH  95 100
ENDBRANCH  93  95
ENDBRANCH  89  91
BRANCH  89 113
ATOM    113  CB  GLU d   1     -18.771 -17.516 124.032  0.00  0.00    -0.029 C 
ATOM    114  H58 GLU d   1     -19.852 -17.598 123.846  0.00  0.00     0.037 H 
ATOM    115  H59 GLU d   1     -18.449 -16.476 123.873  0.00  0.00     0.037 H 
BRANCH 113 116
ATOM    116  CG  GLU d   1     -18.512 -17.875 125.478  0.00  0.00     0.018 C 
ATOM    117  H60 GLU d   1     -17.438 -17.762 125.685  0.00  0.00     0.049 H 
ATOM    118  H61 GLU d   1     -18.809 -18.921 125.642  0.00  0.00     0.049 H 
BRANCH 116 119
ATOM    119  CD  GLU d   1     -19.287 -16.993 126.430  0.00  0.00     0.172 C 
ATOM    120  OE1 GLU d   1     -19.886 -16.001 125.965  0.00  0.00    -0.648 OA
ATOM    121  OE2 GLU d   1     -19.301 -17.291 127.642  0.00  0.00    -0.648 OA
ENDBRANCH 116 119
ENDBRANCH 113 116
ENDBRANCH  89 113
ENDBRANCH  87  89
ENDBRANCH  83  85
BRANCH  83 122
ATOM    122  CB  ALA d   1     -17.929 -22.755 122.703  0.00  0.00    -0.049 C 
ATOM    123  H53 ALA d   1     -17.350 -22.299 123.519  0.00  0.00     0.030 H 
ATOM    124  H54 ALA d   1     -17.337 -22.733 121.776  0.00  0.00     0.030 H 
ATOM    125  H55 ALA d   1     -18.168 -23.797 122.961  0.00  0.00     0.030 H 
ENDBRANCH  83 122
ENDBRANCH  81  83
ENDBRANCH  77  79
BRANCH  77 126
ATOM    126  CB  GLU d   1     -22.010 -21.460 118.987  0.00  0.00    -0.029 C 
ATOM    127  H47 GLU d   1     -20.985 -21.183 118.700  0.00  0.00     0.037 H 
ATOM    128  H48 GLU d   1     -22.479 -20.622 119.524  0.00  0.00     0.037 H 
BRANCH 126 129
ATOM    129  CG  GLU d   1     -22.805 -21.706 117.713  0.00  0.00     0.018 C 
ATOM    130  H49 GLU d   1     -22.922 -20.748 117.185  0.00  0.00     0.049 H 
ATOM    131  H50 GLU d   1     -23.796 -22.096 117.990  0.00  0.00     0.049 H 
BRANCH 129 132
ATOM    132  CD  GLU d   1     -22.147 -22.692 116.776  0.00  0.00     0.172 C 
ATOM    133  OE1 GLU d   1     -22.026 -23.871 117.147  0.00  0.00    -0.648 OA
ATOM    134  OE2 GLU d   1     -21.758 -22.289 115.660  0.00  0.00    -0.648 OA
ENDBRANCH 129 132
ENDBRANCH 126 129
ENDBRANCH  77 126
ENDBRANCH  75  77
ENDBRANCH   1  73
BRANCH   1 135
ATOM    135  CB  GLU d   1     -25.143 -25.479 121.709  0.00  0.00    -0.029 C 
ATOM    136  H41 GLU d   1     -24.680 -24.794 122.435  0.00  0.00     0.037 H 
ATOM    137  H42 GLU d   1     -24.616 -26.444 121.728  0.00  0.00     0.037 H 
BRANCH 135 138
ATOM    138  CG  GLU d   1     -26.582 -25.712 122.122  0.00  0.00     0.018 C 
ATOM    139  H43 GLU d   1     -27.057 -26.379 121.387  0.00  0.00     0.049 H 
ATOM    140  H44 GLU d   1     -27.107 -24.745 122.133  0.00  0.00     0.049 H 
BRANCH 138 141
ATOM    141  CD  GLU d   1     -26.695 -26.341 123.492  0.00  0.00     0.172 C 
ATOM    142  OE1 GLU d   1     -25.655 -26.759 124.042  0.00  0.00    -0.648 OA
ATOM    143  OE2 GLU d   1     -27.824 -26.417 124.019  0.00  0.00    -0.648 OA
ENDBRANCH 138 141
ENDBRANCH 135 138
ENDBRANCH   1 135
TORSDOF 42
