REMARK WARNING: 32 MAX_TORS EXCEEDED!!!
REMARK  42 active torsions:
REMARK  status: ('A' for Active; 'I' for Inactive)
REMARK    1  A    between atoms: N_1  and  CA_2 
REMARK    2  A    between atoms: CA_2  and  C_3 
REMARK    3  A    between atoms: CA_2  and  CB_5 
REMARK       I    between atoms: C_3  and  N_9 
REMARK    4  A    between atoms: CB_5  and  CG1_6 
REMARK    5  A    between atoms: CB_5  and  CG2_7 
REMARK    6  A    between atoms: CG1_6  and  CD1_8 
REMARK    7  A    between atoms: CA_10  and  C_11 
REMARK       I    between atoms: C_11  and  N_16 
REMARK    8  A    between atoms: N_16  and  CA_17 
REMARK    9  A    between atoms: CA_17  and  C_18 
REMARK   10  A    between atoms: CA_17  and  CB_20 
REMARK       I    between atoms: C_18  and  N_24 
REMARK   11  A    between atoms: CB_20  and  CG_21 
REMARK   12  A    between atoms: CG_21  and  CD1_22 
REMARK   13  A    between atoms: CG_21  and  CD2_23 
REMARK   14  A    between atoms: N_24  and  CA_25 
REMARK   15  A    between atoms: CA_25  and  C_26 
REMARK   16  A    between atoms: CA_25  and  CB_28 
REMARK       I    between atoms: C_26  and  N_31 
REMARK   17  A    between atoms: CB_28  and  OG1_29 
REMARK   18  A    between atoms: CB_28  and  CG2_30 
REMARK   19  A    between atoms: N_31  and  CA_32 
REMARK   20  A    between atoms: CA_32  and  C_33 
REMARK   21  A    between atoms: CA_32  and  CB_35 
REMARK       I    between atoms: C_33  and  N_40 
REMARK   22  A    between atoms: CB_35  and  CG_36 
REMARK   23  A    between atoms: CG_36  and  CD_37 
REMARK   24  A    between atoms: N_40  and  CA_41 
REMARK   25  A    between atoms: CA_41  and  C_42 
REMARK   26  A    between atoms: CA_41  and  CB_44 
REMARK       I    between atoms: C_42  and  N_49 
REMARK   27  A    between atoms: CB_44  and  CG_45 
REMARK   28  A    between atoms: CG_45  and  CD_46 
REMARK   29  A    between atoms: N_49  and  CA_50 
REMARK   30  A    between atoms: CA_50  and  C_51 
REMARK   31  A    between atoms: CA_50  and  CB_53 
REMARK       I    between atoms: C_51  and  N_54 
REMARK   32  A    between atoms: N_54  and  CA_55 
REMARK   33  A    between atoms: CA_55  and  C_56 
REMARK   34  A    between atoms: CA_55  and  CB_58 
REMARK       I    between atoms: C_56  and  N_63 
REMARK   35  A    between atoms: CB_58  and  CG_59 
REMARK   36  A    between atoms: CG_59  and  CD_60 
REMARK   37  A    between atoms: N_63  and  CA_64 
REMARK   38  A    between atoms: CA_64  and  C_65 
REMARK   39  A    between atoms: CA_64  and  CB_67 
REMARK   40  A    between atoms: CB_67  and  CG_68 
REMARK   41  A    between atoms: CG_68  and  CD1_69 
REMARK   42  A    between atoms: CG_68  and  CD2_70 
ROOT
ATOM      1  CA  GLU d   1     -33.638  40.281 -12.224  0.00  0.00     0.090 C 
ATOM      2  H40 GLU d   1     -34.035  39.267 -12.378  0.00  0.00     0.087 H 
ENDROOT
BRANCH   1   3
ATOM      3  N   GLU d   1     -33.801  40.637 -10.824  0.00  0.00    -0.346 N 
ATOM      4  C   THR d   1     -34.848  40.211 -10.120  0.00  0.00     0.243 C 
ATOM      5  O   THR d   1     -35.660  39.398 -10.578  0.00  0.00    -0.271 OA
ATOM      6  H39 GLU d   1     -33.114  41.213 -10.381  0.00  0.00     0.163 HD
BRANCH   4   7
ATOM      7  CA  THR d   1     -35.021  40.735  -8.698  0.00  0.00     0.113 C 
ATOM      8  H33 THR d   1     -35.477  39.933  -8.099  0.00  0.00     0.091 H 
BRANCH   7   9
ATOM      9  N   THR d   1     -33.747  41.090  -8.078  0.00  0.00    -0.344 N 
ATOM     10  C   LEU d   1     -32.851  40.141  -7.796  0.00  0.00     0.241 C 
ATOM     11  O   LEU d   1     -32.937  38.985  -8.219  0.00  0.00    -0.271 OA
ATOM     12  H32 THR d   1     -33.545  42.046  -7.864  0.00  0.00     0.163 HD
BRANCH  10  13
ATOM     13  CA  LEU d   1     -31.702  40.555  -6.887  0.00  0.00     0.089 C 
ATOM     14  H22 LEU d   1     -31.924  41.544  -6.460  0.00  0.00     0.087 H 
BRANCH  13  15
ATOM     15  N   LEU d   1     -31.569  39.590  -5.806  0.00  0.00    -0.346 N 
ATOM     16  C   PRO d   1     -32.606  39.263  -5.038  0.00  0.00     0.241 C 
ATOM     17  O   PRO d   1     -33.676  39.875  -5.046  0.00  0.00    -0.271 OA
ATOM     18  H21 LEU d   1     -30.680  39.164  -5.637  0.00  0.00     0.163 HD
BRANCH  16  19
ATOM     19  CA  PRO d   1     -32.363  38.073  -4.118  0.00  0.00     0.091 C 
ATOM     20  N   PRO d   1     -33.431  37.946  -3.128  0.00  0.00    -0.337 N 
ATOM     21  C   ILE d   1     -33.411  38.672  -2.016  0.00  0.00     0.251 C 
ATOM     22  CD  PRO d   1     -34.423  36.928  -3.526  0.00  0.00    -0.001 C 
ATOM     23  O   ILE d   1     -32.505  39.469  -1.748  0.00  0.00    -0.271 OA
ATOM     24  CG  PRO d   1     -33.914  36.446  -4.864  0.00  0.00    -0.048 C 
ATOM     25  H19 PRO d   1     -35.425  37.372  -3.623  0.00  0.00     0.064 H 
ATOM     26  H20 PRO d   1     -34.456  36.104  -2.798  0.00  0.00     0.064 H 
ATOM     27  CB  PRO d   1     -32.456  36.756  -4.889  0.00  0.00    -0.036 C 
ATOM     28  H17 PRO d   1     -34.076  35.363  -4.966  0.00  0.00     0.035 H 
ATOM     29  H18 PRO d   1     -34.430  36.972  -5.681  0.00  0.00     0.035 H 
ATOM     30  H15 PRO d   1     -31.877  35.965  -4.390  0.00  0.00     0.036 H 
ATOM     31  H16 PRO d   1     -32.097  36.878  -5.921  0.00  0.00     0.036 H 
ATOM     32  H14 PRO d   1     -31.382  38.179  -3.631  0.00  0.00     0.087 H 
BRANCH  21  33
ATOM     33  CA  ILE d   1     -34.569  38.477  -1.056  0.00  0.00     0.179 C 
ATOM     34  H4  ILE d   1     -34.963  37.457  -1.179  0.00  0.00     0.099 H 
BRANCH  33  35
ATOM     35  N   ILE d   1     -34.081  38.622   0.315  0.00  0.00    -0.066 N 
ATOM     36  H1  ILE d   1     -33.344  37.955   0.482  0.00  0.00     0.275 HD
ATOM     37  H2  ILE d   1     -34.837  38.456   0.960  0.00  0.00     0.275 HD
ATOM     38  H3  ILE d   1     -33.725  39.556   0.448  0.00  0.00     0.275 HD
ENDBRANCH  33  35
BRANCH  33  39
ATOM     39  CB  ILE d   1     -35.698  39.469  -1.377  0.00  0.00    -0.022 C 
ATOM     40  H5  ILE d   1     -35.888  39.432  -2.460  0.00  0.00     0.043 H 
BRANCH  39  41
ATOM     41  CG1 ILE d   1     -35.265  40.892  -1.023  0.00  0.00    -0.063 C 
ATOM     42  H6  ILE d   1     -34.230  41.036  -1.367  0.00  0.00     0.033 H 
ATOM     43  H7  ILE d   1     -35.307  41.006   0.070  0.00  0.00     0.033 H 
BRANCH  41  44
ATOM     44  CD1 ILE d   1     -36.124  41.957  -1.645  0.00  0.00    -0.076 C 
ATOM     45  H11 ILE d   1     -35.753  42.948  -1.346  0.00  0.00     0.027 H 
ATOM     46  H12 ILE d   1     -37.163  41.836  -1.304  0.00  0.00     0.027 H 
ATOM     47  H13 ILE d   1     -36.085  41.866  -2.740  0.00  0.00     0.027 H 
ENDBRANCH  41  44
ENDBRANCH  39  41
BRANCH  39  48
ATOM     48  CG2 ILE d   1     -36.986  39.076  -0.664  0.00  0.00    -0.070 C 
ATOM     49  H8  ILE d   1     -37.262  38.049  -0.945  0.00  0.00     0.028 H 
ATOM     50  H9  ILE d   1     -37.792  39.765  -0.956  0.00  0.00     0.028 H 
ATOM     51  H10 ILE d   1     -36.834  39.130   0.424  0.00  0.00     0.028 H 
ENDBRANCH  39  48
ENDBRANCH  33  39
ENDBRANCH  21  33
ENDBRANCH  16  19
ENDBRANCH  13  15
BRANCH  13  52
ATOM     52  CB  LEU d   1     -30.395  40.639  -7.673  0.00  0.00    -0.035 C 
ATOM     53  H23 LEU d   1     -30.233  39.660  -8.147  0.00  0.00     0.037 H 
ATOM     54  H24 LEU d   1     -29.589  40.835  -6.951  0.00  0.00     0.037 H 
BRANCH  52  55
ATOM     55  CG  LEU d   1     -30.294  41.700  -8.770  0.00  0.00    -0.059 C 
ATOM     56  H25 LEU d   1     -31.121  41.545  -9.478  0.00  0.00     0.038 H 
BRANCH  55  57
ATOM     57  CD1 LEU d   1     -30.428  43.105  -8.188  0.00  0.00    -0.073 C 
ATOM     58  H26 LEU d   1     -30.352  43.846  -8.997  0.00  0.00     0.028 H 
ATOM     59  H27 LEU d   1     -29.625  43.277  -7.457  0.00  0.00     0.028 H 
ATOM     60  H28 LEU d   1     -31.404  43.204  -7.691  0.00  0.00     0.028 H 
ENDBRANCH  55  57
BRANCH  55  61
ATOM     61  CD2 LEU d   1     -28.985  41.539  -9.525  0.00  0.00    -0.073 C 
ATOM     62  H29 LEU d   1     -28.919  40.519  -9.931  0.00  0.00     0.028 H 
ATOM     63  H30 LEU d   1     -28.143  41.716  -8.840  0.00  0.00     0.028 H 
ATOM     64  H31 LEU d   1     -28.946  42.265 -10.350  0.00  0.00     0.028 H 
ENDBRANCH  55  61
ENDBRANCH  52  55
ENDBRANCH  13  52
ENDBRANCH  10  13
ENDBRANCH   7   9
BRANCH   7  65
ATOM     65  CB  THR d   1     -35.961  41.942  -8.677  0.00  0.00     0.060 C 
ATOM     66  H34 THR d   1     -35.578  42.711  -9.365  0.00  0.00     0.086 H 
BRANCH  65  67
ATOM     67  OG1 THR d   1     -36.016  42.470  -7.347  0.00  0.00    -0.393 OA
ATOM     68  H35 THR d   1     -36.340  41.801  -6.755  0.00  0.00     0.210 HD
ENDBRANCH  65  67
BRANCH  65  69
ATOM     69  CG2 THR d   1     -37.369  41.542  -9.102  0.00  0.00    -0.050 C 
ATOM     70  H36 THR d   1     -38.024  42.425  -9.079  0.00  0.00     0.031 H 
ATOM     71  H37 THR d   1     -37.758  40.779  -8.411  0.00  0.00     0.031 H 
ATOM     72  H38 THR d   1     -37.342  41.133 -10.123  0.00  0.00     0.031 H 
ENDBRANCH  65  69
ENDBRANCH   7  65
ENDBRANCH   4   7
ENDBRANCH   1   3
BRANCH   1  73
ATOM     73  C   GLU d   1     -32.164  40.290 -12.599  0.00  0.00     0.241 C 
ATOM     74  O   GLU d   1     -31.421  41.179 -12.182  0.00  0.00    -0.271 OA
ATOM     75  N   GLU d   1     -31.766  39.323 -13.424  0.00  0.00    -0.346 N 
ATOM     76  H45 GLU d   1     -32.462  38.724 -13.820  0.00  0.00     0.163 HD
BRANCH  75  77
ATOM     77  CA  GLU d   1     -30.374  39.091 -13.780  0.00  0.00     0.090 C 
ATOM     78  H46 GLU d   1     -29.743  39.690 -13.107  0.00  0.00     0.087 H 
BRANCH  77  79
ATOM     79  C   GLU d   1     -30.084  39.509 -15.215  0.00  0.00     0.241 C 
ATOM     80  O   GLU d   1     -30.864  39.224 -16.133  0.00  0.00    -0.271 OA
ATOM     81  N   ALA d   1     -28.937  40.155 -15.402  0.00  0.00    -0.346 N 
ATOM     82  H51 ALA d   1     -28.415  40.448 -14.601  0.00  0.00     0.163 HD
BRANCH  81  83
ATOM     83  CA  ALA d   1     -28.411  40.452 -16.724  0.00  0.00     0.086 C 
ATOM     84  H52 ALA d   1     -29.255  40.599 -17.413  0.00  0.00     0.086 H 
BRANCH  83  85
ATOM     85  C   ALA d   1     -27.563  39.290 -17.228  0.00  0.00     0.240 C 
ATOM     86  O   ALA d   1     -26.921  38.582 -16.449  0.00  0.00    -0.271 OA
ATOM     87  N   GLU d   1     -27.581  39.088 -18.542  0.00  0.00    -0.346 N 
ATOM     88  H56 GLU d   1     -28.228  39.593 -19.113  0.00  0.00     0.163 HD
BRANCH  87  89
ATOM     89  CA  GLU d   1     -26.665  38.137 -19.155  0.00  0.00     0.090 C 
ATOM     90  H57 GLU d   1     -26.759  37.171 -18.637  0.00  0.00     0.087 H 
BRANCH  89  91
ATOM     91  C   GLU d   1     -25.235  38.637 -19.021  0.00  0.00     0.241 C 
ATOM     92  O   GLU d   1     -24.968  39.835 -19.142  0.00  0.00    -0.271 OA
ATOM     93  N   LEU d   1     -24.314  37.717 -18.770  0.00  0.00    -0.345 N 
ATOM     94  H62 LEU d   1     -24.594  36.780 -18.561  0.00  0.00     0.163 HD
BRANCH  93  95
ATOM     95  CA  LEU d   1     -22.897  38.058 -18.796  0.00  0.00     0.096 C 
ATOM     96  H63 LEU d   1     -22.747  38.992 -18.234  0.00  0.00     0.089 H 
BRANCH  95  97
ATOM     97  C   LEU d   1     -22.468  38.277 -20.245  0.00  0.00     0.196 C 
ATOM     98  O   LEU d   1     -21.388  38.796 -20.531  0.00  0.00    -0.646 OA
ATOM     99  OXT LEU d   1     -23.210  37.930 -21.170  0.00  0.00    -0.646 OA
ENDBRANCH  95  97
BRANCH  95 100
ATOM    100  CB  LEU d   1     -22.049  36.961 -18.149  0.00  0.00    -0.034 C 
ATOM    101  H64 LEU d   1     -21.025  37.073 -18.536  0.00  0.00     0.037 H 
ATOM    102  H65 LEU d   1     -22.462  35.996 -18.478  0.00  0.00     0.037 H 
BRANCH 100 103
ATOM    103  CG  LEU d   1     -21.950  36.911 -16.622  0.00  0.00    -0.059 C 
ATOM    104  H66 LEU d   1     -21.687  37.917 -16.262  0.00  0.00     0.038 H 
BRANCH 103 105
ATOM    105  CD1 LEU d   1     -23.275  36.516 -15.989  0.00  0.00    -0.073 C 
ATOM    106  H67 LEU d   1     -23.166  36.491 -14.895  0.00  0.00     0.028 H 
ATOM    107  H68 LEU d   1     -23.572  35.521 -16.351  0.00  0.00     0.028 H 
ATOM    108  H69 LEU d   1     -24.046  37.251 -16.263  0.00  0.00     0.028 H 
ENDBRANCH 103 105
BRANCH 103 109
ATOM    109  CD2 LEU d   1     -20.850  35.952 -16.206  0.00  0.00    -0.073 C 
ATOM    110  H70 LEU d   1     -19.902  36.256 -16.674  0.00  0.00     0.028 H 
ATOM    111  H71 LEU d   1     -21.109  34.934 -16.530  0.00  0.00     0.028 H 
ATOM    112  H72 LEU d   1     -20.741  35.972 -15.112  0.00  0.00     0.028 H 
ENDBRANCH 103 109
ENDBRANCH 100 103
ENDBRANCH  95 100
ENDBRANCH  93  95
ENDBRANCH  89  91
BRANCH  89 113
ATOM    113  CB  GLU d   1     -26.992  37.939 -20.636  0.00  0.00    -0.029 C 
ATOM    114  H58 GLU d   1     -26.168  37.370 -21.092  0.00  0.00     0.037 H 
ATOM    115  H59 GLU d   1     -27.056  38.932 -21.105  0.00  0.00     0.037 H 
BRANCH 113 116
ATOM    116  CG  GLU d   1     -28.281  37.204 -20.926  0.00  0.00     0.018 C 
ATOM    117  H60 GLU d   1     -29.125  37.812 -20.569  0.00  0.00     0.049 H 
ATOM    118  H61 GLU d   1     -28.270  36.243 -20.392  0.00  0.00     0.049 H 
BRANCH 116 119
ATOM    119  CD  GLU d   1     -28.462  36.938 -22.411  0.00  0.00     0.172 C 
ATOM    120  OE1 GLU d   1     -27.516  37.203 -23.189  0.00  0.00    -0.648 OA
ATOM    121  OE2 GLU d   1     -29.550  36.462 -22.801  0.00  0.00    -0.648 OA
ENDBRANCH 116 119
ENDBRANCH 113 116
ENDBRANCH  89 113
ENDBRANCH  87  89
ENDBRANCH  83  85
BRANCH  83 122
ATOM    122  CB  ALA d   1     -27.573  41.731 -16.694  0.00  0.00    -0.049 C 
ATOM    123  H53 ALA d   1     -27.184  41.938 -17.702  0.00  0.00     0.030 H 
ATOM    124  H54 ALA d   1     -26.732  41.602 -15.996  0.00  0.00     0.030 H 
ATOM    125  H55 ALA d   1     -28.199  42.572 -16.362  0.00  0.00     0.030 H 
ENDBRANCH  83 122
ENDBRANCH  81  83
ENDBRANCH  77  79
BRANCH  77 126
ATOM    126  CB  GLU d   1     -30.008  37.613 -13.612  0.00  0.00    -0.029 C 
ATOM    127  H47 GLU d   1     -29.038  37.440 -14.101  0.00  0.00     0.037 H 
ATOM    128  H48 GLU d   1     -30.782  37.007 -14.107  0.00  0.00     0.037 H 
BRANCH 126 129
ATOM    129  CG  GLU d   1     -29.901  37.163 -12.177  0.00  0.00     0.018 C 
ATOM    130  H49 GLU d   1     -29.736  36.076 -12.160  0.00  0.00     0.049 H 
ATOM    131  H50 GLU d   1     -30.844  37.399 -11.662  0.00  0.00     0.049 H 
BRANCH 129 132
ATOM    132  CD  GLU d   1     -28.768  37.836 -11.442  0.00  0.00     0.172 C 
ATOM    133  OE1 GLU d   1     -27.788  38.246 -12.101  0.00  0.00    -0.648 OA
ATOM    134  OE2 GLU d   1     -28.859  37.961 -10.203  0.00  0.00    -0.648 OA
ENDBRANCH 129 132
ENDBRANCH 126 129
ENDBRANCH  77 126
ENDBRANCH  75  77
ENDBRANCH   1  73
BRANCH   1 135
ATOM    135  CB  GLU d   1     -34.412  41.250 -13.117  0.00  0.00    -0.029 C 
ATOM    136  H41 GLU d   1     -34.050  42.269 -12.914  0.00  0.00     0.037 H 
ATOM    137  H42 GLU d   1     -35.478  41.181 -12.856  0.00  0.00     0.037 H 
BRANCH 135 138
ATOM    138  CG  GLU d   1     -34.270  40.985 -14.594  0.00  0.00     0.018 C 
ATOM    139  H43 GLU d   1     -34.454  39.917 -14.785  0.00  0.00     0.049 H 
ATOM    140  H44 GLU d   1     -33.247  41.242 -14.906  0.00  0.00     0.049 H 
BRANCH 138 141
ATOM    141  CD  GLU d   1     -35.248  41.802 -15.400  0.00  0.00     0.172 C 
ATOM    142  OE1 GLU d   1     -34.876  42.911 -15.841  0.00  0.00    -0.648 OA
ATOM    143  OE2 GLU d   1     -36.399  41.343 -15.561  0.00  0.00    -0.648 OA
ENDBRANCH 138 141
ENDBRANCH 135 138
ENDBRANCH   1 135
TORSDOF 42
