REMARK  11 active torsions:
REMARK  status: ('A' for Active; 'I' for Inactive)
REMARK    1  A    between atoms: C1_1  and  C2_2 
REMARK       I    between atoms: N2_24  and  C1_1 
REMARK       I    between atoms: N_20  and  C3_3 
REMARK    2  A    between atoms: C3_3  and  O_21 
REMARK    3  A    between atoms: C_22  and  C5_5 
REMARK    4  A    between atoms: C_22  and  C6_6 
REMARK    5  A    between atoms: C_22  and  C7_8 
REMARK    6  A    between atoms: C15_12  and  C16_13 
REMARK    7  A    between atoms: C15_12  and  C21_18 
REMARK    8  A    between atoms: N3_29  and  C15_12 
REMARK    9  A    between atoms: O_21  and  C_22 
REMARK   10  A    between atoms: CB_28  and  CG_27 
REMARK   11  A    between atoms: CG_27  and  CD2_31 
REMARK       I    between atoms: CB_28  and  N3_29 
ROOT
ATOM      1  C1  DUY d   1     -14.806  37.309  -8.753  0.00  0.00     0.242 C 
ATOM      2  OH  DUY d   1     -15.534  38.170  -9.252  0.00  0.00    -0.271 OA
ATOM      3  N2  DUY d   1     -14.615  37.310  -7.363  0.00  0.00    -0.350 N 
ATOM      4  CE1 DUY d   1     -14.960  38.498  -6.594  0.00  0.00    -0.001 C 
ATOM      5  CD1 DUY d   1     -15.464  38.164  -5.217  0.00  0.00    -0.031 C 
ATOM      6  CG  DUY d   1     -14.496  37.291  -4.423  0.00  0.00     0.071 C 
ATOM      7  C28 DUY d   1     -14.105  36.148  -5.431  0.00  0.00    -0.031 C 
ATOM      8  C29 DUY d   1     -13.537  36.605  -6.792  0.00  0.00    -0.001 C 
ATOM      9  H27 DUY d   1     -15.743  39.052  -7.132  0.00  0.00     0.064 H 
ATOM     10  H28 DUY d   1     -14.064  39.129  -6.499  0.00  0.00     0.064 H 
ATOM     11  H29 DUY d   1     -16.420  37.629  -5.314  0.00  0.00     0.037 H 
ATOM     12  H30 DUY d   1     -15.623  39.102  -4.665  0.00  0.00     0.037 H 
ATOM     13  H36 DUY d   1     -15.007  35.550  -5.628  0.00  0.00     0.037 H 
ATOM     14  H37 DUY d   1     -13.346  35.517  -4.945  0.00  0.00     0.037 H 
ATOM     15  H38 DUY d   1     -12.664  37.260  -6.656  0.00  0.00     0.064 H 
ATOM     16  H39 DUY d   1     -13.255  35.742  -7.413  0.00  0.00     0.064 H 
ENDROOT
BRANCH   6  17
ATOM     17  CB  DUY d   1     -13.371  38.242  -4.112  0.00  0.00     0.232 C 
ATOM     18  O6  DUY d   1     -13.371  39.421  -3.749  0.00  0.00    -0.272 OA
ATOM     19  N3  DUY d   1     -12.069  38.055  -3.889  0.00  0.00    -0.345 N 
ATOM     20  H31 DUY d   1     -11.756  38.987  -4.069  0.00  0.00     0.163 HD
BRANCH  19  21
ATOM     21  C15 DUY d   1     -10.842  37.487  -3.585  0.00  0.00     0.099 C 
ATOM     22  H17 DUY d   1     -11.029  36.404  -3.619  0.00  0.00     0.090 H 
BRANCH  21  23
ATOM     23  C16 DUY d   1     -10.398  37.761  -2.150  0.00  0.00    -0.025 C 
ATOM     24  C17 DUY d   1     -11.433  38.058  -1.012  0.00  0.00    -0.059 C 
ATOM     25  C18 DUY d   1     -11.983  36.703  -0.567  0.00  0.00    -0.065 C 
ATOM     26  H19 DUY d   1     -12.247  38.693  -1.393  0.00  0.00     0.033 H 
ATOM     27  H20 DUY d   1     -10.938  38.563  -0.170  0.00  0.00     0.033 H 
ATOM     28  C19 DUY d   1     -10.834  35.738  -0.835  0.00  0.00    -0.065 C 
ATOM     29  H21 DUY d   1     -12.871  36.428  -1.155  0.00  0.00     0.033 H 
ATOM     30  H22 DUY d   1     -12.242  36.717   0.502  0.00  0.00     0.033 H 
ATOM     31  C20 DUY d   1      -9.787  36.506  -1.643  0.00  0.00    -0.059 C 
ATOM     32  H23 DUY d   1     -11.194  34.872  -1.409  0.00  0.00     0.033 H 
ATOM     33  H24 DUY d   1     -10.400  35.393   0.115  0.00  0.00     0.033 H 
ATOM     34  H25 DUY d   1      -8.928  36.747  -1.000  0.00  0.00     0.033 H 
ATOM     35  H26 DUY d   1      -9.450  35.891  -2.490  0.00  0.00     0.033 H 
ATOM     36  H18 DUY d   1      -9.669  38.584  -2.183  0.00  0.00     0.043 H 
ENDBRANCH  21  23
BRANCH  21  37
ATOM     37  C21 DUY d   1      -9.761  37.704  -4.588  0.00  0.00     0.197 C 
ATOM     38  O4  DUY d   1      -8.797  38.491  -4.333  0.00  0.00    -0.646 OA
ATOM     39  O5  DUY d   1      -9.947  36.851  -5.475  0.00  0.00    -0.646 OA
ENDBRANCH  21  37
ENDBRANCH  19  21
ENDBRANCH   6  17
BRANCH   6  40
ATOM     40  CD2 DUY d   1     -15.022  36.890  -3.036  0.00  0.00    -0.040 A 
ATOM     41  CE2 DUY d   1     -15.283  35.553  -2.698  0.00  0.00    -0.074 A 
ATOM     42  C24 DUY d   1     -15.655  35.211  -1.418  0.00  0.00    -0.066 A 
ATOM     43  H32 DUY d   1     -15.191  34.781  -3.454  0.00  0.00     0.084 H 
ATOM     44  C25 DUY d   1     -15.855  36.260  -0.519  0.00  0.00     0.011 A 
ATOM     45  H33 DUY d   1     -15.786  34.176  -1.122  0.00  0.00     0.085 H 
ATOM     46 BR1  DUY d   1     -16.458  35.900   1.310  0.00  0.00    -0.051 Br
ATOM     47  C26 DUY d   1     -15.666  37.593  -0.774  0.00  0.00    -0.066 A 
ATOM     48  C27 DUY d   1     -15.253  37.864  -2.081  0.00  0.00    -0.074 A 
ATOM     49  H34 DUY d   1     -15.822  38.366  -0.030  0.00  0.00     0.085 H 
ATOM     50  H35 DUY d   1     -15.105  38.900  -2.364  0.00  0.00     0.084 H 
ENDBRANCH   6  40
BRANCH   1  51
ATOM     51  C2  DUY d   1     -14.185  36.116  -9.520  0.00  0.00     0.094 C 
ATOM     52  C10 DUY d   1     -12.785  36.293 -10.107  0.00  0.00    -0.036 C 
ATOM     53  C9  DUY d   1     -13.012  36.828 -11.520  0.00  0.00    -0.048 C 
ATOM     54  H15 DUY d   1     -12.255  35.330 -10.139  0.00  0.00     0.036 H 
ATOM     55  H16 DUY d   1     -12.204  37.012  -9.511  0.00  0.00     0.036 H 
ATOM     56  C8  DUY d   1     -14.430  36.357 -11.816  0.00  0.00     0.001 C 
ATOM     57  H13 DUY d   1     -12.942  37.925 -11.547  0.00  0.00     0.035 H 
ATOM     58  H14 DUY d   1     -12.292  36.397 -12.231  0.00  0.00     0.035 H 
ATOM     59  N   DUY d   1     -15.094  35.971 -10.617  0.00  0.00    -0.315 N 
ATOM     60  H11 DUY d   1     -14.389  35.496 -12.499  0.00  0.00     0.064 H 
ATOM     61  H12 DUY d   1     -14.990  37.176 -12.291  0.00  0.00     0.064 H 
ATOM     62  C3  DUY d   1     -16.420  35.511 -10.530  0.00  0.00     0.364 C 
ATOM     63  O3  DUY d   1     -17.151  35.421 -11.504  0.00  0.00    -0.238 OA
ATOM     64  H1  DUY d   1     -14.181  35.226  -8.874  0.00  0.00     0.088 H 
BRANCH  62  65
ATOM     65  O   DUY d   1     -16.868  35.181  -9.273  0.00  0.00    -0.294 OA
BRANCH  65  66
ATOM     66  C   DUY d   1     -18.101  35.310  -8.919  0.00  0.00     0.061 C 
BRANCH  66  67
ATOM     67  C5  DUY d   1     -18.259  35.166  -7.407  0.00  0.00    -0.048 C 
ATOM     68  H2  DUY d   1     -19.319  35.281  -7.137  0.00  0.00     0.031 H 
ATOM     69  H3  DUY d   1     -17.666  35.942  -6.901  0.00  0.00     0.031 H 
ATOM     70  H4  DUY d   1     -17.906  34.172  -7.095  0.00  0.00     0.031 H 
ENDBRANCH  66  67
BRANCH  66  71
ATOM     71  C6  DUY d   1     -18.936  34.153  -9.449  0.00  0.00    -0.048 C 
ATOM     72  H5  DUY d   1     -18.901  34.149 -10.548  0.00  0.00     0.031 H 
ATOM     73  H6  DUY d   1     -19.978  34.270  -9.116  0.00  0.00     0.031 H 
ATOM     74  H7  DUY d   1     -18.532  33.204  -9.066  0.00  0.00     0.031 H 
ENDBRANCH  66  71
BRANCH  66  75
ATOM     75  C7  DUY d   1     -18.793  36.594  -9.370  0.00  0.00    -0.048 C 
ATOM     76  H8  DUY d   1     -18.224  37.463  -9.009  0.00  0.00     0.031 H 
ATOM     77  H9  DUY d   1     -19.812  36.626  -8.957  0.00  0.00     0.031 H 
ATOM     78  H10 DUY d   1     -18.842  36.618 -10.469  0.00  0.00     0.031 H 
ENDBRANCH  66  75
ENDBRANCH  65  66
ENDBRANCH  62  65
ENDBRANCH   1  51
TORSDOF 11
