REMARK  9 active torsions:
REMARK  status: ('A' for Active; 'I' for Inactive)
REMARK    1  A    between atoms: N10_13  and  C11_3 
REMARK    2  A    between atoms: C8_5  and  N10_13 
REMARK    3  A    between atoms: C13_7  and  C19_18 
REMARK    4  A    between atoms: N2_8  and  C1_10 
REMARK    5  A    between atoms: C23_22  and  N28_27 
REMARK    6  A    between atoms: C24_23  and  C25_24 
REMARK    7  A    between atoms: C25_24  and  C26_25 
REMARK    8  A    between atoms: C26_25  and  O27_26 
REMARK       I    between atoms: N28_27  and  C29_28 
REMARK    9  A    between atoms: C29_28  and  C31_30 
ROOT
ATOM      1  C19 DVJ d   1      38.183  28.023  11.373  0.00  0.00     0.003 A 
ATOM      2  C20 DVJ d   1      39.213  27.927  12.309  0.00  0.00    -0.070 A 
ATOM      3  C21 DVJ d   1      40.504  27.654  11.897  0.00  0.00    -0.080 A 
ATOM      4  C22 DVJ d   1      40.791  27.474  10.556  0.00  0.00    -0.057 A 
ATOM      5  C23 DVJ d   1      39.774  27.562   9.616  0.00  0.00     0.042 A 
ATOM      6  C24 DVJ d   1      38.476  27.830  10.021  0.00  0.00    -0.017 A 
ATOM      7  H13 DVJ d   1      39.000  28.067  13.363  0.00  0.00     0.084 H 
ATOM      8  H14 DVJ d   1      41.298  27.580  12.631  0.00  0.00     0.083 H 
ATOM      9  H15 DVJ d   1      41.807  27.265  10.240  0.00  0.00     0.086 H 
ENDROOT
BRANCH   1  10
ATOM     10  C13 DVJ d   1      36.793  28.309  11.829  0.00  0.00     0.090 A 
ATOM     11  C12 DVJ d   1      36.292  27.698  13.005  0.00  0.00    -0.021 A 
ATOM     12  C11 DVJ d   1      35.012  27.960  13.420  0.00  0.00     0.106 A 
ATOM     13  H4  DVJ d   1      36.923  27.021  13.579  0.00  0.00     0.091 H 
ATOM     14  C17 DVJ d   1      34.213  28.839  12.650  0.00  0.00     0.288 A 
ATOM     15  N15 DVJ d   1      34.720  29.404  11.539  0.00  0.00    -0.241 N 
ATOM     16  O18 DVJ d   1      33.067  29.087  12.995  0.00  0.00    -0.264 OA
ATOM     17  N14 DVJ d   1      36.030  29.125  11.139  0.00  0.00    -0.171 NA
ATOM     18  H12 DVJ d   1      34.157  30.027  10.996  0.00  0.00     0.192 HD
BRANCH  12  19
ATOM     19  N10 DVJ d   1      34.443  27.396  14.564  0.00  0.00    -0.335 N 
ATOM     20  H11 DVJ d   1      33.414  27.355  14.601  0.00  0.00     0.168 HD
BRANCH  19  21
ATOM     21  C8  DVJ d   1      35.139  26.880  15.667  0.00  0.00     0.150 A 
ATOM     22  C7  DVJ d   1      34.563  26.696  16.937  0.00  0.00    -0.012 A 
ATOM     23  C6  DVJ d   1      35.494  26.178  17.752  0.00  0.00     0.060 A 
ATOM     24  H3  DVJ d   1      33.536  26.934  17.212  0.00  0.00     0.092 H 
ATOM     25  N5  DVJ d   1      36.629  26.028  17.032  0.00  0.00    -0.269 N 
ATOM     26  C40 DVJ d   1      35.359  25.812  19.211  0.00  0.00     0.122 C 
ATOM     27  C4  DVJ d   1      37.862  25.488  17.609  0.00  0.00     0.040 C 
ATOM     28  N9  DVJ d   1      36.387  26.471  15.731  0.00  0.00    -0.154 NA
ATOM     29  C3  DVJ d   1      37.808  25.782  19.113  0.00  0.00     0.100 C 
ATOM     30  H1  DVJ d   1      37.918  24.403  17.436  0.00  0.00     0.070 H 
ATOM     31  H2  DVJ d   1      38.738  25.977  17.158  0.00  0.00     0.070 H 
ATOM     32  N2  DVJ d   1      36.602  25.180  19.703  0.00  0.00    -0.068 N 
ATOM     33  H6  DVJ d   1      37.785  26.870  19.270  0.00  0.00     0.078 H 
ATOM     34  H7  DVJ d   1      38.700  25.360  19.599  0.00  0.00     0.078 H 
ATOM     35  H5  DVJ d   1      36.580  24.210  19.430  0.00  0.00     0.279 HD
ATOM     36  H27 DVJ d   1      34.523  25.108  19.332  0.00  0.00     0.085 H 
ATOM     37  H28 DVJ d   1      35.160  26.722  19.796  0.00  0.00     0.085 H 
BRANCH  32  38
ATOM     38  C1  DVJ d   1      36.664  25.237  21.172  0.00  0.00     0.067 C 
ATOM     39  H8  DVJ d   1      35.756  24.783  21.595  0.00  0.00     0.068 H 
ATOM     40  H9  DVJ d   1      36.735  26.286  21.496  0.00  0.00     0.068 H 
ATOM     41  H10 DVJ d   1      37.548  24.684  21.523  0.00  0.00     0.068 H 
ENDBRANCH  32  38
ENDBRANCH  19  21
ENDBRANCH  12  19
ENDBRANCH   1  10
BRANCH   6  42
ATOM     42  C25 DVJ d   1      37.411  27.927   8.962  0.00  0.00    -0.018 C 
ATOM     43  H16 DVJ d   1      36.421  27.749   9.407  0.00  0.00     0.043 H 
ATOM     44  H17 DVJ d   1      37.597  27.184   8.173  0.00  0.00     0.043 H 
BRANCH  42  45
ATOM     45  C26 DVJ d   1      37.475  29.341   8.375  0.00  0.00     0.021 C 
ATOM     46  H18 DVJ d   1      38.503  29.554   8.048  0.00  0.00     0.074 H 
ATOM     47  H19 DVJ d   1      37.176  30.069   9.143  0.00  0.00     0.074 H 
BRANCH  45  48
ATOM     48  O27 DVJ d   1      36.590  29.442   7.256  0.00  0.00    -0.401 OA
ATOM     49  H20 DVJ d   1      36.634  30.320   6.897  0.00  0.00     0.209 HD
ENDBRANCH  45  48
ENDBRANCH  42  45
ENDBRANCH   6  42
BRANCH   5  50
ATOM     50  N28 DVJ d   1      40.036  27.379   8.253  0.00  0.00    -0.322 N 
ATOM     51  C29 DVJ d   1      40.689  28.302   7.519  0.00  0.00     0.263 C 
ATOM     52  O30 DVJ d   1      41.077  29.334   8.035  0.00  0.00    -0.267 OA
ATOM     53  H21 DVJ d   1      39.729  26.537   7.810  0.00  0.00     0.169 HD
BRANCH  51  54
ATOM     54  C31 DVJ d   1      40.930  28.047   6.090  0.00  0.00     0.074 A 
ATOM     55  C32 DVJ d   1      40.530  26.950   5.440  0.00  0.00    -0.050 A 
ATOM     56  C33 DVJ d   1      40.861  26.892   4.076  0.00  0.00    -0.018 A 
ATOM     57  H22 DVJ d   1      39.982  26.151   5.937  0.00  0.00     0.087 H 
ATOM     58  C34 DVJ d   1      40.576  25.873   3.134  0.00  0.00    -0.072 A 
ATOM     59  C38 DVJ d   1      41.567  28.022   3.646  0.00  0.00     0.016 A 
ATOM     60  C35 DVJ d   1      40.981  25.994   1.841  0.00  0.00    -0.082 A 
ATOM     61  H23 DVJ d   1      40.031  24.990   3.446  0.00  0.00     0.084 H 
ATOM     62  C36 DVJ d   1      41.682  27.118   1.419  0.00  0.00    -0.082 A 
ATOM     63  H24 DVJ d   1      40.755  25.206   1.132  0.00  0.00     0.083 H 
ATOM     64  C37 DVJ d   1      41.974  28.124   2.309  0.00  0.00    -0.066 A 
ATOM     65  H25 DVJ d   1      41.999  27.201   0.386  0.00  0.00     0.083 H 
ATOM     66  H26 DVJ d   1      42.521  28.999   1.976  0.00  0.00     0.085 H 
ATOM     67  S39 DVJ d   1      41.785  29.123   5.001  0.00  0.00    -0.084 SA
ENDBRANCH  51  54
ENDBRANCH   5  50
TORSDOF 9
