REMARK  8 active torsions:
REMARK  status: ('A' for Active; 'I' for Inactive)
REMARK    1  A    between atoms: C11_3  and  N10_29 
REMARK    2  A    between atoms: N10_29  and  C8_5 
REMARK    3  A    between atoms: C19_12  and  C13_7 
REMARK    4  A    between atoms: N2_8  and  C1_10 
REMARK    5  A    between atoms: N27_32  and  C23_16 
REMARK    6  A    between atoms: C24_17  and  C25_18 
REMARK    7  A    between atoms: C25_18  and  O26_36 
REMARK    8  A    between atoms: C28_19  and  C30_20 
REMARK       I    between atoms: C28_19  and  N27_32 
ROOT
ATOM      1  C11 DVD d   1      95.812 110.193 -13.827  0.00  0.00     0.106 A 
ATOM      2  C12 DVD d   1      96.291 111.447 -13.484  0.00  0.00    -0.021 A 
ATOM      3  C13 DVD d   1      97.036 111.531 -12.275  0.00  0.00     0.090 A 
ATOM      4  C17 DVD d   1      96.065 109.076 -13.011  0.00  0.00     0.288 A 
ATOM      5  N14 DVD d   1      97.258 110.466 -11.530  0.00  0.00    -0.171 NA
ATOM      6  N15 DVD d   1      96.769 109.226 -11.888  0.00  0.00    -0.241 N 
ATOM      7  O18 DVD d   1      95.639 107.948 -13.324  0.00  0.00    -0.264 OA
ATOM      8  H4  DVD d   1      96.107 112.321 -14.107  0.00  0.00     0.091 H 
ATOM      9  H24 DVD d   1      96.944 108.435 -11.302  0.00  0.00     0.192 HD
ENDROOT
BRANCH   3  10
ATOM     10  C19 DVD d   1      97.625 112.791 -11.783  0.00  0.00     0.005 A 
ATOM     11  C20 DVD d   1      98.377 113.564 -12.664  0.00  0.00    -0.070 A 
ATOM     12  C21 DVD d   1      98.939 114.748 -12.241  0.00  0.00    -0.080 A 
ATOM     13  H11 DVD d   1      98.520 113.233 -13.686  0.00  0.00     0.084 H 
ATOM     14  C22 DVD d   1      98.761 115.136 -10.928  0.00  0.00    -0.057 A 
ATOM     15  H12 DVD d   1      99.510 115.364 -12.926  0.00  0.00     0.083 H 
ATOM     16  C23 DVD d   1      98.029 114.378 -10.024  0.00  0.00     0.044 A 
ATOM     17  H13 DVD d   1      99.208 116.064 -10.591  0.00  0.00     0.086 H 
ATOM     18  C24 DVD d   1      97.448 113.178 -10.438  0.00  0.00     0.005 A 
BRANCH  16  19
ATOM     19  N27 DVD d   1      97.836 114.795  -8.692  0.00  0.00    -0.322 N 
ATOM     20  C28 DVD d   1      98.816 114.770  -7.757  0.00  0.00     0.263 C 
ATOM     21  O29 DVD d   1      99.941 114.363  -8.045  0.00  0.00    -0.267 OA
ATOM     22  H25 DVD d   1      96.931 115.126  -8.424  0.00  0.00     0.169 HD
BRANCH  20  23
ATOM     23  C30 DVD d   1      98.585 115.181  -6.364  0.00  0.00     0.074 A 
ATOM     24  C31 DVD d   1      97.416 115.486  -5.735  0.00  0.00    -0.050 A 
ATOM     25  C32 DVD d   1      97.569 115.807  -4.363  0.00  0.00    -0.018 A 
ATOM     26  H16 DVD d   1      96.451 115.483  -6.240  0.00  0.00     0.087 H 
ATOM     27  C33 DVD d   1      96.602 116.187  -3.412  0.00  0.00    -0.072 A 
ATOM     28  C37 DVD d   1      98.904 115.718  -3.909  0.00  0.00     0.016 A 
ATOM     29  C34 DVD d   1      96.955 116.460  -2.126  0.00  0.00    -0.082 A 
ATOM     30  H17 DVD d   1      95.562 116.263  -3.708  0.00  0.00     0.084 H 
ATOM     31  C35 DVD d   1      98.272 116.371  -1.705  0.00  0.00    -0.082 A 
ATOM     32  H18 DVD d   1      96.190 116.753  -1.417  0.00  0.00     0.083 H 
ATOM     33  C36 DVD d   1      99.252 115.999  -2.594  0.00  0.00    -0.066 A 
ATOM     34  H19 DVD d   1      98.529 116.594  -0.676  0.00  0.00     0.083 H 
ATOM     35  H20 DVD d   1     100.285 115.926  -2.273  0.00  0.00     0.085 H 
ATOM     36  S38 DVD d   1      99.936 115.232  -5.236  0.00  0.00    -0.084 SA
ENDBRANCH  20  23
ENDBRANCH  16  19
BRANCH  18  37
ATOM     37  C25 DVD d   1      96.591 112.372  -9.488  0.00  0.00     0.043 C 
ATOM     38  H14 DVD d   1      96.076 111.598 -10.076  0.00  0.00     0.081 H 
ATOM     39  H15 DVD d   1      95.848 113.053  -9.047  0.00  0.00     0.081 H 
BRANCH  37  40
ATOM     40  O26 DVD d   1      97.276 111.721  -8.415  0.00  0.00    -0.396 OA
ATOM     41  H26 DVD d   1      96.649 111.246  -7.882  0.00  0.00     0.209 HD
ENDBRANCH  37  40
ENDBRANCH  18  37
ENDBRANCH   3  10
BRANCH   1  42
ATOM     42  N10 DVD d   1      95.082 109.909 -14.969  0.00  0.00    -0.335 N 
ATOM     43  H23 DVD d   1      94.586 109.007 -14.995  0.00  0.00     0.168 HD
BRANCH  42  44
ATOM     44  C8  DVD d   1      94.960 110.718 -16.065  0.00  0.00     0.150 A 
ATOM     45  C7  DVD d   1      94.512 110.307 -17.335  0.00  0.00    -0.012 A 
ATOM     46  C6  DVD d   1      94.531 111.389 -18.107  0.00  0.00     0.060 A 
ATOM     47  H3  DVD d   1      94.210 109.302 -17.627  0.00  0.00     0.092 H 
ATOM     48  C39 DVD d   1      94.171 111.497 -19.576  0.00  0.00     0.122 C 
ATOM     49  N5  DVD d   1      94.969 112.421 -17.375  0.00  0.00    -0.269 N 
ATOM     50  N2  DVD d   1      94.184 112.922 -19.998  0.00  0.00    -0.068 N 
ATOM     51  H21 DVD d   1      93.167 111.079 -19.737  0.00  0.00     0.085 H 
ATOM     52  H22 DVD d   1      94.903 110.933 -20.173  0.00  0.00     0.085 H 
ATOM     53  C3  DVD d   1      95.280 113.696 -19.397  0.00  0.00     0.100 C 
ATOM     54  H5  DVD d   1      93.321 113.338 -19.686  0.00  0.00     0.279 HD
ATOM     55  C4  DVD d   1      95.120 113.795 -17.864  0.00  0.00     0.040 C 
ATOM     56  H6  DVD d   1      96.236 113.202 -19.627  0.00  0.00     0.078 H 
ATOM     57  H7  DVD d   1      95.279 114.710 -19.824  0.00  0.00     0.078 H 
ATOM     58  H1  DVD d   1      94.229 114.389 -17.612  0.00  0.00     0.070 H 
ATOM     59  H2  DVD d   1      96.010 114.262 -17.418  0.00  0.00     0.070 H 
ATOM     60  N9  DVD d   1      95.233 111.993 -16.090  0.00  0.00    -0.154 NA
BRANCH  50  61
ATOM     61  C1  DVD d   1      94.218 112.998 -21.472  0.00  0.00     0.067 C 
ATOM     62  H8  DVD d   1      93.387 112.410 -21.889  0.00  0.00     0.068 H 
ATOM     63  H9  DVD d   1      95.173 112.594 -21.838  0.00  0.00     0.068 H 
ATOM     64  H10 DVD d   1      94.119 114.047 -21.788  0.00  0.00     0.068 H 
ENDBRANCH  50  61
ENDBRANCH  42  44
ENDBRANCH   1  42
TORSDOF 8
