REMARK  8 active torsions:
REMARK  status: ('A' for Active; 'I' for Inactive)
REMARK    1  A    between atoms: C5_2  and  C8_6 
REMARK    2  A    between atoms: N5_32  and  C6_3 
REMARK    3  A    between atoms: N1_4  and  C1_17 
REMARK    4  A    between atoms: C10_9  and  N6_33 
REMARK    5  A    between atoms: C11_10  and  C12_11 
REMARK       I    between atoms: N6_33  and  C11_10 
REMARK    6  A    between atoms: N3_12  and  C2_22 
REMARK    7  A    between atoms: N3_12  and  C3_29 
REMARK    8  A    between atoms: C24_27  and  C25_28 
ROOT
ATOM      1  C8  DXM d   1      43.655 -19.442   9.208  0.00  0.00     0.033 A 
ATOM      2  C9  DXM d   1      43.530 -19.876   7.874  0.00  0.00     0.158 A 
ATOM      3  C10 DXM d   1      44.018 -21.099   7.457  0.00  0.00     0.114 A 
ATOM      4  C20 DXM d   1      44.648 -21.893   8.383  0.00  0.00     0.146 A 
ATOM      5  C21 DXM d   1      44.789 -21.488   9.701  0.00  0.00    -0.042 A 
ATOM      6  C22 DXM d   1      44.296 -20.259  10.123  0.00  0.00    -0.065 A 
ATOM      7  F1  DXM d   1      42.923 -19.119   6.947  0.00  0.00    -0.203 F 
ATOM      8  F2  DXM d   1      45.138 -23.099   8.024  0.00  0.00    -0.204 F 
ATOM      9  H18 DXM d   1      45.289 -22.137  10.411  0.00  0.00     0.088 H 
ATOM     10  H19 DXM d   1      44.412 -19.945  11.154  0.00  0.00     0.085 H 
ENDROOT
BRANCH   1  11
ATOM     11  C5  DXM d   1      43.109 -18.122   9.667  0.00  0.00     0.064 A 
ATOM     12  C4  DXM d   1      42.555 -17.936  10.865  0.00  0.00    -0.021 A 
ATOM     13  C3  DXM d   1      42.083 -16.754  11.219  0.00  0.00     0.131 A 
ATOM     14  H1  DXM d   1      42.490 -18.770  11.562  0.00  0.00     0.091 H 
ATOM     15  C7  DXM d   1      42.177 -15.643  10.255  0.00  0.00     0.290 A 
ATOM     16  N5  DXM d   1      42.705 -15.872   9.062  0.00  0.00    -0.260 N 
ATOM     17  O1  DXM d   1      41.723 -14.504  10.556  0.00  0.00    -0.264 OA
ATOM     18  N4  DXM d   1      43.197 -17.133   8.762  0.00  0.00    -0.295 N 
ATOM     19  H6  DXM d   1      43.630 -17.312   7.845  0.00  0.00     0.187 HD
BRANCH  13  20
ATOM     20  N3  DXM d   1      41.484 -16.403  12.409  0.00  0.00    -0.222 NA
BRANCH  20  21
ATOM     21  C2  DXM d   1      41.317 -17.172  13.544  0.00  0.00     0.172 A 
ATOM     22  N2  DXM d   1      41.639 -18.475  13.612  0.00  0.00    -0.153 NA
ATOM     23  N1  DXM d   1      41.271 -18.819  14.905  0.00  0.00    -0.277 N 
ATOM     24  C24 DXM d   1      40.741 -17.793  15.551  0.00  0.00     0.030 A 
ATOM     25  C23 DXM d   1      40.748 -16.696  14.714  0.00  0.00    -0.012 A 
ATOM     26  H20 DXM d   1      40.389 -15.690  14.924  0.00  0.00     0.092 H 
BRANCH  23  27
ATOM     27  C1  DXM d   1      41.549 -20.225  15.296  0.00  0.00     0.003 C 
ATOM     28  H7  DXM d   1      41.220 -20.389  16.333  0.00  0.00     0.059 H 
ATOM     29  H8  DXM d   1      42.629 -20.421  15.218  0.00  0.00     0.059 H 
ATOM     30  H9  DXM d   1      41.004 -20.907  14.627  0.00  0.00     0.059 H 
ENDBRANCH  23  27
BRANCH  24  31
ATOM     31  C25 DXM d   1      40.165 -17.641  16.936  0.00  0.00    -0.036 C 
ATOM     32  H21 DXM d   1      39.826 -16.605  17.080  0.00  0.00     0.035 H 
ATOM     33  H22 DXM d   1      40.936 -17.881  17.682  0.00  0.00     0.035 H 
ATOM     34  H23 DXM d   1      39.313 -18.326  17.056  0.00  0.00     0.035 H 
ENDBRANCH  24  31
ENDBRANCH  20  21
ENDBRANCH  13  20
BRANCH  16  35
ATOM     35  C6  DXM d   1      42.797 -14.830   8.039  0.00  0.00     0.004 C 
ATOM     36  H2  DXM d   1      43.267 -15.244   7.135  0.00  0.00     0.059 H 
ATOM     37  H3  DXM d   1      43.405 -13.996   8.419  0.00  0.00     0.059 H 
ATOM     38  H4  DXM d   1      41.788 -14.467   7.794  0.00  0.00     0.059 H 
ENDBRANCH  16  35
ENDBRANCH   1  11
BRANCH   3  39
ATOM     39  N6  DXM d   1      43.852 -21.486   6.103  0.00  0.00    -0.317 N 
ATOM     40  C11 DXM d   1      44.886 -21.623   5.269  0.00  0.00     0.263 C 
ATOM     41  O2  DXM d   1      46.014 -21.403   5.712  0.00  0.00    -0.267 OA
ATOM     42  H24 DXM d   1      42.929 -21.662   5.761  0.00  0.00     0.169 HD
BRANCH  40  43
ATOM     43  C12 DXM d   1      44.718 -22.014   3.836  0.00  0.00     0.073 A 
ATOM     44  C13 DXM d   1      43.631 -22.313   3.215  0.00  0.00    -0.054 A 
ATOM     45  C14 DXM d   1      43.808 -22.564   1.959  0.00  0.00    -0.043 A 
ATOM     46  H5  DXM d   1      42.657 -22.351   3.700  0.00  0.00     0.086 H 
ATOM     47  C15 DXM d   1      45.096 -22.517   1.598  0.00  0.00    -0.010 A 
ATOM     48  C19 DXM d   1      42.720 -22.881   0.939  0.00  0.00    -0.040 C 
ATOM     49  C16 DXM d   1      45.607 -22.788   0.196  0.00  0.00    -0.034 C 
ATOM     50  S1  DXM d   1      46.097 -22.087   2.861  0.00  0.00    -0.089 SA
ATOM     51  C17 DXM d   1      44.565 -23.505  -0.644  0.00  0.00    -0.061 C 
ATOM     52  H10 DXM d   1      46.509 -23.414   0.259  0.00  0.00     0.040 H 
ATOM     53  H11 DXM d   1      45.858 -21.831  -0.285  0.00  0.00     0.040 H 
ATOM     54  C18 DXM d   1      43.208 -22.834  -0.504  0.00  0.00    -0.061 C 
ATOM     55  H12 DXM d   1      44.487 -24.550  -0.309  0.00  0.00     0.033 H 
ATOM     56  H13 DXM d   1      44.873 -23.480  -1.700  0.00  0.00     0.033 H 
ATOM     57  H14 DXM d   1      42.482 -23.354  -1.146  0.00  0.00     0.033 H 
ATOM     58  H15 DXM d   1      43.292 -21.784  -0.821  0.00  0.00     0.033 H 
ATOM     59  H16 DXM d   1      41.908 -22.148   1.056  0.00  0.00     0.040 H 
ATOM     60  H17 DXM d   1      42.334 -23.891   1.143  0.00  0.00     0.040 H 
ENDBRANCH  40  43
ENDBRANCH   3  39
TORSDOF 8
