REMARK  4 active torsions:
REMARK  status: ('A' for Active; 'I' for Inactive)
REMARK    1  A    between atoms: C20_7  and  C22_8 
REMARK    2  A    between atoms: N10_25  and  C11_14 
REMARK    3  A    between atoms: C9_16  and  N10_25 
REMARK    4  A    between atoms: C2_20  and  C1_21 
ROOT
ATOM      1  C4  DWP d   1      31.715  19.945  -8.569  0.00  0.00    -0.056 C 
ATOM      2  C5  DWP d   1      30.422  19.211  -8.852  0.00  0.00    -0.037 C 
ATOM      3  C6  DWP d   1      30.630  18.191  -9.939  0.00  0.00    -0.014 A 
ATOM      4  C7  DWP d   1      29.721  17.168 -10.086  0.00  0.00     0.029 A 
ATOM      5  C20 DWP d   1      33.377  21.543  -9.683  0.00  0.00     0.006 C 
ATOM      6  C24 DWP d   1      33.510  21.241 -12.228  0.00  0.00     0.089 C 
ATOM      7  C25 DWP d   1      34.325  21.524 -13.399  0.00  0.00     0.071 C 
ATOM      8  C18 DWP d   1      31.705  18.206 -10.820  0.00  0.00     0.070 A 
ATOM      9  C9  DWP d   1      30.894  16.305 -11.849  0.00  0.00     0.727 A 
ATOM     10  C23 DWP d   1      34.030  21.929 -10.999  0.00  0.00     0.148 C 
ATOM     11  C27 DWP d   1      33.142  19.761 -12.176  0.00  0.00    -0.031 C 
ATOM     12  C3  DWP d   1      32.314  20.451  -9.884  0.00  0.00    -0.032 C 
ATOM     13  C2  DWP d   1      32.798  19.264 -10.761  0.00  0.00     0.008 C 
ATOM     14  N26 DWP d   1      34.841  21.832 -14.391  0.00  0.00    -0.196 NA
ATOM     15  N8  DWP d   1      29.826  16.233 -11.040  0.00  0.00    -0.074 NA
ATOM     16  N17 DWP d   1      31.845  17.245 -11.751  0.00  0.00    -0.066 NA
ATOM     17  O28 DWP d   1      34.842  22.853 -11.078  0.00  0.00    -0.296 OA
ATOM     18  H1  DWP d   1      32.426  19.261  -8.082  0.00  0.00     0.034 H 
ATOM     19  H2  DWP d   1      31.514  20.799  -7.905  0.00  0.00     0.034 H 
ATOM     20  H3  DWP d   1      29.657  19.933  -9.173  0.00  0.00     0.040 H 
ATOM     21  H4  DWP d   1      30.085  18.703  -7.937  0.00  0.00     0.040 H 
ATOM     22  H5  DWP d   1      28.883  17.116  -9.400  0.00  0.00     0.116 H 
ATOM     23  H8  DWP d   1      34.137  21.188  -8.972  0.00  0.00     0.051 H 
ATOM     24  H12 DWP d   1      32.549  21.743 -12.415  0.00  0.00     0.074 H 
ATOM     25  H16 DWP d   1      33.995  19.177 -12.553  0.00  0.00     0.037 H 
ATOM     26  H17 DWP d   1      32.269  19.596 -12.825  0.00  0.00     0.037 H 
ATOM     27  H18 DWP d   1      31.492  20.929 -10.437  0.00  0.00     0.043 H 
ENDROOT
BRANCH   5  28
ATOM     28  C22 DWP d   1      32.710  22.810  -9.165  0.00  0.00    -0.066 C 
ATOM     29  H9  DWP d   1      33.470  23.592  -9.021  0.00  0.00     0.028 H 
ATOM     30  H10 DWP d   1      32.216  22.598  -8.206  0.00  0.00     0.028 H 
ATOM     31  H11 DWP d   1      31.962  23.155  -9.894  0.00  0.00     0.028 H 
ENDBRANCH   5  28
BRANCH  13  32
ATOM     32  C1  DWP d   1      34.032  18.570 -10.171  0.00  0.00    -0.063 C 
ATOM     33  H19 DWP d   1      34.334  17.740 -10.826  0.00  0.00     0.029 H 
ATOM     34  H20 DWP d   1      33.790  18.179  -9.172  0.00  0.00     0.029 H 
ATOM     35  H21 DWP d   1      34.857  19.294 -10.092  0.00  0.00     0.029 H 
ENDBRANCH  13  32
BRANCH   9  36
ATOM     36  N10 DWP d   1      31.107  15.367 -12.881  0.00  0.00    -0.188 N 
ATOM     37  H22 DWP d   1      31.967  15.481 -13.436  0.00  0.00     0.184 HD
BRANCH  36  38
ATOM     38  C11 DWP d   1      30.267  14.289 -13.234  0.00  0.00     0.049 A 
ATOM     39  C12 DWP d   1      29.657  13.468 -12.302  0.00  0.00    -0.057 A 
ATOM     40  C13 DWP d   1      28.857  12.417 -12.719  0.00  0.00    -0.081 A 
ATOM     41  H14 DWP d   1      29.805  13.648 -11.243  0.00  0.00     0.086 H 
ATOM     42  C14 DWP d   1      28.685  12.182 -14.066  0.00  0.00    -0.083 A 
ATOM     43  H6  DWP d   1      28.368  11.782 -11.989  0.00  0.00     0.083 H 
ATOM     44  C15 DWP d   1      29.300  12.982 -15.002  0.00  0.00    -0.081 A 
ATOM     45  H13 DWP d   1      28.059  11.359 -14.392  0.00  0.00     0.083 H 
ATOM     46  C16 DWP d   1      30.084  14.041 -14.580  0.00  0.00    -0.057 A 
ATOM     47  H7  DWP d   1      29.171  12.784 -16.060  0.00  0.00     0.083 H 
ATOM     48  H15 DWP d   1      30.559  14.682 -15.313  0.00  0.00     0.086 H 
ENDBRANCH  36  38
ENDBRANCH   9  36
TORSDOF 4
