REMARK  0 active torsions:
REMARK  status: ('A' for Active; 'I' for Inactive)
ROOT
ATOM      1 BR1  K32 d   1      19.760  18.176  26.455  0.00  0.00    -0.047 Br
ATOM      2  C5  K32 d   1      19.494  16.985  28.018  0.00  0.00     0.059 A 
ATOM      3  C2  K32 d   1      18.320  16.525  28.635  0.00  0.00     0.049 A 
ATOM      4 BR2  K32 d   1      16.692  17.115  27.778  0.00  0.00    -0.048 Br
ATOM      5  C7  K32 d   1      20.620  16.522  28.655  0.00  0.00     0.083 A 
ATOM      6  N14 K32 d   1      21.938  16.752  28.321  0.00  0.00    -0.305 N 
ATOM      7  C13 K32 d   1      22.760  16.098  29.193  0.00  0.00     0.325 A 
ATOM      8  O10 K32 d   1      23.987  16.109  29.197  0.00  0.00    -0.247 OA
ATOM      9  N6  K32 d   1      21.936  15.438  30.064  0.00  0.00    -0.305 N 
ATOM     10  C8  K32 d   1      20.616  15.683  29.752  0.00  0.00     0.083 A 
ATOM     11  C4  K32 d   1      19.489  15.224  30.396  0.00  0.00     0.059 A 
ATOM     12 BR3  K32 d   1      19.755  14.043  31.966  0.00  0.00    -0.047 Br
ATOM     13  C3  K32 d   1      18.308  15.676  29.788  0.00  0.00     0.049 A 
ATOM     14 BR4  K32 d   1      16.660  15.101  30.645  0.00  0.00    -0.048 Br
ATOM     15  H1  K32 d   1      22.246  17.314  27.554  0.00  0.00     0.171 HD
ATOM     16  H2  K32 d   1      22.247  14.861  30.819  0.00  0.00     0.171 HD
ENDROOT
TORSDOF 0
