REMARK  4 active torsions:
REMARK  status: ('A' for Active; 'I' for Inactive)
REMARK    1  A    between atoms: C9_25  and  C10_5 
REMARK    2  A    between atoms: N24_30  and  C25_19 
REMARK    3  A    between atoms: C23_20  and  N24_30 
REMARK    4  A    between atoms: C2_23  and  C1_26 
ROOT
ATOM      1  C4  DWG d   1       0.800 222.359  70.141  0.00  0.00     0.148 C 
ATOM      2  C5  DWG d   1       1.866 221.686  70.960  0.00  0.00     0.089 C 
ATOM      3  C6  DWG d   1       1.488 221.497  72.361  0.00  0.00     0.071 C 
ATOM      4  C8  DWG d   1       3.245 222.334  70.883  0.00  0.00    -0.027 C 
ATOM      5  C20 DWG d   1       4.947 225.325  69.471  0.00  0.00    -0.013 A 
ATOM      6  C21 DWG d   1       4.861 224.021  69.941  0.00  0.00     0.075 A 
ATOM      7  C32 DWG d   1       6.096 226.024  69.767  0.00  0.00     0.029 A 
ATOM      8  C23 DWG d   1       6.975 224.245  70.877  0.00  0.00     0.727 A 
ATOM      9  C19 DWG d   1       3.886 226.009  68.680  0.00  0.00    -0.037 C 
ATOM     10  C18 DWG d   1       2.834 225.039  68.202  0.00  0.00    -0.056 C 
ATOM     11  C2  DWG d   1       1.170 223.310  69.019  0.00  0.00     0.007 C 
ATOM     12  C16 DWG d   1       2.471 224.053  69.299  0.00  0.00    -0.027 C 
ATOM     13  C9  DWG d   1       3.660 223.122  69.637  0.00  0.00     0.038 C 
ATOM     14  N7  DWG d   1       1.196 221.315  73.469  0.00  0.00    -0.196 NA
ATOM     15  N31 DWG d   1       7.123 225.509  70.449  0.00  0.00    -0.074 NA
ATOM     16  N22 DWG d   1       5.885 223.497  70.640  0.00  0.00    -0.066 NA
ATOM     17  O33 DWG d   1      -0.368 222.050  70.357  0.00  0.00    -0.296 OA
ATOM     18  H1  DWG d   1       1.976 220.680  70.528  0.00  0.00     0.074 H 
ATOM     19  H2  DWG d   1       3.981 221.526  71.006  0.00  0.00     0.037 H 
ATOM     20  H3  DWG d   1       3.316 223.028  71.734  0.00  0.00     0.037 H 
ATOM     21  H14 DWG d   1       6.171 227.051  69.427  0.00  0.00     0.116 H 
ATOM     22  H15 DWG d   1       4.348 226.493  67.807  0.00  0.00     0.040 H 
ATOM     23  H16 DWG d   1       3.407 226.772  69.311  0.00  0.00     0.040 H 
ATOM     24  H17 DWG d   1       3.221 224.486  67.334  0.00  0.00     0.034 H 
ATOM     25  H18 DWG d   1       1.934 225.599  67.908  0.00  0.00     0.034 H 
ATOM     26  H19 DWG d   1       1.311 222.721  68.101  0.00  0.00     0.051 H 
ATOM     27  H20 DWG d   1       2.286 224.652  70.203  0.00  0.00     0.043 H 
ENDROOT
BRANCH  11  28
ATOM     28  C1  DWG d   1       0.018 224.280  68.797  0.00  0.00    -0.066 C 
ATOM     29  H21 DWG d   1      -0.904 223.714  68.598  0.00  0.00     0.028 H 
ATOM     30  H22 DWG d   1       0.244 224.927  67.937  0.00  0.00     0.028 H 
ATOM     31  H23 DWG d   1      -0.118 224.899  69.696  0.00  0.00     0.028 H 
ENDBRANCH  11  28
BRANCH  13  32
ATOM     32  C10 DWG d   1       4.096 222.091  68.595  0.00  0.00    -0.043 A 
ATOM     33  C15 DWG d   1       4.706 222.459  67.407  0.00  0.00    -0.076 A 
ATOM     34  C14 DWG d   1       5.094 221.513  66.481  0.00  0.00    -0.082 A 
ATOM     35  H5  DWG d   1       4.881 223.509  67.201  0.00  0.00     0.084 H 
ATOM     36  C13 DWG d   1       4.893 220.167  66.718  0.00  0.00    -0.083 A 
ATOM     37  H9  DWG d   1       5.562 221.830  65.556  0.00  0.00     0.083 H 
ATOM     38  C12 DWG d   1       4.313 219.769  67.901  0.00  0.00    -0.082 A 
ATOM     39  H4  DWG d   1       5.189 219.431  65.979  0.00  0.00     0.083 H 
ATOM     40  C11 DWG d   1       3.934 220.728  68.816  0.00  0.00    -0.076 A 
ATOM     41  H8  DWG d   1       4.157 218.717  68.110  0.00  0.00     0.083 H 
ATOM     42  H12 DWG d   1       3.490 220.405  69.750  0.00  0.00     0.084 H 
ENDBRANCH  13  32
BRANCH   8  43
ATOM     43  N24 DWG d   1       7.988 223.614  71.624  0.00  0.00    -0.188 N 
ATOM     44  H24 DWG d   1       7.859 222.607  71.800  0.00  0.00     0.184 HD
BRANCH  43  45
ATOM     45  C25 DWG d   1       9.157 224.191  72.161  0.00  0.00     0.049 A 
ATOM     46  C26 DWG d   1       9.490 223.922  73.475  0.00  0.00    -0.057 A 
ATOM     47  C27 DWG d   1      10.641 224.440  74.039  0.00  0.00    -0.081 A 
ATOM     48  H6  DWG d   1       8.838 223.295  74.073  0.00  0.00     0.086 H 
ATOM     49  C28 DWG d   1      11.482 225.233  73.285  0.00  0.00    -0.083 A 
ATOM     50  H10 DWG d   1      10.883 224.223  75.073  0.00  0.00     0.083 H 
ATOM     51  C29 DWG d   1      11.166 225.507  71.968  0.00  0.00    -0.081 A 
ATOM     52  H7  DWG d   1      12.386 225.639  73.724  0.00  0.00     0.083 H 
ATOM     53  C30 DWG d   1      10.013 224.983  71.412  0.00  0.00    -0.057 A 
ATOM     54  H11 DWG d   1      11.821 226.132  71.371  0.00  0.00     0.083 H 
ATOM     55  H13 DWG d   1       9.775 225.195  70.376  0.00  0.00     0.086 H 
ENDBRANCH  43  45
ENDBRANCH   8  43
TORSDOF 4
