REMARK  5 active torsions:
REMARK  status: ('A' for Active; 'I' for Inactive)
REMARK    1  A    between atoms: C8_5  and  C7_4 
REMARK    2  A    between atoms: N18_31  and  C15_8 
REMARK    3  A    between atoms: C3_18  and  C2_22 
REMARK    4  A    between atoms: C19_20  and  N18_31 
REMARK    5  A    between atoms: C30_25  and  C32_27 
ROOT
ATOM      1  C8  DWS d   1      37.760 221.961  43.064  0.00  0.00     0.038 C 
ATOM      2  C10 DWS d   1      39.143 222.770  45.113  0.00  0.00    -0.056 C 
ATOM      3  C13 DWS d   1      36.537 225.367  44.168  0.00  0.00     0.029 A 
ATOM      4  C15 DWS d   1      35.149 224.517  42.558  0.00  0.00     0.727 A 
ATOM      5  C17 DWS d   1      36.995 223.270  43.239  0.00  0.00     0.075 A 
ATOM      6  C26 DWS d   1      38.082 221.783  41.570  0.00  0.00    -0.027 C 
ATOM      7  C34 DWS d   1      39.463 220.570  39.819  0.00  0.00     0.071 C 
ATOM      8  C12 DWS d   1      37.362 224.262  44.136  0.00  0.00    -0.013 A 
ATOM      9  C29 DWS d   1      40.095 220.259  42.241  0.00  0.00     0.148 C 
ATOM     10  C11 DWS d   1      38.568 224.167  45.009  0.00  0.00    -0.037 C 
ATOM     11  C27 DWS d   1      39.090 220.708  41.219  0.00  0.00     0.089 C 
ATOM     12  C30 DWS d   1      39.941 220.716  43.679  0.00  0.00     0.007 C 
ATOM     13  C9  DWS d   1      39.130 222.021  43.787  0.00  0.00    -0.027 C 
ATOM     14  N35 DWS d   1      39.743 220.418  38.707  0.00  0.00    -0.196 NA
ATOM     15  N14 DWS d   1      35.439 225.515  43.412  0.00  0.00    -0.074 NA
ATOM     16  N16 DWS d   1      35.897 223.413  42.474  0.00  0.00    -0.066 NA
ATOM     17  O33 DWS d   1      40.991 219.500  41.892  0.00  0.00    -0.296 OA
ATOM     18  H4  DWS d   1      38.550 222.200  45.843  0.00  0.00     0.034 H 
ATOM     19  H5  DWS d   1      40.183 222.844  45.464  0.00  0.00     0.034 H 
ATOM     20  H6  DWS d   1      36.793 226.170  44.850  0.00  0.00     0.116 H 
ATOM     21  H11 DWS d   1      38.471 222.741  41.196  0.00  0.00     0.037 H 
ATOM     22  H12 DWS d   1      37.142 221.542  41.052  0.00  0.00     0.037 H 
ATOM     23  H15 DWS d   1      39.344 224.831  44.601  0.00  0.00     0.040 H 
ATOM     24  H16 DWS d   1      38.291 224.504  46.019  0.00  0.00     0.040 H 
ATOM     25  H17 DWS d   1      38.413 219.844  41.288  0.00  0.00     0.074 H 
ATOM     26  H18 DWS d   1      39.351 219.947  44.200  0.00  0.00     0.051 H 
ATOM     27  H19 DWS d   1      39.708 222.702  43.144  0.00  0.00     0.043 H 
ENDROOT
BRANCH   1  28
ATOM     28  C7  DWS d   1      36.851 220.853  43.589  0.00  0.00    -0.042 A 
ATOM     29  C6  DWS d   1      36.647 219.638  42.946  0.00  0.00    -0.076 A 
ATOM     30  C5  DWS d   1      35.840 218.668  43.502  0.00  0.00    -0.081 A 
ATOM     31  H3  DWS d   1      37.129 219.450  41.993  0.00  0.00     0.084 H 
ATOM     32  C4  DWS d   1      35.215 218.893  44.712  0.00  0.00    -0.066 A 
ATOM     33  H2  DWS d   1      35.696 217.725  42.987  0.00  0.00     0.083 H 
ATOM     34  C3  DWS d   1      35.386 220.090  45.374  0.00  0.00     0.041 A 
ATOM     35  H1  DWS d   1      34.586 218.124  45.144  0.00  0.00     0.085 H 
ATOM     36  C36 DWS d   1      36.208 221.043  44.806  0.00  0.00    -0.059 A 
ATOM     37  H14 DWS d   1      36.358 221.979  45.332  0.00  0.00     0.086 H 
BRANCH  34  38
ATOM     38  C2  DWS d   1      34.735 220.354  46.683  0.00  0.00     0.209 C 
ATOM     39  O37 DWS d   1      35.335 221.178  47.436  0.00  0.00    -0.644 OA
ATOM     40  O1  DWS d   1      33.650 219.753  46.941  0.00  0.00    -0.644 OA
ENDBRANCH  34  38
ENDBRANCH   1  28
BRANCH  12  41
ATOM     41  C32 DWS d   1      41.298 220.751  44.358  0.00  0.00    -0.066 C 
ATOM     42  H20 DWS d   1      41.798 219.780  44.227  0.00  0.00     0.028 H 
ATOM     43  H21 DWS d   1      41.166 220.954  45.431  0.00  0.00     0.028 H 
ATOM     44  H22 DWS d   1      41.913 221.544  43.908  0.00  0.00     0.028 H 
ENDBRANCH  12  41
BRANCH   4  45
ATOM     45  N18 DWS d   1      34.022 224.539  41.712  0.00  0.00    -0.188 N 
ATOM     46  H23 DWS d   1      33.887 223.718  41.105  0.00  0.00     0.184 HD
BRANCH  45  47
ATOM     47  C19 DWS d   1      33.058 225.565  41.606  0.00  0.00     0.049 A 
ATOM     48  C20 DWS d   1      32.605 225.937  40.351  0.00  0.00    -0.057 A 
ATOM     49  C21 DWS d   1      31.646 226.928  40.205  0.00  0.00    -0.081 A 
ATOM     50  H7  DWS d   1      33.006 225.447  39.471  0.00  0.00     0.086 H 
ATOM     51  C22 DWS d   1      31.122 227.540  41.327  0.00  0.00    -0.083 A 
ATOM     52  H8  DWS d   1      31.310 227.220  39.217  0.00  0.00     0.083 H 
ATOM     53  C23 DWS d   1      31.557 227.169  42.586  0.00  0.00    -0.081 A 
ATOM     54  H9  DWS d   1      30.369 228.312  41.220  0.00  0.00     0.083 H 
ATOM     55  C24 DWS d   1      32.522 226.189  42.720  0.00  0.00    -0.057 A 
ATOM     56  H13 DWS d   1      31.142 227.646  43.466  0.00  0.00     0.083 H 
ATOM     57  H10 DWS d   1      32.864 225.905  43.709  0.00  0.00     0.086 H 
ENDBRANCH  45  47
ENDBRANCH   4  45
TORSDOF 5
