REMARK  7 active torsions:
REMARK  status: ('A' for Active; 'I' for Inactive)
REMARK    1  A    between atoms: C5_2  and  C7_5 
REMARK    2  A    between atoms: N1_4  and  C1_17 
REMARK    3  A    between atoms: C9_8  and  N6_32 
REMARK    4  A    between atoms: C10_9  and  C11_10 
REMARK       I    between atoms: N6_32  and  C10_9 
REMARK    5  A    between atoms: N3_12  and  C2_22 
REMARK    6  A    between atoms: N3_12  and  C3_28 
REMARK    7  A    between atoms: C23_26  and  C24_27 
ROOT
ATOM      1  C7  DY4 d   1      -5.266 -47.030  -8.758  0.00  0.00     0.035 A 
ATOM      2  C8  DY4 d   1      -4.856 -47.084  -7.423  0.00  0.00     0.158 A 
ATOM      3  C9  DY4 d   1      -4.000 -48.097  -6.992  0.00  0.00     0.114 A 
ATOM      4  C19 DY4 d   1      -3.556 -48.999  -7.910  0.00  0.00     0.146 A 
ATOM      5  C20 DY4 d   1      -3.910 -48.959  -9.232  0.00  0.00    -0.042 A 
ATOM      6  C21 DY4 d   1      -4.764 -47.953  -9.661  0.00  0.00    -0.065 A 
ATOM      7  F1  DY4 d   1      -5.295 -46.209  -6.526  0.00  0.00    -0.203 F 
ATOM      8  F2  DY4 d   1      -2.704 -49.960  -7.480  0.00  0.00    -0.204 F 
ATOM      9  H15 DY4 d   1      -3.531 -49.698  -9.929  0.00  0.00     0.088 H 
ATOM     10  H16 DY4 d   1      -5.040 -47.889 -10.707  0.00  0.00     0.085 H 
ENDROOT
BRANCH   1  11
ATOM     11  C5  DY4 d   1      -6.149 -45.931  -9.238  0.00  0.00     0.091 A 
ATOM     12  C4  DY4 d   1      -5.925 -45.327 -10.473  0.00  0.00    -0.042 A 
ATOM     13  C3  DY4 d   1      -6.742 -44.276 -10.896  0.00  0.00     0.111 A 
ATOM     14  H1  DY4 d   1      -5.112 -45.674 -11.109  0.00  0.00     0.084 H 
ATOM     15  C6  DY4 d   1      -7.776 -43.839  -9.971  0.00  0.00     0.288 A 
ATOM     16  H21 DY4 d   1      -7.415 -44.997 -11.383  0.00  0.00     0.094 H 
ATOM     17  N5  DY4 d   1      -7.960 -44.454  -8.816  0.00  0.00    -0.108 NA
ATOM     18  O1  DY4 d   1      -8.552 -42.896 -10.298  0.00  0.00    -0.267 OA
ATOM     19  N4  DY4 d   1      -7.117 -45.501  -8.428  0.00  0.00    -0.146 NA
BRANCH  13  20
ATOM     20  N3  DY4 d   1      -6.658 -43.563 -12.058  0.00  0.00    -0.357 N 
ATOM     21  H3  DY4 d   1      -7.249 -42.721 -12.111  0.00  0.00     0.162 HD
BRANCH  20  22
ATOM     22  C2  DY4 d   1      -5.889 -43.823 -13.164  0.00  0.00     0.146 A 
ATOM     23  N2  DY4 d   1      -4.944 -44.764 -13.164  0.00  0.00    -0.155 NA
ATOM     24  N1  DY4 d   1      -4.424 -44.681 -14.427  0.00  0.00    -0.277 N 
ATOM     25  C23 DY4 d   1      -4.988 -43.706 -15.116  0.00  0.00     0.030 A 
ATOM     26  C22 DY4 d   1      -5.979 -43.127 -14.361  0.00  0.00    -0.014 A 
ATOM     27  H17 DY4 d   1      -6.663 -42.324 -14.633  0.00  0.00     0.092 H 
BRANCH  24  28
ATOM     28  C1  DY4 d   1      -3.327 -45.614 -14.765  0.00  0.00     0.003 C 
ATOM     29  H6  DY4 d   1      -3.005 -45.441 -15.803  0.00  0.00     0.059 H 
ATOM     30  H7  DY4 d   1      -3.681 -46.650 -14.659  0.00  0.00     0.059 H 
ATOM     31  H8  DY4 d   1      -2.479 -45.445 -14.085  0.00  0.00     0.059 H 
ENDBRANCH  24  28
BRANCH  25  32
ATOM     32  C24 DY4 d   1      -4.711 -43.176 -16.506  0.00  0.00    -0.036 C 
ATOM     33  H18 DY4 d   1      -5.400 -42.347 -16.727  0.00  0.00     0.035 H 
ATOM     34  H19 DY4 d   1      -4.858 -43.981 -17.241  0.00  0.00     0.035 H 
ATOM     35  H20 DY4 d   1      -3.674 -42.815 -16.561  0.00  0.00     0.035 H 
ENDBRANCH  25  32
ENDBRANCH  20  22
ENDBRANCH  13  20
ENDBRANCH   1  11
BRANCH   3  36
ATOM     36  N6  DY4 d   1      -3.621 -48.145  -5.624  0.00  0.00    -0.317 N 
ATOM     37  C10 DY4 d   1      -3.949 -49.171  -4.830  0.00  0.00     0.263 C 
ATOM     38  O2  DY4 d   1      -4.603 -50.098  -5.320  0.00  0.00    -0.267 OA
ATOM     39  H22 DY4 d   1      -3.092 -47.387  -5.242  0.00  0.00     0.169 HD
BRANCH  37  40
ATOM     40  C11 DY4 d   1      -3.565 -49.198  -3.387  0.00  0.00     0.073 A 
ATOM     41  C12 DY4 d   1      -2.845 -48.363  -2.692  0.00  0.00    -0.054 A 
ATOM     42  C13 DY4 d   1      -2.703 -48.654  -1.430  0.00  0.00    -0.043 A 
ATOM     43  H2  DY4 d   1      -2.391 -47.479  -3.138  0.00  0.00     0.086 H 
ATOM     44  C14 DY4 d   1      -3.373 -49.773  -1.107  0.00  0.00    -0.010 A 
ATOM     45  C18 DY4 d   1      -1.919 -47.849  -0.386  0.00  0.00    -0.040 C 
ATOM     46  C15 DY4 d   1      -3.423 -50.384   0.279  0.00  0.00    -0.034 C 
ATOM     47  S1  DY4 d   1      -4.159 -50.450  -2.427  0.00  0.00    -0.089 SA
ATOM     48  C16 DY4 d   1      -2.295 -49.823   1.138  0.00  0.00    -0.061 C 
ATOM     49  H4  DY4 d   1      -3.312 -51.475   0.200  0.00  0.00     0.040 H 
ATOM     50  H5  DY4 d   1      -4.390 -50.147   0.747  0.00  0.00     0.040 H 
ATOM     51  C17 DY4 d   1      -2.274 -48.300   1.024  0.00  0.00    -0.061 C 
ATOM     52  H9  DY4 d   1      -1.334 -50.230   0.791  0.00  0.00     0.033 H 
ATOM     53  H10 DY4 d   1      -2.457 -50.109   2.188  0.00  0.00     0.033 H 
ATOM     54  H11 DY4 d   1      -1.527 -47.900   1.726  0.00  0.00     0.033 H 
ATOM     55  H12 DY4 d   1      -3.268 -47.909   1.284  0.00  0.00     0.033 H 
ATOM     56  H13 DY4 d   1      -2.163 -46.782  -0.495  0.00  0.00     0.040 H 
ATOM     57  H14 DY4 d   1      -0.842 -47.997  -0.551  0.00  0.00     0.040 H 
ENDBRANCH  37  40
ENDBRANCH   3  36
TORSDOF 7
