REMARK  4 active torsions:
REMARK  status: ('A' for Active; 'I' for Inactive)
REMARK    1  A    between atoms: N_1  and  CA_2 
REMARK    2  A    between atoms: CA_2  and  C_3 
REMARK    3  A    between atoms: CA_2  and  CB_5 
REMARK    4  A    between atoms: CB_5  and  OG_6 
ROOT
ATOM      1  CA  SER d   1       6.991   8.280  -5.820  0.00  0.00     0.202 C 
ATOM      2  H4  SER d   1       6.063   8.340  -6.407  0.00  0.00     0.104 H 
ENDROOT
BRANCH   1   3
ATOM      3  N   SER d   1       7.029   6.952  -5.147  0.00  0.00    -0.063 N 
ATOM      4  H1  SER d   1       6.240   6.867  -4.526  0.00  0.00     0.275 HD
ATOM      5  H2  SER d   1       7.883   6.867  -4.619  0.00  0.00     0.275 HD
ATOM      6  H3  SER d   1       6.990   6.222  -5.841  0.00  0.00     0.275 HD
ENDBRANCH   1   3
BRANCH   1   7
ATOM      7  C   SER d   1       8.165   8.451  -6.768  0.00  0.00     0.206 C 
ATOM      8  O   SER d   1       8.991   7.552  -6.910  0.00  0.00    -0.646 OA
ATOM      9  O1  SER d   1       8.293   9.524  -7.415  0.00  0.00    -0.646 OA
ENDBRANCH   1   7
BRANCH   1  10
ATOM     10  CB  SER d   1       6.980   9.408  -4.786  0.00  0.00     0.053 C 
ATOM     11  H5  SER d   1       7.183  10.362  -5.294  0.00  0.00     0.077 H 
ATOM     12  H6  SER d   1       7.764   9.216  -4.038  0.00  0.00     0.077 H 
BRANCH  10  13
ATOM     13  OG  SER d   1       5.722   9.493  -4.127  0.00  0.00    -0.398 OA
ATOM     14  H7  SER d   1       5.041   9.663  -4.767  0.00  0.00     0.209 HD
ENDBRANCH  10  13
ENDBRANCH   1  10
TORSDOF 4
