REMARK  6 active torsions:
REMARK  status: ('A' for Active; 'I' for Inactive)
REMARK    1  A    between atoms: C2_1  and  C3_2 
REMARK    2  A    between atoms: N2_21  and  C2_1 
REMARK    3  A    between atoms: C16_29  and  C17_12 
REMARK    4  A    between atoms: C18_13  and  O3_31 
REMARK    5  A    between atoms: C19_14  and  O2_30 
REMARK    6  A    between atoms: O2_30  and  C20_15 
ROOT
ATOM      1  C11 DZV d   1      14.555  43.788  29.211  0.00  0.00     0.074 A 
ATOM      2  C12 DZV d   1      14.210  45.146  28.951  0.00  0.00    -0.055 A 
ATOM      3  C13 DZV d   1      15.121  46.198  29.248  0.00  0.00    -0.081 A 
ATOM      4  C14 DZV d   1      16.390  45.929  29.807  0.00  0.00    -0.082 A 
ATOM      5  N1  DZV d   1      13.720  42.662  28.883  0.00  0.00    -0.123 N 
ATOM      6  C1  DZV d   1      14.078  41.413  29.174  0.00  0.00     0.737 A 
ATOM      7  N2  DZV d   1      15.366  41.118  29.728  0.00  0.00    -0.139 N 
ATOM      8  C9  DZV d   1      16.292  42.091  30.006  0.00  0.00     0.274 A 
ATOM      9  C10 DZV d   1      15.860  43.518  29.735  0.00  0.00     0.060 A 
ATOM     10  C15 DZV d   1      16.753  44.585  30.036  0.00  0.00    -0.065 A 
ATOM     11  O1  DZV d   1      17.387  41.880  30.561  0.00  0.00    -0.266 OA
ATOM     12  N3  DZV d   1      13.138  40.509  28.874  0.00  0.00     0.045 NA
ATOM     13  N4  DZV d   1      12.074  41.245  28.378  0.00  0.00    -0.114 NA
ATOM     14  C16 DZV d   1      12.443  42.533  28.419  0.00  0.00     0.186 A 
ATOM     15  H7  DZV d   1      13.242  45.380  28.522  0.00  0.00     0.087 H 
ATOM     16  H8  DZV d   1      14.836  47.223  29.042  0.00  0.00     0.083 H 
ATOM     17  H9  DZV d   1      17.069  46.737  30.054  0.00  0.00     0.083 H 
ATOM     18  H16 DZV d   1      17.730  44.361  30.449  0.00  0.00     0.085 H 
ENDROOT
BRANCH  14  19
ATOM     19  C17 DZV d   1      11.529  43.573  27.921  0.00  0.00     0.049 A 
ATOM     20  C18 DZV d   1      11.653  44.047  26.583  0.00  0.00     0.113 A 
ATOM     21  C19 DZV d   1      10.777  45.080  26.101  0.00  0.00     0.102 A 
ATOM     22  C21 DZV d   1       9.789  45.604  26.984  0.00  0.00    -0.048 A 
ATOM     23  C22 DZV d   1       9.697  45.175  28.326  0.00  0.00    -0.079 A 
ATOM     24  H13 DZV d   1       9.092  46.349  26.617  0.00  0.00     0.087 H 
ATOM     25  C23 DZV d   1      10.548  44.141  28.789  0.00  0.00    -0.066 A 
ATOM     26  H14 DZV d   1       8.980  45.634  28.998  0.00  0.00     0.083 H 
ATOM     27  H15 DZV d   1      10.454  43.780  29.807  0.00  0.00     0.085 H 
BRANCH  20  28
ATOM     28  O3  DZV d   1      12.609  43.486  25.781  0.00  0.00    -0.357 OA
ATOM     29  H17 DZV d   1      12.193  43.083  25.028  0.00  0.00     0.217 HD
ENDBRANCH  20  28
BRANCH  21  30
ATOM     30  O2  DZV d   1      10.807  45.578  24.808  0.00  0.00    -0.353 OA
BRANCH  30  31
ATOM     31  C20 DZV d   1       9.961  46.632  24.349  0.00  0.00     0.010 C 
ATOM     32  H10 DZV d   1      10.178  46.842  23.291  0.00  0.00     0.066 H 
ATOM     33  H11 DZV d   1      10.144  47.536  24.948  0.00  0.00     0.066 H 
ATOM     34  H12 DZV d   1       8.909  46.330  24.454  0.00  0.00     0.066 H 
ENDBRANCH  30  31
ENDBRANCH  21  30
ENDBRANCH  14  19
BRANCH   7  35
ATOM     35  C2  DZV d   1      15.697  39.704  29.938  0.00  0.00     0.045 C 
ATOM     36  H1  DZV d   1      15.003  39.112  29.323  0.00  0.00     0.073 H 
ATOM     37  H2  DZV d   1      16.726  39.553  29.579  0.00  0.00     0.073 H 
BRANCH  35  38
ATOM     38  C3  DZV d   1      15.628  39.154  31.353  0.00  0.00    -0.018 A 
ATOM     39  C4  DZV d   1      16.037  37.804  31.520  0.00  0.00     0.042 A 
ATOM     40  C5  DZV d   1      16.034  37.192  32.808  0.00  0.00    -0.061 A 
ATOM     41 CL1  DZV d   1      16.570  36.916  30.132  0.00  0.00    -0.084 Cl
ATOM     42  C6  DZV d   1      15.575  37.925  33.926  0.00  0.00    -0.081 A 
ATOM     43  H3  DZV d   1      16.381  36.172  32.929  0.00  0.00     0.086 H 
ATOM     44  C7  DZV d   1      15.155  39.271  33.774  0.00  0.00    -0.082 A 
ATOM     45  H4  DZV d   1      15.544  37.457  34.903  0.00  0.00     0.083 H 
ATOM     46  C8  DZV d   1      15.203  39.904  32.498  0.00  0.00    -0.074 A 
ATOM     47  H5  DZV d   1      14.795  39.822  34.635  0.00  0.00     0.083 H 
ATOM     48  H6  DZV d   1      14.920  40.945  32.394  0.00  0.00     0.084 H 
ENDBRANCH  35  38
ENDBRANCH   7  35
TORSDOF 6
