REMARK  5 active torsions:
REMARK  status: ('A' for Active; 'I' for Inactive)
REMARK    1  A    between atoms: C16_29  and  C17_12 
REMARK    2  A    between atoms: C19_14  and  C20_15 
REMARK    3  A    between atoms: C23_18  and  O4_32 
REMARK    4  A    between atoms: C9_23  and  N2_21 
REMARK    5  A    between atoms: C9_23  and  C10_24 
ROOT
ATOM      1  C2  DZS d   1      16.080  46.345  29.670  0.00  0.00    -0.082 A 
ATOM      2  C3  DZS d   1      16.469  45.020  29.936  0.00  0.00    -0.065 A 
ATOM      3  C4  DZS d   1      15.608  43.936  29.601  0.00  0.00     0.060 A 
ATOM      4  C5  DZS d   1      14.331  44.188  28.999  0.00  0.00     0.074 A 
ATOM      5  C6  DZS d   1      13.955  45.543  28.743  0.00  0.00    -0.055 A 
ATOM      6  C7  DZS d   1      13.889  41.803  29.028  0.00  0.00     0.737 A 
ATOM      7  C8  DZS d   1      16.048  42.523  29.910  0.00  0.00     0.274 C 
ATOM      8  C1  DZS d   1      14.843  46.598  29.041  0.00  0.00    -0.081 A 
ATOM      9  N1  DZS d   1      13.511  43.048  28.687  0.00  0.00    -0.123 N 
ATOM     10  N2  DZS d   1      15.192  41.522  29.552  0.00  0.00    -0.139 N 
ATOM     11  O1  DZS d   1      17.135  42.335  30.475  0.00  0.00    -0.266 OA
ATOM     12  N3  DZS d   1      12.987  40.886  28.711  0.00  0.00     0.045 NA
ATOM     13  N4  DZS d   1      11.939  41.588  28.125  0.00  0.00    -0.114 NA
ATOM     14  C16 DZS d   1      12.249  42.892  28.185  0.00  0.00     0.186 A 
ATOM     15  H1  DZS d   1      16.728  47.169  29.947  0.00  0.00     0.083 H 
ATOM     16  H2  DZS d   1      17.429  44.823  30.398  0.00  0.00     0.085 H 
ATOM     17  H3  DZS d   1      12.982  45.761  28.317  0.00  0.00     0.087 H 
ATOM     18  H10 DZS d   1      14.571  47.615  28.784  0.00  0.00     0.083 H 
ENDROOT
BRANCH  10  19
ATOM     19  C9  DZS d   1      15.537  40.118  29.835  0.00  0.00     0.045 C 
ATOM     20  H11 DZS d   1      16.597  39.985  29.575  0.00  0.00     0.073 H 
ATOM     21  H12 DZS d   1      14.916  39.492  29.177  0.00  0.00     0.073 H 
BRANCH  19  22
ATOM     22  C10 DZS d   1      15.353  39.597  31.261  0.00  0.00    -0.018 A 
ATOM     23  C11 DZS d   1      15.664  38.231  31.475  0.00  0.00     0.042 A 
ATOM     24  C12 DZS d   1      15.553  37.635  32.762  0.00  0.00    -0.061 A 
ATOM     25 CL1  DZS d   1      16.242  37.308  30.139  0.00  0.00    -0.084 Cl
ATOM     26  C13 DZS d   1      15.100  38.409  33.850  0.00  0.00    -0.081 A 
ATOM     27  H4  DZS d   1      15.815  36.593  32.905  0.00  0.00     0.086 H 
ATOM     28  C14 DZS d   1      14.761  39.775  33.644  0.00  0.00    -0.082 A 
ATOM     29  H5  DZS d   1      15.011  37.967  34.836  0.00  0.00     0.083 H 
ATOM     30  C15 DZS d   1      14.908  40.380  32.366  0.00  0.00    -0.074 A 
ATOM     31  H6  DZS d   1      14.385  40.363  34.473  0.00  0.00     0.083 H 
ATOM     32  H13 DZS d   1      14.683  41.432  32.232  0.00  0.00     0.084 H 
ENDBRANCH  19  22
ENDBRANCH  10  19
BRANCH  14  33
ATOM     33  C17 DZS d   1      11.408  43.858  27.486  0.00  0.00     0.047 A 
ATOM     34  C18 DZS d   1      10.253  44.411  28.084  0.00  0.00    -0.050 A 
ATOM     35  C19 DZS d   1       9.491  45.384  27.402  0.00  0.00     0.041 A 
ATOM     36  H7  DZS d   1       9.950  44.086  29.073  0.00  0.00     0.086 H 
ATOM     37  C21 DZS d   1       9.852  45.766  26.079  0.00  0.00    -0.064 A 
ATOM     38  C22 DZS d   1      11.015  45.246  25.472  0.00  0.00    -0.049 A 
ATOM     39  H8  DZS d   1       9.227  46.463  25.532  0.00  0.00     0.085 H 
ATOM     40  C23 DZS d   1      11.783  44.278  26.170  0.00  0.00     0.079 A 
ATOM     41  H9  DZS d   1      11.318  45.581  24.486  0.00  0.00     0.087 H 
BRANCH  35  42
ATOM     42  C20 DZS d   1       8.192  45.859  27.984  0.00  0.00     0.209 C 
ATOM     43  O2  DZS d   1       8.064  45.751  29.330  0.00  0.00    -0.644 OA
ATOM     44  O3  DZS d   1       7.271  46.238  27.268  0.00  0.00    -0.644 OA
ENDBRANCH  35  42
BRANCH  40  45
ATOM     45  O4  DZS d   1      12.924  43.783  25.603  0.00  0.00    -0.360 OA
ATOM     46  H14 DZS d   1      12.710  43.361  24.779  0.00  0.00     0.217 HD
ENDBRANCH  40  45
ENDBRANCH  14  33
TORSDOF 5
