REMARK  8 active torsions:
REMARK  status: ('A' for Active; 'I' for Inactive)
REMARK    1  A    between atoms: C14_11  and  O1_30 
REMARK    2  A    between atoms: C18_13  and  C17_12 
REMARK    3  A    between atoms: C17_12  and  N1_24 
REMARK    4  A    between atoms: C24_35  and  C21_16 
REMARK    5  A    between atoms: C28_22  and  C29_38 
REMARK    6  A    between atoms: C9_26  and  C10_29 
REMARK    7  A    between atoms: O1_30  and  C15_31 
REMARK    8  A    between atoms: C16_32  and  O2_33 
REMARK       I    between atoms: C24_35  and  N5_37 
ROOT
ATOM      1  C2  DYV d   1      15.082  46.270  28.958  0.00  0.00    -0.081 A 
ATOM      2  C3  DYV d   1      14.204  45.189  28.709  0.00  0.00    -0.055 A 
ATOM      3  C4  DYV d   1      14.616  43.854  29.003  0.00  0.00     0.074 A 
ATOM      4  C5  DYV d   1      15.932  43.640  29.550  0.00  0.00     0.060 A 
ATOM      5  C6  DYV d   1      16.771  44.741  29.837  0.00  0.00    -0.065 A 
ATOM      6  C7  DYV d   1      16.424  42.243  29.851  0.00  0.00     0.274 A 
ATOM      7  C8  DYV d   1      14.233  41.476  29.053  0.00  0.00     0.737 A 
ATOM      8  C1  DYV d   1      16.357  46.054  29.529  0.00  0.00    -0.082 A 
ATOM      9  N1  DYV d   1      15.525  41.234  29.617  0.00  0.00    -0.139 N 
ATOM     10  N2  DYV d   1      13.829  42.695  28.710  0.00  0.00    -0.123 N 
ATOM     11  C9  DYV d   1      12.562  42.522  28.250  0.00  0.00     0.186 A 
ATOM     12  N3  DYV d   1      12.242  41.227  28.243  0.00  0.00    -0.114 NA
ATOM     13  N4  DYV d   1      13.339  40.541  28.749  0.00  0.00     0.045 NA
ATOM     14  O6  DYV d   1      17.554  42.087  30.359  0.00  0.00    -0.266 OA
ATOM     15  H1  DYV d   1      14.773  47.278  28.707  0.00  0.00     0.083 H 
ATOM     16  H2  DYV d   1      13.219  45.374  28.295  0.00  0.00     0.087 H 
ATOM     17  H3  DYV d   1      17.739  44.575  30.297  0.00  0.00     0.085 H 
ATOM     18  H19 DYV d   1      17.013  46.893  29.729  0.00  0.00     0.083 H 
ENDROOT
BRANCH   9  19
ATOM     19  C17 DYV d   1      15.910  39.832  29.840  0.00  0.00     0.045 C 
ATOM     20  H7  DYV d   1      15.275  39.206  29.196  0.00  0.00     0.073 H 
ATOM     21  H8  DYV d   1      16.961  39.723  29.535  0.00  0.00     0.073 H 
BRANCH  19  22
ATOM     22  C18 DYV d   1      15.786  39.305  31.257  0.00  0.00    -0.018 A 
ATOM     23  C19 DYV d   1      15.278  40.125  32.297  0.00  0.00    -0.073 A 
ATOM     24  C20 DYV d   1      15.187  39.604  33.602  0.00  0.00    -0.067 A 
ATOM     25  H9  DYV d   1      14.963  41.141  32.090  0.00  0.00     0.084 H 
ATOM     26  C21 DYV d   1      15.602  38.273  33.899  0.00  0.00     0.033 A 
ATOM     27  H10 DYV d   1      14.793  40.227  34.397  0.00  0.00     0.085 H 
ATOM     28  C22 DYV d   1      16.128  37.471  32.847  0.00  0.00    -0.046 A 
ATOM     29  C23 DYV d   1      16.197  37.980  31.530  0.00  0.00     0.043 A 
ATOM     30  H11 DYV d   1      16.477  36.466  33.057  0.00  0.00     0.087 H 
ATOM     31 CL1  DYV d   1      16.857  37.010  30.254  0.00  0.00    -0.084 Cl
BRANCH  26  32
ATOM     32  C24 DYV d   1      15.428  37.721  35.302  0.00  0.00     0.254 C 
ATOM     33  O3  DYV d   1      15.533  36.508  35.515  0.00  0.00    -0.267 OA
ATOM     34  N5  DYV d   1      15.125  38.549  36.332  0.00  0.00    -0.333 N 
ATOM     35  C25 DYV d   1      13.801  38.742  36.936  0.00  0.00    -0.001 C 
ATOM     36  C28 DYV d   1      16.058  39.333  37.165  0.00  0.00     0.099 C 
ATOM     37  C26 DYV d   1      14.113  38.508  38.422  0.00  0.00    -0.048 C 
ATOM     38  H12 DYV d   1      13.422  39.759  36.759  0.00  0.00     0.064 H 
ATOM     39  H13 DYV d   1      13.074  38.009  36.556  0.00  0.00     0.064 H 
ATOM     40  C27 DYV d   1      15.573  38.961  38.581  0.00  0.00    -0.035 C 
ATOM     41  H14 DYV d   1      14.005  37.444  38.680  0.00  0.00     0.035 H 
ATOM     42  H15 DYV d   1      13.447  39.109  39.059  0.00  0.00     0.035 H 
ATOM     43  H16 DYV d   1      16.184  38.144  38.992  0.00  0.00     0.036 H 
ATOM     44  H17 DYV d   1      15.632  39.834  39.247  0.00  0.00     0.036 H 
ATOM     45  H18 DYV d   1      15.899  40.405  36.977  0.00  0.00     0.089 H 
BRANCH  36  46
ATOM     46  C29 DYV d   1      17.566  39.055  36.973  0.00  0.00     0.197 C 
ATOM     47  O4  DYV d   1      17.987  38.023  36.455  0.00  0.00    -0.646 OA
ATOM     48  O5  DYV d   1      18.445  40.000  37.407  0.00  0.00    -0.646 OA
ENDBRANCH  36  46
ENDBRANCH  26  32
ENDBRANCH  19  22
ENDBRANCH   9  19
BRANCH  11  49
ATOM     49  C10 DYV d   1      11.622  43.544  27.783  0.00  0.00     0.049 A 
ATOM     50  C11 DYV d   1      10.614  44.038  28.664  0.00  0.00    -0.066 A 
ATOM     51  C12 DYV d   1       9.764  45.077  28.228  0.00  0.00    -0.079 A 
ATOM     52  H4  DYV d   1      10.502  43.620  29.658  0.00  0.00     0.085 H 
ATOM     53  C13 DYV d   1       9.909  45.636  26.937  0.00  0.00    -0.048 A 
ATOM     54  H5  DYV d   1       8.991  45.451  28.890  0.00  0.00     0.083 H 
ATOM     55  C14 DYV d   1      10.908  45.154  26.038  0.00  0.00     0.102 A 
ATOM     56  H6  DYV d   1       9.253  46.441  26.626  0.00  0.00     0.087 H 
ATOM     57  C16 DYV d   1      11.781  44.133  26.498  0.00  0.00     0.113 A 
BRANCH  55  58
ATOM     58  O1  DYV d   1      11.176  45.665  24.771  0.00  0.00    -0.353 OA
BRANCH  58  59
ATOM     59  C15 DYV d   1      10.138  45.985  23.853  0.00  0.00     0.010 C 
ATOM     60  H20 DYV d   1      10.578  46.371  22.922  0.00  0.00     0.066 H 
ATOM     61  H21 DYV d   1       9.482  46.751  24.293  0.00  0.00     0.066 H 
ATOM     62  H22 DYV d   1       9.550  45.081  23.634  0.00  0.00     0.066 H 
ENDBRANCH  58  59
ENDBRANCH  55  58
BRANCH  57  63
ATOM     63  O2  DYV d   1      12.761  43.690  25.662  0.00  0.00    -0.357 OA
ATOM     64  H23 DYV d   1      12.731  44.184  24.851  0.00  0.00     0.217 HD
ENDBRANCH  57  63
ENDBRANCH  11  49
TORSDOF 8
