REMARK WARNING: 32 MAX_TORS EXCEEDED!!!
REMARK  74 active torsions:
REMARK  status: ('A' for Active; 'I' for Inactive)
REMARK    1  A    between atoms: N_1  and  CA_2 
REMARK    2  A    between atoms: CA_2  and  C_3 
REMARK    3  A    between atoms: CA_2  and  CB_5 
REMARK       I    between atoms: C_3  and  N_10 
REMARK    4  A    between atoms: CB_5  and  CG_6 
REMARK    5  A    between atoms: CG_6  and  CD_7 
REMARK    6  A    between atoms: CD_7  and  CE_8 
REMARK    7  A    between atoms: CE_8  and  NZ_9 
REMARK    8  A    between atoms: N_10  and  CA_11 
REMARK    9  A    between atoms: CA_11  and  C_12 
REMARK   10  A    between atoms: CA_11  and  CB_14 
REMARK       I    between atoms: C_12  and  N_24 
REMARK   11  A    between atoms: CB_14  and  CG_15 
REMARK   12  A    between atoms: N_24  and  CA_25 
REMARK   13  A    between atoms: CA_25  and  C_26 
REMARK   14  A    between atoms: CA_25  and  CB_28 
REMARK       I    between atoms: C_26  and  N_31 
REMARK   15  A    between atoms: CB_28  and  OG1_29 
REMARK   16  A    between atoms: CB_28  and  CG2_30 
REMARK   17  A    between atoms: N_31  and  CA_32 
REMARK   18  A    between atoms: CA_32  and  C_33 
REMARK   19  A    between atoms: CA_32  and  CB_35 
REMARK       I    between atoms: C_33  and  N_39 
REMARK   20  A    between atoms: CB_35  and  CG_36 
REMARK   21  A    between atoms: CG_36  and  CD1_37 
REMARK   22  A    between atoms: CG_36  and  CD2_38 
REMARK   23  A    between atoms: N_39  and  CA_40 
REMARK   24  A    between atoms: CA_40  and  C_41 
REMARK   25  A    between atoms: CA_40  and  CB_43 
REMARK       I    between atoms: C_41  and  N_48 
REMARK   26  A    between atoms: CB_43  and  CG_44 
REMARK   27  A    between atoms: CG_44  and  CD_45 
REMARK   28  A    between atoms: N_48  and  CA_49 
REMARK   29  A    between atoms: CA_49  and  C_50 
REMARK   30  A    between atoms: CA_49  and  CB_52 
REMARK       I    between atoms: C_50  and  N_59 
REMARK   31  A    between atoms: CB_52  and  CG_53 
REMARK   32  A    between atoms: CG_53  and  CD_54 
REMARK   33  A    between atoms: CD_54  and  NE_55 
REMARK       I    between atoms: NE_55  and  CZ_56 
REMARK       I    between atoms: CZ_56  and  NH1_57 
REMARK       I    between atoms: CZ_56  and  NH2_58 
REMARK   34  A    between atoms: N_59  and  CA_60 
REMARK   35  A    between atoms: CA_60  and  C_61 
REMARK   36  A    between atoms: CA_60  and  CB_63 
REMARK       I    between atoms: C_61  and  N_67 
REMARK   37  A    between atoms: CB_63  and  CG_64 
REMARK   38  A    between atoms: CG_64  and  CD1_65 
REMARK   39  A    between atoms: CG_64  and  CD2_66 
REMARK   40  A    between atoms: N_67  and  CA_68 
REMARK   41  A    between atoms: CA_68  and  C_69 
REMARK   42  A    between atoms: CA_68  and  CB_71 
REMARK       I    between atoms: C_69  and  N_76 
REMARK   43  A    between atoms: CB_71  and  CG_72 
REMARK   44  A    between atoms: CG_72  and  CD_73 
REMARK   45  A    between atoms: CD_73  and  CE_74 
REMARK   46  A    between atoms: CE_74  and  NZ_75 
REMARK   47  A    between atoms: N_76  and  CA_77 
REMARK   48  A    between atoms: CA_77  and  C_78 
REMARK   49  A    between atoms: CA_77  and  CB_80 
REMARK       I    between atoms: C_78  and  N_87 
REMARK   50  A    between atoms: CB_80  and  CG_81 
REMARK   51  A    between atoms: CG_81  and  CD_82 
REMARK   52  A    between atoms: CD_82  and  NE_83 
REMARK       I    between atoms: NE_83  and  CZ_84 
REMARK       I    between atoms: CZ_84  and  NH1_85 
REMARK       I    between atoms: CZ_84  and  NH2_86 
REMARK   53  A    between atoms: N_87  and  CA_88 
REMARK   54  A    between atoms: CA_88  and  C_89 
REMARK   55  A    between atoms: CA_88  and  CB_91 
REMARK       I    between atoms: C_89  and  N_96 
REMARK   56  A    between atoms: CB_91  and  CG_92 
REMARK   57  A    between atoms: CG_92  and  CD_93 
REMARK   58  A    between atoms: CD_93  and  CE_94 
REMARK   59  A    between atoms: CE_94  and  NZ_95 
REMARK   60  A    between atoms: N_96  and  CA_97 
REMARK   61  A    between atoms: CA_97  and  C_98 
REMARK   62  A    between atoms: CA_97  and  CB_100 
REMARK       I    between atoms: C_98  and  N_108 
REMARK   63  A    between atoms: CB_100  and  CG_101 
REMARK   64  A    between atoms: CZ_106  and  OH_107 
REMARK   65  A    between atoms: N_108  and  CA_109 
REMARK   66  A    between atoms: CA_109  and  C_110 
REMARK   67  A    between atoms: CA_109  and  CB_112 
REMARK       I    between atoms: C_110  and  N_119 
REMARK   68  A    between atoms: CB_112  and  CG_113 
REMARK   69  A    between atoms: CG_113  and  CD_114 
REMARK   70  A    between atoms: CD_114  and  NE_115 
REMARK       I    between atoms: NE_115  and  CZ_116 
REMARK       I    between atoms: CZ_116  and  NH1_117 
REMARK   71  A    between atoms: N_119  and  CA_120 
REMARK   72  A    between atoms: CA_120  and  C_121 
REMARK   73  A    between atoms: CA_120  and  CB_123 
REMARK   74  A    between atoms: CB_123  and  CG_124 
REMARK       I    between atoms: CG_124  and  ND2_126 
ROOT
ATOM      1  CA  LEU d   1       7.212  -4.496  -3.030  0.00  0.00     0.089 C 
ATOM      2  H64 LEU d   1       7.110  -3.419  -2.829  0.00  0.00     0.087 H 
ENDROOT
BRANCH   1   3
ATOM      3  N   LEU d   1       7.567  -4.656  -4.436  0.00  0.00    -0.346 N 
ATOM      4  C   ARG d   1       8.612  -4.022  -4.955  0.00  0.00     0.241 C 
ATOM      5  O   ARG d   1       9.403  -3.379  -4.269  0.00  0.00    -0.271 OA
ATOM      6  H63 LEU d   1       7.015  -5.253  -5.018  0.00  0.00     0.163 HD
BRANCH   4   7
ATOM      7  CA  ARG d   1       8.822  -4.153  -6.462  0.00  0.00     0.089 C 
ATOM      8  H51 ARG d   1       9.762  -3.644  -6.721  0.00  0.00     0.087 H 
BRANCH   7   9
ATOM      9  N   ARG d   1       8.942  -5.549  -6.860  0.00  0.00    -0.346 N 
ATOM     10  C   GLU d   1       9.961  -6.295  -6.452  0.00  0.00     0.241 C 
ATOM     11  O   GLU d   1      10.794  -5.897  -5.634  0.00  0.00    -0.271 OA
ATOM     12  H50 ARG d   1       8.244  -5.953  -7.451  0.00  0.00     0.163 HD
BRANCH  10  13
ATOM     13  CA  GLU d   1      10.038  -7.718  -7.010  0.00  0.00     0.090 C 
ATOM     14  H45 GLU d   1      11.008  -8.149  -6.720  0.00  0.00     0.087 H 
BRANCH  13  15
ATOM     15  N   GLU d   1       8.982  -8.557  -6.459  0.00  0.00    -0.346 N 
ATOM     16  C   LEU d   1       8.828  -8.710  -5.149  0.00  0.00     0.241 C 
ATOM     17  O   LEU d   1       9.535  -8.139  -4.327  0.00  0.00    -0.271 OA
ATOM     18  H44 GLU d   1       8.358  -9.029  -7.082  0.00  0.00     0.163 HD
BRANCH  16  19
ATOM     19  CA  LEU d   1       7.687  -9.614  -4.681  0.00  0.00     0.089 C 
ATOM     20  H34 LEU d   1       7.420  -9.300  -3.661  0.00  0.00     0.087 H 
BRANCH  19  21
ATOM     21  N   LEU d   1       6.484  -9.492  -5.507  0.00  0.00    -0.346 N 
ATOM     22  C   THR d   1       6.010  -8.321  -5.941  0.00  0.00     0.243 C 
ATOM     23  O   THR d   1       6.571  -7.238  -5.742  0.00  0.00    -0.271 OA
ATOM     24  H33 LEU d   1       5.993 -10.326  -5.758  0.00  0.00     0.163 HD
BRANCH  22  25
ATOM     25  CA  THR d   1       4.691  -8.376  -6.704  0.00  0.00     0.113 C 
ATOM     26  H27 THR d   1       3.884  -8.558  -5.979  0.00  0.00     0.091 H 
BRANCH  25  27
ATOM     27  N   THR d   1       4.421  -7.120  -7.374  0.00  0.00    -0.344 N 
ATOM     28  C   TRP d   1       3.953  -6.069  -6.726  0.00  0.00     0.241 C 
ATOM     29  O   TRP d   1       3.731  -6.076  -5.518  0.00  0.00    -0.271 OA
ATOM     30  H26 THR d   1       4.594  -7.047  -8.356  0.00  0.00     0.163 HD
BRANCH  28  31
ATOM     31  CA  TRP d   1       3.703  -4.833  -7.589  0.00  0.00     0.093 C 
ATOM     32  H17 TRP d   1       4.651  -4.289  -7.711  0.00  0.00     0.088 H 
BRANCH  31  33
ATOM     33  N   TRP d   1       3.219  -5.249  -8.894  0.00  0.00    -0.346 N 
ATOM     34  C   LYS d   1       3.574  -4.628 -10.010  0.00  0.00     0.249 C 
ATOM     35  O   LYS d   1       4.346  -3.669 -10.030  0.00  0.00    -0.271 OA
ATOM     36  H16 TRP d   1       2.597  -6.030  -8.952  0.00  0.00     0.163 HD
BRANCH  34  37
ATOM     37  CA  LYS d   1       2.969  -5.175 -11.298  0.00  0.00     0.176 C 
ATOM     38  H4  LYS d   1       3.234  -4.505 -12.129  0.00  0.00     0.099 H 
BRANCH  37  39
ATOM     39  N   LYS d   1       3.507  -6.524 -11.581  0.00  0.00    -0.067 N 
ATOM     40  H1  LYS d   1       3.101  -6.876 -12.434  0.00  0.00     0.275 HD
ATOM     41  H2  LYS d   1       3.278  -7.144 -10.819  0.00  0.00     0.275 HD
ATOM     42  H3  LYS d   1       4.508  -6.472 -11.683  0.00  0.00     0.275 HD
ENDBRANCH  37  39
BRANCH  37  43
ATOM     43  CB  LYS d   1       1.442  -5.231 -11.173  0.00  0.00    -0.030 C 
ATOM     44  H5  LYS d   1       1.190  -5.822 -10.280  0.00  0.00     0.036 H 
ATOM     45  H6  LYS d   1       1.040  -5.729 -12.068  0.00  0.00     0.036 H 
BRANCH  43  46
ATOM     46  CG  LYS d   1       0.779  -3.867 -11.047  0.00  0.00    -0.061 C 
ATOM     47  H7  LYS d   1       0.839  -3.349 -12.015  0.00  0.00     0.033 H 
ATOM     48  H8  LYS d   1       1.310  -3.280 -10.283  0.00  0.00     0.033 H 
BRANCH  46  49
ATOM     49  CD  LYS d   1      -0.682  -3.997 -10.645  0.00  0.00    -0.043 C 
ATOM     50  H9  LYS d   1      -0.735  -4.385  -9.617  0.00  0.00     0.035 H 
ATOM     51  H10 LYS d   1      -1.177  -4.702 -11.329  0.00  0.00     0.035 H 
BRANCH  49  52
ATOM     52  CE  LYS d   1      -1.410  -2.661 -10.704  0.00  0.00     0.080 C 
ATOM     53  H11 LYS d   1      -0.849  -1.925 -10.109  0.00  0.00     0.075 H 
ATOM     54  H12 LYS d   1      -2.417  -2.786 -10.278  0.00  0.00     0.075 H 
BRANCH  52  55
ATOM     55  NZ  LYS d   1      -1.538  -2.154 -12.098  0.00  0.00    -0.079 N 
ATOM     56  H13 LYS d   1      -2.024  -1.271 -12.091  0.00  0.00     0.274 HD
ATOM     57  H14 LYS d   1      -2.056  -2.818 -12.651  0.00  0.00     0.274 HD
ATOM     58  H15 LYS d   1      -0.620  -2.029 -12.496  0.00  0.00     0.274 HD
ENDBRANCH  52  55
ENDBRANCH  49  52
ENDBRANCH  46  49
ENDBRANCH  43  46
ENDBRANCH  37  43
ENDBRANCH  34  37
ENDBRANCH  31  33
BRANCH  31  59
ATOM     59  CB  TRP d   1       2.677  -3.897  -6.942  0.00  0.00    -0.012 C 
ATOM     60  H18 TRP d   1       1.761  -4.474  -6.747  0.00  0.00     0.044 H 
ATOM     61  H19 TRP d   1       2.456  -3.087  -7.652  0.00  0.00     0.044 H 
BRANCH  59  62
ATOM     62  CG  TRP d   1       3.123  -3.278  -5.651  0.00  0.00    -0.028 A 
ATOM     63  CD1 TRP d   1       4.330  -2.700  -5.380  0.00  0.00    -0.015 A 
ATOM     64  NE1 TRP d   1       4.348  -2.228  -4.093  0.00  0.00    -0.365 N 
ATOM     65  H20 TRP d   1       5.158  -2.625  -6.084  0.00  0.00     0.112 H 
ATOM     66  CE2 TRP d   1       3.145  -2.505  -3.505  0.00  0.00     0.042 A 
ATOM     67  H21 TRP d   1       5.138  -1.744  -3.643  0.00  0.00     0.165 HD
ATOM     68  CD2 TRP d   1       2.349  -3.167  -4.459  0.00  0.00    -0.002 A 
ATOM     69  CZ2 TRP d   1       2.691  -2.228  -2.223  0.00  0.00    -0.056 A 
ATOM     70  CE3 TRP d   1       1.058  -3.561  -4.105  0.00  0.00    -0.070 A 
ATOM     71  CZ3 TRP d   1       0.614  -3.286  -2.829  0.00  0.00    -0.082 A 
ATOM     72  H22 TRP d   1       0.419  -4.071  -4.817  0.00  0.00     0.084 H 
ATOM     73  CH2 TRP d   1       1.426  -2.626  -1.904  0.00  0.00    -0.081 A 
ATOM     74  H24 TRP d   1      -0.386  -3.588  -2.538  0.00  0.00     0.083 H 
ATOM     75  H25 TRP d   1       1.042  -2.425  -0.910  0.00  0.00     0.083 H 
ATOM     76  H23 TRP d   1       3.318  -1.715  -1.503  0.00  0.00     0.086 H 
ENDBRANCH  59  62
ENDBRANCH  31  59
ENDBRANCH  28  31
ENDBRANCH  25  27
BRANCH  25  77
ATOM     77  CB  THR d   1       4.697  -9.531  -7.717  0.00  0.00     0.060 C 
ATOM     78  H28 THR d   1       5.254 -10.377  -7.288  0.00  0.00     0.086 H 
BRANCH  77  79
ATOM     79  OG1 THR d   1       5.342  -9.116  -8.930  0.00  0.00    -0.393 OA
ATOM     80  H29 THR d   1       5.341  -9.836  -9.550  0.00  0.00     0.210 HD
ENDBRANCH  77  79
BRANCH  77  81
ATOM     81  CG2 THR d   1       3.277  -9.979  -8.016  0.00  0.00    -0.050 C 
ATOM     82  H30 THR d   1       3.298 -10.805  -8.742  0.00  0.00     0.031 H 
ATOM     83  H31 THR d   1       2.708  -9.137  -8.436  0.00  0.00     0.031 H 
ATOM     84  H32 THR d   1       2.797 -10.319  -7.087  0.00  0.00     0.031 H 
ENDBRANCH  77  81
ENDBRANCH  25  77
ENDBRANCH  22  25
ENDBRANCH  19  21
BRANCH  19  85
ATOM     85  CB  LEU d   1       8.138 -11.086  -4.618  0.00  0.00    -0.035 C 
ATOM     86  H35 LEU d   1       7.437 -11.624  -3.963  0.00  0.00     0.037 H 
ATOM     87  H36 LEU d   1       9.145 -11.110  -4.175  0.00  0.00     0.037 H 
BRANCH  85  88
ATOM     88  CG  LEU d   1       8.198 -11.838  -5.958  0.00  0.00    -0.059 C 
ATOM     89  H37 LEU d   1       7.401 -11.445  -6.607  0.00  0.00     0.038 H 
BRANCH  88  90
ATOM     90  CD1 LEU d   1       9.530 -11.619  -6.659  0.00  0.00    -0.073 C 
ATOM     91  H38 LEU d   1       9.538 -12.170  -7.611  0.00  0.00     0.028 H 
ATOM     92  H39 LEU d   1      10.346 -11.983  -6.018  0.00  0.00     0.028 H 
ATOM     93  H40 LEU d   1       9.669 -10.546  -6.855  0.00  0.00     0.028 H 
ENDBRANCH  88  90
BRANCH  88  94
ATOM     94  CD2 LEU d   1       7.952 -13.323  -5.743  0.00  0.00    -0.073 C 
ATOM     95  H41 LEU d   1       6.986 -13.465  -5.236  0.00  0.00     0.028 H 
ATOM     96  H42 LEU d   1       8.757 -13.742  -5.122  0.00  0.00     0.028 H 
ATOM     97  H43 LEU d   1       7.934 -13.836  -6.716  0.00  0.00     0.028 H 
ENDBRANCH  88  94
ENDBRANCH  85  88
ENDBRANCH  19  85
ENDBRANCH  16  19
ENDBRANCH  13  15
BRANCH  13  98
ATOM     98  CB  GLU d   1       9.954  -7.700  -8.538  0.00  0.00    -0.029 C 
ATOM     99  H46 GLU d   1       8.966  -7.312  -8.825  0.00  0.00     0.037 H 
ATOM    100  H47 GLU d   1      10.063  -8.732  -8.902  0.00  0.00     0.037 H 
BRANCH  98 101
ATOM    101  CG  GLU d   1      11.016  -6.843  -9.206  0.00  0.00     0.018 C 
ATOM    102  H48 GLU d   1      12.007  -7.174  -8.861  0.00  0.00     0.049 H 
ATOM    103  H49 GLU d   1      10.858  -5.794  -8.916  0.00  0.00     0.049 H 
BRANCH 101 104
ATOM    104  CD  GLU d   1      10.968  -6.944 -10.713  0.00  0.00     0.172 C 
ATOM    105  OE1 GLU d   1      11.873  -7.573 -11.300  0.00  0.00    -0.648 OA
ATOM    106  OE2 GLU d   1      10.018  -6.408 -11.321  0.00  0.00    -0.648 OA
ENDBRANCH 101 104
ENDBRANCH  98 101
ENDBRANCH  13  98
ENDBRANCH  10  13
ENDBRANCH   7   9
BRANCH   7 107
ATOM    107  CB  ARG d   1       7.683  -3.465  -7.222  0.00  0.00    -0.036 C 
ATOM    108  H52 ARG d   1       6.747  -4.003  -7.010  0.00  0.00     0.036 H 
ATOM    109  H53 ARG d   1       7.901  -3.517  -8.299  0.00  0.00     0.036 H 
BRANCH 107 110
ATOM    110  CG  ARG d   1       7.497  -2.002  -6.837  0.00  0.00    -0.048 C 
ATOM    111  H54 ARG d   1       8.456  -1.478  -6.960  0.00  0.00     0.035 H 
ATOM    112  H55 ARG d   1       7.183  -1.949  -5.784  0.00  0.00     0.035 H 
BRANCH 110 113
ATOM    113  CD  ARG d   1       6.447  -1.313  -7.698  0.00  0.00     0.009 C 
ATOM    114  H56 ARG d   1       6.244  -0.317  -7.278  0.00  0.00     0.064 H 
ATOM    115  H57 ARG d   1       5.525  -1.913  -7.679  0.00  0.00     0.064 H 
BRANCH 113 116
ATOM    116  NE  ARG d   1       6.877  -1.159  -9.083  0.00  0.00    -0.227 N 
ATOM    117  CZ  ARG d   1       6.229  -0.425  -9.982  0.00  0.00     0.665 C 
ATOM    118  NH1 ARG d   1       5.118   0.221  -9.646  0.00  0.00    -0.235 N 
ATOM    119  NH2 ARG d   1       6.688  -0.343 -11.223  0.00  0.00    -0.235 N 
ATOM    120  H59 ARG d   1       4.620   0.788 -10.347  0.00  0.00     0.174 HD
ATOM    121  H60 ARG d   1       4.754   0.155  -8.685  0.00  0.00     0.174 HD
ATOM    122  H61 ARG d   1       7.549  -0.842 -11.488  0.00  0.00     0.174 HD
ATOM    123  H62 ARG d   1       6.184   0.220 -11.922  0.00  0.00     0.174 HD
ATOM    124  H58 ARG d   1       7.733  -1.648  -9.382  0.00  0.00     0.177 HD
ENDBRANCH 113 116
ENDBRANCH 110 113
ENDBRANCH 107 110
ENDBRANCH   7 107
ENDBRANCH   4   7
ENDBRANCH   1   3
BRANCH   1 125
ATOM    125  C   LEU d   1       8.288  -5.048  -2.108  0.00  0.00     0.241 C 
ATOM    126  O   LEU d   1       8.909  -4.298  -1.364  0.00  0.00    -0.271 OA
ATOM    127  N   LYS d   1       8.524  -6.350  -2.180  0.00  0.00    -0.346 N 
ATOM    128  H74 LYS d   1       8.111  -6.883  -2.919  0.00  0.00     0.163 HD
BRANCH 127 129
ATOM    129  CA  LYS d   1       9.373  -7.021  -1.205  0.00  0.00     0.089 C 
ATOM    130  H75 LYS d   1       8.961  -6.828  -0.203  0.00  0.00     0.087 H 
BRANCH 129 131
ATOM    131  C   LYS d   1      10.800  -6.482  -1.241  0.00  0.00     0.241 C 
ATOM    132  O   LYS d   1      11.432  -6.323  -0.195  0.00  0.00    -0.271 OA
ATOM    133  N   ARG d   1      11.298  -6.161  -2.431  0.00  0.00    -0.346 N 
ATOM    134  H87 ARG d   1      10.723  -6.236  -3.246  0.00  0.00     0.163 HD
BRANCH 133 135
ATOM    135  CA  ARG d   1      12.672  -5.701  -2.559  0.00  0.00     0.089 C 
ATOM    136  H88 ARG d   1      13.274  -6.255  -1.824  0.00  0.00     0.087 H 
BRANCH 135 137
ATOM    137  C   ARG d   1      12.814  -4.212  -2.237  0.00  0.00     0.241 C 
ATOM    138  O   ARG d   1      13.927  -3.717  -2.081  0.00  0.00    -0.271 OA
ATOM    139  N   LYS d   1      11.700  -3.492  -2.157  0.00  0.00    -0.346 N 
ATOM    140 0H10 LYS d   1      10.833  -3.894  -2.451  0.00  0.00     0.163 HD
BRANCH 139 141
ATOM    141  CA  LYS d   1      11.721  -2.119  -1.645  0.00  0.00     0.089 C 
ATOM    142 1H10 LYS d   1      12.742  -1.724  -1.752  0.00  0.00     0.087 H 
BRANCH 141 143
ATOM    143  C   LYS d   1      11.343  -2.101  -0.166  0.00  0.00     0.241 C 
ATOM    144  O   LYS d   1      11.553  -1.113   0.536  0.00  0.00    -0.271 OA
ATOM    145  N   TYR d   1      10.782  -3.209   0.290  0.00  0.00    -0.346 N 
ATOM    146 3H11 TYR d   1      10.684  -3.987  -0.331  0.00  0.00     0.163 HD
BRANCH 145 147
ATOM    147  CA  TYR d   1      10.302  -3.343   1.658  0.00  0.00     0.093 C 
ATOM    148 4H11 TYR d   1       9.973  -2.359   2.023  0.00  0.00     0.088 H 
BRANCH 147 149
ATOM    149  C   TYR d   1      11.410  -3.860   2.569  0.00  0.00     0.241 C 
ATOM    150  O   TYR d   1      11.764  -3.223   3.562  0.00  0.00    -0.271 OA
ATOM    151  N   ARG d   1      11.953  -5.019   2.218  0.00  0.00    -0.346 N 
ATOM    152 2H12 ARG d   1      11.662  -5.454   1.366  0.00  0.00     0.163 HD
BRANCH 151 153
ATOM    153  CA  ARG d   1      12.960  -5.675   3.039  0.00  0.00     0.089 C 
ATOM    154 3H12 ARG d   1      12.653  -5.601   4.093  0.00  0.00     0.087 H 
BRANCH 153 155
ATOM    155  C   ARG d   1      14.314  -4.988   2.886  0.00  0.00     0.241 C 
ATOM    156  O   ARG d   1      15.172  -5.074   3.768  0.00  0.00    -0.271 OA
ATOM    157  N   ASN d   1      14.492  -4.294   1.772  0.00  0.00    -0.344 N 
ATOM    158 5H13 ASN d   1      13.763  -4.274   1.088  0.00  0.00     0.163 HD
BRANCH 157 159
ATOM    159  CA  ASN d   1      15.723  -3.559   1.520  0.00  0.00     0.104 C 
ATOM    160 6H13 ASN d   1      16.510  -3.956   2.179  0.00  0.00     0.090 H 
BRANCH 159 161
ATOM    161  C   ASN d   1      15.520  -2.083   1.835  0.00  0.00     0.197 C 
ATOM    162  O   ASN d   1      15.276  -1.296   0.897  0.00  0.00    -0.646 OA
ATOM    163  OXT ASN d   1      15.577  -1.715   3.028  0.00  0.00    -0.646 OA
ENDBRANCH 159 161
BRANCH 159 164
ATOM    164  CB  ASN d   1      16.173  -3.730   0.065  0.00  0.00     0.037 C 
ATOM    165 7H13 ASN d   1      17.066  -3.110  -0.101  0.00  0.00     0.051 H 
ATOM    166 8H13 ASN d   1      15.362  -3.389  -0.595  0.00  0.00     0.051 H 
BRANCH 164 167
ATOM    167  CG  ASN d   1      16.510  -5.167  -0.287  0.00  0.00     0.217 C 
ATOM    168  OD1 ASN d   1      16.951  -5.942   0.560  0.00  0.00    -0.274 OA
ATOM    169  ND2 ASN d   1      16.301  -5.535  -1.542  0.00  0.00    -0.370 N 
ATOM    170 9H13 ASN d   1      16.506  -6.471  -1.829  0.00  0.00     0.159 HD
ATOM    171 0H14 ASN d   1      15.938  -4.877  -2.202  0.00  0.00     0.159 HD
ENDBRANCH 164 167
ENDBRANCH 159 164
ENDBRANCH 157 159
ENDBRANCH 153 155
BRANCH 153 172
ATOM    172  CB  ARG d   1      13.053  -7.160   2.663  0.00  0.00    -0.036 C 
ATOM    173 4H12 ARG d   1      13.374  -7.232   1.613  0.00  0.00     0.036 H 
ATOM    174 5H12 ARG d   1      12.054  -7.608   2.773  0.00  0.00     0.036 H 
BRANCH 172 175
ATOM    175  CG  ARG d   1      14.029  -7.952   3.517  0.00  0.00    -0.048 C 
ATOM    176 6H12 ARG d   1      13.802  -7.771   4.578  0.00  0.00     0.035 H 
ATOM    177 7H12 ARG d   1      15.052  -7.611   3.298  0.00  0.00     0.035 H 
BRANCH 175 178
ATOM    178  CD  ARG d   1      13.939  -9.445   3.242  0.00  0.00     0.009 C 
ATOM    179 8H12 ARG d   1      14.116  -9.622   2.171  0.00  0.00     0.064 H 
ATOM    180 9H12 ARG d   1      12.932  -9.798   3.511  0.00  0.00     0.064 H 
BRANCH 178 181
ATOM    181  NE  ARG d   1      14.927 -10.195   4.016  0.00  0.00    -0.227 N 
ATOM    182  CZ  ARG d   1      14.918 -11.519   4.169  0.00  0.00     0.665 C 
ATOM    183  NH1 ARG d   1      13.940 -12.253   3.650  0.00  0.00    -0.235 N 
ATOM    184  NH2 ARG d   1      15.883 -12.111   4.861  0.00  0.00    -0.235 N 
ATOM    185 1H13 ARG d   1      13.942 -13.275   3.774  0.00  0.00     0.174 HD
ATOM    186 2H13 ARG d   1      13.180 -11.800   3.124  0.00  0.00     0.174 HD
ATOM    187 3H13 ARG d   1      16.645 -11.549   5.267  0.00  0.00     0.174 HD
ATOM    188 4H13 ARG d   1      15.870 -13.133   4.992  0.00  0.00     0.174 HD
ATOM    189 0H13 ARG d   1      15.681  -9.664   4.474  0.00  0.00     0.177 HD
ENDBRANCH 178 181
ENDBRANCH 175 178
ENDBRANCH 172 175
ENDBRANCH 153 172
ENDBRANCH 151 153
ENDBRANCH 147 149
BRANCH 147 190
ATOM    190  CB  TYR d   1       9.110  -4.308   1.667  0.00  0.00    -0.014 C 
ATOM    191 5H11 TYR d   1       9.474  -5.297   1.351  0.00  0.00     0.043 H 
ATOM    192 6H11 TYR d   1       8.372  -3.939   0.940  0.00  0.00     0.043 H 
BRANCH 190 193
ATOM    193  CG  TYR d   1       8.408  -4.475   2.997  0.00  0.00    -0.056 A 
ATOM    194  CD1 TYR d   1       7.111  -4.021   3.157  0.00  0.00    -0.074 A 
ATOM    195  CE1 TYR d   1       6.444  -4.181   4.356  0.00  0.00    -0.051 A 
ATOM    196 7H11 TYR d   1       6.611  -3.532   2.329  0.00  0.00     0.084 H 
ATOM    197  CZ  TYR d   1       7.074  -4.795   5.416  0.00  0.00     0.065 A 
ATOM    198 9H11 TYR d   1       5.426  -3.824   4.463  0.00  0.00     0.087 H 
ATOM    199  CE2 TYR d   1       8.365  -5.256   5.283  0.00  0.00    -0.051 A 
ATOM    200  CD2 TYR d   1       9.024  -5.097   4.079  0.00  0.00    -0.074 A 
ATOM    201 0H12 TYR d   1       8.861  -5.740   6.117  0.00  0.00     0.087 H 
ATOM    202 8H11 TYR d   1      10.039  -5.463   3.975  0.00  0.00     0.084 H 
BRANCH 197 203
ATOM    203  OH  TYR d   1       6.403  -4.955   6.610  0.00  0.00    -0.361 OA
ATOM    204 1H12 TYR d   1       5.531  -4.585   6.534  0.00  0.00     0.217 HD
ENDBRANCH 197 203
ENDBRANCH 190 193
ENDBRANCH 147 190
ENDBRANCH 145 147
ENDBRANCH 141 143
BRANCH 141 205
ATOM    205  CB  LYS d   1      10.766  -1.219  -2.436  0.00  0.00    -0.038 C 
ATOM    206 2H10 LYS d   1      10.659  -0.268  -1.894  0.00  0.00     0.036 H 
ATOM    207 3H10 LYS d   1       9.788  -1.720  -2.495  0.00  0.00     0.036 H 
BRANCH 205 208
ATOM    208  CG  LYS d   1      11.232  -0.912  -3.853  0.00  0.00    -0.061 C 
ATOM    209 4H10 LYS d   1      10.440  -0.356  -4.377  0.00  0.00     0.033 H 
ATOM    210 5H10 LYS d   1      11.425  -1.859  -4.378  0.00  0.00     0.033 H 
BRANCH 208 211
ATOM    211  CD  LYS d   1      12.505  -0.078  -3.856  0.00  0.00    -0.043 C 
ATOM    212 6H10 LYS d   1      13.301  -0.641  -3.347  0.00  0.00     0.035 H 
ATOM    213 7H10 LYS d   1      12.317   0.862  -3.316  0.00  0.00     0.035 H 
BRANCH 211 214
ATOM    214  CE  LYS d   1      12.960   0.249  -5.270  0.00  0.00     0.080 C 
ATOM    215 8H10 LYS d   1      13.877   0.855  -5.216  0.00  0.00     0.075 H 
ATOM    216 9H10 LYS d   1      12.169   0.825  -5.773  0.00  0.00     0.075 H 
BRANCH 214 217
ATOM    217  NZ  LYS d   1      13.240  -0.975  -6.064  0.00  0.00    -0.079 N 
ATOM    218 0H11 LYS d   1      13.537  -0.713  -6.991  0.00  0.00     0.274 HD
ATOM    219 1H11 LYS d   1      12.404  -1.535  -6.125  0.00  0.00     0.274 HD
ATOM    220 2H11 LYS d   1      13.969  -1.507  -5.615  0.00  0.00     0.274 HD
ENDBRANCH 214 217
ENDBRANCH 211 214
ENDBRANCH 208 211
ENDBRANCH 205 208
ENDBRANCH 141 205
ENDBRANCH 139 141
ENDBRANCH 135 137
BRANCH 135 221
ATOM    221  CB  ARG d   1      13.231  -6.017  -3.948  0.00  0.00    -0.036 C 
ATOM    222  H89 ARG d   1      14.089  -5.355  -4.137  0.00  0.00     0.036 H 
ATOM    223  H90 ARG d   1      12.445  -5.821  -4.692  0.00  0.00     0.036 H 
BRANCH 221 224
ATOM    224  CG  ARG d   1      13.693  -7.460  -4.105  0.00  0.00    -0.048 C 
ATOM    225  H91 ARG d   1      14.369  -7.705  -3.272  0.00  0.00     0.035 H 
ATOM    226  H92 ARG d   1      14.235  -7.553  -5.057  0.00  0.00     0.035 H 
BRANCH 224 227
ATOM    227  CD  ARG d   1      12.538  -8.456  -4.103  0.00  0.00     0.009 C 
ATOM    228  H93 ARG d   1      12.342  -8.778  -5.136  0.00  0.00     0.064 H 
ATOM    229  H94 ARG d   1      11.642  -7.963  -3.697  0.00  0.00     0.064 H 
BRANCH 227 230
ATOM    230  NE  ARG d   1      12.843  -9.631  -3.290  0.00  0.00    -0.227 N 
ATOM    231  CZ  ARG d   1      12.704 -10.888  -3.705  0.00  0.00     0.665 C 
ATOM    232  NH1 ARG d   1      12.328 -11.145  -4.948  0.00  0.00    -0.235 N 
ATOM    233  NH2 ARG d   1      12.958 -11.892  -2.878  0.00  0.00    -0.235 N 
ATOM    234  H96 ARG d   1      12.222 -12.120  -5.263  0.00  0.00     0.174 HD
ATOM    235  H97 ARG d   1      12.141 -10.370  -5.600  0.00  0.00     0.174 HD
ATOM    236  H98 ARG d   1      13.251 -11.700  -1.909  0.00  0.00     0.174 HD
ATOM    237  H99 ARG d   1      12.862 -12.864  -3.204  0.00  0.00     0.174 HD
ATOM    238  H95 ARG d   1      13.188  -9.476  -2.332  0.00  0.00     0.177 HD
ENDBRANCH 227 230
ENDBRANCH 224 227
ENDBRANCH 221 224
ENDBRANCH 135 221
ENDBRANCH 133 135
ENDBRANCH 129 131
BRANCH 129 239
ATOM    239  CB  LYS d   1       9.362  -8.532  -1.445  0.00  0.00    -0.038 C 
ATOM    240  H76 LYS d   1       9.752  -8.724  -2.455  0.00  0.00     0.036 H 
ATOM    241  H77 LYS d   1       8.322  -8.885  -1.380  0.00  0.00     0.036 H 
BRANCH 239 242
ATOM    242  CG  LYS d   1      10.197  -9.323  -0.453  0.00  0.00    -0.061 C 
ATOM    243  H78 LYS d   1       9.804  -9.153   0.560  0.00  0.00     0.033 H 
ATOM    244  H79 LYS d   1      11.239  -8.974  -0.505  0.00  0.00     0.033 H 
BRANCH 242 245
ATOM    245  CD  LYS d   1      10.160 -10.812  -0.753  0.00  0.00    -0.043 C 
ATOM    246  H80 LYS d   1      10.799 -11.338  -0.028  0.00  0.00     0.035 H 
ATOM    247  H81 LYS d   1      10.543 -10.981  -1.770  0.00  0.00     0.035 H 
BRANCH 245 248
ATOM    248  CE  LYS d   1       8.749 -11.368  -0.660  0.00  0.00     0.080 C 
ATOM    249  H82 LYS d   1       8.151 -10.961  -1.489  0.00  0.00     0.075 H 
ATOM    250  H83 LYS d   1       8.307 -11.057   0.298  0.00  0.00     0.075 H 
BRANCH 248 251
ATOM    251  NZ  LYS d   1       8.731 -12.851  -0.738  0.00  0.00    -0.079 N 
ATOM    252  H84 LYS d   1       7.780 -13.179  -0.673  0.00  0.00     0.274 HD
ATOM    253  H85 LYS d   1       9.271 -13.234   0.022  0.00  0.00     0.274 HD
ATOM    254  H86 LYS d   1       9.129 -13.146  -1.616  0.00  0.00     0.274 HD
ENDBRANCH 248 251
ENDBRANCH 245 248
ENDBRANCH 242 245
ENDBRANCH 239 242
ENDBRANCH 129 239
ENDBRANCH 127 129
ENDBRANCH   1 125
BRANCH   1 255
ATOM    255  CB  LEU d   1       5.874  -5.169  -2.720  0.00  0.00    -0.035 C 
ATOM    256  H65 LEU d   1       5.929  -6.211  -3.069  0.00  0.00     0.037 H 
ATOM    257  H66 LEU d   1       5.089  -4.636  -3.277  0.00  0.00     0.037 H 
BRANCH 255 258
ATOM    258  CG  LEU d   1       5.473  -5.187  -1.235  0.00  0.00    -0.059 C 
ATOM    259  H67 LEU d   1       6.192  -5.816  -0.689  0.00  0.00     0.038 H 
BRANCH 258 260
ATOM    260  CD1 LEU d   1       5.505  -3.790  -0.631  0.00  0.00    -0.073 C 
ATOM    261  H68 LEU d   1       5.213  -3.842   0.428  0.00  0.00     0.028 H 
ATOM    262  H69 LEU d   1       4.803  -3.140  -1.173  0.00  0.00     0.028 H 
ATOM    263  H70 LEU d   1       6.522  -3.379  -0.712  0.00  0.00     0.028 H 
ENDBRANCH 258 260
BRANCH 258 264
ATOM    264  CD2 LEU d   1       4.095  -5.788  -1.086  0.00  0.00    -0.073 C 
ATOM    265  H71 LEU d   1       4.085  -6.796  -1.526  0.00  0.00     0.028 H 
ATOM    266  H72 LEU d   1       3.361  -5.154  -1.605  0.00  0.00     0.028 H 
ATOM    267  H73 LEU d   1       3.836  -5.851  -0.019  0.00  0.00     0.028 H 
ENDBRANCH 258 264
ENDBRANCH 255 258
ENDBRANCH   1 255
TORSDOF 74
