REMARK WARNING: 32 MAX_TORS EXCEEDED!!!
REMARK  52 active torsions:
REMARK  status: ('A' for Active; 'I' for Inactive)
REMARK    1  A    between atoms: C2_2  and  C1_1 
REMARK    2  A    between atoms: C1_1  and  O1A_21 
REMARK    3  A    between atoms: C3_3  and  C2_2 
REMARK    4  A    between atoms: C2_2  and  N2_33 
REMARK    5  A    between atoms: C4_4  and  C3_3 
REMARK    6  A    between atoms: C3_3  and  O3_7 
REMARK    7  A    between atoms: C5_5  and  C4_4 
REMARK    8  A    between atoms: C4_4  and  O4_20 
REMARK    9  A    between atoms: C6_6  and  C5_5 
REMARK   10  A    between atoms: C7_19  and  C6_6 
REMARK   11  A    between atoms: C17_9  and  C18_8 
REMARK   12  A    between atoms: C16_10  and  C17_9 
REMARK   13  A    between atoms: C15_11  and  C16_10 
REMARK   14  A    between atoms: C14_12  and  C15_11 
REMARK   15  A    between atoms: C13_13  and  C14_12 
REMARK   16  A    between atoms: C12_14  and  C13_13 
REMARK   17  A    between atoms: C11_15  and  C12_14 
REMARK   18  A    between atoms: C10_16  and  C11_15 
REMARK   19  A    between atoms: C9_17  and  C10_16 
REMARK   20  A    between atoms: C8_18  and  C9_17 
REMARK   21  A    between atoms: C8_18  and  C7_19 
REMARK   22  A    between atoms: O1A_21  and  C1A_22 
REMARK   23  A    between atoms: C5M_24  and  C6A_25 
REMARK   24  A    between atoms: C6A_25  and  O5A_26 
REMARK   25  A    between atoms: C4A_27  and  O4A_28 
REMARK   26  A    between atoms: C3A_29  and  O3A_30 
REMARK   27  A    between atoms: C2A_31  and  O2A_32 
REMARK       I    between atoms: N2_33  and  CAA_34 
REMARK   28  A    between atoms: CAA_34  and  CAB_36 
REMARK   29  A    between atoms: CAB_36  and  CAC_37 
REMARK   30  A    between atoms: CAC_37  and  CAD_38 
REMARK   31  A    between atoms: CAD_38  and  CAE_39 
REMARK   32  A    between atoms: CAE_39  and  CAF_40 
REMARK   33  A    between atoms: CAF_40  and  CAG_41 
REMARK   34  A    between atoms: CAG_41  and  CAH_42 
REMARK   35  A    between atoms: CAH_42  and  CAI_43 
REMARK   36  A    between atoms: CAI_43  and  CAJ_44 
REMARK   37  A    between atoms: CAJ_44  and  CAK_45 
REMARK   38  A    between atoms: CAK_45  and  CAL_46 
REMARK   39  A    between atoms: CAL_46  and  CAM_47 
REMARK   40  A    between atoms: CAM_47  and  CAN_48 
REMARK   41  A    between atoms: CAN_48  and  CAO_49 
REMARK   42  A    between atoms: CAO_49  and  CAP_50 
REMARK   43  A    between atoms: CAP_50  and  CAQ_51 
REMARK   44  A    between atoms: CAQ_51  and  CAR_52 
REMARK   45  A    between atoms: CAR_52  and  CAS_53 
REMARK   46  A    between atoms: CAS_53  and  CAT_54 
REMARK   47  A    between atoms: CAT_54  and  CAU_55 
REMARK   48  A    between atoms: CAU_55  and  CAV_56 
REMARK   49  A    between atoms: CAV_56  and  CAW_57 
REMARK   50  A    between atoms: CAW_57  and  CAX_58 
REMARK   51  A    between atoms: CAX_58  and  CAY_59 
REMARK   52  A    between atoms: CAY_59  and  CAZ_60 
ROOT
ATOM      1  N2  AGH d   1       6.372 -16.359  21.686  0.00  0.00    -0.352 N 
ATOM      2  CAA AGH d   1       6.741 -17.247  22.634  0.00  0.00     0.218 C 
ATOM      3  OAA AGH d   1       7.406 -18.262  22.423  0.00  0.00    -0.274 OA
ATOM      4  H48 AGH d   1       5.821 -15.575  21.972  0.00  0.00     0.163 HD
ENDROOT
BRANCH   1   5
ATOM      5  C2  AGH d   1       6.726 -16.464  20.254  0.00  0.00     0.060 C 
ATOM      6  H3  AGH d   1       7.669 -17.024  20.176  0.00  0.00     0.080 H 
BRANCH   5   7
ATOM      7  C1  AGH d   1       5.624 -17.253  19.515  0.00  0.00     0.044 C 
ATOM      8  H1  AGH d   1       5.652 -18.303  19.841  0.00  0.00     0.077 H 
ATOM      9  H2  AGH d   1       5.808 -17.200  18.432  0.00  0.00     0.077 H 
BRANCH   7  10
ATOM     10  O1A AGH d   1       4.326 -16.707  19.799  0.00  0.00    -0.356 OA
BRANCH  10  11
ATOM     11  C1A AGH d   1       3.237 -17.412  19.138  0.00  0.00     0.158 C 
ATOM     12  O6A AGH d   1       2.972 -18.740  19.718  0.00  0.00    -0.348 OA
ATOM     13  C5M AGH d   1       2.467 -18.754  21.097  0.00  0.00     0.089 C 
ATOM     14  C4A AGH d   1       1.148 -17.950  21.212  0.00  0.00     0.090 C 
ATOM     15  H38 AGH d   1       3.216 -18.264  21.737  0.00  0.00     0.090 H 
ATOM     16  C3A AGH d   1       1.363 -16.519  20.652  0.00  0.00     0.092 C 
ATOM     17  H42 AGH d   1       0.877 -17.874  22.275  0.00  0.00     0.091 H 
ATOM     18  C2A AGH d   1       1.945 -16.556  19.189  0.00  0.00     0.110 C 
ATOM     19  H44 AGH d   1       2.094 -16.003  21.292  0.00  0.00     0.091 H 
ATOM     20  H46 AGH d   1       1.193 -17.018  18.533  0.00  0.00     0.094 H 
ATOM     21  H37 AGH d   1       3.520 -17.554  18.084  0.00  0.00     0.133 H 
BRANCH  13  22
ATOM     22  C6A AGH d   1       2.290 -20.189  21.597  0.00  0.00     0.043 C 
ATOM     23  H39 AGH d   1       1.586 -20.724  20.942  0.00  0.00     0.078 H 
ATOM     24  H40 AGH d   1       1.897 -20.176  22.624  0.00  0.00     0.078 H 
BRANCH  22  25
ATOM     25  O5A AGH d   1       3.557 -20.847  21.577  0.00  0.00    -0.398 OA
ATOM     26  H41 AGH d   1       3.894 -20.856  20.689  0.00  0.00     0.209 HD
ENDBRANCH  22  25
ENDBRANCH  13  22
BRANCH  14  27
ATOM     27  O4A AGH d   1       0.068 -18.616  20.514  0.00  0.00    -0.390 OA
ATOM     28  H43 AGH d   1      -0.727 -18.103  20.600  0.00  0.00     0.210 HD
ENDBRANCH  14  27
BRANCH  16  29
ATOM     29  O3A AGH d   1       0.117 -15.793  20.712  0.00  0.00    -0.390 OA
ATOM     30  H45 AGH d   1      -0.537 -16.245  20.191  0.00  0.00     0.210 HD
ENDBRANCH  16  29
BRANCH  18  31
ATOM     31  O2A AGH d   1       2.223 -15.238  18.697  0.00  0.00    -0.388 OA
ATOM     32  H47 AGH d   1       2.860 -14.818  19.263  0.00  0.00     0.210 HD
ENDBRANCH  18  31
ENDBRANCH  10  11
ENDBRANCH   7  10
ENDBRANCH   5   7
BRANCH   5  33
ATOM     33  C3  AGH d   1       6.940 -15.072  19.583  0.00  0.00     0.081 C 
ATOM     34  H4  AGH d   1       5.938 -14.627  19.496  0.00  0.00     0.090 H 
BRANCH  33  35
ATOM     35  C4  AGH d   1       7.797 -14.059  20.382  0.00  0.00     0.062 C 
ATOM     36  H5  AGH d   1       7.336 -13.936  21.373  0.00  0.00     0.086 H 
BRANCH  35  37
ATOM     37  C5  AGH d   1       9.263 -14.510  20.611  0.00  0.00    -0.039 C 
ATOM     38  H6  AGH d   1       9.576 -15.128  19.756  0.00  0.00     0.036 H 
ATOM     39  H7  AGH d   1       9.304 -15.111  21.532  0.00  0.00     0.036 H 
BRANCH  37  40
ATOM     40  C6  AGH d   1      10.250 -13.332  20.751  0.00  0.00    -0.063 C 
ATOM     41  H8  AGH d   1       9.984 -12.558  20.016  0.00  0.00     0.033 H 
ATOM     42  H9  AGH d   1      11.268 -13.696  20.548  0.00  0.00     0.033 H 
BRANCH  40  43
ATOM     43  C7  AGH d   1      10.217 -12.710  22.162  0.00  0.00    -0.065 C 
ATOM     44  H34 AGH d   1      10.115 -13.512  22.908  0.00  0.00     0.033 H 
ATOM     45  H35 AGH d   1       9.357 -12.028  22.236  0.00  0.00     0.033 H 
BRANCH  43  46
ATOM     46  C8  AGH d   1      11.510 -11.924  22.438  0.00  0.00    -0.065 C 
ATOM     47  H32 AGH d   1      11.685 -11.886  23.523  0.00  0.00     0.033 H 
ATOM     48  H33 AGH d   1      12.353 -12.433  21.948  0.00  0.00     0.033 H 
BRANCH  46  49
ATOM     49  C9  AGH d   1      11.402 -10.488  21.894  0.00  0.00    -0.065 C 
ATOM     50  H30 AGH d   1      11.242 -10.522  20.806  0.00  0.00     0.033 H 
ATOM     51  H31 AGH d   1      10.552  -9.980  22.374  0.00  0.00     0.033 H 
BRANCH  49  52
ATOM     52  C10 AGH d   1      12.689  -9.713  22.192  0.00  0.00    -0.065 C 
ATOM     53  H28 AGH d   1      12.890  -9.739  23.273  0.00  0.00     0.033 H 
ATOM     54  H29 AGH d   1      13.528 -10.176  21.652  0.00  0.00     0.033 H 
BRANCH  52  55
ATOM     55  C11 AGH d   1      12.531  -8.259  21.738  0.00  0.00    -0.065 C 
ATOM     56  H26 AGH d   1      11.548  -8.130  21.262  0.00  0.00     0.033 H 
ATOM     57  H27 AGH d   1      12.606  -7.594  22.611  0.00  0.00     0.033 H 
BRANCH  55  58
ATOM     58  C12 AGH d   1      13.635  -7.906  20.732  0.00  0.00    -0.065 C 
ATOM     59  H24 AGH d   1      14.601  -7.849  21.255  0.00  0.00     0.033 H 
ATOM     60  H25 AGH d   1      13.683  -8.683  19.955  0.00  0.00     0.033 H 
BRANCH  58  61
ATOM     61  C13 AGH d   1      13.329  -6.553  20.080  0.00  0.00    -0.065 C 
ATOM     62  H22 AGH d   1      12.431  -6.647  19.451  0.00  0.00     0.033 H 
ATOM     63  H23 AGH d   1      13.150  -5.803  20.865  0.00  0.00     0.033 H 
BRANCH  61  64
ATOM     64  C14 AGH d   1      14.508  -6.107  19.214  0.00  0.00    -0.065 C 
ATOM     65  H20 AGH d   1      15.055  -5.303  19.728  0.00  0.00     0.033 H 
ATOM     66  H21 AGH d   1      15.182  -6.960  19.048  0.00  0.00     0.033 H 
BRANCH  64  67
ATOM     67  C15 AGH d   1      13.998  -5.593  17.867  0.00  0.00    -0.065 C 
ATOM     68  H18 AGH d   1      13.088  -6.143  17.584  0.00  0.00     0.033 H 
ATOM     69  H19 AGH d   1      13.769  -4.520  17.946  0.00  0.00     0.033 H 
BRANCH  67  70
ATOM     70  C16 AGH d   1      15.078  -5.809  16.803  0.00  0.00    -0.065 C 
ATOM     71  H16 AGH d   1      16.043  -5.440  17.180  0.00  0.00     0.033 H 
ATOM     72  H17 AGH d   1      15.159  -6.882  16.575  0.00  0.00     0.033 H 
BRANCH  70  73
ATOM     73  C17 AGH d   1      14.699  -5.044  15.533  0.00  0.00    -0.069 C 
ATOM     74  H14 AGH d   1      13.638  -5.221  15.302  0.00  0.00     0.032 H 
ATOM     75  H15 AGH d   1      14.866  -3.968  15.690  0.00  0.00     0.032 H 
BRANCH  73  76
ATOM     76  C18 AGH d   1      15.561  -5.528  14.370  0.00  0.00    -0.077 C 
ATOM     77  H11 AGH d   1      15.288  -4.978  13.457  0.00  0.00     0.027 H 
ATOM     78  H12 AGH d   1      15.394  -6.604  14.213  0.00  0.00     0.027 H 
ATOM     79  H13 AGH d   1      16.622  -5.351  14.601  0.00  0.00     0.027 H 
ENDBRANCH  73  76
ENDBRANCH  70  73
ENDBRANCH  67  70
ENDBRANCH  64  67
ENDBRANCH  61  64
ENDBRANCH  58  61
ENDBRANCH  55  58
ENDBRANCH  52  55
ENDBRANCH  49  52
ENDBRANCH  46  49
ENDBRANCH  43  46
ENDBRANCH  40  43
ENDBRANCH  37  40
ENDBRANCH  35  37
BRANCH  35  80
ATOM     80  O4  AGH d   1       7.746 -12.801  19.700  0.00  0.00    -0.393 OA
ATOM     81  H36 AGH d   1       8.175 -12.882  18.856  0.00  0.00     0.210 HD
ENDBRANCH  35  80
ENDBRANCH  33  35
BRANCH  33  82
ATOM     82  O3  AGH d   1       7.466 -15.185  18.255  0.00  0.00    -0.391 OA
ATOM     83  H10 AGH d   1       7.437 -14.336  17.831  0.00  0.00     0.210 HD
ENDBRANCH  33  82
ENDBRANCH   5  33
ENDBRANCH   1   5
BRANCH   2  84
ATOM     84  CAB AGH d   1       6.220 -16.924  24.045  0.00  0.00     0.009 C 
ATOM     85  H49 AGH d   1       5.326 -17.534  24.242  0.00  0.00     0.047 H 
ATOM     86  H50 AGH d   1       5.953 -15.858  24.090  0.00  0.00     0.047 H 
BRANCH  84  87
ATOM     87  CAC AGH d   1       7.268 -17.218  25.122  0.00  0.00    -0.057 C 
ATOM     88  H51 AGH d   1       7.816 -18.132  24.851  0.00  0.00     0.033 H 
ATOM     89  H52 AGH d   1       6.761 -17.366  26.087  0.00  0.00     0.033 H 
BRANCH  87  90
ATOM     90  CAD AGH d   1       8.257 -16.059  25.248  0.00  0.00    -0.065 C 
ATOM     91  H53 AGH d   1       7.815 -15.255  25.854  0.00  0.00     0.033 H 
ATOM     92  H54 AGH d   1       8.507 -15.671  24.250  0.00  0.00     0.033 H 
BRANCH  90  93
ATOM     93  CAE AGH d   1       9.516 -16.591  25.929  0.00  0.00    -0.065 C 
ATOM     94  H55 AGH d   1      10.263 -16.843  25.162  0.00  0.00     0.033 H 
ATOM     95  H56 AGH d   1       9.262 -17.494  26.504  0.00  0.00     0.033 H 
BRANCH  93  96
ATOM     96  CAF AGH d   1      10.102 -15.540  26.875  0.00  0.00    -0.065 C 
ATOM     97  H57 AGH d   1      10.119 -15.939  27.900  0.00  0.00     0.033 H 
ATOM     98  H58 AGH d   1       9.480 -14.633  26.845  0.00  0.00     0.033 H 
BRANCH  96  99
ATOM     99  CAG AGH d   1      11.530 -15.192  26.440  0.00  0.00    -0.065 C 
ATOM    100  H59 AGH d   1      11.649 -14.098  26.438  0.00  0.00     0.033 H 
ATOM    101  H60 AGH d   1      11.703 -15.582  25.426  0.00  0.00     0.033 H 
BRANCH  99 102
ATOM    102  CAH AGH d   1      12.556 -15.806  27.394  0.00  0.00    -0.065 C 
ATOM    103  H61 AGH d   1      12.648 -16.884  27.198  0.00  0.00     0.033 H 
ATOM    104  H62 AGH d   1      12.238 -15.648  28.435  0.00  0.00     0.033 H 
BRANCH 102 105
ATOM    105  CAI AGH d   1      13.900 -15.121  27.155  0.00  0.00    -0.065 C 
ATOM    106  H63 AGH d   1      13.774 -14.033  27.253  0.00  0.00     0.033 H 
ATOM    107  H64 AGH d   1      14.252 -15.359  26.140  0.00  0.00     0.033 H 
BRANCH 105 108
ATOM    108  CAJ AGH d   1      14.936 -15.601  28.172  0.00  0.00    -0.065 C 
ATOM    109  H65 AGH d   1      14.444 -16.247  28.914  0.00  0.00     0.033 H 
ATOM    110  H66 AGH d   1      15.377 -14.730  28.679  0.00  0.00     0.033 H 
BRANCH 108 111
ATOM    111  CAK AGH d   1      16.044 -16.391  27.470  0.00  0.00    -0.065 C 
ATOM    112  H67 AGH d   1      17.022 -15.951  27.714  0.00  0.00     0.033 H 
ATOM    113  H68 AGH d   1      15.888 -16.357  26.382  0.00  0.00     0.033 H 
BRANCH 111 114
ATOM    114  CAL AGH d   1      16.001 -17.847  27.950  0.00  0.00    -0.065 C 
ATOM    115  H69 AGH d   1      14.986 -18.246  27.807  0.00  0.00     0.033 H 
ATOM    116  H70 AGH d   1      16.263 -17.884  29.018  0.00  0.00     0.033 H 
BRANCH 114 117
ATOM    117  CAM AGH d   1      16.996 -18.703  27.156  0.00  0.00    -0.065 C 
ATOM    118  H71 AGH d   1      18.017 -18.495  27.509  0.00  0.00     0.033 H 
ATOM    119  H72 AGH d   1      16.920 -18.453  26.088  0.00  0.00     0.033 H 
BRANCH 117 120
ATOM    120  CAN AGH d   1      16.685 -20.192  27.351  0.00  0.00    -0.065 C 
ATOM    121  H73 AGH d   1      16.963 -20.741  26.439  0.00  0.00     0.033 H 
ATOM    122  H74 AGH d   1      15.608 -20.314  27.539  0.00  0.00     0.033 H 
BRANCH 120 123
ATOM    123  CAO AGH d   1      17.471 -20.760  28.540  0.00  0.00    -0.065 C 
ATOM    124  H75 AGH d   1      17.573 -19.988  29.317  0.00  0.00     0.033 H 
ATOM    125  H76 AGH d   1      18.470 -21.076  28.204  0.00  0.00     0.033 H 
BRANCH 123 126
ATOM    126  CAP AGH d   1      16.719 -21.962  29.109  0.00  0.00    -0.065 C 
ATOM    127  H77 AGH d   1      17.388 -22.835  29.131  0.00  0.00     0.033 H 
ATOM    128  H78 AGH d   1      15.848 -22.183  28.474  0.00  0.00     0.033 H 
BRANCH 126 129
ATOM    129  CAQ AGH d   1      16.247 -21.647  30.529  0.00  0.00    -0.065 C 
ATOM    130  H79 AGH d   1      15.367 -20.988  30.486  0.00  0.00     0.033 H 
ATOM    131  H80 AGH d   1      17.055 -21.145  31.082  0.00  0.00     0.033 H 
BRANCH 129 132
ATOM    132  CAR AGH d   1      15.876 -22.950  31.237  0.00  0.00    -0.065 C 
ATOM    133  H81 AGH d   1      16.655 -23.703  31.049  0.00  0.00     0.033 H 
ATOM    134  H82 AGH d   1      14.912 -23.315  30.852  0.00  0.00     0.033 H 
BRANCH 132 135
ATOM    135  CAS AGH d   1      15.761 -22.701  32.741  0.00  0.00    -0.065 C 
ATOM    136  H83 AGH d   1      16.153 -21.701  32.976  0.00  0.00     0.033 H 
ATOM    137  H84 AGH d   1      16.345 -23.460  33.282  0.00  0.00     0.033 H 
BRANCH 135 138
ATOM    138  CAT AGH d   1      14.293 -22.786  33.172  0.00  0.00    -0.065 C 
ATOM    139  H85 AGH d   1      14.118 -23.739  33.692  0.00  0.00     0.033 H 
ATOM    140  H86 AGH d   1      13.646 -22.728  32.285  0.00  0.00     0.033 H 
BRANCH 138 141
ATOM    141  CAU AGH d   1      13.973 -21.622  34.115  0.00  0.00    -0.065 C 
ATOM    142  H87 AGH d   1      14.664 -20.791  33.910  0.00  0.00     0.033 H 
ATOM    143  H88 AGH d   1      14.098 -21.956  35.156  0.00  0.00     0.033 H 
BRANCH 141 144
ATOM    144  CAV AGH d   1      12.535 -21.140  33.912  0.00  0.00    -0.065 C 
ATOM    145  H89 AGH d   1      11.835 -21.907  34.275  0.00  0.00     0.033 H 
ATOM    146  H90 AGH d   1      12.356 -20.956  32.842  0.00  0.00     0.033 H 
BRANCH 144 147
ATOM    147  CAW AGH d   1      12.325 -19.842  34.697  0.00  0.00    -0.065 C 
ATOM    148  H91 AGH d   1      13.289 -19.502  35.103  0.00  0.00     0.033 H 
ATOM    149  H92 AGH d   1      11.623 -20.026  35.524  0.00  0.00     0.033 H 
BRANCH 147 150
ATOM    150  CAX AGH d   1      11.752 -18.760  33.776  0.00  0.00    -0.065 C 
ATOM    151  H93 AGH d   1      10.856 -18.323  34.241  0.00  0.00     0.033 H 
ATOM    152  H94 AGH d   1      11.481 -19.211  32.810  0.00  0.00     0.033 H 
BRANCH 150 153
ATOM    153  CAY AGH d   1      12.795 -17.657  33.547  0.00  0.00    -0.069 C 
ATOM    154  H95 AGH d   1      13.796 -18.109  33.479  0.00  0.00     0.032 H 
ATOM    155  H96 AGH d   1      12.769 -16.949  34.389  0.00  0.00     0.032 H 
BRANCH 153 156
ATOM    156  CAZ AGH d   1      12.484 -16.909  32.243  0.00  0.00    -0.077 C 
ATOM    157  H97 AGH d   1      13.234 -16.120  32.085  0.00  0.00     0.027 H 
ATOM    158  H98 AGH d   1      11.484 -16.455  32.310  0.00  0.00     0.027 H 
ATOM    159  H99 AGH d   1      12.511 -17.615  31.400  0.00  0.00     0.027 H 
ENDBRANCH 153 156
ENDBRANCH 150 153
ENDBRANCH 147 150
ENDBRANCH 144 147
ENDBRANCH 141 144
ENDBRANCH 138 141
ENDBRANCH 135 138
ENDBRANCH 132 135
ENDBRANCH 129 132
ENDBRANCH 126 129
ENDBRANCH 123 126
ENDBRANCH 120 123
ENDBRANCH 117 120
ENDBRANCH 114 117
ENDBRANCH 111 114
ENDBRANCH 108 111
ENDBRANCH 105 108
ENDBRANCH 102 105
ENDBRANCH  99 102
ENDBRANCH  96  99
ENDBRANCH  93  96
ENDBRANCH  90  93
ENDBRANCH  87  90
ENDBRANCH  84  87
ENDBRANCH   2  84
TORSDOF 52
