REMARK WARNING: 32 MAX_TORS EXCEEDED!!!
REMARK  55 active torsions:
REMARK  status: ('A' for Active; 'I' for Inactive)
REMARK    1  A    between atoms: C1_1  and  C2_2 
REMARK    2  A    between atoms: O1A_22  and  C1_1 
REMARK    3  A    between atoms: C2_2  and  N2_3 
REMARK    4  A    between atoms: C2_2  and  C3_4 
REMARK       I    between atoms: N2_3  and  CAA_31 
REMARK    5  A    between atoms: C3_4  and  O3_5 
REMARK    6  A    between atoms: C3_4  and  C4_6 
REMARK    7  A    between atoms: C4_6  and  C5_7 
REMARK    8  A    between atoms: C5_7  and  C6_8 
REMARK    9  A    between atoms: C6_8  and  C7_9 
REMARK   10  A    between atoms: C7_9  and  C8_10 
REMARK   11  A    between atoms: C8_10  and  C9_11 
REMARK   12  A    between atoms: C9_11  and  C10_12 
REMARK   13  A    between atoms: C10_12  and  C11_13 
REMARK   14  A    between atoms: C11_13  and  C12_14 
REMARK   15  A    between atoms: C12_14  and  C13_15 
REMARK   16  A    between atoms: C13_15  and  C14_16 
REMARK   17  A    between atoms: C14_16  and  C15_17 
REMARK   18  A    between atoms: C15_17  and  C16_18 
REMARK   19  A    between atoms: C16_18  and  C17_19 
REMARK   20  A    between atoms: C17_19  and  C18_20 
REMARK   21  A    between atoms: C1A_21  and  O1A_22 
REMARK   22  A    between atoms: C2A_23  and  O2A_24 
REMARK   23  A    between atoms: C3A_25  and  O3A_26 
REMARK   24  A    between atoms: C4A_27  and  O4A_28 
REMARK   25  A    between atoms: C6C_65  and  C5M_29 
REMARK   26  A    between atoms: CAA_31  and  CAB_33 
REMARK   27  A    between atoms: CAB_33  and  CAC_34 
REMARK   28  A    between atoms: CAC_34  and  CAD_35 
REMARK   29  A    between atoms: CAD_35  and  CAE_36 
REMARK   30  A    between atoms: CAE_36  and  CAF_37 
REMARK   31  A    between atoms: CAF_37  and  CAG_38 
REMARK   32  A    between atoms: CAG_38  and  CAH_39 
REMARK   33  A    between atoms: CAH_39  and  CAI_40 
REMARK   34  A    between atoms: CAI_40  and  CAJ_41 
REMARK   35  A    between atoms: CAJ_41  and  CAK_42 
REMARK   36  A    between atoms: CAK_42  and  CAL_43 
REMARK   37  A    between atoms: CAL_43  and  CAM_44 
REMARK   38  A    between atoms: CAM_44  and  CAN_45 
REMARK   39  A    between atoms: CAN_45  and  CAO_46 
REMARK   40  A    between atoms: CAO_46  and  CAP_47 
REMARK   41  A    between atoms: CAP_47  and  CAQ_48 
REMARK   42  A    between atoms: CAQ_48  and  CAR_49 
REMARK   43  A    between atoms: CAR_49  and  CAS_50 
REMARK   44  A    between atoms: CAS_50  and  CAT_51 
REMARK   45  A    between atoms: CAT_51  and  CAU_52 
REMARK   46  A    between atoms: CAU_52  and  CAV_53 
REMARK   47  A    between atoms: CAV_53  and  CAW_54 
REMARK   48  A    between atoms: CAW_54  and  CAX_55 
REMARK   49  A    between atoms: CAX_55  and  CAY_56 
REMARK   50  A    between atoms: CAY_56  and  CAZ_57 
REMARK   51  A    between atoms: CCI_58  and  O6C_66 
REMARK   52  A    between atoms: CCJ_68  and  CCI_58 
REMARK   53  A    between atoms: CCK_69  and  CCL_59 
REMARK   54  A    between atoms: O6C_66  and  C6C_65 
REMARK   55  A    between atoms: CCJ_68  and  CCK_69 
ROOT
ATOM      1  C2  QWV d   1       7.422 -21.331  20.340  0.00  0.00     0.057 C 
ATOM      2  H3  QWV d   1       8.311 -21.978  20.320  0.00  0.00     0.079 H 
ENDROOT
BRANCH   1   3
ATOM      3  C1  QWV d   1       6.330 -21.916  19.403  0.00  0.00     0.044 C 
ATOM      4  H1  QWV d   1       6.212 -22.988  19.619  0.00  0.00     0.077 H 
ATOM      5  H2  QWV d   1       6.649 -21.786  18.358  0.00  0.00     0.077 H 
BRANCH   3   6
ATOM      6  O1A QWV d   1       5.062 -21.260  19.588  0.00  0.00    -0.356 OA
BRANCH   6   7
ATOM      7  C1A QWV d   1       3.987 -21.972  19.040  0.00  0.00     0.158 C 
ATOM      8  C2A QWV d   1       2.721 -21.114  19.068  0.00  0.00     0.110 C 
ATOM      9  C3A QWV d   1       2.208 -20.962  20.545  0.00  0.00     0.092 C 
ATOM     10  H39 QWV d   1       1.939 -21.616  18.479  0.00  0.00     0.094 H 
ATOM     11  C4A QWV d   1       1.975 -22.350  21.197  0.00  0.00     0.090 C 
ATOM     12  H41 QWV d   1       2.967 -20.421  21.128  0.00  0.00     0.091 H 
ATOM     13  C5M QWV d   1       3.241 -23.238  21.041  0.00  0.00     0.089 C 
ATOM     14  H43 QWV d   1       1.774 -22.209  22.269  0.00  0.00     0.091 H 
ATOM     15  O6A QWV d   1       3.748 -23.266  19.692  0.00  0.00    -0.348 OA
ATOM     16  H45 QWV d   1       4.018 -22.769  21.663  0.00  0.00     0.090 H 
ATOM     17  H38 QWV d   1       4.233 -22.178  17.988  0.00  0.00     0.133 H 
BRANCH   8  18
ATOM     18  O2A QWV d   1       2.989 -19.852  18.477  0.00  0.00    -0.388 OA
ATOM     19  H40 QWV d   1       3.678 -19.415  18.964  0.00  0.00     0.210 HD
ENDBRANCH   8  18
BRANCH   9  20
ATOM     20  O3A QWV d   1       0.969 -20.201  20.561  0.00  0.00    -0.390 OA
ATOM     21  H42 QWV d   1       1.123 -19.340  20.191  0.00  0.00     0.210 HD
ENDBRANCH   9  20
BRANCH  11  22
ATOM     22  O4A QWV d   1       0.834 -22.982  20.592  0.00  0.00    -0.390 OA
ATOM     23  H44 QWV d   1       0.066 -22.438  20.723  0.00  0.00     0.210 HD
ENDBRANCH  11  22
BRANCH  13  24
ATOM     24  C6C QWV d   1       3.073 -24.647  21.554  0.00  0.00     0.055 C 
ATOM     25 2H10 QWV d   1       3.761 -25.332  21.038  0.00  0.00     0.079 H 
ATOM     26 3H10 QWV d   1       2.038 -24.991  21.412  0.00  0.00     0.079 H 
BRANCH  24  27
ATOM     27  O6C QWV d   1       3.391 -24.567  22.945  0.00  0.00    -0.319 OA
BRANCH  27  28
ATOM     28  CCI QWV d   1       2.802 -25.487  23.783  0.00  0.00     0.259 C 
ATOM     29  OCI QWV d   1       1.960 -26.322  23.431  0.00  0.00    -0.265 OA
BRANCH  28  30
ATOM     30  CCJ QWV d   1       3.319 -25.442  25.235  0.00  0.00     0.019 C 
ATOM     31 4H10 QWV d   1       3.191 -24.422  25.627  0.00  0.00     0.048 H 
ATOM     32 5H10 QWV d   1       4.387 -25.705  25.240  0.00  0.00     0.048 H 
BRANCH  30  33
ATOM     33  CCK QWV d   1       2.561 -26.423  26.146  0.00  0.00    -0.033 C 
ATOM     34 6H10 QWV d   1       1.635 -25.941  26.493  0.00  0.00     0.040 H 
ATOM     35 7H10 QWV d   1       2.310 -27.323  25.566  0.00  0.00     0.040 H 
BRANCH  33  36
ATOM     36  CCL QWV d   1       3.385 -26.835  27.360  0.00  0.00    -0.058 A 
ATOM     37  CCM QWV d   1       3.625 -25.922  28.417  0.00  0.00    -0.077 A 
ATOM     38  CCN QWV d   1       4.388 -26.309  29.531  0.00  0.00    -0.082 A 
ATOM     39  H97 QWV d   1       3.217 -24.919  28.366  0.00  0.00     0.084 H 
ATOM     40  CCO QWV d   1       4.877 -27.623  29.615  0.00  0.00    -0.083 A 
ATOM     41  H98 QWV d   1       4.598 -25.598  30.321  0.00  0.00     0.083 H 
ATOM     42  CCP QWV d   1       4.604 -28.544  28.583  0.00  0.00    -0.082 A 
ATOM     43  H99 QWV d   1       5.464 -27.929  30.473  0.00  0.00     0.083 H 
ATOM     44  CCQ QWV d   1       3.864 -28.158  27.450  0.00  0.00    -0.077 A 
ATOM     45 0H10 QWV d   1       4.968 -29.562  28.663  0.00  0.00     0.083 H 
ATOM     46 1H10 QWV d   1       3.665 -28.869  26.656  0.00  0.00     0.084 H 
ENDBRANCH  33  36
ENDBRANCH  30  33
ENDBRANCH  28  30
ENDBRANCH  27  28
ENDBRANCH  24  27
ENDBRANCH  13  24
ENDBRANCH   6   7
ENDBRANCH   3   6
ENDBRANCH   1   3
BRANCH   1  47
ATOM     47  N2  QWV d   1       6.858 -21.282  21.663  0.00  0.00    -0.352 N 
ATOM     48  CAA QWV d   1       7.062 -22.246  22.545  0.00  0.00     0.218 C 
ATOM     49  OAA QWV d   1       7.738 -23.250  22.323  0.00  0.00    -0.274 OA
ATOM     50  H4  QWV d   1       6.296 -20.497  21.923  0.00  0.00     0.163 HD
BRANCH  48  51
ATOM     51  CAB QWV d   1       6.383 -21.974  23.900  0.00  0.00     0.009 C 
ATOM     52  H46 QWV d   1       5.553 -22.681  24.044  0.00  0.00     0.047 H 
ATOM     53  H47 QWV d   1       5.995 -20.945  23.917  0.00  0.00     0.047 H 
BRANCH  51  54
ATOM     54  CAC QWV d   1       7.407 -22.153  25.020  0.00  0.00    -0.057 C 
ATOM     55  H48 QWV d   1       8.056 -23.004  24.766  0.00  0.00     0.033 H 
ATOM     56  H49 QWV d   1       6.868 -22.369  25.954  0.00  0.00     0.033 H 
BRANCH  54  57
ATOM     57  CAD QWV d   1       8.282 -20.929  25.241  0.00  0.00    -0.065 C 
ATOM     58  H50 QWV d   1       7.688 -20.096  25.644  0.00  0.00     0.033 H 
ATOM     59  H51 QWV d   1       8.759 -20.618  24.300  0.00  0.00     0.033 H 
BRANCH  57  60
ATOM     60  CAE QWV d   1       9.338 -21.383  26.258  0.00  0.00    -0.065 C 
ATOM     61  H52 QWV d   1       9.758 -22.347  25.935  0.00  0.00     0.033 H 
ATOM     62  H53 QWV d   1       8.862 -21.501  27.243  0.00  0.00     0.033 H 
BRANCH  60  63
ATOM     63  CAF QWV d   1      10.459 -20.363  26.366  0.00  0.00    -0.065 C 
ATOM     64  H54 QWV d   1      10.032 -19.365  26.544  0.00  0.00     0.033 H 
ATOM     65  H55 QWV d   1      11.037 -20.352  25.430  0.00  0.00     0.033 H 
BRANCH  63  66
ATOM     66  CAG QWV d   1      11.375 -20.739  27.526  0.00  0.00    -0.065 C 
ATOM     67  H56 QWV d   1      11.532 -21.828  27.538  0.00  0.00     0.033 H 
ATOM     68  H57 QWV d   1      10.920 -20.424  28.477  0.00  0.00     0.033 H 
BRANCH  66  69
ATOM     69  CAH QWV d   1      12.712 -20.026  27.331  0.00  0.00    -0.065 C 
ATOM     70  H58 QWV d   1      12.544 -18.940  27.279  0.00  0.00     0.033 H 
ATOM     71  H59 QWV d   1      13.178 -20.370  26.396  0.00  0.00     0.033 H 
BRANCH  69  72
ATOM     72  CAI QWV d   1      13.637 -20.341  28.505  0.00  0.00    -0.065 C 
ATOM     73  H60 QWV d   1      13.318 -21.285  28.971  0.00  0.00     0.033 H 
ATOM     74  H61 QWV d   1      13.571 -19.528  29.243  0.00  0.00     0.033 H 
BRANCH  72  75
ATOM     75  CAJ QWV d   1      15.101 -20.479  28.036  0.00  0.00    -0.065 C 
ATOM     76  H62 QWV d   1      15.772 -20.181  28.855  0.00  0.00     0.033 H 
ATOM     77  H63 QWV d   1      15.265 -19.821  27.170  0.00  0.00     0.033 H 
BRANCH  75  78
ATOM     78  CAK QWV d   1      15.411 -21.924  27.635  0.00  0.00    -0.065 C 
ATOM     79  H64 QWV d   1      15.004 -22.118  26.632  0.00  0.00     0.033 H 
ATOM     80  H65 QWV d   1      14.946 -22.610  28.358  0.00  0.00     0.033 H 
BRANCH  78  81
ATOM     81  CAL QWV d   1      16.908 -22.153  27.620  0.00  0.00    -0.065 C 
ATOM     82  H66 QWV d   1      17.319 -22.030  28.633  0.00  0.00     0.033 H 
ATOM     83  H67 QWV d   1      17.393 -21.438  26.939  0.00  0.00     0.033 H 
BRANCH  81  84
ATOM     84  CAM QWV d   1      17.135 -23.569  27.135  0.00  0.00    -0.065 C 
ATOM     85  H68 QWV d   1      17.924 -23.569  26.368  0.00  0.00     0.033 H 
ATOM     86  H69 QWV d   1      16.202 -23.959  26.702  0.00  0.00     0.033 H 
BRANCH  84  87
ATOM     87  CAN QWV d   1      17.566 -24.467  28.309  0.00  0.00    -0.065 C 
ATOM     88  H70 QWV d   1      17.556 -23.877  29.238  0.00  0.00     0.033 H 
ATOM     89  H71 QWV d   1      18.584 -24.841  28.123  0.00  0.00     0.033 H 
BRANCH  87  90
ATOM     90  CAO QWV d   1      16.607 -25.664  28.459  0.00  0.00    -0.065 C 
ATOM     91  H72 QWV d   1      16.433 -26.118  27.472  0.00  0.00     0.033 H 
ATOM     92  H73 QWV d   1      15.650 -25.315  28.875  0.00  0.00     0.033 H 
BRANCH  90  93
ATOM     93  CAP QWV d   1      17.220 -26.712  29.401  0.00  0.00    -0.065 C 
ATOM     94  H74 QWV d   1      18.317 -26.662  29.332  0.00  0.00     0.033 H 
ATOM     95  H75 QWV d   1      16.879 -27.713  29.098  0.00  0.00     0.033 H 
BRANCH  93  96
ATOM     96  CAQ QWV d   1      16.796 -26.454  30.846  0.00  0.00    -0.065 C 
ATOM     97  H76 QWV d   1      16.035 -25.660  30.847  0.00  0.00     0.033 H 
ATOM     98  H77 QWV d   1      17.678 -26.117  31.411  0.00  0.00     0.033 H 
BRANCH  96  99
ATOM     99  CAR QWV d   1      16.219 -27.669  31.542  0.00  0.00    -0.065 C 
ATOM    100  H78 QWV d   1      16.933 -28.505  31.497  0.00  0.00     0.033 H 
ATOM    101  H79 QWV d   1      15.275 -27.967  31.062  0.00  0.00     0.033 H 
BRANCH  99 102
ATOM    102  CAS QWV d   1      15.964 -27.270  33.005  0.00  0.00    -0.065 C 
ATOM    103  H80 QWV d   1      16.384 -26.270  33.186  0.00  0.00     0.033 H 
ATOM    104  H81 QWV d   1      16.452 -27.998  33.669  0.00  0.00     0.033 H 
BRANCH 102 105
ATOM    105  CAT QWV d   1      14.451 -27.246  33.303  0.00  0.00    -0.065 C 
ATOM    106  H82 QWV d   1      14.158 -28.200  33.766  0.00  0.00     0.033 H 
ATOM    107  H83 QWV d   1      13.898 -27.110  32.362  0.00  0.00     0.033 H 
BRANCH 105 108
ATOM    108  CAU QWV d   1      14.112 -26.094  34.260  0.00  0.00    -0.065 C 
ATOM    109  H84 QWV d   1      14.828 -25.273  34.105  0.00  0.00     0.033 H 
ATOM    110  H85 QWV d   1      14.184 -26.453  35.297  0.00  0.00     0.033 H 
BRANCH 108 111
ATOM    111  CAV QWV d   1      12.698 -25.581  34.004  0.00  0.00    -0.065 C 
ATOM    112  H86 QWV d   1      11.965 -26.259  34.466  0.00  0.00     0.033 H 
ATOM    113  H87 QWV d   1      12.512 -25.523  32.921  0.00  0.00     0.033 H 
BRANCH 111 114
ATOM    114  CAW QWV d   1      12.582 -24.194  34.624  0.00  0.00    -0.065 C 
ATOM    115  H88 QWV d   1      13.577 -23.867  34.961  0.00  0.00     0.033 H 
ATOM    116  H89 QWV d   1      11.901 -24.242  35.486  0.00  0.00     0.033 H 
BRANCH 114 117
ATOM    117  CAX QWV d   1      12.034 -23.171  33.607  0.00  0.00    -0.065 C 
ATOM    118  H90 QWV d   1      11.161 -22.658  34.038  0.00  0.00     0.033 H 
ATOM    119  H91 QWV d   1      11.735 -23.694  32.687  0.00  0.00     0.033 H 
BRANCH 117 120
ATOM    120  CAY QWV d   1      13.124 -22.136  33.276  0.00  0.00    -0.069 C 
ATOM    121  H92 QWV d   1      13.653 -22.438  32.360  0.00  0.00     0.032 H 
ATOM    122  H93 QWV d   1      13.839 -22.075  34.109  0.00  0.00     0.032 H 
BRANCH 120 123
ATOM    123  CAZ QWV d   1      12.476 -20.783  33.064  0.00  0.00    -0.077 C 
ATOM    124  H94 QWV d   1      13.251 -20.039  32.827  0.00  0.00     0.027 H 
ATOM    125  H95 QWV d   1      11.947 -20.482  33.980  0.00  0.00     0.027 H 
ATOM    126  H96 QWV d   1      11.761 -20.846  32.231  0.00  0.00     0.027 H 
ENDBRANCH 120 123
ENDBRANCH 117 120
ENDBRANCH 114 117
ENDBRANCH 111 114
ENDBRANCH 108 111
ENDBRANCH 105 108
ENDBRANCH 102 105
ENDBRANCH  99 102
ENDBRANCH  96  99
ENDBRANCH  93  96
ENDBRANCH  90  93
ENDBRANCH  87  90
ENDBRANCH  84  87
ENDBRANCH  81  84
ENDBRANCH  78  81
ENDBRANCH  75  78
ENDBRANCH  72  75
ENDBRANCH  69  72
ENDBRANCH  66  69
ENDBRANCH  63  66
ENDBRANCH  60  63
ENDBRANCH  57  60
ENDBRANCH  54  57
ENDBRANCH  51  54
ENDBRANCH  48  51
ENDBRANCH   1  47
BRANCH   1 127
ATOM    127  C3  QWV d   1       7.821 -19.898  19.961  0.00  0.00     0.057 C 
ATOM    128  H5  QWV d   1       6.963 -19.225  20.103  0.00  0.00     0.086 H 
BRANCH 127 129
ATOM    129  O3  QWV d   1       8.201 -19.921  18.598  0.00  0.00    -0.393 OA
ATOM    130  H6  QWV d   1       8.456 -19.047  18.327  0.00  0.00     0.210 HD
ENDBRANCH 127 129
BRANCH 127 131
ATOM    131  C4  QWV d   1       9.017 -19.393  20.821  0.00  0.00    -0.039 C 
ATOM    132  H7  QWV d   1       9.908 -20.000  20.600  0.00  0.00     0.036 H 
ATOM    133  H8  QWV d   1       8.765 -19.486  21.888  0.00  0.00     0.036 H 
BRANCH 131 134
ATOM    134  C5  QWV d   1       9.309 -17.921  20.493  0.00  0.00    -0.063 C 
ATOM    135  H9  QWV d   1       8.359 -17.373  20.407  0.00  0.00     0.033 H 
ATOM    136  H10 QWV d   1       9.854 -17.863  19.539  0.00  0.00     0.033 H 
BRANCH 134 137
ATOM    137  C6  QWV d   1      10.147 -17.299  21.585  0.00  0.00    -0.065 C 
ATOM    138  H11 QWV d   1      10.829 -18.059  21.994  0.00  0.00     0.033 H 
ATOM    139  H12 QWV d   1       9.485 -16.933  22.384  0.00  0.00     0.033 H 
BRANCH 137 140
ATOM    140  C7  QWV d   1      10.970 -16.127  21.037  0.00  0.00    -0.065 C 
ATOM    141  H13 QWV d   1      10.341 -15.481  20.407  0.00  0.00     0.033 H 
ATOM    142  H14 QWV d   1      11.819 -16.501  20.445  0.00  0.00     0.033 H 
BRANCH 140 143
ATOM    143  C8  QWV d   1      11.476 -15.348  22.257  0.00  0.00    -0.065 C 
ATOM    144  H15 QWV d   1      11.556 -16.033  23.114  0.00  0.00     0.033 H 
ATOM    145  H16 QWV d   1      10.761 -14.546  22.494  0.00  0.00     0.033 H 
BRANCH 143 146
ATOM    146  C9  QWV d   1      12.837 -14.734  21.984  0.00  0.00    -0.065 C 
ATOM    147  H17 QWV d   1      13.118 -14.941  20.941  0.00  0.00     0.033 H 
ATOM    148  H18 QWV d   1      13.575 -15.191  22.660  0.00  0.00     0.033 H 
BRANCH 146 149
ATOM    149  C10 QWV d   1      12.836 -13.226  22.203  0.00  0.00    -0.065 C 
ATOM    150  H19 QWV d   1      13.435 -12.967  23.088  0.00  0.00     0.033 H 
ATOM    151  H20 QWV d   1      11.808 -12.859  22.336  0.00  0.00     0.033 H 
BRANCH 149 152
ATOM    152  C11 QWV d   1      13.459 -12.620  20.942  0.00  0.00    -0.065 C 
ATOM    153  H21 QWV d   1      12.716 -12.643  20.131  0.00  0.00     0.033 H 
ATOM    154  H22 QWV d   1      14.335 -13.219  20.654  0.00  0.00     0.033 H 
BRANCH 152 155
ATOM    155  C12 QWV d   1      13.901 -11.172  21.168  0.00  0.00    -0.065 C 
ATOM    156  H23 QWV d   1      14.180 -11.035  22.223  0.00  0.00     0.033 H 
ATOM    157  H24 QWV d   1      13.073 -10.493  20.916  0.00  0.00     0.033 H 
BRANCH 155 158
ATOM    158  C13 QWV d   1      15.118 -10.855  20.269  0.00  0.00    -0.065 C 
ATOM    159  H25 QWV d   1      15.662 -11.787  20.055  0.00  0.00     0.033 H 
ATOM    160  H26 QWV d   1      15.784 -10.155  20.795  0.00  0.00     0.033 H 
BRANCH 158 161
ATOM    161  C14 QWV d   1      14.665 -10.225  18.955  0.00  0.00    -0.065 C 
ATOM    162  H27 QWV d   1      14.394  -9.175  19.141  0.00  0.00     0.033 H 
ATOM    163  H28 QWV d   1      13.784 -10.771  18.586  0.00  0.00     0.033 H 
BRANCH 161 164
ATOM    164  C15 QWV d   1      15.765 -10.270  17.876  0.00  0.00    -0.065 C 
ATOM    165  H29 QWV d   1      16.150 -11.295  17.770  0.00  0.00     0.033 H 
ATOM    166  H30 QWV d   1      16.590  -9.595  18.148  0.00  0.00     0.033 H 
BRANCH 164 167
ATOM    167  C16 QWV d   1      15.120  -9.813  16.570  0.00  0.00    -0.065 C 
ATOM    168  H31 QWV d   1      15.256  -8.727  16.461  0.00  0.00     0.033 H 
ATOM    169  H32 QWV d   1      14.046 -10.047  16.597  0.00  0.00     0.033 H 
BRANCH 167 170
ATOM    170  C17 QWV d   1      15.744 -10.506  15.399  0.00  0.00    -0.069 C 
ATOM    171  H33 QWV d   1      15.067 -11.294  15.038  0.00  0.00     0.032 H 
ATOM    172  H34 QWV d   1      16.699 -10.956  15.707  0.00  0.00     0.032 H 
BRANCH 170 173
ATOM    173  C18 QWV d   1      15.997  -9.493  14.270  0.00  0.00    -0.077 C 
ATOM    174  H35 QWV d   1      16.455 -10.007  13.412  0.00  0.00     0.027 H 
ATOM    175  H36 QWV d   1      16.674  -8.704  14.630  0.00  0.00     0.027 H 
ATOM    176  H37 QWV d   1      15.042  -9.043  13.960  0.00  0.00     0.027 H 
ENDBRANCH 170 173
ENDBRANCH 167 170
ENDBRANCH 164 167
ENDBRANCH 161 164
ENDBRANCH 158 161
ENDBRANCH 155 158
ENDBRANCH 152 155
ENDBRANCH 149 152
ENDBRANCH 146 149
ENDBRANCH 143 146
ENDBRANCH 140 143
ENDBRANCH 137 140
ENDBRANCH 134 137
ENDBRANCH 131 134
ENDBRANCH 127 131
ENDBRANCH   1 127
TORSDOF 55
