REMARK  29 active torsions:
REMARK  status: ('A' for Active; 'I' for Inactive)
REMARK    1  A    between atoms: N_1  and  CA_2 
REMARK    2  A    between atoms: CA_2  and  C_3 
REMARK    3  A    between atoms: CA_2  and  CB_5 
REMARK       I    between atoms: C_3  and  N_9 
REMARK    4  A    between atoms: CB_5  and  CG_6 
REMARK    5  A    between atoms: N_9  and  CA_10 
REMARK    6  A    between atoms: CA_10  and  C_11 
REMARK       I    between atoms: C_11  and  N_13 
REMARK    7  A    between atoms: N_13  and  CA_14 
REMARK    8  A    between atoms: CA_14  and  C_15 
REMARK    9  A    between atoms: CA_14  and  CB_17 
REMARK       I    between atoms: C_15  and  N_25 
REMARK   10  A    between atoms: CB_17  and  CG_18 
REMARK   11  A    between atoms: CZ_23  and  OH_24 
REMARK   12  A    between atoms: N_25  and  CA_26 
REMARK   13  A    between atoms: CA_26  and  C_27 
REMARK   14  A    between atoms: CA_26  and  CB_29 
REMARK       I    between atoms: C_27  and  N_33 
REMARK   15  A    between atoms: CB_29  and  CG_30 
REMARK   16  A    between atoms: CG_30  and  SD_31 
REMARK   17  A    between atoms: SD_31  and  CE_32 
REMARK   18  A    between atoms: CA_34  and  C_35 
REMARK       I    between atoms: C_35  and  N_40 
REMARK   19  A    between atoms: N_40  and  CA_41 
REMARK   20  A    between atoms: CA_41  and  C_42 
REMARK   21  A    between atoms: CA_41  and  CB_44 
REMARK       I    between atoms: C_42  and  N_48 
REMARK   22  A    between atoms: CB_44  and  CG_45 
REMARK   23  A    between atoms: CG_45  and  SD_46 
REMARK   24  A    between atoms: SD_46  and  CE_47 
REMARK   25  A    between atoms: N_48  and  CA_49 
REMARK   26  A    between atoms: CA_49  and  CB_50 
REMARK   27  A    between atoms: CA_49  and  C_52 
REMARK   28  A    between atoms: CB_50  and  OG_51 
REMARK   29  A    between atoms: OG_51  and  P_54 
ROOT
ATOM      1  CA  ASP d   1      28.241 -48.759 -21.054  0.00  0.00     0.090 C 
ATOM      2  H20 ASP d   1      27.966 -49.715 -20.585  0.00  0.00     0.087 H 
ENDROOT
BRANCH   1   3
ATOM      3  N   ASP d   1      29.372 -48.961 -21.939  0.00  0.00    -0.346 N 
ATOM      4  C   ASP d   1      30.069 -50.067 -22.090  0.00  0.00     0.241 C 
ATOM      5  O   ASP d   1      29.836 -51.086 -21.445  0.00  0.00    -0.271 OA
ATOM      6  H19 ASP d   1      29.652 -48.177 -22.493  0.00  0.00     0.163 HD
BRANCH   4   7
ATOM      7  CA  ASP d   1      31.056 -50.043 -23.248  0.00  0.00     0.093 C 
ATOM      8  H11 ASP d   1      31.761 -49.213 -23.094  0.00  0.00     0.088 H 
BRANCH   7   9
ATOM      9  N   ASP d   1      31.815 -51.281 -23.333  0.00  0.00    -0.346 N 
ATOM     10  C   ASP d   1      33.130 -51.495 -23.139  0.00  0.00     0.236 C 
ATOM     11  O   ASP d   1      33.862 -50.709 -22.498  0.00  0.00    -0.272 OA
ATOM     12  H10 ASP d   1      31.281 -52.093 -23.570  0.00  0.00     0.163 HD
BRANCH  10  13
ATOM     13  CA  ASP d   1      33.631 -52.834 -23.709  0.00  0.00     0.069 C 
ATOM     14  H8  ASP d   1      32.829 -53.267 -24.325  0.00  0.00     0.078 H 
ATOM     15  H9  ASP d   1      34.510 -52.633 -24.339  0.00  0.00     0.078 H 
BRANCH  13  16
ATOM     16  N   ASP d   1      34.006 -53.805 -22.707  0.00  0.00    -0.351 N 
ATOM     17  C   ASP d   1      34.999 -53.464 -21.874  0.00  0.00     0.249 C 
ATOM     18  O   ASP d   1      35.648 -52.425 -22.054  0.00  0.00    -0.271 OA
ATOM     19  H7  ASP d   1      33.546 -54.690 -22.638  0.00  0.00     0.163 HD
BRANCH  17  20
ATOM     20  CA  ASP d   1      35.435 -54.467 -20.745  0.00  0.00     0.185 C 
ATOM     21  H4  ASP d   1      35.829 -55.359 -21.254  0.00  0.00     0.100 H 
BRANCH  20  22
ATOM     22  N   ASP d   1      36.500 -53.952 -19.877  0.00  0.00    -0.066 N 
ATOM     23  H1  ASP d   1      36.729 -54.643 -19.180  0.00  0.00     0.275 HD
ATOM     24  H2  ASP d   1      36.185 -53.108 -19.424  0.00  0.00     0.275 HD
ATOM     25  H3  ASP d   1      37.318 -53.751 -20.431  0.00  0.00     0.275 HD
ENDBRANCH  20  22
BRANCH  20  26
ATOM     26  CB  ASP d   1      34.272 -54.913 -19.872  0.00  0.00     0.050 C 
ATOM     27  H5  ASP d   1      34.513 -55.893 -19.434  0.00  0.00     0.052 H 
ATOM     28  H6  ASP d   1      33.373 -55.003 -20.499  0.00  0.00     0.052 H 
BRANCH  26  29
ATOM     29  CG  ASP d   1      33.987 -53.927 -18.743  0.00  0.00     0.175 C 
ATOM     30  OD1 ASP d   1      33.217 -54.263 -17.827  0.00  0.00    -0.648 OA
ATOM     31  OD2 ASP d   1      34.524 -52.806 -18.793  0.00  0.00    -0.648 OA
ENDBRANCH  26  29
ENDBRANCH  20  26
ENDBRANCH  17  20
ENDBRANCH  13  16
ENDBRANCH  10  13
ENDBRANCH   7   9
BRANCH   7  32
ATOM     32  CB  ASP d   1      30.282 -49.805 -24.543  0.00  0.00    -0.014 C 
ATOM     33  H12 ASP d   1      29.882 -48.781 -24.505  0.00  0.00     0.043 H 
ATOM     34  H13 ASP d   1      29.450 -50.524 -24.567  0.00  0.00     0.043 H 
BRANCH  32  35
ATOM     35  CG  ASP d   1      31.031 -49.945 -25.827  0.00  0.00    -0.056 A 
ATOM     36  CD1 ASP d   1      31.465 -51.161 -26.294  0.00  0.00    -0.074 A 
ATOM     37  CE1 ASP d   1      32.139 -51.247 -27.499  0.00  0.00    -0.051 A 
ATOM     38  H14 ASP d   1      31.279 -52.059 -25.715  0.00  0.00     0.084 H 
ATOM     39  CZ  ASP d   1      32.353 -50.101 -28.245  0.00  0.00     0.065 A 
ATOM     40  H16 ASP d   1      32.497 -52.206 -27.857  0.00  0.00     0.087 H 
ATOM     41  CE2 ASP d   1      31.888 -48.896 -27.806  0.00  0.00    -0.051 A 
ATOM     42  CD2 ASP d   1      31.238 -48.832 -26.611  0.00  0.00    -0.074 A 
ATOM     43  H17 ASP d   1      32.034 -48.001 -28.400  0.00  0.00     0.087 H 
ATOM     44  H15 ASP d   1      30.871 -47.872 -26.265  0.00  0.00     0.084 H 
BRANCH  39  45
ATOM     45  OH  ASP d   1      33.032 -50.167 -29.447  0.00  0.00    -0.361 OA
ATOM     46  H18 ASP d   1      33.805 -49.617 -29.403  0.00  0.00     0.217 HD
ENDBRANCH  39  45
ENDBRANCH  32  35
ENDBRANCH   7  32
ENDBRANCH   4   7
ENDBRANCH   1   3
BRANCH   1  47
ATOM     47  C   ASP d   1      27.075 -48.244 -21.891  0.00  0.00     0.243 C 
ATOM     48  O   ASP d   1      27.276 -47.630 -22.949  0.00  0.00    -0.271 OA
ATOM     49  N   ASP d   1      25.838 -48.480 -21.441  0.00  0.00    -0.337 N 
ATOM     50  CA  ASP d   1      24.682 -48.245 -22.310  0.00  0.00     0.091 C 
ATOM     51  CD  ASP d   1      25.434 -49.080 -20.159  0.00  0.00    -0.001 C 
ATOM     52  CB  ASP d   1      23.587 -49.109 -21.684  0.00  0.00    -0.036 C 
ATOM     53  H28 ASP d   1      24.895 -48.568 -23.340  0.00  0.00     0.087 H 
ATOM     54  CG  ASP d   1      23.957 -49.203 -20.276  0.00  0.00    -0.048 C 
ATOM     55  H29 ASP d   1      23.566 -50.106 -22.148  0.00  0.00     0.036 H 
ATOM     56  H30 ASP d   1      22.603 -48.631 -21.796  0.00  0.00     0.036 H 
ATOM     57  H31 ASP d   1      23.634 -50.174 -19.873  0.00  0.00     0.035 H 
ATOM     58  H32 ASP d   1      23.473 -48.392 -19.712  0.00  0.00     0.035 H 
ATOM     59  H33 ASP d   1      25.707 -48.427 -19.317  0.00  0.00     0.064 H 
ATOM     60  H34 ASP d   1      25.900 -50.067 -20.024  0.00  0.00     0.064 H 
BRANCH  50  61
ATOM     61  C   ASP d   1      24.284 -46.787 -22.316  0.00  0.00     0.241 C 
ATOM     62  O   ASP d   1      24.309 -46.107 -21.286  0.00  0.00    -0.271 OA
ATOM     63  N   ASP d   1      23.922 -46.320 -23.501  0.00  0.00    -0.346 N 
ATOM     64  H35 ASP d   1      23.843 -46.960 -24.265  0.00  0.00     0.163 HD
BRANCH  63  65
ATOM     65  CA  ASP d   1      23.637 -44.925 -23.734  0.00  0.00     0.090 C 
ATOM     66  H36 ASP d   1      24.529 -44.342 -23.460  0.00  0.00     0.087 H 
BRANCH  65  67
ATOM     67  C   ASP d   1      22.477 -44.408 -22.905  0.00  0.00     0.241 C 
ATOM     68  O   ASP d   1      21.388 -45.007 -22.937  0.00  0.00    -0.271 OA
ATOM     69  N   ASP d   1      22.751 -43.340 -22.133  0.00  0.00    -0.343 N 
ATOM     70  H44 ASP d   1      23.697 -43.017 -22.110  0.00  0.00     0.163 HD
BRANCH  69  71
ATOM     71  CA  ASP d   1      21.755 -42.604 -21.313  0.00  0.00     0.117 C 
ATOM     72  H45 ASP d   1      21.133 -42.069 -22.046  0.00  0.00     0.093 H 
BRANCH  71  73
ATOM     73  CB  ASP d   1      20.800 -43.526 -20.536  0.00  0.00     0.060 C 
ATOM     74  H46 ASP d   1      20.380 -42.975 -19.681  0.00  0.00     0.079 H 
ATOM     75  H47 ASP d   1      21.359 -44.400 -20.170  0.00  0.00     0.079 H 
BRANCH  73  76
ATOM     76  OG  ASP d   1      19.728 -43.971 -21.385  0.00  0.00    -0.280 OA
BRANCH  76  77
ATOM     77  P   ASP d   1      18.861 -42.792 -22.125  0.00  0.00     0.422 P 
ATOM     78  O1P ASP d   1      19.704 -42.113 -23.350  0.00  0.00    -0.617 OA
ATOM     79  O2P ASP d   1      18.458 -41.659 -21.015  0.00  0.00    -0.617 OA
ATOM     80  O3P ASP d   1      17.565 -43.515 -22.804  0.00  0.00    -0.617 OA
ENDBRANCH  76  77
ENDBRANCH  73  76
ENDBRANCH  71  73
BRANCH  71  81
ATOM     81  C   ASP d   1      22.292 -41.529 -20.376  0.00  0.00     0.198 C 
ATOM     82  O   ASP d   1      21.504 -40.828 -19.752  0.00  0.00    -0.646 OA
ATOM     83  OXT ASP d   1      23.503 -41.383 -20.261  0.00  0.00    -0.646 OA
ENDBRANCH  71  81
ENDBRANCH  69  71
ENDBRANCH  65  67
BRANCH  65  84
ATOM     84  CB  ASP d   1      23.372 -44.737 -25.211  0.00  0.00    -0.030 C 
ATOM     85  H37 ASP d   1      22.284 -44.735 -25.371  0.00  0.00     0.037 H 
ATOM     86  H38 ASP d   1      23.821 -45.581 -25.755  0.00  0.00     0.037 H 
BRANCH  84  87
ATOM     87  CG  ASP d   1      23.926 -43.483 -25.759  0.00  0.00    -0.021 C 
ATOM     88  H39 ASP d   1      24.869 -43.237 -25.248  0.00  0.00     0.049 H 
ATOM     89  H40 ASP d   1      23.207 -42.663 -25.616  0.00  0.00     0.049 H 
BRANCH  87  90
ATOM     90  SD  ASP d   1      24.226 -43.726 -27.497  0.00  0.00    -0.173 SA
BRANCH  90  91
ATOM     91  CE  ASP d   1      24.499 -42.074 -28.065  0.00  0.00    -0.035 C 
ATOM     92  H41 ASP d   1      24.700 -42.087 -29.146  0.00  0.00     0.041 H 
ATOM     93  H42 ASP d   1      25.362 -41.643 -27.537  0.00  0.00     0.041 H 
ATOM     94  H43 ASP d   1      23.605 -41.465 -27.865  0.00  0.00     0.041 H 
ENDBRANCH  90  91
ENDBRANCH  87  90
ENDBRANCH  84  87
ENDBRANCH  65  84
ENDBRANCH  63  65
ENDBRANCH  50  61
ENDBRANCH   1  47
BRANCH   1  95
ATOM     95  CB  ASP d   1      28.587 -47.745 -19.961  0.00  0.00    -0.030 C 
ATOM     96  H21 ASP d   1      29.357 -48.157 -19.292  0.00  0.00     0.037 H 
ATOM     97  H22 ASP d   1      27.689 -47.496 -19.377  0.00  0.00     0.037 H 
BRANCH  95  98
ATOM     98  CG  ASP d   1      29.102 -46.532 -20.649  0.00  0.00    -0.021 C 
ATOM     99  H23 ASP d   1      28.314 -46.208 -21.344  0.00  0.00     0.049 H 
ATOM    100  H24 ASP d   1      29.987 -46.849 -21.220  0.00  0.00     0.049 H 
BRANCH  98 101
ATOM    101  SD  ASP d   1      29.584 -45.093 -19.727  0.00  0.00    -0.173 SA
BRANCH 101 102
ATOM    102  CE  ASP d   1      29.042 -43.886 -20.939  0.00  0.00    -0.035 C 
ATOM    103  H25 ASP d   1      29.250 -42.873 -20.566  0.00  0.00     0.041 H 
ATOM    104  H26 ASP d   1      27.961 -43.999 -21.111  0.00  0.00     0.041 H 
ATOM    105  H27 ASP d   1      29.582 -44.047 -21.884  0.00  0.00     0.041 H 
ENDBRANCH 101 102
ENDBRANCH  98 101
ENDBRANCH  95  98
ENDBRANCH   1  95
TORSDOF 29
