REMARK  5 active torsions:
REMARK  status: ('A' for Active; 'I' for Inactive)
REMARK    1  A    between atoms: C02_2  and  C01_1 
REMARK    2  A    between atoms: C02_2  and  C03_3 
REMARK    3  A    between atoms: C04_4  and  C02_2 
REMARK    4  A    between atoms: C11_9  and  N12_18 
REMARK    5  A    between atoms: C13_10  and  C14_11 
ROOT
ATOM      1  C04 E0M d   1      -4.213 -28.735  -8.009  0.00  0.00    -0.054 A 
ATOM      2  C05 E0M d   1      -5.459 -28.585  -8.651  0.00  0.00    -0.074 A 
ATOM      3  C06 E0M d   1      -5.642 -28.756 -10.047  0.00  0.00    -0.049 A 
ATOM      4  C07 E0M d   1      -4.545 -29.100 -10.916  0.00  0.00     0.092 A 
ATOM      5  C09 E0M d   1      -3.669 -29.584 -13.190  0.00  0.00     0.186 A 
ATOM      6  C11 E0M d   1      -2.950 -30.011 -15.452  0.00  0.00     0.138 A 
ATOM      7  C13 E0M d   1      -1.596 -30.207 -15.006  0.00  0.00     0.062 A 
ATOM      8  C19 E0M d   1      -1.364 -30.070 -13.625  0.00  0.00    -0.047 A 
ATOM      9  C20 E0M d   1      -2.375 -29.762 -12.696  0.00  0.00     0.069 A 
ATOM     10  C21 E0M d   1      -2.225 -29.605 -11.247  0.00  0.00     0.199 A 
ATOM     11  C23 E0M d   1      -3.305 -29.253 -10.303  0.00  0.00     0.049 A 
ATOM     12  C24 E0M d   1      -3.166 -29.070  -8.893  0.00  0.00    -0.060 A 
ATOM     13  N10 E0M d   1      -3.983 -29.701 -14.551  0.00  0.00    -0.205 NA
ATOM     14  O08 E0M d   1      -4.731 -29.271 -12.316  0.00  0.00    -0.290 OA
ATOM     15  O22 E0M d   1      -1.072 -29.793 -10.773  0.00  0.00    -0.286 OA
ATOM     16  H8  E0M d   1      -6.321 -28.326  -8.047  0.00  0.00     0.084 H 
ATOM     17  H9  E0M d   1      -6.631 -28.625 -10.471  0.00  0.00     0.087 H 
ATOM     18  H10 E0M d   1      -0.354 -30.209 -13.258  0.00  0.00     0.086 H 
ATOM     19  H11 E0M d   1      -2.177 -29.199  -8.469  0.00  0.00     0.086 H 
ENDROOT
BRANCH   1  20
ATOM     20  C02 E0M d   1      -4.019 -28.542  -6.464  0.00  0.00    -0.036 C 
ATOM     21  H4  E0M d   1      -4.047 -27.455  -6.298  0.00  0.00     0.046 H 
BRANCH  20  22
ATOM     22  C01 E0M d   1      -5.142 -29.154  -5.596  0.00  0.00    -0.069 C 
ATOM     23  H1  E0M d   1      -4.924 -28.972  -4.533  0.00  0.00     0.028 H 
ATOM     24  H2  E0M d   1      -5.197 -30.237  -5.779  0.00  0.00     0.028 H 
ATOM     25  H3  E0M d   1      -6.103 -28.688  -5.858  0.00  0.00     0.028 H 
ENDBRANCH  20  22
BRANCH  20  26
ATOM     26  C03 E0M d   1      -2.656 -29.041  -5.916  0.00  0.00    -0.069 C 
ATOM     27  H5  E0M d   1      -1.841 -28.617  -6.520  0.00  0.00     0.028 H 
ATOM     28  H6  E0M d   1      -2.619 -30.139  -5.970  0.00  0.00     0.028 H 
ATOM     29  H7  E0M d   1      -2.542 -28.721  -4.870  0.00  0.00     0.028 H 
ENDBRANCH  20  26
ENDBRANCH   1  20
BRANCH   7  30
ATOM     30  C14 E0M d   1      -0.518 -30.522 -15.923  0.00  0.00     0.208 A 
ATOM     31  N15 E0M d   1      -0.431 -30.377 -17.292  0.00  0.00    -0.108 NA
ATOM     32  N16 E0M d   1       0.804 -30.807 -17.676  0.00  0.00    -0.049 NA
ATOM     33  N17 E0M d   1       1.525 -31.216 -16.658  0.00  0.00    -0.176 N 
ATOM     34  N18 E0M d   1       0.742 -31.052 -15.541  0.00  0.00    -0.133 NA
ATOM     35  H14 E0M d   1       2.486 -31.586 -16.690  0.00  0.00     0.214 HD
ENDBRANCH   7  30
BRANCH   6  36
ATOM     36  N12 E0M d   1      -3.231 -30.137 -16.820  0.00  0.00    -0.383 N 
ATOM     37  H12 E0M d   1      -4.193 -30.001 -17.163  0.00  0.00     0.157 HD
ATOM     38  H13 E0M d   1      -2.476 -30.365 -17.482  0.00  0.00     0.157 HD
ENDBRANCH   6  36
TORSDOF 5
