REMARK  10 active torsions:
REMARK  status: ('A' for Active; 'I' for Inactive)
REMARK    1  A    between atoms: C27_1  and  O28_30 
REMARK    2  A    between atoms: N14_25  and  C15_3 
REMARK    3  A    between atoms: N21_28  and  C24_5 
REMARK    4  A    between atoms: C31_6  and  O32_32 
REMARK    5  A    between atoms: C26_7  and  C33_9 
REMARK    6  A    between atoms: C29_10  and  O30_31 
REMARK    7  A    between atoms: N02_22  and  C01_11 
REMARK    8  A    between atoms: C03_12  and  N02_22 
REMARK    9  A    between atoms: C13_19  and  N14_25 
REMARK   10  A    between atoms: C17_20  and  N18_27 
ROOT
ATOM      1  C19 E0V d   1     -62.549 -59.344 -34.184  0.00  0.00     0.019 C 
ATOM      2  C20 E0V d   1     -61.123 -59.619 -33.674  0.00  0.00     0.101 C 
ATOM      3  C23 E0V d   1     -61.696 -57.280 -35.184  0.00  0.00     0.019 C 
ATOM      4  C22 E0V d   1     -60.270 -57.648 -34.719  0.00  0.00     0.101 C 
ATOM      5  N18 E0V d   1     -62.521 -58.521 -35.438  0.00  0.00    -0.361 N 
ATOM      6  N21 E0V d   1     -60.345 -58.405 -33.526  0.00  0.00    -0.039 N 
ATOM      7  H2  E0V d   1     -63.110 -58.800 -33.409  0.00  0.00     0.066 H 
ATOM      8  H3  E0V d   1     -63.047 -60.302 -34.393  0.00  0.00     0.066 H 
ATOM      9  H7  E0V d   1     -60.613 -60.280 -34.390  0.00  0.00     0.078 H 
ATOM     10  H8  E0V d   1     -61.188 -60.118 -32.696  0.00  0.00     0.078 H 
ATOM     11  H12 E0V d   1     -61.631 -56.695 -36.113  0.00  0.00     0.066 H 
ATOM     12  H13 E0V d   1     -62.184 -56.677 -34.404  0.00  0.00     0.066 H 
ATOM     13  H20 E0V d   1     -59.695 -56.728 -34.534  0.00  0.00     0.078 H 
ATOM     14  H21 E0V d   1     -59.771 -58.242 -35.499  0.00  0.00     0.078 H 
ATOM     15  H24 E0V d   1     -60.772 -57.834 -32.813  0.00  0.00     0.283 HD
ENDROOT
BRANCH   5  16
ATOM     16  C17 E0V d   1     -63.629 -58.609 -36.466  0.00  0.00     0.164 A 
ATOM     17  C10 E0V d   1     -63.657 -57.746 -37.609  0.00  0.00     0.084 A 
ATOM     18  C11 E0V d   1     -64.716 -57.895 -38.507  0.00  0.00     0.110 A 
ATOM     19  S09 E0V d   1     -62.685 -56.471 -38.257  0.00  0.00    -0.063 SA
ATOM     20  C06 E0V d   1     -64.672 -56.965 -39.668  0.00  0.00     0.031 A 
ATOM     21  N12 E0V d   1     -65.669 -58.834 -38.266  0.00  0.00    -0.061 NA
ATOM     22  C05 E0V d   1     -65.604 -56.899 -40.712  0.00  0.00    -0.064 A 
ATOM     23  C07 E0V d   1     -63.575 -56.091 -39.670  0.00  0.00     0.113 A 
ATOM     24  C04 E0V d   1     -65.396 -55.971 -41.701  0.00  0.00    -0.038 A 
ATOM     25  H19 E0V d   1     -66.463 -57.560 -40.738  0.00  0.00     0.085 H 
ATOM     26  C03 E0V d   1     -64.254 -55.128 -41.619  0.00  0.00     0.124 A 
ATOM     27  H18 E0V d   1     -66.089 -55.882 -42.529  0.00  0.00     0.089 H 
ATOM     28  N08 E0V d   1     -63.402 -55.208 -40.630  0.00  0.00    -0.224 NA
ATOM     29  C13 E0V d   1     -65.602 -59.624 -37.176  0.00  0.00     0.724 A 
ATOM     30  N16 E0V d   1     -64.602 -59.514 -36.294  0.00  0.00    -0.044 NA
BRANCH  26  31
ATOM     31  N02 E0V d   1     -63.993 -54.111 -42.673  0.00  0.00    -0.379 N 
ATOM     32  H22 E0V d   1     -64.370 -54.227 -43.625  0.00  0.00     0.160 HD
BRANCH  31  33
ATOM     33  C01 E0V d   1     -63.216 -52.984 -42.334  0.00  0.00    -0.020 C 
ATOM     34  H15 E0V d   1     -63.114 -52.331 -43.213  0.00  0.00     0.056 H 
ATOM     35  H16 E0V d   1     -62.219 -53.312 -42.003  0.00  0.00     0.056 H 
ATOM     36  H17 E0V d   1     -63.709 -52.430 -41.521  0.00  0.00     0.056 H 
ENDBRANCH  31  33
ENDBRANCH  26  31
BRANCH  29  37
ATOM     37  N14 E0V d   1     -66.627 -60.613 -36.951  0.00  0.00    -0.227 N 
ATOM     38  H23 E0V d   1     -66.823 -60.946 -35.996  0.00  0.00     0.177 HD
BRANCH  37  39
ATOM     39  C15 E0V d   1     -67.383 -61.138 -38.075  0.00  0.00    -0.005 C 
ATOM     40  H4  E0V d   1     -68.114 -61.876 -37.713  0.00  0.00     0.057 H 
ATOM     41  H5  E0V d   1     -66.696 -61.621 -38.785  0.00  0.00     0.057 H 
ATOM     42  H6  E0V d   1     -67.911 -60.315 -38.578  0.00  0.00     0.057 H 
ENDBRANCH  37  39
ENDBRANCH  29  37
ENDBRANCH   5  16
BRANCH   6  43
ATOM     43  C24 E0V d   1     -58.948 -58.788 -33.093  0.00  0.00     0.222 C 
ATOM     44  C31 E0V d   1     -59.006 -59.548 -31.741  0.00  0.00     0.112 C 
ATOM     45  C29 E0V d   1     -58.115 -60.724 -31.636  0.00  0.00     0.092 C 
ATOM     46  H10 E0V d   1     -60.034 -59.917 -31.610  0.00  0.00     0.093 H 
ATOM     47  C27 E0V d   1     -58.214 -61.557 -32.857  0.00  0.00     0.097 C 
ATOM     48  H14 E0V d   1     -57.076 -60.382 -31.517  0.00  0.00     0.091 H 
ATOM     49  C26 E0V d   1     -57.681 -60.737 -34.044  0.00  0.00     0.151 C 
ATOM     50  H1  E0V d   1     -59.270 -61.808 -33.033  0.00  0.00     0.091 H 
ATOM     51  O25 E0V d   1     -58.511 -59.542 -34.284  0.00  0.00    -0.338 OA
ATOM     52  H11 E0V d   1     -56.645 -60.434 -33.834  0.00  0.00     0.104 H 
ATOM     53  H9  E0V d   1     -58.310 -57.902 -32.957  0.00  0.00     0.134 H 
BRANCH  44  54
ATOM     54  O32 E0V d   1     -58.734 -58.582 -30.705  0.00  0.00    -0.388 OA
ATOM     55  H27 E0V d   1     -57.835 -58.285 -30.779  0.00  0.00     0.210 HD
ENDBRANCH  44  54
BRANCH  45  56
ATOM     56  O30 E0V d   1     -58.484 -61.473 -30.524  0.00  0.00    -0.390 OA
ATOM     57  H26 E0V d   1     -57.915 -62.230 -30.451  0.00  0.00     0.210 HD
ENDBRANCH  45  56
BRANCH  47  58
ATOM     58  O28 E0V d   1     -57.486 -62.748 -32.738  0.00  0.00    -0.390 OA
ATOM     59  H25 E0V d   1     -57.574 -63.253 -33.538  0.00  0.00     0.210 HD
ENDBRANCH  47  58
BRANCH  49  60
ATOM     60  C33 E0V d   1     -57.732 -61.551 -35.303  0.00  0.00     0.206 C 
ATOM     61  O34 E0V d   1     -58.786 -61.468 -36.056  0.00  0.00    -0.646 OA
ATOM     62  O35 E0V d   1     -56.745 -62.300 -35.625  0.00  0.00    -0.646 OA
ENDBRANCH  49  60
ENDBRANCH   6  43
TORSDOF 10
