REMARK  8 active torsions:
REMARK  status: ('A' for Active; 'I' for Inactive)
REMARK    1  A    between atoms: C02_2  and  C01_1 
REMARK    2  A    between atoms: O03_21  and  C02_2 
REMARK    3  A    between atoms: C04_3  and  C06_4 
REMARK    4  A    between atoms: C04_3  and  O03_21 
REMARK    5  A    between atoms: C13_10  and  C14_11 
REMARK    6  A    between atoms: C14_11  and  C15_12 
REMARK    7  A    between atoms: C14_11  and  C16_13 
REMARK    8  A    between atoms: C23_18  and  N24_20 
ROOT
ATOM      1  C06 E0P d   1     -26.567 -13.892  -0.778  0.00  0.00     0.086 A 
ATOM      2  C07 E0P d   1     -26.459 -14.237   0.570  0.00  0.00    -0.045 A 
ATOM      3  C08 E0P d   1     -26.480 -13.329   1.624  0.00  0.00     0.069 A 
ATOM      4  C09 E0P d   1     -26.389 -13.634   3.090  0.00  0.00     0.199 C 
ATOM      5  C11 E0P d   1     -26.270 -12.541   4.112  0.00  0.00     0.049 A 
ATOM      6  C12 E0P d   1     -26.043 -12.759   5.480  0.00  0.00    -0.060 A 
ATOM      7  C13 E0P d   1     -25.938 -11.756   6.451  0.00  0.00    -0.054 A 
ATOM      8  C17 E0P d   1     -26.098 -10.466   5.942  0.00  0.00    -0.074 A 
ATOM      9  C18 E0P d   1     -26.334 -10.194   4.584  0.00  0.00    -0.049 A 
ATOM     10  C19 E0P d   1     -26.428 -11.230   3.624  0.00  0.00     0.092 A 
ATOM     11  C21 E0P d   1     -26.628 -11.961   1.301  0.00  0.00     0.186 A 
ATOM     12  C23 E0P d   1     -26.709 -12.491  -1.047  0.00  0.00     0.140 A 
ATOM     13  N22 E0P d   1     -26.739 -11.545  -0.004  0.00  0.00    -0.205 NA
ATOM     14  O10 E0P d   1     -26.409 -14.793   3.418  0.00  0.00    -0.286 OA
ATOM     15  O20 E0P d   1     -26.671 -10.968   2.276  0.00  0.00    -0.290 OA
ATOM     16  H6  E0P d   1     -26.351 -15.288   0.813  0.00  0.00     0.086 H 
ATOM     17  H7  E0P d   1     -25.941 -13.786   5.811  0.00  0.00     0.086 H 
ATOM     18  H15 E0P d   1     -26.037  -9.631   6.630  0.00  0.00     0.084 H 
ATOM     19  H16 E0P d   1     -26.447  -9.165   4.263  0.00  0.00     0.087 H 
ENDROOT
BRANCH   1  20
ATOM     20  C04 E0P d   1     -26.537 -14.890  -1.889  0.00  0.00     0.297 C 
ATOM     21  O05 E0P d   1     -27.012 -14.609  -2.971  0.00  0.00    -0.259 OA
BRANCH  20  22
ATOM     22  O03 E0P d   1     -25.979 -16.135  -1.732  0.00  0.00    -0.318 OA
BRANCH  22  23
ATOM     23  C02 E0P d   1     -26.225 -17.145  -2.715  0.00  0.00     0.026 C 
ATOM     24  H4  E0P d   1     -27.056 -17.777  -2.370  0.00  0.00     0.074 H 
ATOM     25  H5  E0P d   1     -26.504 -16.656  -3.660  0.00  0.00     0.074 H 
BRANCH  23  26
ATOM     26  C01 E0P d   1     -25.009 -18.032  -2.965  0.00  0.00    -0.056 C 
ATOM     27  H1  E0P d   1     -25.256 -18.787  -3.726  0.00  0.00     0.030 H 
ATOM     28  H2  E0P d   1     -24.724 -18.535  -2.029  0.00  0.00     0.030 H 
ATOM     29  H3  E0P d   1     -24.171 -17.414  -3.320  0.00  0.00     0.030 H 
ENDBRANCH  23  26
ENDBRANCH  22  23
ENDBRANCH  20  22
ENDBRANCH   1  20
BRANCH  12  30
ATOM     30  N24 E0P d   1     -26.820 -12.064  -2.321  0.00  0.00    -0.383 N 
ATOM     31  H17 E0P d   1     -26.922 -11.059  -2.520  0.00  0.00     0.157 HD
ATOM     32  H18 E0P d   1     -26.803 -12.743  -3.095  0.00  0.00     0.157 HD
ENDBRANCH  12  30
BRANCH   7  33
ATOM     33  C14 E0P d   1     -25.685 -12.064   7.951  0.00  0.00    -0.036 C 
ATOM     34  H8  E0P d   1     -26.654 -11.931   8.455  0.00  0.00     0.046 H 
BRANCH  33  35
ATOM     35  C15 E0P d   1     -24.697 -11.115   8.638  0.00  0.00    -0.069 C 
ATOM     36  H9  E0P d   1     -24.580 -11.408   9.692  0.00  0.00     0.028 H 
ATOM     37  H10 E0P d   1     -25.080 -10.085   8.584  0.00  0.00     0.028 H 
ATOM     38  H11 E0P d   1     -23.722 -11.171   8.132  0.00  0.00     0.028 H 
ENDBRANCH  33  35
BRANCH  33  39
ATOM     39  C16 E0P d   1     -25.244 -13.519   8.199  0.00  0.00    -0.069 C 
ATOM     40  H12 E0P d   1     -25.950 -14.205   7.708  0.00  0.00     0.028 H 
ATOM     41  H13 E0P d   1     -25.231 -13.719   9.281  0.00  0.00     0.028 H 
ATOM     42  H14 E0P d   1     -24.236 -13.672   7.786  0.00  0.00     0.028 H 
ENDBRANCH  33  39
ENDBRANCH   7  33
TORSDOF 8
