REMARK  6 active torsions:
REMARK  status: ('A' for Active; 'I' for Inactive)
REMARK    1  A    between atoms: C02_2  and  C01_1 
REMARK    2  A    between atoms: C02_2  and  C03_3 
REMARK    3  A    between atoms: C04_4  and  C02_2 
REMARK    4  A    between atoms: C11_9  and  N12_19 
REMARK    5  A    between atoms: C13_10  and  C20_16 
REMARK       I    between atoms: C20_16  and  N22_20 
REMARK    6  A    between atoms: N22_20  and  C23_17 
ROOT
ATOM      1  C04 E0S d   1      -4.208 -28.649  -7.937  0.00  0.00    -0.054 A 
ATOM      2  C05 E0S d   1      -5.431 -28.282  -8.534  0.00  0.00    -0.074 A 
ATOM      3  C06 E0S d   1      -5.644 -28.226  -9.930  0.00  0.00    -0.049 A 
ATOM      4  C07 E0S d   1      -4.567 -28.560 -10.797  0.00  0.00     0.092 A 
ATOM      5  C09 E0S d   1      -3.812 -29.058 -13.043  0.00  0.00     0.186 A 
ATOM      6  C11 E0S d   1      -3.248 -29.728 -15.262  0.00  0.00     0.140 A 
ATOM      7  C13 E0S d   1      -1.921 -30.160 -14.885  0.00  0.00     0.079 A 
ATOM      8  C14 E0S d   1      -1.639 -29.984 -13.512  0.00  0.00    -0.046 A 
ATOM      9  C15 E0S d   1      -2.544 -29.447 -12.589  0.00  0.00     0.069 A 
ATOM     10  C16 E0S d   1      -2.273 -29.263 -11.164  0.00  0.00     0.199 C 
ATOM     11  C18 E0S d   1      -3.358 -28.924 -10.239  0.00  0.00     0.049 A 
ATOM     12  C19 E0S d   1      -3.179 -28.971  -8.838  0.00  0.00    -0.060 A 
ATOM     13  N10 E0S d   1      -4.187 -29.181 -14.367  0.00  0.00    -0.205 NA
ATOM     14  O08 E0S d   1      -4.791 -28.501 -12.196  0.00  0.00    -0.290 OA
ATOM     15  O17 E0S d   1      -1.086 -29.406 -10.723  0.00  0.00    -0.286 OA
ATOM     16  H8  E0S d   1      -6.259 -28.027  -7.882  0.00  0.00     0.084 H 
ATOM     17  H9  E0S d   1      -6.608 -27.935 -10.332  0.00  0.00     0.087 H 
ATOM     18  H10 E0S d   1      -0.662 -30.283 -13.151  0.00  0.00     0.086 H 
ATOM     19  H11 E0S d   1      -2.213 -29.266  -8.444  0.00  0.00     0.086 H 
ENDROOT
BRANCH   1  20
ATOM     20  C02 E0S d   1      -3.997 -28.705  -6.398  0.00  0.00    -0.036 C 
ATOM     21  H4  E0S d   1      -3.756 -29.753  -6.164  0.00  0.00     0.046 H 
BRANCH  20  22
ATOM     22  C01 E0S d   1      -5.271 -28.339  -5.605  0.00  0.00    -0.069 C 
ATOM     23  H1  E0S d   1      -5.061 -28.396  -4.527  0.00  0.00     0.028 H 
ATOM     24  H2  E0S d   1      -6.076 -29.044  -5.859  0.00  0.00     0.028 H 
ATOM     25  H3  E0S d   1      -5.583 -27.317  -5.864  0.00  0.00     0.028 H 
ENDBRANCH  20  22
BRANCH  20  26
ATOM     26  C03 E0S d   1      -2.829 -27.848  -5.863  0.00  0.00    -0.069 C 
ATOM     27  H5  E0S d   1      -1.910 -28.094  -6.416  0.00  0.00     0.028 H 
ATOM     28  H6  E0S d   1      -2.680 -28.058  -4.793  0.00  0.00     0.028 H 
ATOM     29  H7  E0S d   1      -3.064 -26.782  -5.999  0.00  0.00     0.028 H 
ENDBRANCH  20  26
ENDBRANCH   1  20
BRANCH   7  30
ATOM     30  C20 E0S d   1      -0.927 -30.742 -15.851  0.00  0.00     0.262 C 
ATOM     31  N22 E0S d   1       0.487 -31.048 -15.581  0.00  0.00    -0.289 N 
ATOM     32  H14 E0S d   1       0.997 -31.438 -16.348  0.00  0.00     0.172 HD
ATOM     33  O21 E0S d   1      -1.269 -31.026 -17.022  0.00  0.00    -0.267 OA
BRANCH  31  34
ATOM     34  C23 E0S d   1       1.234 -30.865 -14.375  0.00  0.00     0.270 A 
ATOM     35  N24 E0S d   1       1.430 -29.751 -13.591  0.00  0.00    -0.090 NA
ATOM     36  N25 E0S d   1       2.227 -30.129 -12.551  0.00  0.00    -0.047 NA
ATOM     37  N26 E0S d   1       2.555 -31.392 -12.604  0.00  0.00    -0.175 N 
ATOM     38  N27 E0S d   1       1.956 -31.914 -13.736  0.00  0.00    -0.115 NA
ATOM     39  H15 E0S d   1       3.146 -31.901 -11.932  0.00  0.00     0.214 HD
ENDBRANCH  31  34
ENDBRANCH   7  30
BRANCH   6  40
ATOM     40  N12 E0S d   1      -3.656 -29.845 -16.587  0.00  0.00    -0.383 N 
ATOM     41  H12 E0S d   1      -4.600 -29.540 -16.864  0.00  0.00     0.157 HD
ATOM     42  H13 E0S d   1      -3.014 -30.237 -17.291  0.00  0.00     0.157 HD
ENDBRANCH   6  40
TORSDOF 6
