REMARK  19 active torsions:
REMARK  status: ('A' for Active; 'I' for Inactive)
REMARK    1  A    between atoms: C1_4  and  C_2 
REMARK    2  A    between atoms: C15_10  and  O_3 
REMARK    3  A    between atoms: O_3  and  C16_11 
REMARK    4  A    between atoms: C10_5  and  C11_6 
REMARK    5  A    between atoms: C9_44  and  C10_5 
REMARK    6  A    between atoms: C11_6  and  C12_7 
REMARK    7  A    between atoms: C12_7  and  C13_8 
REMARK    8  A    between atoms: C13_8  and  N3_47 
REMARK    9  A    between atoms: C14_9  and  C15_10 
REMARK       I    between atoms: N3_47  and  C14_9 
REMARK   10  A    between atoms: N4_48  and  C22_18 
REMARK   11  A    between atoms: C29_25  and  C30_27 
REMARK   12  A    between atoms: C4_37  and  C3_26 
REMARK   13  A    between atoms: C38_35  and  C39_36 
REMARK   14  A    between atoms: C5_40  and  C4_37 
REMARK   15  A    between atoms: C40_38  and  C41_39 
REMARK       I    between atoms: N2_46  and  C5_40 
REMARK   16  A    between atoms: C7_42  and  C6_41 
REMARK   17  A    between atoms: C6_41  and  N2_46 
REMARK   18  A    between atoms: C8_43  and  C7_42 
REMARK   19  A    between atoms: C8_43  and  C9_44 
ROOT
ATOM      1  C8  RN6 d   1      74.215  33.054  49.430  0.00  0.00    -0.064 C 
ATOM      2  H39 RN6 d   1      74.165  33.260  50.509  0.00  0.00     0.033 H 
ATOM      3  H40 RN6 d   1      73.354  32.436  49.134  0.00  0.00     0.033 H 
ENDROOT
BRANCH   1   4
ATOM      4  C7  RN6 d   1      75.488  32.269  49.150  0.00  0.00    -0.050 C 
ATOM      5  H37 RN6 d   1      75.506  32.013  48.081  0.00  0.00     0.035 H 
ATOM      6  H38 RN6 d   1      76.348  32.912  49.387  0.00  0.00     0.035 H 
BRANCH   4   7
ATOM      7  C6  RN6 d   1      75.620  30.986  49.948  0.00  0.00    -0.005 C 
ATOM      8  H35 RN6 d   1      76.403  30.364  49.489  0.00  0.00     0.064 H 
ATOM      9  H36 RN6 d   1      74.660  30.450  49.915  0.00  0.00     0.064 H 
BRANCH   7  10
ATOM     10  N2  RN6 d   1      75.972  31.228  51.340  0.00  0.00    -0.361 N 
ATOM     11  C5  RN6 d   1      75.375  30.601  52.352  0.00  0.00     0.220 C 
ATOM     12  O6  RN6 d   1      74.449  29.811  52.191  0.00  0.00    -0.274 OA
ATOM     13  H43 RN6 d   1      76.691  31.892  51.544  0.00  0.00     0.162 HD
BRANCH  11  14
ATOM     14  C4  RN6 d   1      75.905  30.925  53.732  0.00  0.00     0.036 C 
ATOM     15  H30 RN6 d   1      75.663  30.098  54.415  0.00  0.00     0.051 H 
ATOM     16  H31 RN6 d   1      76.997  31.050  53.679  0.00  0.00     0.051 H 
BRANCH  14  17
ATOM     17  C3  RN6 d   1      75.276  32.218  54.265  0.00  0.00     0.100 C 
ATOM     18  C2  RN6 d   1      75.690  32.603  55.668  0.00  0.00     0.161 A 
ATOM     19  N1  RN6 d   1      76.700  32.152  56.376  0.00  0.00    -0.132 NA
ATOM     20  N7  RN6 d   1      75.032  33.584  56.382  0.00  0.00    -0.275 N 
ATOM     21  N   RN6 d   1      76.722  32.855  57.578  0.00  0.00    -0.135 NA
ATOM     22  C1  RN6 d   1      75.728  33.706  57.568  0.00  0.00     0.131 A 
ATOM     23  C37 RN6 d   1      73.874  34.204  55.889  0.00  0.00     0.097 A 
ATOM     24  C36 RN6 d   1      73.718  34.567  54.571  0.00  0.00     0.035 A 
ATOM     25  S   RN6 d   1      72.451  34.474  56.822  0.00  0.00    -0.075 SA
ATOM     26  C29 RN6 d   1      74.833  34.433  53.601  0.00  0.00     0.075 C 
ATOM     27  C40 RN6 d   1      72.382  35.050  54.306  0.00  0.00    -0.034 A 
ATOM     28  N6  RN6 d   1      75.552  33.389  53.421  0.00  0.00    -0.275 NA
ATOM     29  C38 RN6 d   1      71.605  35.064  55.422  0.00  0.00    -0.012 A 
ATOM     30  H22 RN6 d   1      74.189  32.052  54.272  0.00  0.00     0.089 H 
BRANCH  22  31
ATOM     31  C   RN6 d   1      75.401  34.671  58.648  0.00  0.00    -0.019 C 
ATOM     32  H1  RN6 d   1      76.116  34.552  59.475  0.00  0.00     0.037 H 
ATOM     33  H2  RN6 d   1      74.382  34.480  59.014  0.00  0.00     0.037 H 
ATOM     34  H3  RN6 d   1      75.463  35.696  58.255  0.00  0.00     0.037 H 
ENDBRANCH  22  31
BRANCH  26  35
ATOM     35  C30 RN6 d   1      75.153  35.602  52.755  0.00  0.00    -0.007 A 
ATOM     36  C31 RN6 d   1      74.893  36.899  53.186  0.00  0.00    -0.069 A 
ATOM     37  C32 RN6 d   1      75.223  37.986  52.397  0.00  0.00    -0.061 A 
ATOM     38  H23 RN6 d   1      74.427  37.059  54.151  0.00  0.00     0.085 H 
ATOM     39  C33 RN6 d   1      75.817  37.772  51.173  0.00  0.00     0.034 A 
ATOM     40  H24 RN6 d   1      75.017  38.994  52.738  0.00  0.00     0.086 H 
ATOM     41  C34 RN6 d   1      76.089  36.500  50.722  0.00  0.00    -0.061 A 
ATOM     42 CL   RN6 d   1      76.230  39.137  50.174  0.00  0.00    -0.084 Cl
ATOM     43  C35 RN6 d   1      75.754  35.418  51.515  0.00  0.00    -0.069 A 
ATOM     44  H25 RN6 d   1      76.560  36.349  49.757  0.00  0.00     0.086 H 
ATOM     45  H26 RN6 d   1      75.963  34.413  51.165  0.00  0.00     0.085 H 
ENDBRANCH  26  35
BRANCH  27  46
ATOM     46  C41 RN6 d   1      71.861  35.441  52.955  0.00  0.00    -0.049 C 
ATOM     47  H32 RN6 d   1      72.667  35.351  52.211  0.00  0.00     0.033 H 
ATOM     48  H33 RN6 d   1      71.505  36.481  52.986  0.00  0.00     0.033 H 
ATOM     49  H34 RN6 d   1      71.029  34.777  52.676  0.00  0.00     0.033 H 
ENDBRANCH  27  46
BRANCH  29  50
ATOM     50  C39 RN6 d   1      70.179  35.499  55.575  0.00  0.00    -0.045 C 
ATOM     51  H27 RN6 d   1      69.868  35.375  56.623  0.00  0.00     0.034 H 
ATOM     52  H28 RN6 d   1      69.537  34.885  54.927  0.00  0.00     0.034 H 
ATOM     53  H29 RN6 d   1      70.085  36.557  55.288  0.00  0.00     0.034 H 
ENDBRANCH  29  50
ENDBRANCH  14  17
ENDBRANCH  11  14
ENDBRANCH   7  10
ENDBRANCH   4   7
ENDBRANCH   1   4
BRANCH   1  54
ATOM     54  C9  RN6 d   1      74.134  34.380  48.684  0.00  0.00    -0.065 C 
ATOM     55  H41 RN6 d   1      75.038  34.960  48.920  0.00  0.00     0.033 H 
ATOM     56  H42 RN6 d   1      74.109  34.164  47.606  0.00  0.00     0.033 H 
BRANCH  54  57
ATOM     57  C10 RN6 d   1      72.920  35.237  49.023  0.00  0.00    -0.065 C 
ATOM     58  H4  RN6 d   1      72.082  34.921  48.384  0.00  0.00     0.033 H 
ATOM     59  H5  RN6 d   1      72.660  35.069  50.078  0.00  0.00     0.033 H 
BRANCH  57  60
ATOM     60  C11 RN6 d   1      73.147  36.730  48.815  0.00  0.00    -0.064 C 
ATOM     61  H6  RN6 d   1      73.410  36.887  47.758  0.00  0.00     0.033 H 
ATOM     62  H7  RN6 d   1      73.991  37.034  49.452  0.00  0.00     0.033 H 
BRANCH  60  63
ATOM     63  C12 RN6 d   1      71.963  37.638  49.142  0.00  0.00    -0.050 C 
ATOM     64  H8  RN6 d   1      72.340  38.660  49.298  0.00  0.00     0.035 H 
ATOM     65  H9  RN6 d   1      71.491  37.276  50.067  0.00  0.00     0.035 H 
BRANCH  63  66
ATOM     66  C13 RN6 d   1      70.911  37.676  48.050  0.00  0.00    -0.005 C 
ATOM     67  H10 RN6 d   1      70.187  36.869  48.236  0.00  0.00     0.064 H 
ATOM     68  H11 RN6 d   1      71.407  37.509  47.083  0.00  0.00     0.064 H 
BRANCH  66  69
ATOM     69  N3  RN6 d   1      70.186  38.939  47.984  0.00  0.00    -0.359 N 
ATOM     70  C14 RN6 d   1      70.770  40.108  47.714  0.00  0.00     0.241 C 
ATOM     71  O5  RN6 d   1      71.986  40.279  47.737  0.00  0.00    -0.271 OA
ATOM     72  H44 RN6 d   1      69.200  38.929  48.150  0.00  0.00     0.162 HD
BRANCH  70  73
ATOM     73  C15 RN6 d   1      69.867  41.256  47.326  0.00  0.00     0.099 C 
ATOM     74  H12 RN6 d   1      70.478  42.163  47.210  0.00  0.00     0.089 H 
ATOM     75  H13 RN6 d   1      69.382  41.016  46.369  0.00  0.00     0.089 H 
BRANCH  73  76
ATOM     76  O   RN6 d   1      68.862  41.505  48.297  0.00  0.00    -0.341 OA
BRANCH  76  77
ATOM     77  C16 RN6 d   1      69.147  42.392  49.300  0.00  0.00     0.086 A 
ATOM     78  C17 RN6 d   1      69.671  42.002  50.523  0.00  0.00    -0.050 A 
ATOM     79  C18 RN6 d   1      69.876  42.945  51.515  0.00  0.00    -0.079 A 
ATOM     80  H14 RN6 d   1      69.919  40.962  50.702  0.00  0.00     0.087 H 
ATOM     81  C19 RN6 d   1      69.562  44.274  51.295  0.00  0.00    -0.067 A 
ATOM     82  H15 RN6 d   1      70.285  42.640  52.471  0.00  0.00     0.083 H 
ATOM     83  C20 RN6 d   1      69.042  44.653  50.061  0.00  0.00     0.051 A 
ATOM     84  H16 RN6 d   1      69.719  45.011  52.074  0.00  0.00     0.085 H 
ATOM     85  C21 RN6 d   1      68.613  45.990  49.585  0.00  0.00     0.262 A 
ATOM     86  C27 RN6 d   1      68.832  43.738  49.044  0.00  0.00     0.081 A 
ATOM     87  N4  RN6 d   1      68.161  45.803  48.273  0.00  0.00    -0.266 N 
ATOM     88  O3  RN6 d   1      68.617  47.053  50.180  0.00  0.00    -0.267 OA
ATOM     89  C28 RN6 d   1      68.272  44.464  47.874  0.00  0.00     0.265 A 
ATOM     90  O4  RN6 d   1      67.966  44.035  46.777  0.00  0.00    -0.267 OA
BRANCH  87  91
ATOM     91  C22 RN6 d   1      67.593  46.861  47.437  0.00  0.00     0.101 C 
ATOM     92  C23 RN6 d   1      68.393  48.148  47.516  0.00  0.00     0.247 C 
ATOM     93  N5  RN6 d   1      67.709  49.332  47.373  0.00  0.00    -0.296 N 
ATOM     94  O2  RN6 d   1      69.608  48.136  47.686  0.00  0.00    -0.271 OA
ATOM     95  C24 RN6 d   1      66.364  49.478  47.151  0.00  0.00     0.224 C 
ATOM     96  H45 RN6 d   1      68.247  50.172  47.438  0.00  0.00     0.171 HD
ATOM     97  C25 RN6 d   1      65.553  48.223  47.048  0.00  0.00     0.012 C 
ATOM     98  O1  RN6 d   1      65.869  50.598  47.050  0.00  0.00    -0.273 OA
ATOM     99  C26 RN6 d   1      66.140  47.072  47.851  0.00  0.00    -0.029 C 
ATOM    100  H18 RN6 d   1      65.502  47.923  45.991  0.00  0.00     0.047 H 
ATOM    101  H19 RN6 d   1      64.538  48.429  47.420  0.00  0.00     0.047 H 
ATOM    102  H20 RN6 d   1      66.094  47.311  48.924  0.00  0.00     0.037 H 
ATOM    103  H21 RN6 d   1      65.565  46.155  47.654  0.00  0.00     0.037 H 
ATOM    104  H17 RN6 d   1      67.610  46.521  46.391  0.00  0.00     0.088 H 
ENDBRANCH  87  91
ENDBRANCH  76  77
ENDBRANCH  73  76
ENDBRANCH  70  73
ENDBRANCH  66  69
ENDBRANCH  63  66
ENDBRANCH  60  63
ENDBRANCH  57  60
ENDBRANCH  54  57
ENDBRANCH   1  54
TORSDOF 19
