REMARK  2 active torsions:
REMARK  status: ('A' for Active; 'I' for Inactive)
REMARK       I    between atoms: N3_1  and  C15_18 
REMARK    1  A    between atoms: N1_13  and  C6_5 
REMARK    2  A    between atoms: C10_14  and  C9_6 
ROOT
ATOM      1  N2  E3A d   1     -10.868 -12.219 -18.185  0.00  0.00    -0.172 NA
ATOM      2  C7  E3A d   1      -9.711 -14.017 -17.469  0.00  0.00     0.006 A 
ATOM      3  C9  E3A d   1     -11.729 -13.210 -17.985  0.00  0.00     0.061 A 
ATOM      4  C8  E3A d   1     -11.023 -14.379 -17.522  0.00  0.00    -0.040 A 
ATOM      5  N1  E3A d   1      -9.638 -12.721 -17.869  0.00  0.00    -0.245 N 
ATOM      6  H2  E3A d   1      -8.877 -14.648 -17.163  0.00  0.00     0.114 H 
ATOM      7  H5  E3A d   1     -11.450 -15.348 -17.268  0.00  0.00     0.088 H 
ENDROOT
BRANCH   3   8
ATOM      8  C10 E3A d   1     -13.203 -13.065 -18.264  0.00  0.00     0.001 A 
ATOM      9  C11 E3A d   1     -14.103 -14.048 -17.533  0.00  0.00    -0.024 A 
ATOM     10  C12 E3A d   1     -14.138 -12.599 -17.160  0.00  0.00    -0.024 A 
ATOM     11  C14 E3A d   1     -15.415 -14.398 -18.228  0.00  0.00     0.002 A 
ATOM     12  H10 E3A d   1     -13.704 -14.852 -16.897  0.00  0.00     0.044 H 
ATOM     13  C13 E3A d   1     -15.488 -12.026 -17.596  0.00  0.00     0.002 A 
ATOM     14  H11 E3A d   1     -13.763 -12.183 -16.213  0.00  0.00     0.044 H 
ATOM     15  N3  E3A d   1     -16.209 -13.175 -18.139  0.00  0.00    -0.358 N 
ATOM     16  H3  E3A d   1     -16.026 -11.599 -16.737  0.00  0.00     0.065 H 
ATOM     17  H4  E3A d   1     -15.352 -11.252 -18.366  0.00  0.00     0.065 H 
ATOM     18  C15 E3A d   1     -17.500 -13.145 -18.539  0.00  0.00     0.171 C 
ATOM     19  O1  E3A d   1     -18.117 -12.148 -18.835  0.00  0.00    -0.284 OA
ATOM     20  H14 E3A d   1     -18.027 -14.096 -18.600  0.00  0.00     0.180 H 
ATOM     21  H12 E3A d   1     -15.238 -14.672 -19.279  0.00  0.00     0.065 H 
ATOM     22  H13 E3A d   1     -15.919 -15.228 -17.712  0.00  0.00     0.065 H 
ATOM     23  H9  E3A d   1     -13.380 -12.775 -19.310  0.00  0.00     0.051 H 
ENDBRANCH   3   8
BRANCH   5  24
ATOM     24  C6  E3A d   1      -8.472 -11.898 -18.004  0.00  0.00     0.058 A 
ATOM     25  C1  E3A d   1      -8.594 -10.579 -18.436  0.00  0.00    -0.052 A 
ATOM     26  C2  E3A d   1      -7.464  -9.798 -18.616  0.00  0.00    -0.043 A 
ATOM     27  H6  E3A d   1      -9.576 -10.163 -18.632  0.00  0.00     0.087 H 
ATOM     28  C3  E3A d   1      -6.236 -10.358 -18.361  0.00  0.00     0.116 A 
ATOM     29  H7  E3A d   1      -7.547  -8.770 -18.950  0.00  0.00     0.088 H 
ATOM     30  C4  E3A d   1      -6.076 -11.650 -17.925  0.00  0.00    -0.043 A 
ATOM     31  F1  E3A d   1      -5.125  -9.603 -18.571  0.00  0.00    -0.206 F 
ATOM     32  C5  E3A d   1      -7.207 -12.428 -17.744  0.00  0.00    -0.052 A 
ATOM     33  H1  E3A d   1      -5.088 -12.051 -17.727  0.00  0.00     0.088 H 
ATOM     34  H8  E3A d   1      -7.110 -13.451 -17.399  0.00  0.00     0.087 H 
ENDBRANCH   5  24
TORSDOF 2
