REMARK  7 active torsions:
REMARK  status: ('A' for Active; 'I' for Inactive)
REMARK    1  A    between atoms: N_24  and  C1_1 
REMARK    2  A    between atoms: N1_2  and  C11_15 
REMARK    3  A    between atoms: C3_6  and  C2_4 
REMARK       I    between atoms: C2_4  and  N_24 
REMARK    4  A    between atoms: C9_12  and  C5_8 
REMARK    5  A    between atoms: C11_15  and  C12_16 
REMARK    6  A    between atoms: C12_16  and  C13_17 
REMARK    7  A    between atoms: N_24  and  C_25 
ROOT
ATOM      1  N1  MOL d   1     -48.704 -30.215   2.964  0.00  0.00    -0.322 N 
ATOM      2  O1  MOL d   1     -50.392 -30.163   4.510  0.00  0.00    -0.265 OA
ATOM      3  N2  MOL d   1     -48.863 -27.984   5.931  0.00  0.00    -0.361 N 
ATOM      4  C9  MOL d   1     -46.720 -28.872   3.175  0.00  0.00     0.003 A 
ATOM      5  C10 MOL d   1     -47.455 -29.823   2.545  0.00  0.00    -0.006 A 
ATOM      6  C15 MOL d   1     -49.311 -29.714   4.126  0.00  0.00     0.275 A 
ATOM      7  C16 MOL d   1     -48.572 -28.696   4.790  0.00  0.00     0.112 A 
ATOM      8  C19 MOL d   1     -47.843 -27.117   6.209  0.00  0.00    -0.021 A 
ATOM      9  C18 MOL d   1     -46.870 -27.248   5.256  0.00  0.00    -0.055 A 
ATOM     10  C17 MOL d   1     -47.316 -28.243   4.340  0.00  0.00     0.010 A 
ATOM     11  H4  MOL d   1     -49.721 -28.088   6.492  0.00  0.00     0.165 HD
ATOM     12  H9  MOL d   1     -47.033 -30.300   1.662  0.00  0.00     0.113 H 
ATOM     13  H17 MOL d   1     -47.810 -26.431   7.054  0.00  0.00     0.111 H 
ATOM     14  H18 MOL d   1     -45.932 -26.696   5.207  0.00  0.00     0.087 H 
ENDROOT
BRANCH   4  15
ATOM     15  C5  MOL d   1     -45.364 -28.543   2.661  0.00  0.00    -0.023 A 
ATOM     16  C4  MOL d   1     -44.977 -27.220   2.444  0.00  0.00    -0.057 A 
ATOM     17  C3  MOL d   1     -43.722 -26.932   1.905  0.00  0.00     0.033 A 
ATOM     18  H5  MOL d   1     -45.654 -26.412   2.695  0.00  0.00     0.086 H 
ATOM     19  C8  MOL d   1     -42.847 -27.974   1.612  0.00  0.00    -0.068 A 
ATOM     20  C7  MOL d   1     -43.225 -29.285   1.828  0.00  0.00    -0.081 A 
ATOM     21  H8  MOL d   1     -41.863 -27.756   1.212  0.00  0.00     0.085 H 
ATOM     22  C6  MOL d   1     -44.476 -29.571   2.345  0.00  0.00    -0.072 A 
ATOM     23  H7  MOL d   1     -42.540 -30.091   1.592  0.00  0.00     0.083 H 
ATOM     24  H6  MOL d   1     -44.768 -30.602   2.506  0.00  0.00     0.084 H 
BRANCH  17  25
ATOM     25  C2  MOL d   1     -43.338 -25.531   1.549  0.00  0.00     0.253 C 
ATOM     26  O   MOL d   1     -43.035 -25.272   0.396  0.00  0.00    -0.267 OA
ATOM     27  N   MOL d   1     -43.282 -24.615   2.527  0.00  0.00    -0.357 N 
BRANCH  27  28
ATOM     28  C1  MOL d   1     -42.966 -23.226   2.206  0.00  0.00    -0.016 C 
ATOM     29  H1  MOL d   1     -42.966 -22.627   3.129  0.00  0.00     0.056 H 
ATOM     30  H2  MOL d   1     -43.721 -22.829   1.512  0.00  0.00     0.056 H 
ATOM     31  H3  MOL d   1     -41.973 -23.175   1.736  0.00  0.00     0.056 H 
ENDBRANCH  27  28
BRANCH  27  32
ATOM     32  C   MOL d   1     -43.423 -24.893   3.957  0.00  0.00    -0.016 C 
ATOM     33  H19 MOL d   1     -43.659 -25.957   4.102  0.00  0.00     0.056 H 
ATOM     34  H20 MOL d   1     -44.235 -24.277   4.372  0.00  0.00     0.056 H 
ATOM     35  H21 MOL d   1     -42.481 -24.653   4.472  0.00  0.00     0.056 H 
ENDBRANCH  27  32
ENDBRANCH  17  25
ENDBRANCH   4  15
BRANCH   1  36
ATOM     36  C11 MOL d   1     -49.439 -31.245   2.212  0.00  0.00     0.005 C 
ATOM     37  H10 MOL d   1     -49.760 -32.031   2.911  0.00  0.00     0.065 H 
ATOM     38  H11 MOL d   1     -48.767 -31.678   1.457  0.00  0.00     0.065 H 
BRANCH  36  39
ATOM     39  C12 MOL d   1     -50.675 -30.681   1.504  0.00  0.00    -0.035 C 
ATOM     40  H12 MOL d   1     -51.303 -30.165   2.245  0.00  0.00     0.041 H 
ATOM     41  H13 MOL d   1     -51.240 -31.514   1.061  0.00  0.00     0.041 H 
BRANCH  39  42
ATOM     42  C13 MOL d   1     -50.314 -29.710   0.416  0.00  0.00    -0.110 C 
ATOM     43  C14 MOL d   1     -50.969 -28.611   0.107  0.00  0.00    -0.125 C 
ATOM     44  H15 MOL d   1     -50.616 -27.977  -0.705  0.00  0.00     0.066 H 
ATOM     45  H16 MOL d   1     -51.864 -28.336   0.663  0.00  0.00     0.066 H 
ATOM     46  H14 MOL d   1     -49.426 -29.937  -0.173  0.00  0.00     0.075 H 
ENDBRANCH  39  42
ENDBRANCH  36  39
ENDBRANCH   1  36
TORSDOF 7
