REMARK  7 active torsions:
REMARK  status: ('A' for Active; 'I' for Inactive)
REMARK    1  A    between atoms: N2_14  and  C15_9 
REMARK       I    between atoms: C16_10  and  N3_28 
REMARK    2  A    between atoms: C6_40  and  C16_10 
REMARK    3  A    between atoms: C17_11  and  C26_23 
REMARK    4  A    between atoms: N3_28  and  C17_11 
REMARK    5  A    between atoms: C19_13  and  C27_24 
REMARK    6  A    between atoms: C25_22  and  O5_39 
REMARK    7  A    between atoms: C27_24  and  C28_25 
ROOT
ATOM      1  C17 ERM d   1      22.657  30.843  58.600  0.00  0.00     0.220 C 
ATOM      2  C18 ERM d   1      22.280  31.962  59.528  0.00  0.00     0.280 C 
ATOM      3  C19 ERM d   1      20.266  32.553  60.792  0.00  0.00     0.101 C 
ATOM      4  O2  ERM d   1      21.518  29.978  58.635  0.00  0.00    -0.296 OA
ATOM      5  C20 ERM d   1      19.363  31.676  61.679  0.00  0.00     0.243 C 
ATOM      6  C21 ERM d   1      18.430  29.429  62.213  0.00  0.00    -0.002 C 
ATOM      7  C22 ERM d   1      18.031  28.303  61.283  0.00  0.00    -0.048 C 
ATOM      8  C23 ERM d   1      18.954  28.428  60.036  0.00  0.00    -0.038 C 
ATOM      9  C24 ERM d   1      19.881  29.590  60.427  0.00  0.00     0.089 C 
ATOM     10  C25 ERM d   1      20.389  30.512  59.323  0.00  0.00     0.276 C 
ATOM     11  O3  ERM d   1      22.999  32.880  59.862  0.00  0.00    -0.268 OA
ATOM     12  N4  ERM d   1      21.011  31.709  59.882  0.00  0.00    -0.277 N 
ATOM     13  O4  ERM d   1      18.732  32.181  62.624  0.00  0.00    -0.271 OA
ATOM     14  N5  ERM d   1      19.241  30.376  61.459  0.00  0.00    -0.338 N 
ATOM     15  H9  ERM d   1      20.996  33.067  61.435  0.00  0.00     0.088 H 
ATOM     16  H11 ERM d   1      19.013  29.028  63.055  0.00  0.00     0.064 H 
ATOM     17  H12 ERM d   1      17.530  29.932  62.596  0.00  0.00     0.064 H 
ATOM     18  H13 ERM d   1      16.976  28.406  60.989  0.00  0.00     0.035 H 
ATOM     19  H14 ERM d   1      18.182  27.330  61.774  0.00  0.00     0.035 H 
ATOM     20  H15 ERM d   1      18.373  28.669  59.133  0.00  0.00     0.036 H 
ATOM     21  H16 ERM d   1      19.525  27.503  59.869  0.00  0.00     0.036 H 
ATOM     22  H17 ERM d   1      20.777  29.127  60.867  0.00  0.00     0.084 H 
ENDROOT
BRANCH   1  23
ATOM     23  C26 ERM d   1      23.941  30.168  59.056  0.00  0.00    -0.022 C 
ATOM     24  H18 ERM d   1      24.194  29.354  58.361  0.00  0.00     0.035 H 
ATOM     25  H19 ERM d   1      23.800  29.757  60.066  0.00  0.00     0.035 H 
ATOM     26  H20 ERM d   1      24.758  30.905  59.071  0.00  0.00     0.035 H 
ENDBRANCH   1  23
BRANCH   1  27
ATOM     27  N3  ERM d   1      22.976  31.299  57.244  0.00  0.00    -0.321 N 
ATOM     28  C16 ERM d   1      22.305  32.234  56.534  0.00  0.00     0.229 C 
ATOM     29  O1  ERM d   1      21.326  32.833  56.936  0.00  0.00    -0.273 OA
ATOM     30  H26 ERM d   1      23.767  30.878  56.801  0.00  0.00     0.166 HD
BRANCH  28  31
ATOM     31  C6  ERM d   1      22.853  32.540  55.114  0.00  0.00     0.064 C 
ATOM     32  C5  ERM d   1      22.415  31.462  54.146  0.00  0.00     0.098 C 
ATOM     33  N2  ERM d   1      22.646  31.841  52.707  0.00  0.00    -0.065 N 
ATOM     34  H32 ERM d   1      22.981  30.544  54.363  0.00  0.00     0.077 H 
ATOM     35  H33 ERM d   1      21.341  31.274  54.292  0.00  0.00     0.077 H 
ATOM     36  C4  ERM d   1      22.198  33.233  52.283  0.00  0.00     0.133 C 
ATOM     37  H10 ERM d   1      23.636  31.793  52.523  0.00  0.00     0.280 HD
ATOM     38  C3  ERM d   1      22.988  33.669  50.992  0.00  0.00    -0.008 C 
ATOM     39  C8  ERM d   1      22.223  34.267  53.426  0.00  0.00    -0.019 C 
ATOM     40  H31 ERM d   1      21.142  33.146  51.986  0.00  0.00     0.092 H 
ATOM     41  C2  ERM d   1      22.825  35.132  50.689  0.00  0.00    -0.027 A 
ATOM     42  H24 ERM d   1      24.057  33.456  51.143  0.00  0.00     0.043 H 
ATOM     43  H25 ERM d   1      22.615  33.087  50.136  0.00  0.00     0.043 H 
ATOM     44  C1  ERM d   1      23.004  35.899  49.580  0.00  0.00    -0.015 A 
ATOM     45  C14 ERM d   1      22.406  36.040  51.681  0.00  0.00     0.009 A 
ATOM     46  N1  ERM d   1      22.717  37.192  49.845  0.00  0.00    -0.365 N 
ATOM     47  H1  ERM d   1      23.333  35.523  48.612  0.00  0.00     0.112 H 
ATOM     48  C13 ERM d   1      22.327  37.346  51.177  0.00  0.00     0.043 A 
ATOM     49  H2  ERM d   1      22.777  37.958  49.160  0.00  0.00     0.165 HD
ATOM     50  C12 ERM d   1      21.942  38.397  51.953  0.00  0.00    -0.056 A 
ATOM     51  C11 ERM d   1      21.609  38.142  53.325  0.00  0.00    -0.080 A 
ATOM     52  H5  ERM d   1      21.889  39.400  51.545  0.00  0.00     0.086 H 
ATOM     53  C10 ERM d   1      21.689  36.821  53.830  0.00  0.00    -0.071 A 
ATOM     54  H4  ERM d   1      21.298  38.955  53.971  0.00  0.00     0.083 H 
ATOM     55  C9  ERM d   1      22.087  35.733  53.031  0.00  0.00    -0.015 A 
ATOM     56  H3  ERM d   1      21.435  36.642  54.868  0.00  0.00     0.084 H 
ATOM     57  C7  ERM d   1      22.541  33.945  54.677  0.00  0.00    -0.080 C 
ATOM     58  H36 ERM d   1      22.577  34.739  55.422  0.00  0.00     0.079 H 
ATOM     59  H35 ERM d   1      23.950  32.477  55.173  0.00  0.00     0.063 H 
BRANCH  33  60
ATOM     60  C15 ERM d   1      21.961  30.755  51.958  0.00  0.00     0.067 C 
ATOM     61  H6  ERM d   1      22.327  29.779  52.310  0.00  0.00     0.068 H 
ATOM     62  H7  ERM d   1      22.173  30.860  50.884  0.00  0.00     0.068 H 
ATOM     63  H8  ERM d   1      20.876  30.822  52.126  0.00  0.00     0.068 H 
ENDBRANCH  33  60
ENDBRANCH  28  31
ENDBRANCH   1  27
BRANCH  10  64
ATOM     64  O5  ERM d   1      19.388  30.846  58.419  0.00  0.00    -0.347 OA
ATOM     65  H34 ERM d   1      19.717  31.497  57.810  0.00  0.00     0.215 HD
ENDBRANCH  10  64
BRANCH   3  66
ATOM     66  C27 ERM d   1      19.423  33.612  60.129  0.00  0.00    -0.013 C 
ATOM     67  H21 ERM d   1      18.584  33.109  59.626  0.00  0.00     0.043 H 
ATOM     68  H22 ERM d   1      20.048  34.121  59.380  0.00  0.00     0.043 H 
BRANCH  66  69
ATOM     69  C28 ERM d   1      18.846  34.671  61.052  0.00  0.00    -0.056 A 
ATOM     70  C29 ERM d   1      19.735  35.472  61.802  0.00  0.00    -0.077 A 
ATOM     71  C30 ERM d   1      19.251  36.465  62.674  0.00  0.00    -0.082 A 
ATOM     72  H23 ERM d   1      20.804  35.320  61.705  0.00  0.00     0.084 H 
ATOM     73  C31 ERM d   1      17.868  36.658  62.798  0.00  0.00    -0.083 A 
ATOM     74  H27 ERM d   1      19.942  37.075  63.245  0.00  0.00     0.083 H 
ATOM     75  C32 ERM d   1      16.983  35.859  62.050  0.00  0.00    -0.082 A 
ATOM     76  H28 ERM d   1      17.482  37.419  63.467  0.00  0.00     0.083 H 
ATOM     77  C33 ERM d   1      17.458  34.865  61.176  0.00  0.00    -0.077 A 
ATOM     78  H29 ERM d   1      15.915  36.013  62.150  0.00  0.00     0.083 H 
ATOM     79  H30 ERM d   1      16.765  34.257  60.606  0.00  0.00     0.084 H 
ENDBRANCH  66  69
ENDBRANCH   3  66
TORSDOF 7
