REMARK  7 active torsions:
REMARK  status: ('A' for Active; 'I' for Inactive)
REMARK    1  A    between atoms: C12_3  and  C13_4 
REMARK    2  A    between atoms: C03_16  and  C12_3 
REMARK    3  A    between atoms: C13_4  and  N14_23 
REMARK    4  A    between atoms: C18_12  and  C26_6 
REMARK    5  A    between atoms: C18_12  and  C19_11 
REMARK    6  A    between atoms: C17_25  and  C18_12 
REMARK    7  A    between atoms: C02_15  and  C01_14 
ROOT
ATOM      1  C15 E2J d   1      38.440  32.363  55.619  0.00  0.00     0.087 C 
ATOM      2  C33 E2J d   1      37.583  29.742  56.557  0.00  0.00    -0.021 C 
ATOM      3  C34 E2J d   1      38.358  30.749  57.408  0.00  0.00     0.087 C 
ATOM      4  N14 E2J d   1      37.959  32.097  56.983  0.00  0.00    -0.070 N 
ATOM      5  C16 E2J d   1      37.717  31.434  54.636  0.00  0.00    -0.021 C 
ATOM      6  C17 E2J d   1      37.932  30.008  55.107  0.00  0.00    -0.065 C 
ATOM      7  H5  E2J d   1      39.523  32.179  55.569  0.00  0.00     0.076 H 
ATOM      8  H6  E2J d   1      38.233  33.410  55.354  0.00  0.00     0.076 H 
ATOM      9  H9  E2J d   1      36.502  29.872  56.713  0.00  0.00     0.042 H 
ATOM     10  H10 E2J d   1      37.873  28.717  56.831  0.00  0.00     0.042 H 
ATOM     11  H11 E2J d   1      39.439  30.613  57.256  0.00  0.00     0.076 H 
ATOM     12  H12 E2J d   1      38.116  30.605  58.471  0.00  0.00     0.076 H 
ATOM     13  H19 E2J d   1      36.954  32.168  56.999  0.00  0.00     0.279 HD
ATOM     14  H20 E2J d   1      38.132  31.561  53.625  0.00  0.00     0.042 H 
ATOM     15  H21 E2J d   1      36.642  31.666  54.623  0.00  0.00     0.042 H 
ENDROOT
BRANCH   4  16
ATOM     16  C13 E2J d   1      38.532  33.077  57.911  0.00  0.00     0.087 C 
ATOM     17  H3  E2J d   1      39.544  32.757  58.200  0.00  0.00     0.076 H 
ATOM     18  H4  E2J d   1      38.584  34.059  57.418  0.00  0.00     0.076 H 
BRANCH  16  19
ATOM     19  C12 E2J d   1      37.658  33.183  59.160  0.00  0.00    -0.011 C 
ATOM     20  H1  E2J d   1      37.628  32.215  59.682  0.00  0.00     0.043 H 
ATOM     21  H2  E2J d   1      36.637  33.481  58.881  0.00  0.00     0.043 H 
BRANCH  19  22
ATOM     22  C03 E2J d   1      38.274  34.229  60.050  0.00  0.00     0.036 A 
ATOM     23  C02 E2J d   1      37.816  35.532  60.025  0.00  0.00     0.045 A 
ATOM     24  N11 E2J d   1      38.390  36.423  60.816  0.00  0.00    -0.228 NA
ATOM     25  C10 E2J d   1      39.372  36.092  61.609  0.00  0.00     0.180 A 
ATOM     26  N06 E2J d   1      39.895  34.829  61.701  0.00  0.00    -0.267 N 
ATOM     27  S09 E2J d   1      40.338  37.028  62.769  0.00  0.00    -0.062 SA
ATOM     28  C04 E2J d   1      39.327  33.877  60.895  0.00  0.00     0.262 A 
ATOM     29  C07 E2J d   1      40.931  34.664  62.592  0.00  0.00    -0.003 A 
ATOM     30  O05 E2J d   1      39.731  32.723  60.911  0.00  0.00    -0.267 OA
ATOM     31  C08 E2J d   1      41.387  35.688  63.316  0.00  0.00    -0.026 A 
ATOM     32  H17 E2J d   1      41.386  33.681  62.708  0.00  0.00     0.113 H 
ATOM     33  H18 E2J d   1      42.191  35.703  64.051  0.00  0.00     0.097 H 
BRANCH  23  34
ATOM     34  C01 E2J d   1      36.683  35.965  59.133  0.00  0.00    -0.035 C 
ATOM     35  H14 E2J d   1      36.327  35.104  58.548  0.00  0.00     0.035 H 
ATOM     36  H15 E2J d   1      37.035  36.752  58.450  0.00  0.00     0.035 H 
ATOM     37  H16 E2J d   1      35.860  36.355  59.749  0.00  0.00     0.035 H 
ENDBRANCH  23  34
ENDBRANCH  19  22
ENDBRANCH  16  19
ENDBRANCH   4  16
BRANCH   6  38
ATOM     38  C18 E2J d   1      38.463  29.023  54.352  0.00  0.00    -0.013 C 
BRANCH  38  39
ATOM     39  C26 E2J d   1      38.982  29.200  52.965  0.00  0.00    -0.025 A 
ATOM     40  C31 E2J d   1      39.995  30.113  52.664  0.00  0.00    -0.069 A 
ATOM     41  C30 E2J d   1      40.463  30.233  51.371  0.00  0.00    -0.045 A 
ATOM     42  H8  E2J d   1      40.416  30.730  53.450  0.00  0.00     0.085 H 
ATOM     43  C29 E2J d   1      39.944  29.434  50.364  0.00  0.00     0.116 A 
ATOM     44  H26 E2J d   1      41.239  30.954  51.142  0.00  0.00     0.088 H 
ATOM     45  C28 E2J d   1      38.951  28.514  50.657  0.00  0.00    -0.045 A 
ATOM     46  F32 E2J d   1      40.405  29.550  49.099  0.00  0.00    -0.206 F 
ATOM     47  C27 E2J d   1      38.475  28.393  51.947  0.00  0.00    -0.069 A 
ATOM     48  H7  E2J d   1      38.546  27.887  49.871  0.00  0.00     0.088 H 
ATOM     49  H25 E2J d   1      37.702  27.666  52.170  0.00  0.00     0.085 H 
ENDBRANCH  38  39
BRANCH  38  50
ATOM     50  C19 E2J d   1      38.551  27.657  54.936  0.00  0.00    -0.025 A 
ATOM     51  C20 E2J d   1      39.683  27.256  55.651  0.00  0.00    -0.069 A 
ATOM     52  C21 E2J d   1      39.743  25.984  56.183  0.00  0.00    -0.045 A 
ATOM     53  H22 E2J d   1      40.511  27.942  55.787  0.00  0.00     0.085 H 
ATOM     54  C22 E2J d   1      38.687  25.101  56.003  0.00  0.00     0.116 A 
ATOM     55  H13 E2J d   1      40.617  25.673  56.743  0.00  0.00     0.088 H 
ATOM     56  C23 E2J d   1      37.565  25.491  55.290  0.00  0.00    -0.045 A 
ATOM     57  F25 E2J d   1      38.747  23.857  56.524  0.00  0.00    -0.206 F 
ATOM     58  C24 E2J d   1      37.496  26.761  54.755  0.00  0.00    -0.069 A 
ATOM     59  H23 E2J d   1      36.742  24.799  55.153  0.00  0.00     0.088 H 
ATOM     60  H24 E2J d   1      36.620  27.064  54.193  0.00  0.00     0.085 H 
ENDBRANCH  38  50
ENDBRANCH   6  38
TORSDOF 7
