REMARK  23 active torsions:
REMARK  status: ('A' for Active; 'I' for Inactive)
REMARK    1  A    between atoms: C_1  and  O7_38 
REMARK       I    between atoms: N_3  and  C12_23 
REMARK    2  A    between atoms: C2_4  and  C4_6 
REMARK       I    between atoms: C4_6  and  N1_8 
REMARK    3  A    between atoms: N1_8  and  C5_9 
REMARK    4  A    between atoms: C5_9  and  C6_10 
REMARK    5  A    between atoms: C5_9  and  C8_14 
REMARK    6  A    between atoms: C6_10  and  C7_11 
REMARK       I    between atoms: C8_14  and  N2_16 
REMARK    7  A    between atoms: N2_16  and  S_17 
REMARK    8  A    between atoms: S_17  and  C9_20 
REMARK    9  A    between atoms: C12_23  and  C13_24 
REMARK   10  A    between atoms: C13_24  and  N3_25 
REMARK   11  A    between atoms: C13_24  and  C19_33 
REMARK       I    between atoms: N3_25  and  C14_26 
REMARK   12  A    between atoms: C14_26  and  O4_27 
REMARK   13  A    between atoms: O4_27  and  C15_28 
REMARK   14  A    between atoms: C15_28  and  C16_29 
REMARK   15  A    between atoms: C15_28  and  C17_30 
REMARK   16  A    between atoms: C15_28  and  C18_31 
REMARK   17  A    between atoms: C19_33  and  C20_34 
REMARK   18  A    between atoms: C19_33  and  C21_35 
REMARK   19  A    between atoms: C19_33  and  C22_36 
REMARK   20  A    between atoms: O7_38  and  C23_39 
REMARK   21  A    between atoms: C27_43  and  O8_55 
REMARK   22  A    between atoms: C30_47  and  C32_49 
REMARK   23  A    between atoms: O8_55  and  C38_56 
ROOT
ATOM      1  C   Z1B d   1      23.598  42.021  39.133  0.00  0.00     0.063 C 
ATOM      2  C1  Z1B d   1      24.235  42.885  38.052  0.00  0.00     0.023 C 
ATOM      3  N   Z1B d   1      24.315  41.942  36.929  0.00  0.00    -0.334 N 
ATOM      4  C2  Z1B d   1      23.345  40.840  37.052  0.00  0.00     0.094 C 
ATOM      5  C3  Z1B d   1      22.600  41.177  38.359  0.00  0.00    -0.012 C 
ATOM      6  C12 Z1B d   1      25.128  42.006  35.858  0.00  0.00     0.244 C 
ATOM      7  O6  Z1B d   1      25.112  41.140  34.996  0.00  0.00    -0.271 OA
ATOM      8  H1  Z1B d   1      23.120  42.600  39.937  0.00  0.00     0.086 H 
ATOM      9  H2  Z1B d   1      25.233  43.235  38.354  0.00  0.00     0.068 H 
ATOM     10  H3  Z1B d   1      23.602  43.750  37.805  0.00  0.00     0.068 H 
ATOM     11  H4  Z1B d   1      23.862  39.873  37.137  0.00  0.00     0.088 H 
ATOM     12  H5  Z1B d   1      21.682  41.746  38.152  0.00  0.00     0.040 H 
ATOM     13  H6  Z1B d   1      22.347  40.261  38.914  0.00  0.00     0.040 H 
ENDROOT
BRANCH   4  14
ATOM     14  C4  Z1B d   1      22.393  40.795  35.850  0.00  0.00     0.241 C 
ATOM     15  O   Z1B d   1      21.941  41.838  35.371  0.00  0.00    -0.271 OA
ATOM     16  N1  Z1B d   1      22.086  39.585  35.358  0.00  0.00    -0.346 N 
ATOM     17  H7  Z1B d   1      22.409  38.753  35.809  0.00  0.00     0.163 HD
BRANCH  16  18
ATOM     18  C5  Z1B d   1      21.270  39.508  34.150  0.00  0.00     0.095 C 
ATOM     19  H8  Z1B d   1      21.107  40.547  33.830  0.00  0.00     0.087 H 
BRANCH  18  20
ATOM     20  C6  Z1B d   1      22.044  38.829  33.025  0.00  0.00     0.017 C 
ATOM     21  H9  Z1B d   1      21.345  38.525  32.232  0.00  0.00     0.044 H 
ATOM     22  H10 Z1B d   1      22.559  37.941  33.420  0.00  0.00     0.044 H 
BRANCH  20  23
ATOM     23  C7  Z1B d   1      23.096  39.821  32.437  0.00  0.00     0.210 C 
ATOM     24  F   Z1B d   1      22.462  40.873  31.859  0.00  0.00    -0.214 F 
ATOM     25  F1  Z1B d   1      23.723  39.224  31.404  0.00  0.00    -0.214 F 
ATOM     26  H11 Z1B d   1      23.802  40.147  33.215  0.00  0.00     0.145 H 
ENDBRANCH  20  23
ENDBRANCH  18  20
BRANCH  18  27
ATOM     27  C8  Z1B d   1      19.872  38.919  34.351  0.00  0.00     0.254 C 
ATOM     28  O1  Z1B d   1      19.370  38.132  33.537  0.00  0.00    -0.270 OA
ATOM     29  N2  Z1B d   1      19.152  39.318  35.514  0.00  0.00    -0.252 N 
ATOM     30  H12 Z1B d   1      19.175  38.733  36.325  0.00  0.00     0.181 HD
BRANCH  29  31
ATOM     31  S   Z1B d   1      18.279  40.723  35.559  0.00  0.00     0.243 S 
ATOM     32  O2  Z1B d   1      18.714  41.474  36.694  0.00  0.00    -0.205 OA
ATOM     33  O3  Z1B d   1      18.367  41.313  34.261  0.00  0.00    -0.205 OA
BRANCH  31  34
ATOM     34  C9  Z1B d   1      16.638  40.195  35.829  0.00  0.00     0.095 A 
ATOM     35  C10 Z1B d   1      16.266  38.818  35.459  0.00  0.00    -0.082 A 
ATOM     36  C11 Z1B d   1      15.756  39.954  34.670  0.00  0.00    -0.082 A 
ATOM     37  H14 Z1B d   1      16.325  37.745  35.638  0.00  0.00     0.079 H 
ATOM     38  H15 Z1B d   1      15.163  40.336  33.840  0.00  0.00     0.079 H 
ATOM     39  H13 Z1B d   1      16.240  40.655  36.745  0.00  0.00     0.079 H 
ENDBRANCH  31  34
ENDBRANCH  29  31
ENDBRANCH  18  27
ENDBRANCH  16  18
ENDBRANCH   4  14
BRANCH   6  40
ATOM     40  C13 Z1B d   1      26.090  43.194  35.724  0.00  0.00     0.098 C 
ATOM     41  H16 Z1B d   1      26.024  43.777  36.655  0.00  0.00     0.088 H 
BRANCH  40  42
ATOM     42  N3  Z1B d   1      27.446  42.680  35.628  0.00  0.00    -0.323 N 
ATOM     43  C14 Z1B d   1      28.185  42.523  36.741  0.00  0.00     0.362 C 
ATOM     44  O5  Z1B d   1      27.810  42.816  37.864  0.00  0.00    -0.238 OA
ATOM     45  H17 Z1B d   1      27.829  42.443  34.735  0.00  0.00     0.165 HD
BRANCH  43  46
ATOM     46  O4  Z1B d   1      29.390  41.997  36.407  0.00  0.00    -0.294 OA
BRANCH  46  47
ATOM     47  C15 Z1B d   1      30.439  41.690  37.419  0.00  0.00     0.061 C 
BRANCH  47  48
ATOM     48  C16 Z1B d   1      30.850  42.948  38.158  0.00  0.00    -0.048 C 
ATOM     49  H18 Z1B d   1      31.624  42.701  38.900  0.00  0.00     0.031 H 
ATOM     50  H19 Z1B d   1      29.975  43.375  38.670  0.00  0.00     0.031 H 
ATOM     51  H20 Z1B d   1      31.249  43.681  37.441  0.00  0.00     0.031 H 
ENDBRANCH  47  48
BRANCH  47  52
ATOM     52  C17 Z1B d   1      29.944  40.607  38.368  0.00  0.00    -0.048 C 
ATOM     53  H21 Z1B d   1      30.724  40.386  39.111  0.00  0.00     0.031 H 
ATOM     54  H22 Z1B d   1      29.714  39.696  37.797  0.00  0.00     0.031 H 
ATOM     55  H23 Z1B d   1      29.036  40.956  38.882  0.00  0.00     0.031 H 
ENDBRANCH  47  52
BRANCH  47  56
ATOM     56  C18 Z1B d   1      31.591  41.181  36.577  0.00  0.00    -0.048 C 
ATOM     57  H24 Z1B d   1      32.436  40.920  37.231  0.00  0.00     0.031 H 
ATOM     58  H25 Z1B d   1      31.903  41.964  35.871  0.00  0.00     0.031 H 
ATOM     59  H26 Z1B d   1      31.271  40.289  36.018  0.00  0.00     0.031 H 
ENDBRANCH  47  56
ENDBRANCH  46  47
ENDBRANCH  43  46
ENDBRANCH  40  42
BRANCH  40  60
ATOM     60  C19 Z1B d   1      25.713  44.169  34.566  0.00  0.00    -0.022 C 
BRANCH  60  61
ATOM     61  C20 Z1B d   1      24.280  44.679  34.770  0.00  0.00    -0.067 C 
ATOM     62  H27 Z1B d   1      24.016  45.366  33.953  0.00  0.00     0.028 H 
ATOM     63  H28 Z1B d   1      24.213  45.209  35.731  0.00  0.00     0.028 H 
ATOM     64  H29 Z1B d   1      23.584  43.827  34.772  0.00  0.00     0.028 H 
ENDBRANCH  60  61
BRANCH  60  65
ATOM     65  C21 Z1B d   1      25.794  43.462  33.209  0.00  0.00    -0.067 C 
ATOM     66  H30 Z1B d   1      26.817  43.091  33.049  0.00  0.00     0.028 H 
ATOM     67  H31 Z1B d   1      25.532  44.171  32.410  0.00  0.00     0.028 H 
ATOM     68  H32 Z1B d   1      25.091  42.616  33.194  0.00  0.00     0.028 H 
ENDBRANCH  60  65
BRANCH  60  69
ATOM     69  C22 Z1B d   1      26.671  45.368  34.561  0.00  0.00    -0.067 C 
ATOM     70  H33 Z1B d   1      26.620  45.882  35.532  0.00  0.00     0.028 H 
ATOM     71  H34 Z1B d   1      26.381  46.065  33.761  0.00  0.00     0.028 H 
ATOM     72  H35 Z1B d   1      27.698  45.016  34.386  0.00  0.00     0.028 H 
ENDBRANCH  60  69
ENDBRANCH  40  60
ENDBRANCH   6  40
BRANCH   1  73
ATOM     73  O7  Z1B d   1      24.696  41.197  39.628  0.00  0.00    -0.343 OA
BRANCH  73  74
ATOM     74  C23 Z1B d   1      24.637  40.732  40.923  0.00  0.00     0.084 A 
ATOM     75  C24 Z1B d   1      25.770  39.982  41.342  0.00  0.00     0.026 A 
ATOM     76  C25 Z1B d   1      26.898  39.710  40.523  0.00  0.00    -0.065 A 
ATOM     77  C29 Z1B d   1      25.752  39.479  42.664  0.00  0.00     0.073 A 
ATOM     78  C26 Z1B d   1      27.947  38.978  40.999  0.00  0.00    -0.050 A 
ATOM     79  H36 Z1B d   1      26.926  40.088  39.508  0.00  0.00     0.085 H 
ATOM     80  C27 Z1B d   1      27.922  38.488  42.303  0.00  0.00     0.070 A 
ATOM     81  H37 Z1B d   1      28.801  38.778  40.362  0.00  0.00     0.087 H 
ATOM     82  C28 Z1B d   1      26.850  38.724  43.138  0.00  0.00    -0.022 A 
ATOM     83  H38 Z1B d   1      26.849  38.334  44.149  0.00  0.00     0.091 H 
ATOM     84  N4  Z1B d   1      24.695  39.694  43.510  0.00  0.00    -0.247 NA
ATOM     85  C30 Z1B d   1      23.652  40.395  43.070  0.00  0.00     0.070 A 
ATOM     86  C31 Z1B d   1      23.582  40.943  41.782  0.00  0.00    -0.021 A 
ATOM     87  H39 Z1B d   1      22.718  41.519  41.470  0.00  0.00     0.091 H 
BRANCH  80  88
ATOM     88  O8  Z1B d   1      29.044  37.780  42.645  0.00  0.00    -0.356 OA
BRANCH  88  89
ATOM     89  C38 Z1B d   1      29.132  37.229  43.964  0.00  0.00     0.010 C 
ATOM     90  H45 Z1B d   1      30.087  36.695  44.075  0.00  0.00     0.066 H 
ATOM     91  H46 Z1B d   1      28.299  36.528  44.125  0.00  0.00     0.066 H 
ATOM     92  H47 Z1B d   1      29.077  38.040  44.705  0.00  0.00     0.066 H 
ENDBRANCH  88  89
ENDBRANCH  80  88
BRANCH  85  93
ATOM     93  C32 Z1B d   1      22.516  40.541  44.011  0.00  0.00    -0.007 A 
ATOM     94  C33 Z1B d   1      22.236  39.533  44.941  0.00  0.00    -0.071 A 
ATOM     95  C34 Z1B d   1      21.160  39.649  45.808  0.00  0.00    -0.082 A 
ATOM     96  H40 Z1B d   1      22.867  38.653  44.984  0.00  0.00     0.084 H 
ATOM     97  C35 Z1B d   1      20.347  40.767  45.765  0.00  0.00    -0.083 A 
ATOM     98  H41 Z1B d   1      20.955  38.860  46.523  0.00  0.00     0.083 H 
ATOM     99  C36 Z1B d   1      20.612  41.776  44.851  0.00  0.00    -0.082 A 
ATOM    100  H42 Z1B d   1      19.506  40.854  46.443  0.00  0.00     0.083 H 
ATOM    101  C37 Z1B d   1      21.688  41.665  43.981  0.00  0.00    -0.071 A 
ATOM    102  H43 Z1B d   1      19.977  42.654  44.816  0.00  0.00     0.083 H 
ATOM    103  H44 Z1B d   1      21.888  42.459  43.271  0.00  0.00     0.084 H 
ENDBRANCH  85  93
ENDBRANCH  73  74
ENDBRANCH   1  73
TORSDOF 23
