REMARK  21 active torsions:
REMARK  status: ('A' for Active; 'I' for Inactive)
REMARK    1  A    between atoms: N5_4  and  C2_1 
REMARK    2  A    between atoms: C2_1  and  C44_44 
REMARK    3  A    between atoms: C3_2  and  C41_41 
REMARK       I    between atoms: C9_8  and  N5_4 
REMARK       I    between atoms: N6_5  and  C7_6 
REMARK    4  A    between atoms: C7_6  and  C10_9 
REMARK    5  A    between atoms: C8_7  and  C9_8 
REMARK    6  A    between atoms: C10_9  and  N13_12 
REMARK    7  A    between atoms: C10_9  and  C22_21 
REMARK    8  A    between atoms: O18_17  and  C11_10 
REMARK       I    between atoms: N13_12  and  C12_11 
REMARK    9  A    between atoms: C12_11  and  O21_20 
REMARK   10  A    between atoms: C17_16  and  O18_17 
REMARK   11  A    between atoms: O21_20  and  C37_37 
REMARK   12  A    between atoms: C22_21  and  C32_31 
REMARK   13  A    between atoms: C22_21  and  C33_32 
REMARK   14  A    between atoms: C22_21  and  C34_33 
REMARK   15  A    between atoms: C31_30  and  O35_34 
REMARK   16  A    between atoms: O35_34  and  C36_36 
REMARK   17  A    between atoms: C37_37  and  C38_38 
REMARK   18  A    between atoms: C37_37  and  C39_39 
REMARK   19  A    between atoms: C37_37  and  C40_40 
REMARK       I    between atoms: C44_44  and  N45_45 
REMARK   20  A    between atoms: N45_45  and  S47_47 
REMARK   21  A    between atoms: S47_47  and  C49_49 
ROOT
ATOM      1  N6  Z1E d   1      -6.581   7.544  35.293  0.00  0.00    -0.334 N 
ATOM      2  C7  Z1E d   1      -5.510   8.359  35.302  0.00  0.00     0.244 C 
ATOM      3  C8  Z1E d   1      -6.959   6.747  34.115  0.00  0.00     0.094 C 
ATOM      4  C15 Z1E d   1      -7.506   7.338  36.417  0.00  0.00     0.023 C 
ATOM      5  C16 Z1E d   1      -8.323   6.164  34.517  0.00  0.00    -0.011 C 
ATOM      6  C17 Z1E d   1      -8.182   6.043  36.025  0.00  0.00     0.064 C 
ATOM      7  O23 Z1E d   1      -4.778   8.454  34.338  0.00  0.00    -0.271 OA
ATOM      8  H5  Z1E d   1      -6.223   5.951  33.930  0.00  0.00     0.088 H 
ATOM      9  H8  Z1E d   1      -8.231   8.161  36.495  0.00  0.00     0.068 H 
ATOM     10  H9  Z1E d   1      -6.964   7.235  37.369  0.00  0.00     0.068 H 
ATOM     11  H10 Z1E d   1      -8.491   5.182  34.051  0.00  0.00     0.040 H 
ATOM     12  H11 Z1E d   1      -9.144   6.844  34.246  0.00  0.00     0.040 H 
ATOM     13  H12 Z1E d   1      -9.163   5.935  36.511  0.00  0.00     0.086 H 
ENDROOT
BRANCH   2  14
ATOM     14  C10 Z1E d   1      -5.206   9.174  36.566  0.00  0.00     0.098 C 
ATOM     15  H6  Z1E d   1      -5.907   8.848  37.349  0.00  0.00     0.088 H 
BRANCH  14  16
ATOM     16  N13 Z1E d   1      -3.863   8.825  37.001  0.00  0.00    -0.323 N 
ATOM     17  C12 Z1E d   1      -3.621   7.848  37.899  0.00  0.00     0.362 C 
ATOM     18  O26 Z1E d   1      -4.475   7.264  38.535  0.00  0.00    -0.238 OA
ATOM     19  H7  Z1E d   1      -3.088   9.329  36.619  0.00  0.00     0.165 HD
BRANCH  17  20
ATOM     20  O21 Z1E d   1      -2.289   7.631  37.974  0.00  0.00    -0.294 OA
BRANCH  20  21
ATOM     21  C37 Z1E d   1      -1.695   6.690  38.966  0.00  0.00     0.061 C 
BRANCH  21  22
ATOM     22  C38 Z1E d   1      -2.128   7.041  40.374  0.00  0.00    -0.048 C 
ATOM     23  H29 Z1E d   1      -1.676   6.332  41.084  0.00  0.00     0.031 H 
ATOM     24  H30 Z1E d   1      -3.224   6.983  40.446  0.00  0.00     0.031 H 
ATOM     25  H31 Z1E d   1      -1.798   8.062  40.615  0.00  0.00     0.031 H 
ENDBRANCH  21  22
BRANCH  21  26
ATOM     26  C39 Z1E d   1      -2.027   5.250  38.627  0.00  0.00    -0.048 C 
ATOM     27  H32 Z1E d   1      -1.575   4.583  39.376  0.00  0.00     0.031 H 
ATOM     28  H33 Z1E d   1      -1.628   5.006  37.631  0.00  0.00     0.031 H 
ATOM     29  H34 Z1E d   1      -3.119   5.115  38.627  0.00  0.00     0.031 H 
ENDBRANCH  21  26
BRANCH  21  30
ATOM     30  C40 Z1E d   1      -0.215   6.947  38.785  0.00  0.00    -0.048 C 
ATOM     31  H35 Z1E d   1       0.355   6.304  39.472  0.00  0.00     0.031 H 
ATOM     32  H36 Z1E d   1       0.003   8.002  39.004  0.00  0.00     0.031 H 
ATOM     33  H37 Z1E d   1       0.072   6.721  37.748  0.00  0.00     0.031 H 
ENDBRANCH  21  30
ENDBRANCH  20  21
ENDBRANCH  17  20
ENDBRANCH  14  16
BRANCH  14  34
ATOM     34  C22 Z1E d   1      -5.419  10.710  36.393  0.00  0.00    -0.022 C 
BRANCH  34  35
ATOM     35  C32 Z1E d   1      -4.738  11.238  35.124  0.00  0.00    -0.067 C 
ATOM     36  H17 Z1E d   1      -4.911  12.321  35.039  0.00  0.00     0.028 H 
ATOM     37  H18 Z1E d   1      -5.158  10.729  34.244  0.00  0.00     0.028 H 
ATOM     38  H19 Z1E d   1      -3.657  11.043  35.180  0.00  0.00     0.028 H 
ENDBRANCH  34  35
BRANCH  34  39
ATOM     39  C33 Z1E d   1      -6.905  11.045  36.306  0.00  0.00    -0.067 C 
ATOM     40  H20 Z1E d   1      -7.417  10.676  37.207  0.00  0.00     0.028 H 
ATOM     41  H21 Z1E d   1      -7.338  10.565  35.416  0.00  0.00     0.028 H 
ATOM     42  H22 Z1E d   1      -7.032  12.135  36.233  0.00  0.00     0.028 H 
ENDBRANCH  34  39
BRANCH  34  43
ATOM     43  C34 Z1E d   1      -4.855  11.451  37.605  0.00  0.00    -0.067 C 
ATOM     44  H23 Z1E d   1      -3.781  11.233  37.701  0.00  0.00     0.028 H 
ATOM     45  H24 Z1E d   1      -5.379  11.120  38.514  0.00  0.00     0.028 H 
ATOM     46  H25 Z1E d   1      -4.999  12.534  37.473  0.00  0.00     0.028 H 
ENDBRANCH  34  43
ENDBRANCH  14  34
ENDBRANCH   2  14
BRANCH   3  47
ATOM     47  C9  Z1E d   1      -7.108   7.601  32.860  0.00  0.00     0.241 C 
ATOM     48  N5  Z1E d   1      -6.674   7.028  31.730  0.00  0.00    -0.341 N 
ATOM     49  H4  Z1E d   1      -6.737   6.034  31.641  0.00  0.00     0.163 HD
ATOM     50  O25 Z1E d   1      -7.588   8.729  32.910  0.00  0.00    -0.271 OA
BRANCH  48  51
ATOM     51  C2  Z1E d   1      -6.119   7.788  30.636  0.00  0.00     0.124 A 
ATOM     52  C3  Z1E d   1      -4.965   8.754  30.929  0.00  0.00     0.038 A 
ATOM     53  C4  Z1E d   1      -4.715   7.444  30.230  0.00  0.00    -0.021 A 
ATOM     54  H1  Z1E d   1      -4.636   8.915  31.966  0.00  0.00     0.053 H 
ATOM     55  H2  Z1E d   1      -4.441   7.437  29.165  0.00  0.00     0.038 H 
ATOM     56  H3  Z1E d   1      -4.177   6.640  30.753  0.00  0.00     0.038 H 
BRANCH  52  57
ATOM     57  C41 Z1E d   1      -4.776  10.044  30.115  0.00  0.00     0.214 C 
ATOM     58  F42 Z1E d   1      -5.668  10.957  30.594  0.00  0.00    -0.214 F 
ATOM     59  F43 Z1E d   1      -3.547  10.569  30.377  0.00  0.00    -0.214 F 
ATOM     60  H38 Z1E d   1      -4.914   9.858  29.040  0.00  0.00     0.145 H 
ENDBRANCH  52  57
BRANCH  51  61
ATOM     61  C44 Z1E d   1      -7.084   8.102  29.493  0.00  0.00     0.260 C 
ATOM     62  N45 Z1E d   1      -8.397   7.728  29.665  0.00  0.00    -0.251 N 
ATOM     63  H39 Z1E d   1      -8.668   7.277  30.515  0.00  0.00     0.181 HD
ATOM     64  O46 Z1E d   1      -6.710   8.654  28.468  0.00  0.00    -0.270 OA
BRANCH  62  65
ATOM     65  S47 Z1E d   1      -9.538   8.006  28.499  0.00  0.00     0.243 S 
ATOM     66  O48 Z1E d   1      -9.639   9.432  28.406  0.00  0.00    -0.205 OA
ATOM     67  O50 Z1E d   1      -9.207   7.249  27.327  0.00  0.00    -0.205 OA
BRANCH  65  68
ATOM     68  C49 Z1E d   1     -11.007   7.370  29.185  0.00  0.00     0.095 A 
ATOM     69  C51 Z1E d   1     -12.134   8.284  29.428  0.00  0.00    -0.082 A 
ATOM     70  C52 Z1E d   1     -12.209   7.300  28.335  0.00  0.00    -0.082 A 
ATOM     71  H41 Z1E d   1     -12.584   9.095  29.999  0.00  0.00     0.079 H 
ATOM     72  H42 Z1E d   1     -12.754   6.850  27.506  0.00  0.00     0.079 H 
ATOM     73  H40 Z1E d   1     -10.776   6.565  29.898  0.00  0.00     0.079 H 
ENDBRANCH  65  68
ENDBRANCH  62  65
ENDBRANCH  51  61
ENDBRANCH  48  51
ENDBRANCH   3  47
BRANCH   6  74
ATOM     74  O18 Z1E d   1      -7.323   4.921  36.375  0.00  0.00    -0.327 OA
BRANCH  74  75
ATOM     75  C11 Z1E d   1      -7.939   3.734  36.615  0.00  0.00     0.176 A 
ATOM     76  C14 Z1E d   1      -7.086   2.686  37.078  0.00  0.00     0.031 A 
ATOM     77  C19 Z1E d   1      -7.702   1.433  37.356  0.00  0.00     0.013 A 
ATOM     78  C24 Z1E d   1      -5.696   2.845  37.253  0.00  0.00    -0.047 A 
ATOM     79  C27 Z1E d   1      -6.877   0.371  37.816  0.00  0.00    -0.068 A 
ATOM     80  C31 Z1E d   1      -9.110   1.314  37.147  0.00  0.00     0.097 A 
ATOM     81  C28 Z1E d   1      -5.533   0.549  37.978  0.00  0.00    -0.061 A 
ATOM     82  H14 Z1E d   1      -7.320  -0.592  38.041  0.00  0.00     0.085 H 
ATOM     83  C29 Z1E d   1      -4.960   1.780  37.689  0.00  0.00     0.035 A 
ATOM     84  H15 Z1E d   1      -4.915  -0.269  38.331  0.00  0.00     0.086 H 
ATOM     85 CL1  Z1E d   1      -3.244   1.972  37.867  0.00  0.00    -0.084 Cl
ATOM     86  C30 Z1E d   1      -9.776   2.429  36.694  0.00  0.00     0.038 A 
ATOM     87  N20 Z1E d   1      -9.218   3.615  36.431  0.00  0.00    -0.234 NA
ATOM     88  H16 Z1E d   1     -10.845   2.338  36.537  0.00  0.00     0.119 H 
ATOM     89  H13 Z1E d   1      -5.220   3.796  37.045  0.00  0.00     0.087 H 
BRANCH  80  90
ATOM     90  O35 Z1E d   1      -9.622   0.082  37.415  0.00  0.00    -0.354 OA
BRANCH  90  91
ATOM     91  C36 Z1E d   1     -10.966  -0.173  36.987  0.00  0.00     0.010 C 
ATOM     92  H26 Z1E d   1     -11.251  -1.198  37.265  0.00  0.00     0.066 H 
ATOM     93  H27 Z1E d   1     -11.031  -0.058  35.895  0.00  0.00     0.066 H 
ATOM     94  H28 Z1E d   1     -11.647   0.541  37.472  0.00  0.00     0.066 H 
ENDBRANCH  90  91
ENDBRANCH  80  90
ENDBRANCH  74  75
ENDBRANCH   6  74
TORSDOF 21
