REMARK  10 active torsions:
REMARK  status: ('A' for Active; 'I' for Inactive)
REMARK    1  A    between atoms: C23_24  and  C7_4 
REMARK    2  A    between atoms: C16_18  and  C17_7 
REMARK    3  A    between atoms: N25_26  and  C26_8 
REMARK    4  A    between atoms: O2_11  and  C1_10 
REMARK    5  A    between atoms: C3_12  and  O2_11 
REMARK       I    between atoms: N9_13  and  C14_16 
REMARK    6  A    between atoms: C14_16  and  C16_18 
REMARK       I    between atoms: C23_24  and  N25_26 
REMARK    7  A    between atoms: C29_28  and  C33_32 
REMARK    8  A    between atoms: C33_32  and  C34_33 
REMARK    9  A    between atoms: C33_32  and  C35_34 
REMARK   10  A    between atoms: C33_32  and  C36_35 
ROOT
ATOM      1  C4  E3S d   1     -12.977 -26.989  -0.399  0.00  0.00    -0.050 A 
ATOM      2  C5  E3S d   1     -11.808 -26.553   0.210  0.00  0.00    -0.071 A 
ATOM      3  C6  E3S d   1     -11.776 -26.277   1.585  0.00  0.00    -0.020 A 
ATOM      4  C7  E3S d   1     -10.474 -25.826   2.234  0.00  0.00     0.118 C 
ATOM      5  C10 E3S d   1     -12.095 -24.946   4.039  0.00  0.00     0.003 C 
ATOM      6  C13 E3S d   1     -14.110 -26.896   1.724  0.00  0.00    -0.044 A 
ATOM      7  C3  E3S d   1     -14.152 -27.159   0.351  0.00  0.00     0.068 A 
ATOM      8  N9  E3S d   1     -10.707 -25.086   3.504  0.00  0.00    -0.334 N 
ATOM      9  C11 E3S d   1     -12.953 -26.186   3.812  0.00  0.00    -0.025 C 
ATOM     10  C12 E3S d   1     -12.927 -26.464   2.335  0.00  0.00    -0.045 A 
ATOM     11  C14 E3S d   1      -9.650 -24.524   4.163  0.00  0.00     0.227 C 
ATOM     12  O15 E3S d   1      -8.528 -24.633   3.715  0.00  0.00    -0.273 OA
ATOM     13  H1  E3S d   1     -12.983 -27.200  -1.462  0.00  0.00     0.087 H 
ATOM     14  H2  E3S d   1     -10.910 -26.424  -0.384  0.00  0.00     0.084 H 
ATOM     15  H3  E3S d   1      -9.900 -25.180   1.554  0.00  0.00     0.095 H 
ATOM     16  H4  E3S d   1     -12.577 -24.091   3.542  0.00  0.00     0.065 H 
ATOM     17  H5  E3S d   1     -12.035 -24.755   5.121  0.00  0.00     0.065 H 
ATOM     18  H6  E3S d   1     -15.004 -27.028   2.322  0.00  0.00     0.088 H 
ATOM     19  H11 E3S d   1     -13.985 -25.999   4.145  0.00  0.00     0.042 H 
ATOM     20  H12 E3S d   1     -12.538 -27.041   4.366  0.00  0.00     0.042 H 
ENDROOT
BRANCH   4  21
ATOM     21  C23 E3S d   1      -9.774 -27.146   2.429  0.00  0.00     0.249 C 
ATOM     22  O24 E3S d   1      -9.935 -27.739   3.474  0.00  0.00    -0.270 OA
ATOM     23  N25 E3S d   1      -9.004 -27.625   1.410  0.00  0.00    -0.325 N 
ATOM     24  H17 E3S d   1      -8.861 -27.006   0.638  0.00  0.00     0.169 HD
BRANCH  23  25
ATOM     25  C26 E3S d   1      -8.389 -28.882   1.316  0.00  0.00     0.037 A 
ATOM     26  C27 E3S d   1      -7.850 -29.259   0.086  0.00  0.00    -0.056 A 
ATOM     27  C28 E3S d   1      -7.308 -30.529  -0.102  0.00  0.00    -0.071 A 
ATOM     28  H18 E3S d   1      -7.853 -28.553  -0.737  0.00  0.00     0.086 H 
ATOM     29  C29 E3S d   1      -7.316 -31.478   0.919  0.00  0.00    -0.012 A 
ATOM     30  H7  E3S d   1      -6.872 -30.784  -1.061  0.00  0.00     0.084 H 
ATOM     31  C30 E3S d   1      -7.898 -31.107   2.149  0.00  0.00     0.125 A 
ATOM     32  F31 E3S d   1      -7.963 -31.956   3.197  0.00  0.00    -0.205 F 
ATOM     33  C32 E3S d   1      -8.437 -29.838   2.335  0.00  0.00    -0.019 A 
ATOM     34  H19 E3S d   1      -8.900 -29.587   3.282  0.00  0.00     0.091 H 
BRANCH  29  35
ATOM     35  C33 E3S d   1      -6.736 -32.870   0.671  0.00  0.00    -0.021 C 
BRANCH  35  36
ATOM     36  C34 E3S d   1      -6.207 -33.060  -0.756  0.00  0.00    -0.066 C 
ATOM     37  H20 E3S d   1      -5.806 -34.078  -0.866  0.00  0.00     0.028 H 
ATOM     38  H21 E3S d   1      -5.409 -32.329  -0.952  0.00  0.00     0.028 H 
ATOM     39  H22 E3S d   1      -7.027 -32.910  -1.474  0.00  0.00     0.028 H 
ENDBRANCH  35  36
BRANCH  35  40
ATOM     40  C35 E3S d   1      -5.607 -33.248   1.625  0.00  0.00    -0.066 C 
ATOM     41  H23 E3S d   1      -5.948 -33.125   2.664  0.00  0.00     0.028 H 
ATOM     42  H24 E3S d   1      -4.740 -32.596   1.444  0.00  0.00     0.028 H 
ATOM     43  H25 E3S d   1      -5.319 -34.296   1.456  0.00  0.00     0.028 H 
ENDBRANCH  35  40
BRANCH  35  44
ATOM     44  C36 E3S d   1      -7.848 -33.909   0.835  0.00  0.00    -0.066 C 
ATOM     45  H26 E3S d   1      -8.681 -33.665   0.159  0.00  0.00     0.028 H 
ATOM     46  H27 E3S d   1      -8.206 -33.902   1.875  0.00  0.00     0.028 H 
ATOM     47  H28 E3S d   1      -7.456 -34.907   0.589  0.00  0.00     0.028 H 
ENDBRANCH  35  44
ENDBRANCH  29  35
ENDBRANCH  23  25
ENDBRANCH   4  21
BRANCH  11  48
ATOM     48  C16 E3S d   1      -9.799 -23.730   5.444  0.00  0.00     0.056 C 
ATOM     49  H13 E3S d   1     -10.617 -24.135   6.058  0.00  0.00     0.057 H 
ATOM     50  H14 E3S d   1      -8.863 -23.747   6.022  0.00  0.00     0.057 H 
BRANCH  48  51
ATOM     51  C17 E3S d   1     -10.118 -22.330   4.994  0.00  0.00     0.089 A 
ATOM     52  C18 E3S d   1     -11.330 -21.727   5.012  0.00  0.00     0.002 A 
ATOM     53  C19 E3S d   1     -11.086 -20.442   4.459  0.00  0.00     0.201 A 
ATOM     54  H15 E3S d   1     -12.275 -22.134   5.369  0.00  0.00     0.094 H 
ATOM     55  O20 E3S d   1     -11.995 -19.450   4.266  0.00  0.00    -0.170 OA
ATOM     56  N21 E3S d   1      -9.808 -20.409   4.175  0.00  0.00    -0.237 N 
ATOM     57  O22 E3S d   1      -9.260 -21.453   4.457  0.00  0.00    -0.240 OA
ATOM     58  H16 E3S d   1      -9.342 -19.620   3.775  0.00  0.00     0.197 HD
ENDBRANCH  48  51
ENDBRANCH  11  48
BRANCH   7  59
ATOM     59  O2  E3S d   1     -15.319 -27.593  -0.237  0.00  0.00    -0.356 OA
BRANCH  59  60
ATOM     60  C1  E3S d   1     -16.208 -26.663  -0.887  0.00  0.00     0.010 C 
ATOM     61  H8  E3S d   1     -17.076 -27.206  -1.289  0.00  0.00     0.066 H 
ATOM     62  H9  E3S d   1     -15.677 -26.161  -1.709  0.00  0.00     0.066 H 
ATOM     63  H10 E3S d   1     -16.550 -25.913  -0.159  0.00  0.00     0.066 H 
ENDBRANCH  59  60
ENDBRANCH   7  59
TORSDOF 10
