REMARK  9 active torsions:
REMARK  status: ('A' for Active; 'I' for Inactive)
REMARK    1  A    between atoms: C7_4  and  C26_8 
REMARK    2  A    between atoms: C21_6  and  C22_7 
REMARK    3  A    between atoms: C19_24  and  C21_6 
REMARK       I    between atoms: C26_8  and  N28_31 
REMARK    4  A    between atoms: N28_31  and  C29_13 
REMARK    5  A    between atoms: C3_16  and  O2_36 
REMARK    6  A    between atoms: C16_23  and  C14_17 
REMARK       I    between atoms: C14_17  and  N9_30 
REMARK    7  A    between atoms: C34_25  and  C35_26 
REMARK    8  A    between atoms: C34_25  and  C36_27 
REMARK    9  A    between atoms: O2_36  and  C1_28 
ROOT
ATOM      1  C4  E3V d   1      20.195  79.397   0.592  0.00  0.00    -0.031 A 
ATOM      2  C5  E3V d   1      21.276  78.889   1.270  0.00  0.00    -0.068 A 
ATOM      3  C6  E3V d   1      21.447  79.174   2.606  0.00  0.00    -0.001 A 
ATOM      4  C7  E3V d   1      22.604  78.623   3.372  0.00  0.00     0.119 C 
ATOM      5  C10 E3V d   1      22.107  80.503   4.981  0.00  0.00     0.004 C 
ATOM      6  C12 E3V d   1      20.506  79.976   3.222  0.00  0.00     0.047 A 
ATOM      7  C3  E3V d   1      19.313  80.179   1.305  0.00  0.00     0.164 A 
ATOM      8  C14 E3V d   1      24.182  79.182   5.186  0.00  0.00     0.225 C 
ATOM      9  C11 E3V d   1      20.643  80.323   4.660  0.00  0.00    -0.009 C 
ATOM     10  N13 E3V d   1      19.445  80.487   2.599  0.00  0.00    -0.229 NA
ATOM     11  N9  E3V d   1      22.947  79.376   4.584  0.00  0.00    -0.334 N 
ATOM     12  O15 E3V d   1      24.932  78.264   4.885  0.00  0.00    -0.273 OA
ATOM     13  H1  E3V d   1      20.042  79.191  -0.461  0.00  0.00     0.090 H 
ATOM     14  H2  E3V d   1      21.995  78.263   0.753  0.00  0.00     0.084 H 
ATOM     15  H3  E3V d   1      23.484  78.556   2.715  0.00  0.00     0.095 H 
ATOM     16  H4  E3V d   1      22.208  80.643   6.067  0.00  0.00     0.065 H 
ATOM     17  H5  E3V d   1      22.467  81.403   4.460  0.00  0.00     0.065 H 
ATOM     18  H12 E3V d   1      20.102  81.258   4.868  0.00  0.00     0.044 H 
ATOM     19  H13 E3V d   1      20.226  79.513   5.277  0.00  0.00     0.044 H 
ENDROOT
BRANCH   4  20
ATOM     20  C26 E3V d   1      22.171  77.263   3.855  0.00  0.00     0.249 C 
ATOM     21  N28 E3V d   1      22.433  76.226   2.960  0.00  0.00    -0.325 N 
ATOM     22  H31 E3V d   1      23.201  76.323   2.327  0.00  0.00     0.169 HD
ATOM     23  O27 E3V d   1      21.613  77.140   4.937  0.00  0.00    -0.270 OA
BRANCH  21  24
ATOM     24  C29 E3V d   1      21.652  75.033   2.909  0.00  0.00     0.038 A 
ATOM     25  C30 E3V d   1      21.560  74.310   1.732  0.00  0.00    -0.050 A 
ATOM     26  C31 E3V d   1      20.795  73.154   1.697  0.00  0.00    -0.046 A 
ATOM     27  H8  E3V d   1      22.083  74.645   0.844  0.00  0.00     0.087 H 
ATOM     28  C37 E3V d   1      20.115  72.694   2.810  0.00  0.00    -0.005 A 
ATOM     29  C32 E3V d   1      20.583  72.266   0.527  0.00  0.00    -0.039 C 
ATOM     30  C38 E3V d   1      20.216  73.421   3.983  0.00  0.00     0.126 A 
ATOM     31  C34 E3V d   1      19.350  71.434   2.509  0.00  0.00    -0.017 C 
ATOM     32  C40 E3V d   1      20.976  74.567   4.024  0.00  0.00    -0.019 A 
ATOM     33  F39 E3V d   1      19.581  73.036   5.095  0.00  0.00    -0.205 F 
ATOM     34  H9  E3V d   1      21.047  75.120   4.954  0.00  0.00     0.091 H 
ATOM     35  C33 E3V d   1      19.799  71.108   1.102  0.00  0.00    -0.051 C 
ATOM     36  H14 E3V d   1      20.436  70.211   1.122  0.00  0.00     0.035 H 
ATOM     37  H15 E3V d   1      18.917  70.918   0.473  0.00  0.00     0.035 H 
ATOM     38  H10 E3V d   1      21.543  71.924   0.113  0.00  0.00     0.040 H 
ATOM     39  H11 E3V d   1      20.008  72.779  -0.258  0.00  0.00     0.040 H 
BRANCH  31  40
ATOM     40  C35 E3V d   1      19.644  70.286   3.443  0.00  0.00    -0.065 C 
ATOM     41  H22 E3V d   1      19.310  70.545   4.458  0.00  0.00     0.028 H 
ATOM     42  H23 E3V d   1      20.726  70.089   3.452  0.00  0.00     0.028 H 
ATOM     43  H24 E3V d   1      19.110  69.388   3.099  0.00  0.00     0.028 H 
ENDBRANCH  31  40
BRANCH  31  44
ATOM     44  C36 E3V d   1      17.859  71.697   2.537  0.00  0.00    -0.065 C 
ATOM     45  H25 E3V d   1      17.621  72.532   1.862  0.00  0.00     0.028 H 
ATOM     46  H26 E3V d   1      17.551  71.955   3.561  0.00  0.00     0.028 H 
ATOM     47  H27 E3V d   1      17.321  70.795   2.208  0.00  0.00     0.028 H 
ENDBRANCH  31  44
ENDBRANCH  21  24
ENDBRANCH   4  20
BRANCH   8  48
ATOM     48  C16 E3V d   1      24.523  80.225   6.261  0.00  0.00     0.024 C 
ATOM     49  C18 E3V d   1      25.276  81.484   5.841  0.00  0.00    -0.050 C 
ATOM     50  C19 E3V d   1      25.757  81.533   7.284  0.00  0.00    -0.043 C 
ATOM     51  H16 E3V d   1      24.640  82.327   5.533  0.00  0.00     0.034 H 
ATOM     52  H17 E3V d   1      26.066  81.327   5.091  0.00  0.00     0.034 H 
ATOM     53  C25 E3V d   1      25.665  80.004   7.249  0.00  0.00    -0.050 C 
ATOM     54  H21 E3V d   1      25.040  81.994   7.979  0.00  0.00     0.040 H 
ATOM     55  H18 E3V d   1      26.547  79.492   6.837  0.00  0.00     0.034 H 
ATOM     56  H19 E3V d   1      25.376  79.531   8.199  0.00  0.00     0.034 H 
ATOM     57  H20 E3V d   1      23.576  80.451   6.773  0.00  0.00     0.054 H 
BRANCH  50  58
ATOM     58  C21 E3V d   1      27.105  82.188   7.513  0.00  0.00     0.019 C 
ATOM     59  H6  E3V d   1      26.987  83.264   7.320  0.00  0.00     0.049 H 
ATOM     60  H7  E3V d   1      27.374  82.031   8.568  0.00  0.00     0.049 H 
BRANCH  58  61
ATOM     61  C22 E3V d   1      28.251  81.704   6.679  0.00  0.00     0.172 C 
ATOM     62  O24 E3V d   1      28.986  80.776   6.988  0.00  0.00    -0.648 OA
ATOM     63  O23 E3V d   1      28.360  82.445   5.543  0.00  0.00    -0.648 OA
ENDBRANCH  58  61
ENDBRANCH  50  58
ENDBRANCH   8  48
BRANCH   7  64
ATOM     64  O2  E3V d   1      18.226  80.696   0.628  0.00  0.00    -0.339 OA
BRANCH  64  65
ATOM     65  C1  E3V d   1      17.066  80.065   1.141  0.00  0.00     0.012 C 
ATOM     66  H28 E3V d   1      16.177  80.454   0.623  0.00  0.00     0.067 H 
ATOM     67  H29 E3V d   1      16.982  80.272   2.218  0.00  0.00     0.067 H 
ATOM     68  H30 E3V d   1      17.138  78.979   0.981  0.00  0.00     0.067 H 
ENDBRANCH  64  65
ENDBRANCH   7  64
TORSDOF 9
