REMARK  11 active torsions:
REMARK  status: ('A' for Active; 'I' for Inactive)
REMARK    1  A    between atoms: N3B_8  and  PG_1 
REMARK    2  A    between atoms: PB_5  and  N3B_8 
REMARK    3  A    between atoms: O3A_12  and  PB_5 
REMARK    4  A    between atoms: PA_9  and  O3A_12 
REMARK    5  A    between atoms: PA_9  and  O5'_13 
REMARK    6  A    between atoms: O5'_13  and  C5'_14 
REMARK    7  A    between atoms: C5'_14  and  C4'_15 
REMARK    8  A    between atoms: C3'_17  and  O3'_18 
REMARK    9  A    between atoms: C2'_19  and  O2'_20 
REMARK   10  A    between atoms: C1'_21  and  N9_22 
REMARK   11  A    between atoms: C6_26  and  N6_27 
ROOT
ATOM      1  C4' ANP d   1      75.426  48.509  11.032  0.00  0.00     0.089 C 
ATOM      2  O4' ANP d   1      76.362  49.508  11.364  0.00  0.00    -0.353 OA
ATOM      3  C3' ANP d   1      75.449  48.444   9.545  0.00  0.00     0.091 C 
ATOM      4  C2' ANP d   1      76.664  49.220   9.135  0.00  0.00     0.105 C 
ATOM      5  C1' ANP d   1      76.789  50.238  10.239  0.00  0.00     0.139 C 
ATOM      6  H4  ANP d   1      74.422  48.769  11.398  0.00  0.00     0.090 H 
ATOM      7  H5  ANP d   1      75.521  47.405   9.191  0.00  0.00     0.091 H 
ATOM      8  H7  ANP d   1      77.558  48.579   9.128  0.00  0.00     0.093 H 
ATOM      9  H9  ANP d   1      76.154  51.109  10.022  0.00  0.00     0.122 H 
ENDROOT
BRANCH   1  10
ATOM     10  C5' ANP d   1      75.864  47.198  11.621  0.00  0.00     0.058 C 
ATOM     11  H2  ANP d   1      75.997  47.293  12.709  0.00  0.00     0.079 H 
ATOM     12  H3  ANP d   1      75.120  46.416  11.409  0.00  0.00     0.079 H 
BRANCH  10  13
ATOM     13  O5' ANP d   1      77.082  46.890  11.007  0.00  0.00    -0.287 OA
BRANCH  13  14
ATOM     14  PA  ANP d   1      77.455  45.444  10.580  0.00  0.00     0.417 P 
ATOM     15  O1A ANP d   1      76.353  44.963   9.797  0.00  0.00    -0.624 OA
ATOM     16  O2A ANP d   1      78.740  45.740   9.939  0.00  0.00    -0.624 OA
BRANCH  14  17
ATOM     17  O3A ANP d   1      77.572  44.749  11.973  0.00  0.00    -0.186 OA
BRANCH  17  18
ATOM     18  PB  ANP d   1      77.670  43.225  12.308  0.00  0.00     0.379 P 
ATOM     19  O1B ANP d   1      78.598  43.204  13.440  0.00  0.00    -0.629 OA
ATOM     20  O2B ANP d   1      78.060  42.528  11.058  0.00  0.00    -0.629 OA
BRANCH  18  21
ATOM     21  N3B ANP d   1      76.182  42.639  12.902  0.00  0.00    -0.218 N 
ATOM     22  H1  ANP d   1      75.632  43.215  13.506  0.00  0.00     0.179 HD
BRANCH  21  23
ATOM     23  PG  ANP d   1      75.617  41.080  12.479  0.00  0.00     0.381 P 
ATOM     24  O1G ANP d   1      75.978  40.179  13.602  0.00  0.00    -0.622 OA
ATOM     25  O2G ANP d   1      74.182  41.389  12.409  0.00  0.00    -0.622 OA
ATOM     26  O3G ANP d   1      76.291  40.728  11.179  0.00  0.00    -0.622 OA
ENDBRANCH  21  23
ENDBRANCH  18  21
ENDBRANCH  17  18
ENDBRANCH  14  17
ENDBRANCH  13  14
ENDBRANCH  10  13
ENDBRANCH   1  10
BRANCH   3  27
ATOM     27  O3' ANP d   1      74.258  49.029   9.077  0.00  0.00    -0.390 OA
ATOM     28  H6  ANP d   1      73.514  48.547   9.419  0.00  0.00     0.210 HD
ENDBRANCH   3  27
BRANCH   5  29
ATOM     29  N9  ANP d   1      78.139  50.686  10.616  0.00  0.00    -0.294 N 
ATOM     30  C8  ANP d   1      79.153  49.907  10.955  0.00  0.00     0.071 A 
ATOM     31  N7  ANP d   1      80.242  50.626  11.267  0.00  0.00    -0.236 NA
ATOM     32  H10 ANP d   1      79.109  48.819  10.978  0.00  0.00     0.144 H 
ATOM     33  C5  ANP d   1      79.914  51.901  11.137  0.00  0.00     0.149 A 
ATOM     34  C6  ANP d   1      80.576  53.170  11.329  0.00  0.00     0.155 A 
ATOM     35  C4  ANP d   1      78.528  51.937  10.727  0.00  0.00     0.167 A 
ATOM     36  N1  ANP d   1      79.860  54.243  11.090  0.00  0.00    -0.222 NA
ATOM     37  C2  ANP d   1      78.595  54.230  10.722  0.00  0.00     0.091 A 
ATOM     38  N3  ANP d   1      77.935  53.113  10.537  0.00  0.00    -0.222 NA
ATOM     39  H13 ANP d   1      78.084  55.173  10.567  0.00  0.00     0.146 H 
BRANCH  34  40
ATOM     40  N6  ANP d   1      81.855  53.268  11.722  0.00  0.00    -0.382 N 
ATOM     41  H11 ANP d   1      82.286  54.195  11.846  0.00  0.00     0.157 HD
ATOM     42  H12 ANP d   1      82.406  52.416  11.900  0.00  0.00     0.157 HD
ENDBRANCH  34  40
ENDBRANCH   5  29
BRANCH   4  43
ATOM     43  O2' ANP d   1      76.468  49.717   7.824  0.00  0.00    -0.388 OA
ATOM     44  H8  ANP d   1      75.705  50.283   7.812  0.00  0.00     0.210 HD
ENDBRANCH   4  43
TORSDOF 11
