REMARK  7 active torsions:
REMARK  status: ('A' for Active; 'I' for Inactive)
REMARK    1  A    between atoms: C17_2  and  C16_4 
REMARK    2  A    between atoms: C13_9  and  C12_10 
REMARK    3  A    between atoms: C11_15  and  N3_16 
REMARK    4  A    between atoms: C4_24  and  N1_25 
REMARK    5  A    between atoms: N1_25  and  C2_26 
REMARK    6  A    between atoms: C2_26  and  C3_27 
REMARK    7  A    between atoms: C2_26  and  C1_28 
ROOT
ATOM      1  N3  MVG d   1     -44.904   0.958  -3.013  0.00  0.00    -0.214 N 
ATOM      2  C6  MVG d   1     -43.949   1.378  -3.915  0.00  0.00     0.074 A 
ATOM      3  C5  MVG d   1     -42.637   1.806  -3.752  0.00  0.00    -0.029 A 
ATOM      4  N2  MVG d   1     -46.110   0.692  -3.655  0.00  0.00    -0.177 NA
ATOM      5  C10 MVG d   1     -45.908   0.969  -4.926  0.00  0.00     0.034 A 
ATOM      6  C7  MVG d   1     -44.585   1.420  -5.174  0.00  0.00     0.012 A 
ATOM      7  C8  MVG d   1     -43.869   1.922  -6.269  0.00  0.00    -0.067 A 
ATOM      8  C9  MVG d   1     -42.564   2.365  -6.110  0.00  0.00    -0.057 A 
ATOM      9  C4  MVG d   1     -41.949   2.314  -4.852  0.00  0.00     0.030 A 
ATOM     10  H7  MVG d   1     -42.156   1.746  -2.783  0.00  0.00     0.090 H 
ATOM     11  H8  MVG d   1     -46.668   0.864  -5.698  0.00  0.00     0.118 H 
ATOM     12  H9  MVG d   1     -44.337   1.964  -7.246  0.00  0.00     0.085 H 
ATOM     13  H10 MVG d   1     -42.018   2.752  -6.963  0.00  0.00     0.086 H 
ENDROOT
BRANCH   1  14
ATOM     14  C11 MVG d   1     -44.866   0.954  -1.584  0.00  0.00     0.169 A 
ATOM     15  N4  MVG d   1     -43.678   1.171  -1.017  0.00  0.00    -0.226 NA
ATOM     16  C12 MVG d   1     -43.634   1.342   0.315  0.00  0.00     0.087 A 
ATOM     17  C20 MVG d   1     -44.802   1.224   1.086  0.00  0.00     0.030 A 
ATOM     18  N5  MVG d   1     -45.993   0.984   0.511  0.00  0.00    -0.267 NA
ATOM     19  H5  MVG d   1     -44.742   1.328   2.163  0.00  0.00     0.118 H 
ATOM     20  C21 MVG d   1     -46.038   0.856  -0.824  0.00  0.00     0.048 A 
ATOM     21  H6  MVG d   1     -46.987   0.676  -1.317  0.00  0.00     0.120 H 
BRANCH  16  22
ATOM     22  C13 MVG d   1     -42.317   1.736   0.876  0.00  0.00    -0.006 A 
ATOM     23  C14 MVG d   1     -41.172   1.721   0.086  0.00  0.00    -0.070 A 
ATOM     24  C15 MVG d   1     -39.937   2.077   0.603  0.00  0.00    -0.066 A 
ATOM     25  H2  MVG d   1     -41.248   1.425  -0.954  0.00  0.00     0.084 H 
ATOM     26  C16 MVG d   1     -39.816   2.487   1.928  0.00  0.00     0.040 A 
ATOM     27  H1  MVG d   1     -39.057   2.036  -0.029  0.00  0.00     0.085 H 
ATOM     28  C18 MVG d   1     -40.955   2.492   2.728  0.00  0.00    -0.066 A 
ATOM     29  C19 MVG d   1     -42.185   2.124   2.208  0.00  0.00    -0.070 A 
ATOM     30  H3  MVG d   1     -40.879   2.787   3.768  0.00  0.00     0.085 H 
ATOM     31  H4  MVG d   1     -43.060   2.138   2.848  0.00  0.00     0.084 H 
BRANCH  26  32
ATOM     32  C17 MVG d   1     -38.523   3.001   2.455  0.00  0.00     0.209 C 
ATOM     33  O2  MVG d   1     -38.457   3.512   3.556  0.00  0.00    -0.644 OA
ATOM     34  O1  MVG d   1     -37.518   2.968   1.633  0.00  0.00    -0.644 OA
ENDBRANCH  26  32
ENDBRANCH  16  22
ENDBRANCH   1  14
BRANCH   9  35
ATOM     35  N1  MVG d   1     -40.660   2.807  -4.651  0.00  0.00    -0.386 N 
ATOM     36  H11 MVG d   1     -40.258   3.353  -5.426  0.00  0.00     0.160 HD
BRANCH  35  37
ATOM     37  C2  MVG d   1     -39.793   2.639  -3.448  0.00  0.00     0.003 C 
ATOM     38  H12 MVG d   1     -40.364   2.922  -2.551  0.00  0.00     0.071 H 
BRANCH  37  39
ATOM     39  C3  MVG d   1     -39.367   1.189  -3.302  0.00  0.00    -0.058 C 
ATOM     40  H13 MVG d   1     -38.730   1.082  -2.412  0.00  0.00     0.030 H 
ATOM     41  H14 MVG d   1     -38.804   0.880  -4.195  0.00  0.00     0.030 H 
ATOM     42  H15 MVG d   1     -40.259   0.554  -3.193  0.00  0.00     0.030 H 
ENDBRANCH  37  39
BRANCH  37  43
ATOM     43  C1  MVG d   1     -38.608   3.576  -3.584  0.00  0.00    -0.058 C 
ATOM     44  H16 MVG d   1     -37.953   3.469  -2.706  0.00  0.00     0.030 H 
ATOM     45  H17 MVG d   1     -38.967   4.614  -3.650  0.00  0.00     0.030 H 
ATOM     46  H18 MVG d   1     -38.044   3.325  -4.495  0.00  0.00     0.030 H 
ENDBRANCH  37  43
ENDBRANCH  35  37
ENDBRANCH   9  35
TORSDOF 7
