REMARK  23 active torsions:
REMARK  status: ('A' for Active; 'I' for Inactive)
REMARK    1  A    between atoms: C14_8  and  C17_1 
REMARK    2  A    between atoms: C17_1  and  C19_9 
REMARK    3  A    between atoms: C17_1  and  C34_14 
REMARK    4  A    between atoms: C21_2  and  C24_3 
REMARK    5  A    between atoms: C19_9  and  C21_2 
REMARK    6  A    between atoms: C05_5  and  C01_4 
REMARK    7  A    between atoms: C08_6  and  C05_5 
REMARK    8  A    between atoms: C11_7  and  C08_6 
REMARK    9  A    between atoms: C11_7  and  C14_8 
REMARK   10  A    between atoms: C19_9  and  N28_10 
REMARK   11  A    between atoms: N28_10  and  O29_11 
REMARK       I    between atoms: N28_10  and  C31_12 
REMARK       I    between atoms: C34_14  and  N36_16 
REMARK   12  A    between atoms: N36_16  and  C38_17 
REMARK   13  A    between atoms: C38_17  and  N41_18 
REMARK       I    between atoms: N41_18  and  C43_19 
REMARK   14  A    between atoms: C43_19  and  C45_21 
REMARK   15  A    between atoms: C50_24  and  C52_26 
REMARK   16  A    between atoms: C57_29  and  C58_30 
REMARK       I    between atoms: C58_30  and  N60_32 
REMARK   17  A    between atoms: N60_32  and  C62_33 
REMARK   18  A    between atoms: C62_33  and  C64_34 
REMARK   19  A    between atoms: C62_33  and  C71_38 
REMARK   20  A    between atoms: C64_34  and  C67_35 
REMARK   21  A    between atoms: C75_41  and  O76_42 
REMARK   22  A    between atoms: O76_42  and  C77_43 
REMARK   23  A    between atoms: C77_43  and  C80_44 
ROOT
ATOM      1  N41 EVV d   1      12.532  13.932  -6.498  0.00  0.00    -0.339 N 
ATOM      2  C43 EVV d   1      12.274  12.744  -7.052  0.00  0.00     0.276 C 
ATOM      3  O44 EVV d   1      12.098  11.717  -6.394  0.00  0.00    -0.265 OA
ATOM      4  H24 EVV d   1      12.678  14.723  -7.092  0.00  0.00     0.164 HD
ENDROOT
BRANCH   1   5
ATOM      5  C38 EVV d   1      12.606  14.109  -5.065  0.00  0.00     0.057 C 
ATOM      6  H22 EVV d   1      13.288  13.353  -4.649  0.00  0.00     0.096 H 
ATOM      7  H23 EVV d   1      12.999  15.114  -4.852  0.00  0.00     0.096 H 
BRANCH   5   8
ATOM      8  N36 EVV d   1      11.315  13.970  -4.432  0.00  0.00    -0.345 N 
ATOM      9  C34 EVV d   1      10.330  14.830  -4.705  0.00  0.00     0.225 C 
ATOM     10  O35 EVV d   1      10.471  15.775  -5.478  0.00  0.00    -0.273 OA
ATOM     11  H21 EVV d   1      11.158  13.224  -3.784  0.00  0.00     0.164 HD
BRANCH   9  12
ATOM     12  C17 EVV d   1       8.985  14.561  -4.018  0.00  0.00     0.045 C 
ATOM     13  H1  EVV d   1       9.129  13.764  -3.273  0.00  0.00     0.058 H 
BRANCH  12  14
ATOM     14  C14 EVV d   1       7.976  14.035  -5.053  0.00  0.00    -0.052 C 
ATOM     15  H16 EVV d   1       7.785  14.835  -5.783  0.00  0.00     0.034 H 
ATOM     16  H17 EVV d   1       7.042  13.789  -4.526  0.00  0.00     0.034 H 
BRANCH  14  17
ATOM     17  C11 EVV d   1       8.431  12.797  -5.815  0.00  0.00    -0.064 C 
ATOM     18  H14 EVV d   1       9.202  13.099  -6.539  0.00  0.00     0.033 H 
ATOM     19  H15 EVV d   1       8.863  12.086  -5.095  0.00  0.00     0.033 H 
BRANCH  17  20
ATOM     20  C08 EVV d   1       7.316  12.099  -6.567  0.00  0.00    -0.065 C 
ATOM     21  H12 EVV d   1       6.633  11.644  -5.835  0.00  0.00     0.033 H 
ATOM     22  H13 EVV d   1       6.772  12.849  -7.159  0.00  0.00     0.033 H 
BRANCH  20  23
ATOM     23  C05 EVV d   1       7.809  11.016  -7.501  0.00  0.00    -0.069 C 
ATOM     24  H10 EVV d   1       8.660  11.410  -8.076  0.00  0.00     0.032 H 
ATOM     25  H11 EVV d   1       8.140  10.158  -6.898  0.00  0.00     0.032 H 
BRANCH  23  26
ATOM     26  C01 EVV d   1       6.751  10.543  -8.470  0.00  0.00    -0.077 C 
ATOM     27  H7  EVV d   1       7.171   9.759  -9.118  0.00  0.00     0.027 H 
ATOM     28  H8  EVV d   1       6.415  11.389  -9.088  0.00  0.00     0.027 H 
ATOM     29  H9  EVV d   1       5.896  10.136  -7.910  0.00  0.00     0.027 H 
ENDBRANCH  23  26
ENDBRANCH  20  23
ENDBRANCH  17  20
ENDBRANCH  14  17
ENDBRANCH  12  14
BRANCH  12  30
ATOM     30  C19 EVV d   1       8.550  15.824  -3.254  0.00  0.00     0.052 C 
ATOM     31  H18 EVV d   1       8.430  16.646  -3.975  0.00  0.00     0.077 H 
BRANCH  30  32
ATOM     32  C21 EVV d   1       7.239  15.661  -2.485  0.00  0.00    -0.046 C 
ATOM     33  H2  EVV d   1       6.457  15.345  -3.191  0.00  0.00     0.035 H 
ATOM     34  H3  EVV d   1       7.378  14.883  -1.720  0.00  0.00     0.035 H 
BRANCH  32  35
ATOM     35  C24 EVV d   1       6.784  16.930  -1.802  0.00  0.00    -0.075 C 
ATOM     36  H4  EVV d   1       5.840  16.742  -1.270  0.00  0.00     0.027 H 
ATOM     37  H5  EVV d   1       6.630  17.717  -2.555  0.00  0.00     0.027 H 
ATOM     38  H6  EVV d   1       7.551  17.255  -1.083  0.00  0.00     0.027 H 
ENDBRANCH  32  35
ENDBRANCH  30  32
BRANCH  30  39
ATOM     39  N28 EVV d   1       9.624  16.159  -2.293  0.00  0.00    -0.230 N 
ATOM     40  C31 EVV d   1      10.267  17.311  -2.346  0.00  0.00     0.193 C 
ATOM     41  O33 EVV d   1      11.147  17.531  -1.546  0.00  0.00    -0.281 OA
ATOM     42  H20 EVV d   1      10.008  18.053  -3.100  0.00  0.00     0.183 H 
BRANCH  39  43
ATOM     43  O29 EVV d   1       9.992  15.267  -1.333  0.00  0.00    -0.285 OA
ATOM     44  H19 EVV d   1       9.245  15.073  -0.779  0.00  0.00     0.245 HD
ENDBRANCH  39  43
ENDBRANCH  30  39
ENDBRANCH  12  30
ENDBRANCH   9  12
ENDBRANCH   5   8
ENDBRANCH   1   5
BRANCH   2  45
ATOM     45  C45 EVV d   1      12.181  12.717  -8.518  0.00  0.00     0.143 A 
ATOM     46  C46 EVV d   1      11.997  11.723  -9.416  0.00  0.00    -0.042 A 
ATOM     47  C48 EVV d   1      11.960  12.323 -10.697  0.00  0.00    -0.047 A 
ATOM     48  H25 EVV d   1      11.896  10.661  -9.195  0.00  0.00     0.088 H 
ATOM     49  C50 EVV d   1      12.118  13.659 -10.519  0.00  0.00     0.086 A 
ATOM     50  H26 EVV d   1      11.829  11.809 -11.648  0.00  0.00     0.087 H 
ATOM     51  O51 EVV d   1      12.237  13.928  -9.169  0.00  0.00    -0.304 OA
BRANCH  49  52
ATOM     52  C52 EVV d   1      12.138  14.810 -11.432  0.00  0.00     0.000 A 
ATOM     53  C53 EVV d   1      12.099  16.110 -10.935  0.00  0.00    -0.069 A 
ATOM     54  C55 EVV d   1      12.091  17.199 -11.788  0.00  0.00    -0.064 A 
ATOM     55  H27 EVV d   1      12.075  16.271  -9.863  0.00  0.00     0.085 H 
ATOM     56  C57 EVV d   1      12.135  17.050 -13.175  0.00  0.00     0.065 A 
ATOM     57  H28 EVV d   1      12.049  18.197 -11.367  0.00  0.00     0.085 H 
ATOM     58  C75 EVV d   1      12.160  15.742 -13.697  0.00  0.00     0.085 A 
ATOM     59  C84 EVV d   1      12.159  14.610 -12.809  0.00  0.00    -0.037 A 
ATOM     60  H38 EVV d   1      12.175  13.604 -13.212  0.00  0.00     0.089 H 
BRANCH  56  61
ATOM     61  C58 EVV d   1      12.087  18.333 -13.948  0.00  0.00     0.255 C 
ATOM     62  O59 EVV d   1      12.851  19.256 -13.674  0.00  0.00    -0.268 OA
ATOM     63  N60 EVV d   1      11.119  18.452 -14.874  0.00  0.00    -0.342 N 
ATOM     64  H29 EVV d   1      10.527  17.668 -15.062  0.00  0.00     0.163 HD
BRANCH  63  65
ATOM     65  C62 EVV d   1      10.908  19.690 -15.611  0.00  0.00     0.105 C 
ATOM     66  H30 EVV d   1      11.884  20.149 -15.829  0.00  0.00     0.090 H 
BRANCH  65  67
ATOM     67  C64 EVV d   1      10.160  19.471 -16.933  0.00  0.00     0.044 C 
ATOM     68  H31 EVV d   1       9.973  20.455 -17.387  0.00  0.00     0.053 H 
ATOM     69  H32 EVV d   1       9.200  18.984 -16.706  0.00  0.00     0.053 H 
BRANCH  67  70
ATOM     70  C67 EVV d   1      10.889  18.621 -17.941  0.00  0.00     0.175 C 
ATOM     71  O68 EVV d   1      10.402  17.628 -18.440  0.00  0.00    -0.648 OA
ATOM     72  O70 EVV d   1      12.076  19.071 -18.247  0.00  0.00    -0.648 OA
ENDBRANCH  67  70
ENDBRANCH  65  67
BRANCH  65  73
ATOM     73  C71 EVV d   1      10.083  20.624 -14.720  0.00  0.00     0.197 C 
ATOM     74  O72 EVV d   1      10.054  21.860 -15.136  0.00  0.00    -0.646 OA
ATOM     75  O74 EVV d   1       9.502  20.225 -13.720  0.00  0.00    -0.646 OA
ENDBRANCH  65  73
ENDBRANCH  63  65
ENDBRANCH  56  61
BRANCH  58  76
ATOM     76  O76 EVV d   1      12.192  15.644 -15.067  0.00  0.00    -0.350 OA
BRANCH  76  77
ATOM     77  C77 EVV d   1      12.331  14.364 -15.706  0.00  0.00     0.023 C 
ATOM     78  H33 EVV d   1      12.040  14.445 -16.764  0.00  0.00     0.074 H 
ATOM     79  H34 EVV d   1      11.686  13.628 -15.203  0.00  0.00     0.074 H 
BRANCH  77  80
ATOM     80  C80 EVV d   1      13.743  13.935 -15.611  0.00  0.00    -0.056 C 
ATOM     81  H35 EVV d   1      13.862  12.956 -16.097  0.00  0.00     0.030 H 
ATOM     82  H36 EVV d   1      14.032  13.857 -14.553  0.00  0.00     0.030 H 
ATOM     83  H37 EVV d   1      14.385  14.674 -16.113  0.00  0.00     0.030 H 
ENDBRANCH  77  80
ENDBRANCH  76  77
ENDBRANCH  58  76
ENDBRANCH  49  52
ENDBRANCH   2  45
TORSDOF 23
