REMARK  4 active torsions:
REMARK  status: ('A' for Active; 'I' for Inactive)
REMARK    1  A    between atoms: C02_3  and  C01_2 
REMARK    2  A    between atoms: C06_7  and  C07_8 
REMARK    3  A    between atoms: C07_8  and  O08_9 
REMARK    4  A    between atoms: C12_12  and  C13_13 
ROOT
ATOM      1  C10 E7S d   1     -16.898  -6.394 -49.022  0.00  0.00     0.086 A 
ATOM      2  C02 E7S d   1     -17.997  -7.326 -51.309  0.00  0.00    -0.054 A 
ATOM      3  C03 E7S d   1     -17.964  -5.963 -51.144  0.00  0.00    -0.049 A 
ATOM      4  C04 E7S d   1     -17.402  -5.493 -49.961  0.00  0.00     0.063 A 
ATOM      5  N05 E7S d   1     -17.200  -4.172 -49.520  0.00  0.00    -0.341 N 
ATOM      6  C06 E7S d   1     -16.623  -4.286 -48.319  0.00  0.00     0.128 A 
ATOM      7  N09 E7S d   1     -16.414  -5.633 -47.973  0.00  0.00    -0.231 NA
ATOM      8  C11 E7S d   1     -16.933  -7.772 -49.190  0.00  0.00    -0.047 A 
ATOM      9  C12 E7S d   1     -17.497  -8.219 -50.329  0.00  0.00    -0.054 A 
ATOM     10  H4  E7S d   1     -18.356  -5.288 -51.897  0.00  0.00     0.087 H 
ATOM     11  H5  E7S d   1     -17.444  -3.303 -50.016  0.00  0.00     0.167 HD
ATOM     12  H9  E7S d   1     -16.529  -8.450 -48.447  0.00  0.00     0.088 H 
ENDROOT
BRANCH   6  13
ATOM     13  C07 E7S d   1     -16.206  -3.209 -47.344  0.00  0.00     0.071 C 
ATOM     14  H6  E7S d   1     -16.458  -2.216 -47.745  0.00  0.00     0.086 H 
ATOM     15  H7  E7S d   1     -15.123  -3.265 -47.157  0.00  0.00     0.086 H 
BRANCH  13  16
ATOM     16  O08 E7S d   1     -16.946  -3.457 -46.107  0.00  0.00    -0.393 OA
ATOM     17  H8  E7S d   1     -16.726  -4.319 -45.775  0.00  0.00     0.209 HD
ENDBRANCH  13  16
ENDBRANCH   6  13
BRANCH   2  18
ATOM     18  C01 E7S d   1     -18.683  -7.901 -52.734  0.00  0.00    -0.051 C 
ATOM     19  H1  E7S d   1     -19.006  -7.052 -53.354  0.00  0.00     0.033 H 
ATOM     20  H2  E7S d   1     -19.552  -8.531 -52.494  0.00  0.00     0.033 H 
ATOM     21  H3  E7S d   1     -17.940  -8.496 -53.285  0.00  0.00     0.033 H 
ENDBRANCH   2  18
BRANCH   9  22
ATOM     22  C13 E7S d   1     -17.515  -9.924 -50.516  0.00  0.00    -0.051 C 
ATOM     23  H10 E7S d   1     -17.994 -10.183 -51.472  0.00  0.00     0.033 H 
ATOM     24  H11 E7S d   1     -18.080 -10.378 -49.688  0.00  0.00     0.033 H 
ATOM     25  H12 E7S d   1     -16.483 -10.305 -50.508  0.00  0.00     0.033 H 
ENDBRANCH   9  22
TORSDOF 4
