REMARK  8 active torsions:
REMARK  status: ('A' for Active; 'I' for Inactive)
REMARK    1  A    between atoms: S15_18  and  C5_3 
REMARK    2  A    between atoms: C8_6  and  C11_8 
REMARK    3  A    between atoms: C16_17  and  S15_18 
REMARK    4  A    between atoms: N9_22  and  C14_23 
REMARK    5  A    between atoms: C14_23  and  C24_24 
REMARK    6  A    between atoms: C27_29  and  C30_30 
REMARK       I    between atoms: C30_30  and  N32_32 
REMARK    7  A    between atoms: N32_32  and  C33_33 
REMARK    8  A    between atoms: N32_32  and  C34_34 
ROOT
ATOM      1  C2  E7V d   1      18.577   3.212 -24.353  0.00  0.00     0.011 A 
ATOM      2  C4  E7V d   1      16.480   3.567 -23.252  0.00  0.00    -0.040 A 
ATOM      3  C5  E7V d   1      16.009   2.306 -23.647  0.00  0.00     0.009 A 
ATOM      4  C7  E7V d   1      19.788   3.923 -24.549  0.00  0.00    -0.037 A 
ATOM      5  C6  E7V d   1      16.849   1.491 -24.419  0.00  0.00    -0.049 A 
ATOM      6  C8  E7V d   1      19.676   5.147 -23.911  0.00  0.00     0.113 A 
ATOM      7  C1  E7V d   1      18.134   1.944 -24.769  0.00  0.00     0.024 A 
ATOM      8  C3  E7V d   1      17.754   4.028 -23.595  0.00  0.00     0.048 A 
ATOM      9 BR1  E7V d   1      19.290   0.863 -25.810  0.00  0.00    -0.050 Br
ATOM     10  N9  E7V d   1      18.429   5.188 -23.327  0.00  0.00    -0.336 N 
ATOM     11  H1  E7V d   1      15.834   4.206 -22.661  0.00  0.00     0.089 H 
ATOM     12  H2  E7V d   1      20.655   3.568 -25.104  0.00  0.00     0.088 H 
ATOM     13  H3  E7V d   1      16.509   0.515 -24.745  0.00  0.00     0.087 H 
ENDROOT
BRANCH  10  14
ATOM     14  C14 E7V d   1      17.794   6.270 -22.537  0.00  0.00     0.024 C 
ATOM     15  H7  E7V d   1      17.096   5.797 -21.830  0.00  0.00     0.072 H 
ATOM     16  H8  E7V d   1      17.232   6.904 -23.238  0.00  0.00     0.072 H 
BRANCH  14  17
ATOM     17  C24 E7V d   1      18.706   7.176 -21.737  0.00  0.00    -0.040 A 
ATOM     18  C25 E7V d   1      19.520   6.646 -20.733  0.00  0.00    -0.074 A 
ATOM     19  C26 E7V d   1      20.351   7.490 -19.995  0.00  0.00    -0.067 A 
ATOM     20  H9  E7V d   1      19.506   5.582 -20.528  0.00  0.00     0.084 H 
ATOM     21  C27 E7V d   1      20.377   8.858 -20.240  0.00  0.00     0.032 A 
ATOM     22  H10 E7V d   1      20.985   7.073 -19.220  0.00  0.00     0.085 H 
ATOM     23  C28 E7V d   1      19.550   9.389 -21.238  0.00  0.00    -0.067 A 
ATOM     24  C29 E7V d   1      18.717   8.553 -21.983  0.00  0.00    -0.074 A 
ATOM     25  H12 E7V d   1      19.557  10.455 -21.433  0.00  0.00     0.085 H 
ATOM     26  H11 E7V d   1      18.078   8.971 -22.753  0.00  0.00     0.084 H 
BRANCH  21  27
ATOM     27  C30 E7V d   1      21.307   9.690 -19.394  0.00  0.00     0.253 C 
ATOM     28  O31 E7V d   1      20.865  10.100 -18.332  0.00  0.00    -0.267 OA
ATOM     29  N32 E7V d   1      22.578   9.921 -19.783  0.00  0.00    -0.357 N 
BRANCH  29  30
ATOM     30  C33 E7V d   1      23.271  11.206 -19.635  0.00  0.00    -0.016 C 
ATOM     31  H13 E7V d   1      24.293  11.119 -20.032  0.00  0.00     0.056 H 
ATOM     32  H14 E7V d   1      23.314  11.479 -18.570  0.00  0.00     0.056 H 
ATOM     33  H15 E7V d   1      22.726  11.983 -20.191  0.00  0.00     0.056 H 
ENDBRANCH  29  30
BRANCH  29  34
ATOM     34  C34 E7V d   1      23.409   8.881 -20.393  0.00  0.00    -0.016 C 
ATOM     35  H16 E7V d   1      22.830   7.949 -20.473  0.00  0.00     0.056 H 
ATOM     36  H17 E7V d   1      24.297   8.708 -19.768  0.00  0.00     0.056 H 
ATOM     37  H18 E7V d   1      23.724   9.205 -21.396  0.00  0.00     0.056 H 
ENDBRANCH  29  34
ENDBRANCH  21  27
ENDBRANCH  14  17
ENDBRANCH  10  14
BRANCH   6  38
ATOM     38  C11 E7V d   1      20.792   6.150 -23.932  0.00  0.00     0.227 C 
ATOM     39  O12 E7V d   1      21.677   6.096 -23.050  0.00  0.00    -0.643 OA
ATOM     40  O13 E7V d   1      20.833   7.001 -24.855  0.00  0.00    -0.643 OA
ENDBRANCH   6  38
BRANCH   3  41
ATOM     41  S15 E7V d   1      14.443   1.782 -23.211  0.00  0.00    -0.090 SA
BRANCH  41  42
ATOM     42  C16 E7V d   1      13.943   2.320 -21.673  0.00  0.00     0.007 A 
ATOM     43  C21 E7V d   1      13.741   3.680 -21.397  0.00  0.00    -0.044 A 
ATOM     44  C20 E7V d   1      13.339   4.120 -20.130  0.00  0.00     0.057 A 
ATOM     45  H4  E7V d   1      13.900   4.409 -22.184  0.00  0.00     0.088 H 
ATOM     46  C19 E7V d   1      13.111   3.177 -19.126  0.00  0.00     0.055 A 
ATOM     47 CL2  E7V d   1      13.113   5.889 -19.841  0.00  0.00    -0.083 Cl
ATOM     48 CL1  E7V d   1      12.582   3.679 -17.476  0.00  0.00    -0.083 Cl
ATOM     49  C18 E7V d   1      13.289   1.816 -19.403  0.00  0.00    -0.059 A 
ATOM     50  C17 E7V d   1      13.712   1.387 -20.664  0.00  0.00    -0.065 A 
ATOM     51  H5  E7V d   1      13.096   1.084 -18.627  0.00  0.00     0.086 H 
ATOM     52  H6  E7V d   1      13.860   0.331 -20.857  0.00  0.00     0.085 H 
ENDBRANCH  41  42
ENDBRANCH   3  41
TORSDOF 8
