REMARK  4 active torsions:
REMARK  status: ('A' for Active; 'I' for Inactive)
REMARK    1  A    between atoms: C3_24  and  C6_2 
REMARK    2  A    between atoms: C8_4  and  N12_21 
REMARK    3  A    between atoms: C13_6  and  C15_19 
REMARK       I    between atoms: N12_21  and  C13_6 
REMARK    4  A    between atoms: C19_14  and  C24_10 
ROOT
ATOM      1  C13 3GK d   1       8.793   0.839 -12.483  0.00  0.00     0.258 C 
ATOM      2  O14 3GK d   1       9.204   0.806 -13.637  0.00  0.00    -0.267 OA
ATOM      3  N12 3GK d   1       7.708   0.151 -12.051  0.00  0.00    -0.323 N 
ATOM      4  H7  3GK d   1       7.491   0.226 -11.078  0.00  0.00     0.169 HD
ENDROOT
BRANCH   1   5
ATOM      5  C15 3GK d   1       9.462   1.685 -11.404  0.00  0.00     0.062 A 
ATOM      6  C16 3GK d   1       9.090   1.662 -10.046  0.00  0.00     0.078 A 
ATOM      7  C17 3GK d   1       9.774   2.513  -9.157  0.00  0.00     0.086 A 
ATOM      8  N21 3GK d   1       8.181   0.958  -9.368  0.00  0.00    -0.348 N 
ATOM      9  C18 3GK d   1      10.792   3.379  -9.609  0.00  0.00    -0.038 A 
ATOM     10  N23 3GK d   1       9.220   2.270  -7.927  0.00  0.00    -0.242 NA
ATOM     11  C19 3GK d   1      11.117   3.378 -10.956  0.00  0.00     0.051 A 
ATOM     12  H3  3GK d   1      11.310   4.032  -8.916  0.00  0.00     0.088 H 
ATOM     13  C20 3GK d   1      10.451   2.538 -11.852  0.00  0.00    -0.051 A 
ATOM     14  H6  3GK d   1      10.712   2.556 -12.904  0.00  0.00     0.086 H 
ATOM     15  C22 3GK d   1       8.264   1.329  -8.077  0.00  0.00     0.065 A 
ATOM     16  H4  3GK d   1       7.650   0.929  -7.272  0.00  0.00     0.143 H 
ATOM     17  H5  3GK d   1       7.535   0.259  -9.761  0.00  0.00     0.167 HD
BRANCH  11  18
ATOM     18  C24 3GK d   1      12.168   4.312 -11.458  0.00  0.00     0.417 C 
ATOM     19  F27 3GK d   1      11.606   5.414 -11.935  0.00  0.00    -0.166 F 
ATOM     20  F25 3GK d   1      13.039   4.679 -10.482  0.00  0.00    -0.166 F 
ATOM     21  F26 3GK d   1      12.899   3.817 -12.484  0.00  0.00    -0.166 F 
ENDBRANCH  11  18
ENDBRANCH   1   5
BRANCH   3  22
ATOM     22  C8  3GK d   1       6.851  -0.659 -12.826  0.00  0.00     0.035 A 
ATOM     23  C7  3GK d   1       5.518  -0.730 -12.465  0.00  0.00    -0.043 A 
ATOM     24  C6  3GK d   1       4.612  -1.487 -13.203  0.00  0.00     0.015 A 
ATOM     25  H1  3GK d   1       5.173  -0.187 -11.593  0.00  0.00     0.088 H 
ATOM     26  C11 3GK d   1       5.064  -2.161 -14.332  0.00  0.00    -0.069 A 
ATOM     27  C10 3GK d   1       6.397  -2.088 -14.699  0.00  0.00    -0.080 A 
ATOM     28  H9  3GK d   1       4.371  -2.745 -14.927  0.00  0.00     0.085 H 
ATOM     29  C9  3GK d   1       7.291  -1.345 -13.954  0.00  0.00    -0.057 A 
ATOM     30  H8  3GK d   1       6.742  -2.619 -15.579  0.00  0.00     0.083 H 
ATOM     31  H2  3GK d   1       8.334  -1.296 -14.247  0.00  0.00     0.086 H 
BRANCH  24  32
ATOM     32  C3  3GK d   1       3.187  -1.556 -12.817  0.00  0.00     0.179 A 
ATOM     33  N2  3GK d   1       2.739  -1.387 -11.580  0.00  0.00    -0.239 N 
ATOM     34  N1  3GK d   1       1.395  -1.516 -11.678  0.00  0.00    -0.046 NA
ATOM     35  H10 3GK d   1       3.292  -1.199 -10.732  0.00  0.00     0.192 HD
ATOM     36  N5  3GK d   1       1.076  -1.750 -12.930  0.00  0.00    -0.023 NA
ATOM     37  N4  3GK d   1       2.189  -1.776 -13.666  0.00  0.00    -0.108 NA
ENDBRANCH  24  32
ENDBRANCH   3  22
TORSDOF 4
