REMARK  13 active torsions:
REMARK  status: ('A' for Active; 'I' for Inactive)
REMARK    1  A    between atoms: C17_1  and  C28_3 
REMARK    2  A    between atoms: C14_8  and  C17_1 
REMARK    3  A    between atoms: C17_1  and  C19_9 
REMARK    4  A    between atoms: C19_9  and  C22_2 
REMARK       I    between atoms: C22_2  and  N24_11 
REMARK       I    between atoms: C28_3  and  N30_14 
REMARK    5  A    between atoms: C05_5  and  C01_4 
REMARK    6  A    between atoms: C08_6  and  C05_5 
REMARK    7  A    between atoms: C11_7  and  C08_6 
REMARK    8  A    between atoms: C11_7  and  C14_8 
REMARK    9  A    between atoms: N24_11  and  O26_12 
REMARK   10  A    between atoms: C44_20  and  C46_21 
REMARK       I    between atoms: C46_21  and  N48_23 
REMARK   11  A    between atoms: N48_23  and  C50_24 
REMARK   12  A    between atoms: C50_24  and  C52_25 
REMARK   13  A    between atoms: C50_24  and  C56_28 
ROOT
ATOM      1  C28 E8P d   1       9.971  13.678  -5.719  0.00  0.00     0.225 C 
ATOM      2  O29 E8P d   1       9.941  14.599  -6.517  0.00  0.00    -0.273 OA
ATOM      3  N30 E8P d   1      10.999  12.790  -5.719  0.00  0.00    -0.333 N 
ATOM      4  C31 E8P d   1      11.263  11.654  -4.805  0.00  0.00     0.016 C 
ATOM      5  C33 E8P d   1      12.201  12.150  -3.710  0.00  0.00    -0.045 C 
ATOM      6  C36 E8P d   1      13.486  12.449  -4.495  0.00  0.00    -0.058 C 
ATOM      7  C39 E8P d   1      13.155  11.952  -5.913  0.00  0.00    -0.024 C 
ATOM      8  C41 E8P d   1      12.215  10.778  -5.618  0.00  0.00    -0.040 C 
ATOM      9  C44 E8P d   1      12.181  12.944  -6.577  0.00  0.00     0.095 C 
ATOM     10  H17 E8P d   1      10.355  11.154  -4.437  0.00  0.00     0.072 H 
ATOM     11  H18 E8P d   1      12.370  11.375  -2.948  0.00  0.00     0.036 H 
ATOM     12  H19 E8P d   1      11.807  13.057  -3.228  0.00  0.00     0.036 H 
ATOM     13  H20 E8P d   1      14.342  11.901  -4.074  0.00  0.00     0.033 H 
ATOM     14  H21 E8P d   1      13.706  13.527  -4.496  0.00  0.00     0.033 H 
ATOM     15  H22 E8P d   1      14.040  11.714  -6.522  0.00  0.00     0.043 H 
ATOM     16  H23 E8P d   1      11.754  10.348  -6.519  0.00  0.00     0.036 H 
ATOM     17  H24 E8P d   1      12.685   9.977  -5.029  0.00  0.00     0.036 H 
ATOM     18  H25 E8P d   1      12.559  13.977  -6.559  0.00  0.00     0.088 H 
ENDROOT
BRANCH   1  19
ATOM     19  C17 E8P d   1       8.832  13.491  -4.732  0.00  0.00     0.032 C 
ATOM     20  H1  E8P d   1       9.158  12.809  -3.933  0.00  0.00     0.055 H 
BRANCH  19  21
ATOM     21  C14 E8P d   1       7.631  12.827  -5.479  0.00  0.00    -0.053 C 
ATOM     22  H11 E8P d   1       7.619  11.770  -5.175  0.00  0.00     0.034 H 
ATOM     23  H12 E8P d   1       7.853  12.897  -6.554  0.00  0.00     0.034 H 
BRANCH  21  24
ATOM     24  C11 E8P d   1       6.202  13.350  -5.294  0.00  0.00    -0.064 C 
ATOM     25  H9  E8P d   1       6.227  14.165  -4.556  0.00  0.00     0.033 H 
ATOM     26  H10 E8P d   1       5.851  13.741  -6.260  0.00  0.00     0.033 H 
BRANCH  24  27
ATOM     27  C08 E8P d   1       5.202  12.301  -4.813  0.00  0.00    -0.065 C 
ATOM     28  H7  E8P d   1       5.437  11.345  -5.304  0.00  0.00     0.033 H 
ATOM     29  H8  E8P d   1       5.310  12.191  -3.724  0.00  0.00     0.033 H 
BRANCH  27  30
ATOM     30  C05 E8P d   1       3.752  12.657  -5.120  0.00  0.00    -0.069 C 
ATOM     31  H5  E8P d   1       3.678  13.748  -5.238  0.00  0.00     0.032 H 
ATOM     32  H6  E8P d   1       3.464  12.166  -6.061  0.00  0.00     0.032 H 
BRANCH  30  33
ATOM     33  C01 E8P d   1       2.789  12.226  -4.041  0.00  0.00    -0.077 C 
ATOM     34  H2  E8P d   1       1.766  12.513  -4.327  0.00  0.00     0.027 H 
ATOM     35  H3  E8P d   1       3.057  12.716  -3.094  0.00  0.00     0.027 H 
ATOM     36  H4  E8P d   1       2.842  11.134  -3.917  0.00  0.00     0.027 H 
ENDBRANCH  30  33
ENDBRANCH  27  30
ENDBRANCH  24  27
ENDBRANCH  21  24
ENDBRANCH  19  21
BRANCH  19  37
ATOM     37  C19 E8P d   1       8.486  14.845  -4.088  0.00  0.00     0.022 C 
ATOM     38  H13 E8P d   1       7.522  14.753  -3.565  0.00  0.00     0.048 H 
ATOM     39  H14 E8P d   1       8.402  15.603  -4.880  0.00  0.00     0.048 H 
BRANCH  37  40
ATOM     40  C22 E8P d   1       9.540  15.292  -3.094  0.00  0.00     0.241 C 
ATOM     41  O23 E8P d   1      10.216  14.501  -2.450  0.00  0.00    -0.271 OA
ATOM     42  N24 E8P d   1       9.635  16.600  -2.974  0.00  0.00    -0.237 N 
ATOM     43  H15 E8P d   1       9.052  17.208  -3.513  0.00  0.00     0.197 HD
BRANCH  42  44
ATOM     44  O26 E8P d   1      10.566  17.115  -2.079  0.00  0.00    -0.287 OA
ATOM     45  H16 E8P d   1      10.527  18.064  -2.094  0.00  0.00     0.244 HD
ENDBRANCH  42  44
ENDBRANCH  37  40
ENDBRANCH  19  37
ENDBRANCH   1  19
BRANCH   9  46
ATOM     46  C46 E8P d   1      11.938  12.502  -8.030  0.00  0.00     0.242 C 
ATOM     47  O47 E8P d   1      10.864  12.034  -8.401  0.00  0.00    -0.271 OA
ATOM     48  N48 E8P d   1      13.015  12.622  -8.820  0.00  0.00    -0.341 N 
ATOM     49  H26 E8P d   1      13.835  13.031  -8.420  0.00  0.00     0.163 HD
BRANCH  48  50
ATOM     50  C50 E8P d   1      13.088  12.204 -10.215  0.00  0.00     0.122 C 
ATOM     51  H27 E8P d   1      12.516  11.269 -10.306  0.00  0.00     0.097 H 
BRANCH  50  52
ATOM     52  C52 E8P d   1      14.541  11.918 -10.592  0.00  0.00     0.201 C 
ATOM     53  O53 E8P d   1      14.848  11.016 -11.344  0.00  0.00    -0.646 OA
ATOM     54  O55 E8P d   1      15.404  12.723 -10.025  0.00  0.00    -0.646 OA
ENDBRANCH  50  52
BRANCH  50  55
ATOM     55  C56 E8P d   1      12.490  13.206 -11.216  0.00  0.00    -0.025 A 
ATOM     56  C57 E8P d   1      12.329  12.844 -12.549  0.00  0.00    -0.074 A 
ATOM     57  C59 E8P d   1      11.806  13.739 -13.470  0.00  0.00    -0.082 A 
ATOM     58  H28 E8P d   1      12.616  11.850 -12.872  0.00  0.00     0.084 H 
ATOM     59  C61 E8P d   1      11.447  15.012 -13.077  0.00  0.00    -0.083 A 
ATOM     60  H29 E8P d   1      11.679  13.437 -14.503  0.00  0.00     0.083 H 
ATOM     61  C63 E8P d   1      11.607  15.388 -11.760  0.00  0.00    -0.082 A 
ATOM     62  H30 E8P d   1      11.042  15.712 -13.799  0.00  0.00     0.083 H 
ATOM     63  C65 E8P d   1      12.129  14.493 -10.834  0.00  0.00    -0.074 A 
ATOM     64  H31 E8P d   1      11.324  16.386 -11.446  0.00  0.00     0.083 H 
ATOM     65  H32 E8P d   1      12.256  14.802  -9.803  0.00  0.00     0.084 H 
ENDBRANCH  50  55
ENDBRANCH  48  50
ENDBRANCH   9  46
TORSDOF 13
