REMARK  12 active torsions:
REMARK  status: ('A' for Active; 'I' for Inactive)
REMARK    1  A    between atoms: C1_1  and  O11_7 
REMARK    2  A    between atoms: C2_2  and  O12_12 
REMARK    3  A    between atoms: C3_3  and  O13_17 
REMARK    4  A    between atoms: C4_4  and  O14_22 
REMARK    5  A    between atoms: C5_5  and  O15_27 
REMARK    6  A    between atoms: C6_6  and  O16_32 
REMARK    7  A    between atoms: O11_7  and  P1_8 
REMARK    8  A    between atoms: O12_12  and  P2_13 
REMARK    9  A    between atoms: O13_17  and  P3_18 
REMARK   10  A    between atoms: O14_22  and  P4_23 
REMARK   11  A    between atoms: O15_27  and  P5_28 
REMARK   12  A    between atoms: O16_32  and  P6_33 
ROOT
ATOM      1  C1  IHP d   1     -22.973   3.514  -9.020  0.00  0.00     0.107 C 
ATOM      2  C2  IHP d   1     -23.964   4.563  -8.533  0.00  0.00     0.107 C 
ATOM      3  C3  IHP d   1     -24.825   5.227  -9.605  0.00  0.00     0.107 C 
ATOM      4  C4  IHP d   1     -25.166   4.386 -10.866  0.00  0.00     0.107 C 
ATOM      5  C5  IHP d   1     -24.441   3.016 -10.984  0.00  0.00     0.107 C 
ATOM      6  C6  IHP d   1     -23.778   2.450  -9.744  0.00  0.00     0.107 C 
ATOM      7  H1  IHP d   1     -22.387   3.096  -8.188  0.00  0.00     0.092 H 
ATOM      8  H2  IHP d   1     -24.606   4.124  -7.755  0.00  0.00     0.092 H 
ATOM      9  H3  IHP d   1     -24.249   6.093  -9.962  0.00  0.00     0.092 H 
ATOM     10  H4  IHP d   1     -24.686   4.946 -11.682  0.00  0.00     0.092 H 
ATOM     11  H5  IHP d   1     -23.597   3.251 -11.650  0.00  0.00     0.092 H 
ATOM     12  H6  IHP d   1     -24.480   1.933  -9.073  0.00  0.00     0.092 H 
ENDROOT
BRANCH   1  13
ATOM     13  O11 IHP d   1     -22.149   4.094  -9.996  0.00  0.00    -0.272 OA
BRANCH  13  14
ATOM     14  P1  IHP d   1     -20.522   4.363  -9.858  0.00  0.00     0.422 P 
ATOM     15  O21 IHP d   1     -20.345   5.861 -10.066  0.00  0.00    -0.617 OA
ATOM     16  O31 IHP d   1     -19.763   3.673 -10.963  0.00  0.00    -0.617 OA
ATOM     17  O41 IHP d   1     -20.006   3.783  -8.562  0.00  0.00    -0.617 OA
ENDBRANCH  13  14
ENDBRANCH   1  13
BRANCH   2  18
ATOM     18  O12 IHP d   1     -23.208   5.613  -8.050  0.00  0.00    -0.272 OA
BRANCH  18  19
ATOM     19  P2  IHP d   1     -23.284   5.928  -6.446  0.00  0.00     0.422 P 
ATOM     20  O22 IHP d   1     -22.854   4.682  -5.698  0.00  0.00    -0.617 OA
ATOM     21  O32 IHP d   1     -22.332   7.071  -6.185  0.00  0.00    -0.617 OA
ATOM     22  O42 IHP d   1     -24.704   6.314  -6.087  0.00  0.00    -0.617 OA
ENDBRANCH  18  19
ENDBRANCH   2  18
BRANCH   6  23
ATOM     23  O16 IHP d   1     -22.843   1.625 -10.343  0.00  0.00    -0.272 OA
BRANCH  23  24
ATOM     24  P6  IHP d   1     -22.575   0.181  -9.638  0.00  0.00     0.422 P 
ATOM     25  O26 IHP d   1     -23.517   0.085  -8.455  0.00  0.00    -0.617 OA
ATOM     26  O36 IHP d   1     -22.862  -0.949 -10.617  0.00  0.00    -0.617 OA
ATOM     27  O46 IHP d   1     -21.105   0.316  -9.329  0.00  0.00    -0.617 OA
ENDBRANCH  23  24
ENDBRANCH   6  23
BRANCH   3  28
ATOM     28  O13 IHP d   1     -26.017   5.715  -9.035  0.00  0.00    -0.272 OA
BRANCH  28  29
ATOM     29  P3  IHP d   1     -26.285   7.344  -9.055  0.00  0.00     0.422 P 
ATOM     30  O23 IHP d   1     -26.301   7.902  -7.641  0.00  0.00    -0.617 OA
ATOM     31  O33 IHP d   1     -25.119   7.958  -9.792  0.00  0.00    -0.617 OA
ATOM     32  O43 IHP d   1     -27.632   7.657  -9.664  0.00  0.00    -0.617 OA
ENDBRANCH  28  29
ENDBRANCH   3  28
BRANCH   5  33
ATOM     33  O15 IHP d   1     -25.128   1.996 -11.651  0.00  0.00    -0.272 OA
BRANCH  33  34
ATOM     34  P5  IHP d   1     -24.460   1.299 -13.000  0.00  0.00     0.422 P 
ATOM     35  O25 IHP d   1     -25.347   1.673 -14.146  0.00  0.00    -0.617 OA
ATOM     36  O35 IHP d   1     -23.040   1.721 -13.338  0.00  0.00    -0.617 OA
ATOM     37  O45 IHP d   1     -24.471  -0.197 -12.774  0.00  0.00    -0.617 OA
ENDBRANCH  33  34
ENDBRANCH   5  33
BRANCH   4  38
ATOM     38  O14 IHP d   1     -26.549   4.538 -11.172  0.00  0.00    -0.272 OA
BRANCH  38  39
ATOM     39  P4  IHP d   1     -27.705   3.487 -11.682  0.00  0.00     0.422 P 
ATOM     40  O24 IHP d   1     -28.994   4.284 -11.730  0.00  0.00    -0.617 OA
ATOM     41  O34 IHP d   1     -27.429   2.937 -13.066  0.00  0.00    -0.617 OA
ATOM     42  O44 IHP d   1     -27.792   2.344 -10.696  0.00  0.00    -0.617 OA
ENDBRANCH  38  39
ENDBRANCH   4  38
TORSDOF 12
