REMARK  6 active torsions:
REMARK  status: ('A' for Active; 'I' for Inactive)
REMARK    1  A    between atoms: C13_2  and  O14_15 
REMARK    2  A    between atoms: C04_5  and  C02_4 
REMARK    3  A    between atoms: C06_6  and  C04_5 
REMARK    4  A    between atoms: C04_5  and  O05_13 
REMARK    5  A    between atoms: C07_7  and  C06_6 
REMARK    6  A    between atoms: C07_7  and  C09_8 
ROOT
ATOM      1  C10 E9S d   1      34.874  77.112  63.704  0.00  0.00    -0.068 A 
ATOM      2  C13 E9S d   1      32.404  76.696  62.408  0.00  0.00     0.084 A 
ATOM      3  C15 E9S d   1      33.177  77.861  62.196  0.00  0.00     0.058 A 
ATOM      4  C09 E9S d   1      34.392  78.103  62.826  0.00  0.00     0.030 A 
ATOM      5  C11 E9S d   1      34.127  75.947  63.916  0.00  0.00    -0.079 A 
ATOM      6  C12 E9S d   1      32.900  75.727  63.275  0.00  0.00    -0.050 A 
ATOM      7 BR16 E9S d   1      32.444  79.187  61.018  0.00  0.00    -0.047 Br
ATOM      8  H1  E9S d   1      35.820  77.251  64.214  0.00  0.00     0.085 H 
ATOM      9  H5  E9S d   1      34.508  75.193  64.595  0.00  0.00     0.083 H 
ATOM     10  H6  E9S d   1      32.344  74.813  63.452  0.00  0.00     0.087 H 
ENDROOT
BRANCH   4  11
ATOM     11  C07 E9S d   1      35.175  79.398  62.527  0.00  0.00     0.164 C 
ATOM     12  O08 E9S d   1      35.354  79.687  61.403  0.00  0.00    -0.292 OA
BRANCH  11  13
ATOM     13  C06 E9S d   1      35.691  80.199  63.647  0.00  0.00     0.028 C 
ATOM     14  H3  E9S d   1      34.848  80.807  64.006  0.00  0.00     0.049 H 
ATOM     15  H4  E9S d   1      35.986  79.484  64.428  0.00  0.00     0.049 H 
BRANCH  13  16
ATOM     16  C04 E9S d   1      36.762  81.070  63.490  0.00  0.00     0.125 C 
ATOM     17  H2  E9S d   1      36.286  81.907  64.022  0.00  0.00     0.100 H 
BRANCH  16  18
ATOM     18  C02 E9S d   1      37.988  80.955  64.454  0.00  0.00     0.203 C 
ATOM     19  O01 E9S d   1      37.756  80.781  65.647  0.00  0.00    -0.646 OA
ATOM     20  O03 E9S d   1      39.098  81.042  63.914  0.00  0.00    -0.646 OA
ENDBRANCH  16  18
BRANCH  16  21
ATOM     21  O05 E9S d   1      36.933  81.741  62.325  0.00  0.00    -0.384 OA
ATOM     22  H7  E9S d   1      37.040  81.119  61.615  0.00  0.00     0.210 HD
ENDBRANCH  16  21
ENDBRANCH  13  16
ENDBRANCH  11  13
ENDBRANCH   4  11
BRANCH   2  23
ATOM     23  O14 E9S d   1      31.201  76.517  61.756  0.00  0.00    -0.359 OA
ATOM     24  H8  E9S d   1      31.249  75.738  61.214  0.00  0.00     0.217 HD
ENDBRANCH   2  23
TORSDOF 6
