REMARK  4 active torsions:
REMARK  status: ('A' for Active; 'I' for Inactive)
REMARK    1  A    between atoms: C3_24  and  C6_2 
REMARK    2  A    between atoms: C8_4  and  N12_21 
REMARK    3  A    between atoms: C13_6  and  C15_19 
REMARK       I    between atoms: N12_21  and  C13_6 
REMARK    4  A    between atoms: C19_14  and  C24_10 
ROOT
ATOM      1  C13 3GK d   1       2.589  -1.804 -16.446  0.00  0.00     0.258 C 
ATOM      2  O14 3GK d   1       2.991  -2.359 -15.426  0.00  0.00    -0.267 OA
ATOM      3  N12 3GK d   1       1.480  -1.022 -16.493  0.00  0.00    -0.323 N 
ATOM      4  H7  3GK d   1       1.271  -0.606 -17.378  0.00  0.00     0.169 HD
ENDROOT
BRANCH   1   5
ATOM      5  C15 3GK d   1       3.282  -1.942 -17.801  0.00  0.00     0.064 A 
ATOM      6  C16 3GK d   1       2.966  -1.206 -18.972  0.00  0.00     0.100 A 
ATOM      7  C17 3GK d   1       3.696  -1.476 -20.148  0.00  0.00     0.064 A 
ATOM      8  N21 3GK d   1       2.081  -0.245 -19.243  0.00  0.00    -0.241 NA
ATOM      9  C18 3GK d   1       4.706  -2.462 -20.151  0.00  0.00    -0.040 A 
ATOM     10  N23 3GK d   1       3.203  -0.626 -21.109  0.00  0.00    -0.349 N 
ATOM     11  C19 3GK d   1       4.977  -3.171 -18.985  0.00  0.00     0.051 A 
ATOM     12  H3  3GK d   1       5.267  -2.666 -21.056  0.00  0.00     0.088 H 
ATOM     13  C20 3GK d   1       4.262  -2.912 -17.810  0.00  0.00    -0.051 A 
ATOM     14  H6  3GK d   1       4.478  -3.473 -16.908  0.00  0.00     0.086 H 
ATOM     15  C22 3GK d   1       2.228   0.113 -20.538  0.00  0.00     0.065 A 
ATOM     16  H5  3GK d   1       3.520  -0.564 -22.087  0.00  0.00     0.167 HD
ATOM     17  H4  3GK d   1       1.647   0.882 -21.045  0.00  0.00     0.143 H 
BRANCH  11  18
ATOM     18  C24 3GK d   1       6.027  -4.234 -18.991  0.00  0.00     0.417 C 
ATOM     19  F27 3GK d   1       5.461  -5.416 -19.199  0.00  0.00    -0.166 F 
ATOM     20  F25 3GK d   1       6.951  -4.032 -19.912  0.00  0.00    -0.166 F 
ATOM     21  F26 3GK d   1       6.690  -4.367 -17.815  0.00  0.00    -0.166 F 
ENDBRANCH  11  18
ENDBRANCH   1   5
BRANCH   3  22
ATOM     22  C8  3GK d   1       0.586  -0.726 -15.439  0.00  0.00     0.035 A 
ATOM     23  C7  3GK d   1      -0.751  -0.501 -15.726  0.00  0.00    -0.043 A 
ATOM     24  C6  3GK d   1      -1.657  -0.226 -14.707  0.00  0.00     0.015 A 
ATOM     25  H1  3GK d   1      -1.094  -0.540 -16.754  0.00  0.00     0.088 H 
ATOM     26  C11 3GK d   1      -1.216  -0.198 -13.390  0.00  0.00    -0.069 A 
ATOM     27  C10 3GK d   1       0.116  -0.434 -13.093  0.00  0.00    -0.080 A 
ATOM     28  H9  3GK d   1      -1.918   0.010 -12.591  0.00  0.00     0.085 H 
ATOM     29  C9  3GK d   1       1.008  -0.699 -14.118  0.00  0.00    -0.057 A 
ATOM     30  H8  3GK d   1       0.458  -0.411 -12.065  0.00  0.00     0.083 H 
ATOM     31  H2  3GK d   1       2.050  -0.888 -13.885  0.00  0.00     0.086 H 
BRANCH  24  32
ATOM     32  C3  3GK d   1      -3.079   0.026 -15.008  0.00  0.00     0.179 A 
ATOM     33  N2  3GK d   1      -3.531   0.461 -16.177  0.00  0.00    -0.108 NA
ATOM     34  N1  3GK d   1      -4.856   0.553 -16.042  0.00  0.00    -0.023 NA
ATOM     35  N5  3GK d   1      -5.179   0.192 -14.822  0.00  0.00    -0.046 NA
ATOM     36  N4  3GK d   1      -4.076  -0.147 -14.145  0.00  0.00    -0.239 N 
ATOM     37  H10 3GK d   1      -4.013  -0.471 -13.169  0.00  0.00     0.192 HD
ENDBRANCH  24  32
ENDBRANCH   3  22
TORSDOF 4
