REMARK WARNING: 32 MAX_TORS EXCEEDED!!!
REMARK  54 active torsions:
REMARK  status: ('A' for Active; 'I' for Inactive)
REMARK    1  A    between atoms: CA_2  and  N_1 
REMARK    2  A    between atoms: C_3  and  CA_2 
REMARK       I    between atoms: N_5  and  C_3 
REMARK    3  A    between atoms: CA_6  and  N_5 
REMARK    4  A    between atoms: C_7  and  CA_6 
REMARK    5  A    between atoms: CA_6  and  CB_9 
REMARK       I    between atoms: N_16  and  C_7 
REMARK    6  A    between atoms: CB_9  and  CG_10 
REMARK    7  A    between atoms: CG_10  and  CD_11 
REMARK    8  A    between atoms: CD_11  and  NE_12 
REMARK       I    between atoms: NE_12  and  CZ_13 
REMARK       I    between atoms: CZ_13  and  NH1_14 
REMARK       I    between atoms: CZ_13  and  NH2_15 
REMARK    9  A    between atoms: C_18  and  CA_17 
REMARK       I    between atoms: N_23  and  C_18 
REMARK   10  A    between atoms: CA_24  and  N_23 
REMARK   11  A    between atoms: C_25  and  CA_24 
REMARK   12  A    between atoms: CA_24  and  CB_27 
REMARK       I    between atoms: N_34  and  C_25 
REMARK   13  A    between atoms: CB_27  and  CG_28 
REMARK   14  A    between atoms: CG_28  and  CD_29 
REMARK   15  A    between atoms: CD_29  and  NE_30 
REMARK       I    between atoms: NE_30  and  CZ_31 
REMARK       I    between atoms: CZ_31  and  NH1_32 
REMARK   16  A    between atoms: CA_35  and  N_34 
REMARK   17  A    between atoms: C_36  and  CA_35 
REMARK   18  A    between atoms: CA_35  and  CB_38 
REMARK       I    between atoms: N_41  and  C_36 
REMARK   19  A    between atoms: CB_38  and  OG1_39 
REMARK   20  A    between atoms: CB_38  and  CG2_40 
REMARK   21  A    between atoms: CA_42  and  N_41 
REMARK   22  A    between atoms: C_43  and  CA_42 
REMARK   23  A    between atoms: CA_42  and  CB_45 
REMARK       I    between atoms: N_48  and  C_43 
REMARK   24  A    between atoms: CB_45  and  OG1_46 
REMARK   25  A    between atoms: CB_45  and  CG2_47 
REMARK   26  A    between atoms: CA_49  and  N_48 
REMARK   27  A    between atoms: CB_50  and  CA_49 
REMARK   28  A    between atoms: CA_49  and  C_86 
REMARK   29  A    between atoms: N34_66  and  CB_50 
REMARK   30  A    between atoms: O3A_54  and  PA_52 
REMARK   31  A    between atoms: PA_52  and  O5'_67 
REMARK   32  A    between atoms: PB_55  and  O3A_54 
REMARK   33  A    between atoms: O3B_58  and  PB_55 
REMARK   34  A    between atoms: PG_59  and  O3B_58 
REMARK   35  A    between atoms: S2G_62  and  PG_59 
REMARK   36  A    between atoms: C32_63  and  S2G_62 
REMARK   37  A    between atoms: C33_64  and  C32_63 
REMARK       I    between atoms: C33_64  and  N34_66 
REMARK   38  A    between atoms: O5'_67  and  C5'_68 
REMARK   39  A    between atoms: C5'_68  and  C4'_69 
REMARK   40  A    between atoms: C1'_71  and  N9_76 
REMARK   41  A    between atoms: C2'_72  and  O2'_73 
REMARK   42  A    between atoms: C3'_74  and  O3'_75 
REMARK       I    between atoms: C_86  and  N_88 
REMARK   43  A    between atoms: N_88  and  CA_89 
REMARK   44  A    between atoms: CA_89  and  C_90 
REMARK   45  A    between atoms: CA_89  and  CB_92 
REMARK       I    between atoms: C_90  and  N_99 
REMARK   46  A    between atoms: CB_92  and  CG_93 
REMARK   47  A    between atoms: N_99  and  CA_100 
REMARK   48  A    between atoms: CA_100  and  C_101 
REMARK   49  A    between atoms: CA_100  and  CB_103 
REMARK       I    between atoms: C_101  and  N_104 
REMARK   50  A    between atoms: N_104  and  CA_105 
REMARK   51  A    between atoms: CA_105  and  C_106 
REMARK   52  A    between atoms: CA_105  and  CB_108 
REMARK   53  A    between atoms: CB_108  and  CG_109 
REMARK   54  A    between atoms: CG_109  and  CD_110 
ROOT
ATOM      1  CA  ZXW d   1     -35.807   5.348  27.047  0.00  0.00     0.104 C 
ATOM      2  H54 ZXW d   1     -35.642   5.210  28.126  0.00  0.00     0.090 H 
ENDROOT
BRANCH   1   3
ATOM      3  N   ZXW d   1     -36.458   4.161  26.532  0.00  0.00    -0.344 N 
ATOM      4  C   THR d   1     -37.293   3.455  27.278  0.00  0.00     0.243 C 
ATOM      5  O   THR d   1     -37.504   3.672  28.439  0.00  0.00    -0.271 OA
ATOM      6  H53 ZXW d   1     -36.273   3.869  25.594  0.00  0.00     0.163 HD
BRANCH   4   7
ATOM      7  CA  THR d   1     -38.010   2.278  26.618  0.00  0.00     0.113 C 
ATOM      8  H47 THR d   1     -37.411   1.901  25.776  0.00  0.00     0.091 H 
BRANCH   7   9
ATOM      9  N   THR d   1     -38.172   1.210  27.624  0.00  0.00    -0.344 N 
ATOM     10  C   THR d   1     -37.866  -0.056  27.402  0.00  0.00     0.243 C 
ATOM     11  O   THR d   1     -37.441  -0.508  26.363  0.00  0.00    -0.271 OA
ATOM     12  H46 THR d   1     -38.533   1.458  28.523  0.00  0.00     0.163 HD
BRANCH  10  13
ATOM     13  CA  THR d   1     -38.096  -0.989  28.581  0.00  0.00     0.113 C 
ATOM     14  H40 THR d   1     -39.107  -0.822  28.980  0.00  0.00     0.091 H 
BRANCH  13  15
ATOM     15  N   THR d   1     -37.991  -2.402  28.166  0.00  0.00    -0.344 N 
ATOM     16  C   ARG d   1     -39.032  -3.223  28.160  0.00  0.00     0.241 C 
ATOM     17  O   ARG d   1     -40.169  -2.892  28.535  0.00  0.00    -0.271 OA
ATOM     18  H39 THR d   1     -37.100  -2.753  27.878  0.00  0.00     0.163 HD
BRANCH  16  19
ATOM     19  CA  ARG d   1     -38.723  -4.708  27.785  0.00  0.00     0.089 C 
ATOM     20  H27 ARG d   1     -37.693  -4.925  28.104  0.00  0.00     0.087 H 
BRANCH  19  21
ATOM     21  N   ARG d   1     -39.611  -5.599  28.504  0.00  0.00    -0.346 N 
ATOM     22  C   PRO d   1     -39.608  -5.690  29.839  0.00  0.00     0.241 C 
ATOM     23  O   PRO d   1     -38.778  -5.142  30.574  0.00  0.00    -0.271 OA
ATOM     24  H26 ARG d   1     -40.249  -6.167  27.984  0.00  0.00     0.163 HD
BRANCH  22  25
ATOM     25  CA  PRO d   1     -40.746  -6.505  30.478  0.00  0.00     0.091 C 
ATOM     26  N   PRO d   1     -40.383  -7.002  31.795  0.00  0.00    -0.337 N 
ATOM     27  C   ARG d   1     -39.341  -7.833  31.880  0.00  0.00     0.243 C 
ATOM     28  CD  PRO d   1     -41.219  -6.426  32.864  0.00  0.00    -0.001 C 
ATOM     29  O   ARG d   1     -38.788  -8.347  30.863  0.00  0.00    -0.271 OA
ATOM     30  CG  PRO d   1     -42.431  -6.002  32.111  0.00  0.00    -0.048 C 
ATOM     31  H24 PRO d   1     -40.724  -5.567  33.341  0.00  0.00     0.064 H 
ATOM     32  H25 PRO d   1     -41.465  -7.178  33.628  0.00  0.00     0.064 H 
ATOM     33  CB  PRO d   1     -41.965  -5.604  30.748  0.00  0.00    -0.036 C 
ATOM     34  H22 PRO d   1     -43.145  -6.835  32.040  0.00  0.00     0.035 H 
ATOM     35  H23 PRO d   1     -42.911  -5.149  32.613  0.00  0.00     0.035 H 
ATOM     36  H20 PRO d   1     -42.753  -5.781  30.001  0.00  0.00     0.036 H 
ATOM     37  H21 PRO d   1     -41.675  -4.543  30.731  0.00  0.00     0.036 H 
ATOM     38  H19 PRO d   1     -41.014  -7.338  29.811  0.00  0.00     0.087 H 
BRANCH  27  39
ATOM     39  CA  ARG d   1     -38.819  -8.094  33.304  0.00  0.00     0.089 C 
ATOM     40  H7  ARG d   1     -39.678  -8.097  33.990  0.00  0.00     0.087 H 
BRANCH  39  41
ATOM     41  N   ARG d   1     -38.138  -9.366  33.443  0.00  0.00    -0.346 N 
ATOM     42  C   GLY d   1     -38.713 -10.482  33.046  0.00  0.00     0.243 C 
ATOM     43  O   GLY d   1     -39.903 -10.542  32.773  0.00  0.00    -0.272 OA
ATOM     44  H6  ARG d   1     -37.223  -9.396  33.844  0.00  0.00     0.163 HD
BRANCH  42  45
ATOM     45  CA  GLY d   1     -37.827 -11.702  32.963  0.00  0.00     0.152 C 
ATOM     46  H4  GLY d   1     -37.810 -12.082  31.931  0.00  0.00     0.090 H 
ATOM     47  H5  GLY d   1     -36.804 -11.443  33.275  0.00  0.00     0.090 H 
BRANCH  45  48
ATOM     48  N   GLY d   1     -38.382 -12.734  33.869  0.00  0.00    -0.071 N 
ATOM     49  H1  GLY d   1     -37.806 -13.560  33.830  0.00  0.00     0.274 HD
ATOM     50  H2  GLY d   1     -39.320 -12.965  33.581  0.00  0.00     0.274 HD
ATOM     51  H3  GLY d   1     -38.398 -12.379  34.812  0.00  0.00     0.274 HD
ENDBRANCH  45  48
ENDBRANCH  42  45
ENDBRANCH  39  41
BRANCH  39  52
ATOM     52  CB  ARG d   1     -37.888  -6.944  33.685  0.00  0.00    -0.036 C 
ATOM     53  H8  ARG d   1     -37.609  -7.066  34.742  0.00  0.00     0.036 H 
ATOM     54  H9  ARG d   1     -38.440  -6.001  33.559  0.00  0.00     0.036 H 
BRANCH  52  55
ATOM     55  CG  ARG d   1     -36.599  -6.855  32.859  0.00  0.00    -0.048 C 
ATOM     56  H10 ARG d   1     -36.833  -6.864  31.784  0.00  0.00     0.035 H 
ATOM     57  H11 ARG d   1     -35.934  -7.698  33.097  0.00  0.00     0.035 H 
BRANCH  55  58
ATOM     58  CD  ARG d   1     -35.957  -5.567  33.238  0.00  0.00     0.009 C 
ATOM     59  H12 ARG d   1     -35.684  -5.605  34.303  0.00  0.00     0.064 H 
ATOM     60  H13 ARG d   1     -36.674  -4.750  33.072  0.00  0.00     0.064 H 
BRANCH  58  61
ATOM     61  NE  ARG d   1     -34.776  -5.312  32.465  0.00  0.00    -0.227 N 
ATOM     62  CZ  ARG d   1     -34.699  -4.839  31.222  0.00  0.00     0.665 C 
ATOM     63  NH1 ARG d   1     -35.792  -4.583  30.514  0.00  0.00    -0.235 N 
ATOM     64  NH2 ARG d   1     -33.489  -4.632  30.685  0.00  0.00    -0.235 N 
ATOM     65  H15 ARG d   1     -35.710  -4.218  29.555  0.00  0.00     0.174 HD
ATOM     66  H16 ARG d   1     -36.722  -4.750  30.924  0.00  0.00     0.174 HD
ATOM     67  H17 ARG d   1     -32.641  -4.831  31.235  0.00  0.00     0.174 HD
ATOM     68  H18 ARG d   1     -33.407  -4.274  29.723  0.00  0.00     0.174 HD
ATOM     69  H14 ARG d   1     -33.879  -5.520  32.927  0.00  0.00     0.177 HD
ENDBRANCH  58  61
ENDBRANCH  55  58
ENDBRANCH  52  55
ENDBRANCH  39  52
ENDBRANCH  27  39
ENDBRANCH  22  25
ENDBRANCH  19  21
BRANCH  19  70
ATOM     70  CB  ARG d   1     -38.800  -4.962  26.278  0.00  0.00    -0.036 C 
ATOM     71  H28 ARG d   1     -39.536  -4.269  25.843  0.00  0.00     0.036 H 
ATOM     72  H29 ARG d   1     -39.130  -5.998  26.114  0.00  0.00     0.036 H 
BRANCH  70  73
ATOM     73  CG  ARG d   1     -37.461  -4.759  25.568  0.00  0.00    -0.048 C 
ATOM     74  H30 ARG d   1     -36.665  -5.140  26.225  0.00  0.00     0.035 H 
ATOM     75  H31 ARG d   1     -37.320  -3.680  25.408  0.00  0.00     0.035 H 
BRANCH  73  76
ATOM     76  CD  ARG d   1     -37.332  -5.471  24.192  0.00  0.00     0.009 C 
ATOM     77  H32 ARG d   1     -38.225  -5.256  23.587  0.00  0.00     0.064 H 
ATOM     78  H33 ARG d   1     -37.250  -6.556  24.351  0.00  0.00     0.064 H 
BRANCH  76  79
ATOM     79  NE  ARG d   1     -36.137  -4.993  23.481  0.00  0.00    -0.227 N 
ATOM     80  CZ  ARG d   1     -36.090  -3.820  22.885  0.00  0.00     0.665 C 
ATOM     81  NH1 ARG d   1     -34.987  -3.393  22.322  0.00  0.00    -0.235 N 
ATOM     82  NH2 ARG d   1     -37.161  -3.050  22.862  0.00  0.00    -0.235 N 
ATOM     83  H35 ARG d   1     -34.968  -2.473  21.860  0.00  0.00     0.174 HD
ATOM     84  H36 ARG d   1     -34.139  -3.978  22.341  0.00  0.00     0.174 HD
ATOM     85  H37 ARG d   1     -38.036  -3.372  23.300  0.00  0.00     0.174 HD
ATOM     86  H38 ARG d   1     -37.122  -2.127  22.406  0.00  0.00     0.174 HD
ATOM     87  H34 ARG d   1     -35.305  -5.599  23.448  0.00  0.00     0.177 HD
ENDBRANCH  76  79
ENDBRANCH  73  76
ENDBRANCH  70  73
ENDBRANCH  19  70
ENDBRANCH  16  19
ENDBRANCH  13  15
BRANCH  13  88
ATOM     88  CB  THR d   1     -37.070  -0.629  29.663  0.00  0.00     0.060 C 
ATOM     89  H41 THR d   1     -37.210   0.431  29.922  0.00  0.00     0.086 H 
BRANCH  88  90
ATOM     90  OG1 THR d   1     -35.763  -0.798  29.132  0.00  0.00    -0.393 OA
ATOM     91  H42 THR d   1     -35.645  -1.702  28.865  0.00  0.00     0.210 HD
ENDBRANCH  88  90
BRANCH  88  92
ATOM     92  CG2 THR d   1     -37.217  -1.432  30.929  0.00  0.00    -0.050 C 
ATOM     93  H43 THR d   1     -36.450  -1.119  31.653  0.00  0.00     0.031 H 
ATOM     94  H44 THR d   1     -37.091  -2.501  30.702  0.00  0.00     0.031 H 
ATOM     95  H45 THR d   1     -38.216  -1.263  31.357  0.00  0.00     0.031 H 
ENDBRANCH  88  92
ENDBRANCH  13  88
ENDBRANCH  10  13
ENDBRANCH   7   9
BRANCH   7  96
ATOM     96  CB  THR d   1     -39.374   2.752  26.100  0.00  0.00     0.060 C 
ATOM     97  H48 THR d   1     -39.589   3.714  26.587  0.00  0.00     0.086 H 
BRANCH  96  98
ATOM     98  OG1 THR d   1     -40.429   1.852  26.430  0.00  0.00    -0.393 OA
ATOM     99  H49 THR d   1     -41.249   2.189  26.089  0.00  0.00     0.210 HD
ENDBRANCH  96  98
BRANCH  96 100
ATOM    100  CG2 THR d   1     -39.370   2.980  24.609  0.00  0.00    -0.050 C 
ATOM    101  H50 THR d   1     -40.366   3.317  24.287  0.00  0.00     0.031 H 
ATOM    102  H51 THR d   1     -39.117   2.041  24.095  0.00  0.00     0.031 H 
ATOM    103  H52 THR d   1     -38.624   3.748  24.358  0.00  0.00     0.031 H 
ENDBRANCH  96 100
ENDBRANCH   7  96
ENDBRANCH   4   7
ENDBRANCH   1   3
BRANCH   1 104
ATOM    104  CB  ZXW d   1     -34.474   5.639  26.388  0.00  0.00     0.022 C 
ATOM    105  H55 ZXW d   1     -33.675   5.420  27.112  0.00  0.00     0.067 H 
ATOM    106  H56 ZXW d   1     -34.446   6.706  26.122  0.00  0.00     0.067 H 
BRANCH 104 107
ATOM    107  N34 ZXW d   1     -34.228   4.872  25.200  0.00  0.00    -0.358 N 
ATOM    108  C33 ZXW d   1     -34.571   5.345  24.040  0.00  0.00     0.227 C 
ATOM    109  O35 ZXW d   1     -34.960   6.479  23.940  0.00  0.00    -0.273 OA
ATOM    110  H59 ZXW d   1     -33.793   3.974  25.265  0.00  0.00     0.162 HD
BRANCH 108 111
ATOM    111  C32 ZXW d   1     -34.503   4.436  22.832  0.00  0.00     0.062 C 
ATOM    112  H57 ZXW d   1     -33.729   4.774  22.127  0.00  0.00     0.064 H 
ATOM    113  H58 ZXW d   1     -34.299   3.397  23.131  0.00  0.00     0.064 H 
BRANCH 111 114
ATOM    114  S2G ZXW d   1     -36.106   4.587  22.129  0.00  0.00    -0.032 SA
BRANCH 114 115
ATOM    115  PG  ZXW d   1     -36.621   3.642  20.427  0.00  0.00     0.325 P 
ATOM    116  O1G ZXW d   1     -37.865   4.222  19.851  0.00  0.00    -0.638 OA
ATOM    117  O3G ZXW d   1     -37.024   2.368  21.091  0.00  0.00    -0.638 OA
BRANCH 115 118
ATOM    118  O3B ZXW d   1     -35.606   3.328  19.303  0.00  0.00    -0.195 OA
BRANCH 118 119
ATOM    119  PB  ZXW d   1     -34.837   2.030  19.664  0.00  0.00     0.426 P 
ATOM    120  O1B ZXW d   1     -35.540   0.735  19.837  0.00  0.00    -0.624 OA
ATOM    121  O2B ZXW d   1     -34.241   2.430  20.905  0.00  0.00    -0.624 OA
BRANCH 119 122
ATOM    122  O3A ZXW d   1     -33.680   1.914  18.595  0.00  0.00    -0.180 OA
BRANCH 122 123
ATOM    123  PA  ZXW d   1     -33.944   1.405  17.106  0.00  0.00     0.417 P 
ATOM    124  O2A ZXW d   1     -35.168   1.766  16.459  0.00  0.00    -0.624 OA
ATOM    125  O1A ZXW d   1     -32.942   2.257  16.523  0.00  0.00    -0.624 OA
BRANCH 123 126
ATOM    126  O5' ZXW d   1     -33.621  -0.116  16.874  0.00  0.00    -0.287 OA
BRANCH 126 127
ATOM    127  C5' ZXW d   1     -34.582  -1.130  16.714  0.00  0.00     0.058 C 
ATOM    128  H60 ZXW d   1     -35.008  -1.066  15.702  0.00  0.00     0.079 H 
ATOM    129  H61 ZXW d   1     -35.381  -0.990  17.457  0.00  0.00     0.079 H 
BRANCH 127 130
ATOM    130  C4' ZXW d   1     -33.959  -2.502  16.906  0.00  0.00     0.089 C 
ATOM    131  O4' ZXW d   1     -32.846  -2.767  16.096  0.00  0.00    -0.353 OA
ATOM    132  C1' ZXW d   1     -31.916  -3.542  16.775  0.00  0.00     0.139 C 
ATOM    133  C2' ZXW d   1     -32.231  -3.469  18.235  0.00  0.00     0.105 C 
ATOM    134  H63 ZXW d   1     -31.964  -4.586  16.433  0.00  0.00     0.122 H 
ATOM    135  C3' ZXW d   1     -33.512  -2.690  18.317  0.00  0.00     0.091 C 
ATOM    136  H64 ZXW d   1     -31.438  -2.924  18.768  0.00  0.00     0.093 H 
ATOM    137  H66 ZXW d   1     -33.335  -1.726  18.817  0.00  0.00     0.091 H 
ATOM    138  H62 ZXW d   1     -34.734  -3.247  16.675  0.00  0.00     0.090 H 
BRANCH 132 139
ATOM    139  N9  ZXW d   1     -30.599  -2.996  16.511  0.00  0.00    -0.294 N 
ATOM    140  C8  ZXW d   1     -30.197  -1.761  16.655  0.00  0.00     0.071 A 
ATOM    141  N7  ZXW d   1     -28.933  -1.620  16.293  0.00  0.00    -0.236 NA
ATOM    142  H68 ZXW d   1     -30.823  -0.951  17.026  0.00  0.00     0.144 H 
ATOM    143  C5  ZXW d   1     -28.500  -2.800  15.901  0.00  0.00     0.149 A 
ATOM    144  C6  ZXW d   1     -27.257  -3.382  15.380  0.00  0.00     0.155 A 
ATOM    145  C4  ZXW d   1     -29.617  -3.703  16.041  0.00  0.00     0.167 A 
ATOM    146  N6  ZXW d   1     -26.163  -2.674  15.207  0.00  0.00    -0.382 N 
ATOM    147  N1  ZXW d   1     -27.246  -4.665  15.114  0.00  0.00    -0.222 NA
ATOM    148  H69 ZXW d   1     -25.312  -3.123  14.839  0.00  0.00     0.157 HD
ATOM    149  H70 ZXW d   1     -26.157  -1.671  15.440  0.00  0.00     0.157 HD
ATOM    150  C2  ZXW d   1     -28.319  -5.423  15.263  0.00  0.00     0.091 A 
ATOM    151  N3  ZXW d   1     -29.468  -4.979  15.711  0.00  0.00    -0.222 NA
ATOM    152  H71 ZXW d   1     -28.244  -6.472  14.999  0.00  0.00     0.146 H 
ENDBRANCH 132 139
BRANCH 133 153
ATOM    153  O2' ZXW d   1     -32.316  -4.766  18.773  0.00  0.00    -0.388 OA
ATOM    154  H65 ZXW d   1     -32.516  -4.711  19.700  0.00  0.00     0.210 HD
ENDBRANCH 133 153
BRANCH 135 155
ATOM    155  O3' ZXW d   1     -34.553  -3.382  18.964  0.00  0.00    -0.390 OA
ATOM    156  H67 ZXW d   1     -34.289  -3.589  19.853  0.00  0.00     0.210 HD
ENDBRANCH 135 155
ENDBRANCH 127 130
ENDBRANCH 126 127
ENDBRANCH 123 126
ENDBRANCH 122 123
ENDBRANCH 119 122
ENDBRANCH 118 119
ENDBRANCH 115 118
ENDBRANCH 114 115
ENDBRANCH 111 114
ENDBRANCH 108 111
ENDBRANCH 104 107
ENDBRANCH   1 104
BRANCH   1 157
ATOM    157  C   ZXW d   1     -36.704   6.552  26.825  0.00  0.00     0.242 C 
ATOM    158  O   ZXW d   1     -37.734   6.433  26.251  0.00  0.00    -0.271 OA
ATOM    159  N   PHE d   1     -36.272   7.712  27.314  0.00  0.00    -0.346 N 
ATOM    160  H72 PHE d   1     -35.410   7.711  27.820  0.00  0.00     0.163 HD
BRANCH 159 161
ATOM    161  CA  PHE d   1     -36.976   9.000  27.162  0.00  0.00     0.093 C 
ATOM    162  H73 PHE d   1     -37.388   9.096  26.147  0.00  0.00     0.088 H 
BRANCH 161 163
ATOM    163  C   PHE d   1     -35.994  10.129  27.462  0.00  0.00     0.241 C 
ATOM    164  O   PHE d   1     -34.934   9.865  27.995  0.00  0.00    -0.271 OA
ATOM    165  N   ALA d   1     -36.363  11.353  27.093  0.00  0.00    -0.346 N 
ATOM    166  H81 ALA d   1     -37.216  11.457  26.581  0.00  0.00     0.163 HD
BRANCH 165 167
ATOM    167  CA  ALA d   1     -35.577  12.567  27.401  0.00  0.00     0.086 C 
ATOM    168  H82 ALA d   1     -35.042  12.401  28.348  0.00  0.00     0.086 H 
BRANCH 167 169
ATOM    169  C   ALA d   1     -36.520  13.763  27.590  0.00  0.00     0.240 C 
ATOM    170  O   ALA d   1     -37.415  13.924  26.765  0.00  0.00    -0.271 OA
ATOM    171  N   GLU d   1     -36.273  14.557  28.636  0.00  0.00    -0.345 N 
ATOM    172  H86 GLU d   1     -35.505  14.285  29.215  0.00  0.00     0.163 HD
BRANCH 171 173
ATOM    173  CA  GLU d   1     -37.004  15.815  29.060  0.00  0.00     0.097 C 
ATOM    174  H87 GLU d   1     -36.504  16.646  28.541  0.00  0.00     0.089 H 
BRANCH 173 175
ATOM    175  C   GLU d   1     -36.909  16.104  30.585  0.00  0.00     0.196 C 
ATOM    176  O   GLU d   1     -37.906  16.145  31.354  0.00  0.00    -0.646 OA
ATOM    177  OXT GLU d   1     -35.826  16.324  31.191  0.00  0.00    -0.646 OA
ENDBRANCH 173 175
BRANCH 173 178
ATOM    178  CB  GLU d   1     -38.475  15.854  28.649  0.00  0.00    -0.028 C 
ATOM    179  H88 GLU d   1     -39.066  16.197  29.511  0.00  0.00     0.037 H 
ATOM    180  H89 GLU d   1     -38.785  14.835  28.374  0.00  0.00     0.037 H 
BRANCH 178 181
ATOM    181  CG  GLU d   1     -38.764  16.777  27.472  0.00  0.00     0.018 C 
ATOM    182  H90 GLU d   1     -38.249  16.395  26.578  0.00  0.00     0.049 H 
ATOM    183  H91 GLU d   1     -38.394  17.787  27.705  0.00  0.00     0.049 H 
BRANCH 181 184
ATOM    184  CD  GLU d   1     -40.257  16.843  27.198  0.00  0.00     0.172 C 
ATOM    185  OE1 GLU d   1     -41.011  17.369  28.062  0.00  0.00    -0.648 OA
ATOM    186  OE2 GLU d   1     -40.664  16.331  26.130  0.00  0.00    -0.648 OA
ENDBRANCH 181 184
ENDBRANCH 178 181
ENDBRANCH 173 178
ENDBRANCH 171 173
ENDBRANCH 167 169
BRANCH 167 187
ATOM    187  CB  ALA d   1     -34.555  12.824  26.334  0.00  0.00    -0.049 C 
ATOM    188  H83 ALA d   1     -33.984  13.730  26.584  0.00  0.00     0.030 H 
ATOM    189  H84 ALA d   1     -35.061  12.965  25.368  0.00  0.00     0.030 H 
ATOM    190  H85 ALA d   1     -33.870  11.966  26.268  0.00  0.00     0.030 H 
ENDBRANCH 167 187
ENDBRANCH 165 167
ENDBRANCH 161 163
BRANCH 161 191
ATOM    191  CB  PHE d   1     -38.083   9.093  28.209  0.00  0.00    -0.014 C 
ATOM    192  H74 PHE d   1     -38.672   8.164  28.185  0.00  0.00     0.043 H 
ATOM    193  H75 PHE d   1     -38.733   9.946  27.963  0.00  0.00     0.043 H 
BRANCH 191 194
ATOM    194  CG  PHE d   1     -37.538   9.285  29.597  0.00  0.00    -0.056 A 
ATOM    195  CD1 PHE d   1     -37.144   8.205  30.360  0.00  0.00    -0.077 A 
ATOM    196  CE1 PHE d   1     -36.600   8.384  31.613  0.00  0.00    -0.082 A 
ATOM    197  H76 PHE d   1     -37.264   7.202  29.968  0.00  0.00     0.084 H 
ATOM    198  CZ  PHE d   1     -36.418   9.646  32.104  0.00  0.00    -0.083 A 
ATOM    199  H78 PHE d   1     -36.316   7.524  32.209  0.00  0.00     0.083 H 
ATOM    200  CE2 PHE d   1     -36.766  10.727  31.347  0.00  0.00    -0.082 A 
ATOM    201  H80 PHE d   1     -35.998   9.788  33.093  0.00  0.00     0.083 H 
ATOM    202  CD2 PHE d   1     -37.327  10.550  30.102  0.00  0.00    -0.077 A 
ATOM    203  H79 PHE d   1     -36.600  11.729  31.727  0.00  0.00     0.083 H 
ATOM    204  H77 PHE d   1     -37.606  11.416  29.512  0.00  0.00     0.084 H 
ENDBRANCH 191 194
ENDBRANCH 161 191
ENDBRANCH 159 161
ENDBRANCH   1 157
TORSDOF 54
