REMARK  12 active torsions:
REMARK  status: ('A' for Active; 'I' for Inactive)
REMARK    1  A    between atoms: O_4  and  C8_1 
REMARK    2  A    between atoms: N1_2  and  C13_16 
REMARK    3  A    between atoms: C5_6  and  C7_3 
REMARK    4  A    between atoms: C10_13  and  O_4 
REMARK    5  A    between atoms: C5_6  and  C6_5 
REMARK    6  A    between atoms: C4_10  and  C5_6 
REMARK    7  A    between atoms: C1_7  and  C_12 
REMARK    8  A    between atoms: N_11  and  C11_14 
REMARK    9  A    between atoms: C11_14  and  C10_13 
REMARK   10  A    between atoms: C20_23  and  C12_15 
REMARK   11  A    between atoms: O2_32  and  C20_23 
REMARK   12  A    between atoms: C21_24  and  O2_32 
ROOT
ATOM      1  C11 E9A d   1      -1.380  59.777  55.673  0.00  0.00     0.082 C 
ATOM      2  H18 E9A d   1      -1.143  60.624  55.012  0.00  0.00     0.080 H 
ATOM      3  H19 E9A d   1      -1.142  58.834  55.160  0.00  0.00     0.080 H 
ENDROOT
BRANCH   1   4
ATOM      4  N   E9A d   1      -2.812  59.798  55.938  0.00  0.00    -0.323 N 
ATOM      5  C12 E9A d   1      -3.546  58.706  56.206  0.00  0.00     0.111 A 
ATOM      6  N1  E9A d   1      -4.839  59.063  56.276  0.00  0.00    -0.337 N 
ATOM      7  C14 E9A d   1      -4.940  60.438  56.032  0.00  0.00     0.062 A 
ATOM      8  C15 E9A d   1      -3.657  60.898  55.802  0.00  0.00     0.063 A 
ATOM      9  C19 E9A d   1      -6.037  61.285  55.945  0.00  0.00    -0.055 A 
ATOM     10  C16 E9A d   1      -3.424  62.218  55.447  0.00  0.00    -0.055 A 
ATOM     11  C17 E9A d   1      -4.516  63.063  55.337  0.00  0.00    -0.081 A 
ATOM     12  H23 E9A d   1      -2.418  62.578  55.261  0.00  0.00     0.087 H 
ATOM     13  C18 E9A d   1      -5.806  62.605  55.587  0.00  0.00    -0.081 A 
ATOM     14  H24 E9A d   1      -4.363  64.097  55.052  0.00  0.00     0.083 H 
ATOM     15  H25 E9A d   1      -6.642  63.289  55.501  0.00  0.00     0.083 H 
ATOM     16  H26 E9A d   1      -7.039  60.927  56.150  0.00  0.00     0.087 H 
BRANCH   5  17
ATOM     17  C20 E9A d   1      -2.942  57.297  56.315  0.00  0.00     0.079 C 
ATOM     18  H27 E9A d   1      -1.956  57.255  55.830  0.00  0.00     0.087 H 
ATOM     19  H28 E9A d   1      -3.607  56.549  55.859  0.00  0.00     0.087 H 
BRANCH  17  20
ATOM     20  O2  E9A d   1      -2.826  57.085  57.725  0.00  0.00    -0.344 OA
BRANCH  20  21
ATOM     21  C21 E9A d   1      -1.728  56.423  58.233  0.00  0.00     0.069 A 
ATOM     22  C22 E9A d   1      -1.689  56.275  59.612  0.00  0.00    -0.051 A 
ATOM     23  C23 E9A d   1      -0.589  55.675  60.201  0.00  0.00    -0.080 A 
ATOM     24  H29 E9A d   1      -2.513  56.626  60.223  0.00  0.00     0.087 H 
ATOM     25  C24 E9A d   1       0.459  55.224  59.429  0.00  0.00    -0.083 A 
ATOM     26  H30 E9A d   1      -0.552  55.559  61.278  0.00  0.00     0.083 H 
ATOM     27  C25 E9A d   1       0.412  55.362  58.059  0.00  0.00    -0.080 A 
ATOM     28  H31 E9A d   1       1.319  54.761  59.899  0.00  0.00     0.083 H 
ATOM     29  C26 E9A d   1      -0.679  55.957  57.450  0.00  0.00    -0.051 A 
ATOM     30  H32 E9A d   1       1.236  55.002  57.453  0.00  0.00     0.083 H 
ATOM     31  H33 E9A d   1      -0.715  56.059  56.371  0.00  0.00     0.087 H 
ENDBRANCH  20  21
ENDBRANCH  17  20
ENDBRANCH   5  17
BRANCH   6  32
ATOM     32  C13 E9A d   1      -5.977  58.188  56.517  0.00  0.00    -0.012 C 
ATOM     33  H20 E9A d   1      -5.621  57.160  56.679  0.00  0.00     0.057 H 
ATOM     34  H21 E9A d   1      -6.648  58.210  55.645  0.00  0.00     0.057 H 
ATOM     35  H22 E9A d   1      -6.522  58.532  57.408  0.00  0.00     0.057 H 
ENDBRANCH   6  32
ENDBRANCH   1   4
BRANCH   1  36
ATOM     36  C10 E9A d   1      -0.500  59.879  56.901  0.00  0.00     0.277 C 
ATOM     37  O1  E9A d   1       0.587  59.381  56.928  0.00  0.00    -0.263 OA
BRANCH  36  38
ATOM     38  O   E9A d   1      -1.011  60.597  57.926  0.00  0.00    -0.314 OA
BRANCH  38  39
ATOM     39  C8  E9A d   1      -0.109  60.834  59.063  0.00  0.00     0.052 C 
ATOM     40  C4  E9A d   1      -0.307  62.250  59.605  0.00  0.00    -0.026 C 
ATOM     41  C3  E9A d   1      -0.784  62.163  61.054  0.00  0.00    -0.059 C 
ATOM     42  H14 E9A d   1       0.691  62.711  59.636  0.00  0.00     0.044 H 
ATOM     43  C2  E9A d   1       0.201  61.390  61.915  0.00  0.00    -0.061 C 
ATOM     44  H12 E9A d   1      -0.891  63.181  61.458  0.00  0.00     0.033 H 
ATOM     45  H13 E9A d   1      -1.759  61.654  61.080  0.00  0.00     0.033 H 
ATOM     46  C1  E9A d   1       0.375  59.968  61.418  0.00  0.00    -0.055 C 
ATOM     47  H10 E9A d   1       1.175  61.900  61.889  0.00  0.00     0.033 H 
ATOM     48  H11 E9A d   1      -0.172  61.364  62.950  0.00  0.00     0.033 H 
ATOM     49  C9  E9A d   1      -0.375  59.756  60.100  0.00  0.00    -0.037 C 
ATOM     50  H9  E9A d   1      -0.084  59.305  62.166  0.00  0.00     0.039 H 
ATOM     51  H34 E9A d   1      -0.069  58.787  59.679  0.00  0.00     0.037 H 
ATOM     52  H35 E9A d   1      -1.454  59.739  60.314  0.00  0.00     0.037 H 
ATOM     53  H1  E9A d   1       0.933  60.742  58.722  0.00  0.00     0.084 H 
BRANCH  40  54
ATOM     54  C5  E9A d   1      -1.151  63.173  58.704  0.00  0.00    -0.055 C 
ATOM     55  H8  E9A d   1      -1.725  62.526  58.025  0.00  0.00     0.039 H 
BRANCH  54  56
ATOM     56  C7  E9A d   1      -2.151  64.041  59.462  0.00  0.00    -0.073 C 
ATOM     57  H2  E9A d   1      -2.709  64.666  58.749  0.00  0.00     0.028 H 
ATOM     58  H3  E9A d   1      -1.613  64.686  60.172  0.00  0.00     0.028 H 
ATOM     59  H4  E9A d   1      -2.853  63.397  60.012  0.00  0.00     0.028 H 
ENDBRANCH  54  56
BRANCH  54  60
ATOM     60  C6  E9A d   1      -0.245  64.074  57.853  0.00  0.00    -0.073 C 
ATOM     61  H5  E9A d   1       0.478  63.453  57.304  0.00  0.00     0.028 H 
ATOM     62  H6  E9A d   1       0.295  64.774  58.508  0.00  0.00     0.028 H 
ATOM     63  H7  E9A d   1      -0.859  64.641  57.138  0.00  0.00     0.028 H 
ENDBRANCH  54  60
ENDBRANCH  40  54
BRANCH  46  64
ATOM     64  C   E9A d   1       1.837  59.561  61.301  0.00  0.00    -0.073 C 
ATOM     65  H15 E9A d   1       1.901  58.525  60.938  0.00  0.00     0.028 H 
ATOM     66  H16 E9A d   1       2.318  59.634  62.288  0.00  0.00     0.028 H 
ATOM     67  H17 E9A d   1       2.348  60.230  60.593  0.00  0.00     0.028 H 
ENDBRANCH  46  64
ENDBRANCH  38  39
ENDBRANCH  36  38
ENDBRANCH   1  36
TORSDOF 12
