REMARK WARNING: 32 MAX_TORS EXCEEDED!!!
REMARK  55 active torsions:
REMARK  status: ('A' for Active; 'I' for Inactive)
REMARK    1  A    between atoms: N_1  and  CA_2 
REMARK    2  A    between atoms: CA_2  and  C_3 
REMARK    3  A    between atoms: CA_2  and  CB_5 
REMARK       I    between atoms: C_3  and  N_6 
REMARK    4  A    between atoms: N_6  and  CA_7 
REMARK    5  A    between atoms: CA_7  and  C_8 
REMARK    6  A    between atoms: CA_7  and  CB_10 
REMARK       I    between atoms: C_8  and  N_13 
REMARK    7  A    between atoms: CB_10  and  OG1_11 
REMARK    8  A    between atoms: CB_10  and  CG2_12 
REMARK    9  A    between atoms: N_13  and  CA_14 
REMARK   10  A    between atoms: CA_14  and  C_15 
REMARK   11  A    between atoms: CA_14  and  CB_17 
REMARK       I    between atoms: C_15  and  N_21 
REMARK   12  A    between atoms: CB_17  and  CG_18 
REMARK   13  A    between atoms: CG_18  and  CD1_19 
REMARK   14  A    between atoms: CG_18  and  CD2_20 
REMARK   15  A    between atoms: N_21  and  CA_22 
REMARK   16  A    between atoms: CA_22  and  C_23 
REMARK   17  A    between atoms: CA_22  and  CB_25 
REMARK       I    between atoms: C_23  and  N_26 
REMARK   18  A    between atoms: CA_27  and  C_28 
REMARK       I    between atoms: C_28  and  N_34 
REMARK   19  A    between atoms: CG_31  and  OD1_33 
REMARK   20  A    between atoms: N_34  and  CA_35 
REMARK   21  A    between atoms: CA_35  and  C_36 
REMARK   22  A    between atoms: CA_35  and  CB_38 
REMARK       I    between atoms: C_36  and  N_46 
REMARK   23  A    between atoms: CB_38  and  CG_39 
REMARK   24  A    between atoms: CZ_44  and  OH_45 
REMARK   25  A    between atoms: N_46  and  CA_47 
REMARK   26  A    between atoms: CA_47  and  C_48 
REMARK   27  A    between atoms: CA_47  and  CB_50 
REMARK       I    between atoms: C_48  and  N_54 
REMARK   28  A    between atoms: CB_50  and  CG1_51 
REMARK   29  A    between atoms: CB_50  and  CG2_52 
REMARK   30  A    between atoms: CG1_51  and  CD1_53 
REMARK   31  A    between atoms: CA_55  and  C_56 
REMARK       I    between atoms: C_56  and  N_61 
REMARK   32  A    between atoms: N_61  and  CA_62 
REMARK   33  A    between atoms: CA_62  and  C_63 
REMARK   34  A    between atoms: CA_62  and  CB_65 
REMARK       I    between atoms: C_63  and  N_69 
REMARK   35  A    between atoms: CB_65  and  CG_66 
REMARK   36  A    between atoms: CG_66  and  SD_67 
REMARK   37  A    between atoms: SD_67  and  CE_68 
REMARK   38  A    between atoms: N_69  and  CA_70 
REMARK   39  A    between atoms: CA_70  and  C_71 
REMARK   40  A    between atoms: CA_70  and  CB_73 
REMARK       I    between atoms: C_71  and  N_77 
REMARK   41  A    between atoms: CB_73  and  CG_74 
REMARK   42  A    between atoms: N_77  and  CA_78 
REMARK   43  A    between atoms: CA_78  and  C_79 
REMARK       I    between atoms: C_79  and  N_81 
REMARK   44  A    between atoms: N_81  and  CA_82 
REMARK   45  A    between atoms: CA_82  and  C_83 
REMARK   46  A    between atoms: CA_82  and  CB_85 
REMARK       I    between atoms: C_83  and  N_90 
REMARK   47  A    between atoms: CB_85  and  CG_86 
REMARK   48  A    between atoms: CG_86  and  CD_87 
REMARK   49  A    between atoms: N_90  and  CA_91 
REMARK   50  A    between atoms: CA_91  and  C_92 
REMARK   51  A    between atoms: CA_91  and  CB_94 
REMARK       I    between atoms: C_92  and  N_95 
REMARK   52  A    between atoms: N_95  and  CA_96 
REMARK   53  A    between atoms: CA_96  and  C_97 
REMARK   54  A    between atoms: CA_96  and  CB_99 
REMARK   55  A    between atoms: CB_99  and  CG_100 
ROOT
ATOM      1  CA  ILE d   1      26.235  10.707 138.033  0.00  0.00     0.092 C 
ATOM      2  H48 ILE d   1      26.071  11.794 137.985  0.00  0.00     0.088 H 
ENDROOT
BRANCH   1   3
ATOM      3  N   ILE d   1      27.068  10.401 139.190  0.00  0.00    -0.346 N 
ATOM      4  C   TYR d   1      27.293  11.270 140.168  0.00  0.00     0.241 C 
ATOM      5  O   TYR d   1      26.847  12.438 140.177  0.00  0.00    -0.271 OA
ATOM      6  H47 ILE d   1      27.489   9.496 139.249  0.00  0.00     0.163 HD
BRANCH   4   7
ATOM      7  CA  TYR d   1      28.155  10.736 141.306  0.00  0.00     0.093 C 
ATOM      8  H39 TYR d   1      28.957  10.125 140.866  0.00  0.00     0.088 H 
BRANCH   7   9
ATOM      9  N   TYR d   1      28.764  11.808 142.059  0.00  0.00    -0.346 N 
ATOM     10  C   HYP d   1      29.923  11.620 142.657  0.00  0.00     0.241 C 
ATOM     11  O   HYP d   1      30.504  10.522 142.673  0.00  0.00    -0.271 OA
ATOM     12  H38 TYR d   1      28.305  12.694 142.126  0.00  0.00     0.163 HD
BRANCH  10  13
ATOM     13  CA  HYP d   1      30.569  12.892 143.309  0.00  0.00     0.094 C 
ATOM     14  N   HYP d   1      31.481  12.555 144.382  0.00  0.00    -0.334 N 
ATOM     15  C   ALA d   1      31.043  11.933 145.460  0.00  0.00     0.243 C 
ATOM     16  CD  HYP d   1      32.848  13.130 144.089  0.00  0.00     0.022 C 
ATOM     17  O   ALA d   1      29.864  11.660 145.607  0.00  0.00    -0.271 OA
ATOM     18  CG  HYP d   1      32.550  14.232 143.040  0.00  0.00     0.053 C 
ATOM     19  H35 HYP d   1      33.519  12.363 143.675  0.00  0.00     0.068 H 
ATOM     20  H36 HYP d   1      33.298  13.560 144.996  0.00  0.00     0.068 H 
ATOM     21  CB  HYP d   1      31.375  13.679 142.227  0.00  0.00    -0.012 C 
ATOM     22  H34 HYP d   1      33.429  14.419 142.405  0.00  0.00     0.085 H 
ATOM     23  H32 HYP d   1      30.773  14.491 141.793  0.00  0.00     0.040 H 
ATOM     24  H33 HYP d   1      31.724  13.012 141.425  0.00  0.00     0.040 H 
ATOM     25  H31 HYP d   1      29.767  13.530 143.708  0.00  0.00     0.088 H 
BRANCH  15  26
ATOM     26  CA  ALA d   1      32.090  11.601 146.538  0.00  0.00     0.086 C 
ATOM     27  H27 ALA d   1      32.748  12.475 146.653  0.00  0.00     0.086 H 
BRANCH  26  28
ATOM     28  N   ALA d   1      31.461  11.336 147.821  0.00  0.00    -0.346 N 
ATOM     29  C   LEU d   1      31.317  12.303 148.727  0.00  0.00     0.241 C 
ATOM     30  O   LEU d   1      31.711  13.458 148.548  0.00  0.00    -0.271 OA
ATOM     31  H26 ALA d   1      31.131  10.415 148.027  0.00  0.00     0.163 HD
BRANCH  29  32
ATOM     32  CA  LEU d   1      30.639  11.929 150.041  0.00  0.00     0.089 C 
ATOM     33  H16 LEU d   1      30.210  10.920 149.958  0.00  0.00     0.087 H 
BRANCH  32  34
ATOM     34  N   LEU d   1      31.658  11.935 151.078  0.00  0.00    -0.346 N 
ATOM     35  C   THR d   1      31.889  10.899 151.887  0.00  0.00     0.243 C 
ATOM     36  O   THR d   1      31.305   9.818 151.789  0.00  0.00    -0.271 OA
ATOM     37  H15 LEU d   1      32.215  12.758 151.191  0.00  0.00     0.163 HD
BRANCH  35  38
ATOM     38  CA  THR d   1      32.952  11.121 152.956  0.00  0.00     0.113 C 
ATOM     39  H9  THR d   1      33.004  12.197 153.177  0.00  0.00     0.091 H 
BRANCH  38  40
ATOM     40  N   THR d   1      32.615  10.418 154.185  0.00  0.00    -0.344 N 
ATOM     41  C   GLU d   1      32.063  11.033 155.223  0.00  0.00     0.248 C 
ATOM     42  O   GLU d   1      31.670  12.198 155.171  0.00  0.00    -0.271 OA
ATOM     43  H8  THR d   1      32.806   9.438 154.249  0.00  0.00     0.163 HD
BRANCH  41  44
ATOM     44  CA  GLU d   1      31.912  10.202 156.492  0.00  0.00     0.172 C 
ATOM     45  H4  GLU d   1      32.714   9.449 156.511  0.00  0.00     0.098 H 
BRANCH  44  46
ATOM     46  N   GLU d   1      32.039  11.031 157.689  0.00  0.00    -0.067 N 
ATOM     47  H1  GLU d   1      31.935  10.455 158.509  0.00  0.00     0.275 HD
ATOM     48  H2  GLU d   1      31.323  11.741 157.684  0.00  0.00     0.275 HD
ATOM     49  H3  GLU d   1      32.947  11.469 157.699  0.00  0.00     0.275 HD
ENDBRANCH  44  46
BRANCH  44  50
ATOM     50  CB  GLU d   1      30.567   9.477 156.471  0.00  0.00    -0.042 C 
ATOM     51  H5  GLU d   1      30.497   8.861 155.562  0.00  0.00     0.030 H 
ATOM     52  H6  GLU d   1      29.752  10.216 156.477  0.00  0.00     0.030 H 
ATOM     53  H7  GLU d   1      30.484   8.832 157.358  0.00  0.00     0.030 H 
ENDBRANCH  44  50
ENDBRANCH  41  44
ENDBRANCH  38  40
BRANCH  38  54
ATOM     54  CB  THR d   1      34.316  10.664 152.434  0.00  0.00     0.060 C 
ATOM     55  H10 THR d   1      34.465  11.067 151.422  0.00  0.00     0.086 H 
BRANCH  54  56
ATOM     56  OG1 THR d   1      34.361   9.233 152.381  0.00  0.00    -0.393 OA
ATOM     57  H11 THR d   1      33.680   8.917 151.799  0.00  0.00     0.210 HD
ENDBRANCH  54  56
BRANCH  54  58
ATOM     58  CG2 THR d   1      35.425  11.175 153.340  0.00  0.00    -0.050 C 
ATOM     59  H12 THR d   1      36.398  10.839 152.953  0.00  0.00     0.031 H 
ATOM     60  H13 THR d   1      35.279  10.781 154.357  0.00  0.00     0.031 H 
ATOM     61  H14 THR d   1      35.400  12.274 153.366  0.00  0.00     0.031 H 
ENDBRANCH  54  58
ENDBRANCH  38  54
ENDBRANCH  35  38
ENDBRANCH  32  34
BRANCH  32  62
ATOM     62  CB  LEU d   1      29.516  12.916 150.366  0.00  0.00    -0.035 C 
ATOM     63  H17 LEU d   1      28.825  12.929 149.511  0.00  0.00     0.037 H 
ATOM     64  H18 LEU d   1      29.970  13.911 150.485  0.00  0.00     0.037 H 
BRANCH  62  65
ATOM     65  CG  LEU d   1      28.689  12.625 151.631  0.00  0.00    -0.059 C 
ATOM     66  H19 LEU d   1      29.361  12.737 152.495  0.00  0.00     0.038 H 
BRANCH  65  67
ATOM     67  CD1 LEU d   1      27.528  13.623 151.817  0.00  0.00    -0.073 C 
ATOM     68  H20 LEU d   1      26.971  13.371 152.732  0.00  0.00     0.028 H 
ATOM     69  H21 LEU d   1      26.854  13.567 150.950  0.00  0.00     0.028 H 
ATOM     70  H22 LEU d   1      27.931  14.643 151.902  0.00  0.00     0.028 H 
ENDBRANCH  65  67
BRANCH  65  71
ATOM     71  CD2 LEU d   1      28.167  11.181 151.630  0.00  0.00    -0.073 C 
ATOM     72  H23 LEU d   1      29.010  10.487 151.496  0.00  0.00     0.028 H 
ATOM     73  H24 LEU d   1      27.450  11.051 150.806  0.00  0.00     0.028 H 
ATOM     74  H25 LEU d   1      27.667  10.971 152.587  0.00  0.00     0.028 H 
ENDBRANCH  65  71
ENDBRANCH  62  65
ENDBRANCH  32  62
ENDBRANCH  29  32
ENDBRANCH  26  28
BRANCH  26  75
ATOM     75  CB  ALA d   1      32.940  10.418 146.123  0.00  0.00    -0.049 C 
ATOM     76  H28 ALA d   1      33.411  10.628 145.152  0.00  0.00     0.030 H 
ATOM     77  H29 ALA d   1      32.306   9.523 146.037  0.00  0.00     0.030 H 
ATOM     78  H30 ALA d   1      33.720  10.244 146.879  0.00  0.00     0.030 H 
ENDBRANCH  26  75
ENDBRANCH  15  26
BRANCH  18  79
ATOM     79  OD1 HYP d   1      32.137  15.416 143.655  0.00  0.00    -0.394 OA
ATOM     80  H37 HYP d   1      31.962  16.072 142.991  0.00  0.00     0.210 HD
ENDBRANCH  18  79
ENDBRANCH  10  13
ENDBRANCH   7   9
BRANCH   7  81
ATOM     81  CB  TYR d   1      27.336   9.852 142.244  0.00  0.00    -0.014 C 
ATOM     82  H40 TYR d   1      28.009   9.458 143.020  0.00  0.00     0.043 H 
ATOM     83  H41 TYR d   1      26.924   9.018 141.658  0.00  0.00     0.043 H 
BRANCH  81  84
ATOM     84  CG  TYR d   1      26.203  10.552 142.920  0.00  0.00    -0.056 A 
ATOM     85  CD1 TYR d   1      26.407  11.225 144.120  0.00  0.00    -0.074 A 
ATOM     86  CE1 TYR d   1      25.357  11.881 144.757  0.00  0.00    -0.051 A 
ATOM     87  H42 TYR d   1      27.395  11.239 144.565  0.00  0.00     0.084 H 
ATOM     88  CZ  TYR d   1      24.091  11.844 144.202  0.00  0.00     0.065 A 
ATOM     89  H44 TYR d   1      25.531  12.418 145.683  0.00  0.00     0.087 H 
ATOM     90  CE2 TYR d   1      23.857  11.174 143.019  0.00  0.00    -0.051 A 
ATOM     91  CD2 TYR d   1      24.907  10.532 142.380  0.00  0.00    -0.074 A 
ATOM     92  H45 TYR d   1      22.861  11.150 142.593  0.00  0.00     0.087 H 
ATOM     93  H43 TYR d   1      24.724  10.007 141.450  0.00  0.00     0.084 H 
BRANCH  88  94
ATOM     94  OH  TYR d   1      23.062  12.479 144.848  0.00  0.00    -0.361 OA
ATOM     95  H46 TYR d   1      23.391  12.887 145.640  0.00  0.00     0.217 HD
ENDBRANCH  88  94
ENDBRANCH  81  84
ENDBRANCH   7  81
ENDBRANCH   4   7
ENDBRANCH   1   3
BRANCH   1  96
ATOM     96  C   ILE d   1      24.901  10.008 138.228  0.00  0.00     0.243 C 
ATOM     97  O   ILE d   1      24.879   8.777 138.349  0.00  0.00    -0.271 OA
ATOM     98  N   PRO d   1      23.781  10.727 138.263  0.00  0.00    -0.337 N 
ATOM     99  CA  PRO d   1      22.483  10.047 138.362  0.00  0.00     0.091 C 
ATOM    100  CD  PRO d   1      23.626  12.178 138.122  0.00  0.00    -0.001 C 
ATOM    101  CB  PRO d   1      21.477  11.195 138.485  0.00  0.00    -0.036 C 
ATOM    102  H58 PRO d   1      22.446   9.402 139.252  0.00  0.00     0.087 H 
ATOM    103  CG  PRO d   1      22.273  12.419 138.688  0.00  0.00    -0.048 C 
ATOM    104  H59 PRO d   1      20.810  11.027 139.343  0.00  0.00     0.036 H 
ATOM    105  H60 PRO d   1      20.878  11.278 137.566  0.00  0.00     0.036 H 
ATOM    106  H61 PRO d   1      22.351  12.641 139.762  0.00  0.00     0.035 H 
ATOM    107  H62 PRO d   1      21.797  13.265 138.172  0.00  0.00     0.035 H 
ATOM    108  H63 PRO d   1      23.674  12.481 137.066  0.00  0.00     0.064 H 
ATOM    109  H64 PRO d   1      24.396  12.716 138.693  0.00  0.00     0.064 H 
BRANCH  99 110
ATOM    110  C   PRO d   1      22.221   9.208 137.124  0.00  0.00     0.241 C 
ATOM    111  O   PRO d   1      22.416   9.663 135.990  0.00  0.00    -0.271 OA
ATOM    112  N   MET d   1      21.762   7.979 137.350  0.00  0.00    -0.346 N 
ATOM    113  H65 MET d   1      21.556   7.686 138.284  0.00  0.00     0.163 HD
BRANCH 112 114
ATOM    114  CA  MET d   1      21.559   7.060 136.238  0.00  0.00     0.090 C 
ATOM    115  H66 MET d   1      22.497   6.992 135.668  0.00  0.00     0.087 H 
BRANCH 114 116
ATOM    116  C   MET d   1      20.467   7.569 135.298  0.00  0.00     0.241 C 
ATOM    117  O   MET d   1      20.560   7.396 134.078  0.00  0.00    -0.271 OA
ATOM    118  N   ASP d   1      19.437   8.218 135.844  0.00  0.00    -0.346 N 
ATOM    119  H74 ASP d   1      19.424   8.350 136.835  0.00  0.00     0.163 HD
BRANCH 118 120
ATOM    120  CA  ASP d   1      18.325   8.745 135.051  0.00  0.00     0.098 C 
ATOM    121  H75 ASP d   1      18.118   8.023 134.247  0.00  0.00     0.088 H 
BRANCH 120 122
ATOM    122  C   ASP d   1      18.626  10.096 134.396  0.00  0.00     0.241 C 
ATOM    123  O   ASP d   1      17.732  10.676 133.760  0.00  0.00    -0.271 OA
ATOM    124  N   GLY d   1      19.851  10.605 134.529  0.00  0.00    -0.351 N 
ATOM    125  H78 GLY d   1      20.526  10.113 135.078  0.00  0.00     0.163 HD
BRANCH 124 126
ATOM    126  CA  GLY d   1      20.227  11.851 133.898  0.00  0.00     0.069 C 
ATOM    127  H79 GLY d   1      21.157  12.221 134.355  0.00  0.00     0.078 H 
ATOM    128  H80 GLY d   1      19.425  12.589 134.050  0.00  0.00     0.078 H 
BRANCH 126 129
ATOM    129  C   GLY d   1      20.447  11.656 132.416  0.00  0.00     0.236 C 
ATOM    130  O   GLY d   1      21.412  11.004 132.002  0.00  0.00    -0.272 OA
ATOM    131  N   GLU d   1      19.547  12.209 131.608  0.00  0.00    -0.346 N 
ATOM    132  H81 GLU d   1      18.791  12.727 132.008  0.00  0.00     0.163 HD
BRANCH 131 133
ATOM    133  CA  GLU d   1      19.628  12.084 130.155  0.00  0.00     0.090 C 
ATOM    134  H82 GLU d   1      19.906  11.051 129.899  0.00  0.00     0.087 H 
BRANCH 133 135
ATOM    135  C   GLU d   1      20.723  13.020 129.659  0.00  0.00     0.241 C 
ATOM    136  O   GLU d   1      20.483  14.183 129.329  0.00  0.00    -0.271 OA
ATOM    137  N   ASP d   1      21.952  12.501 129.627  0.00  0.00    -0.346 N 
ATOM    138  H87 ASP d   1      22.099  11.578 129.983  0.00  0.00     0.163 HD
BRANCH 137 139
ATOM    139  CA  ASP d   1      23.087  13.240 129.088  0.00  0.00     0.086 C 
ATOM    140  H88 ASP d   1      23.343  14.049 129.788  0.00  0.00     0.086 H 
BRANCH 139 141
ATOM    141  C   ASP d   1      22.710  13.861 127.746  0.00  0.00     0.240 C 
ATOM    142  O   ASP d   1      22.482  13.147 126.764  0.00  0.00    -0.271 OA
ATOM    143  N   PHE d   1      22.624  15.190 127.703  0.00  0.00    -0.344 N 
ATOM    144  H92 PHE d   1      22.804  15.713 128.536  0.00  0.00     0.163 HD
BRANCH 143 145
ATOM    145  CA  PHE d   1      22.276  15.909 126.480  0.00  0.00     0.100 C 
ATOM    146  H93 PHE d   1      21.748  15.214 125.810  0.00  0.00     0.090 H 
BRANCH 145 147
ATOM    147  C   PHE d   1      23.534  16.405 125.763  0.00  0.00     0.197 C 
ATOM    148  O   PHE d   1      23.452  17.074 124.728  0.00  0.00    -0.646 OA
ATOM    149  OXT PHE d   1      24.659  16.147 126.204  0.00  0.00    -0.646 OA
ENDBRANCH 145 147
BRANCH 145 150
ATOM    150  CB  PHE d   1      21.337  17.085 126.795  0.00  0.00    -0.013 C 
ATOM    151  H94 PHE d   1      20.486  16.700 127.377  0.00  0.00     0.043 H 
ATOM    152  H95 PHE d   1      20.973  17.499 125.843  0.00  0.00     0.043 H 
BRANCH 150 153
ATOM    153  CG  PHE d   1      21.984  18.209 127.586  0.00  0.00    -0.056 A 
ATOM    154  CD1 PHE d   1      22.295  18.045 128.929  0.00  0.00    -0.077 A 
ATOM    155  CE1 PHE d   1      22.872  19.070 129.652  0.00  0.00    -0.082 A 
ATOM    156  H96 PHE d   1      22.082  17.100 129.416  0.00  0.00     0.084 H 
ATOM    157  CZ  PHE d   1      23.140  20.286 129.044  0.00  0.00    -0.083 A 
ATOM    158  H98 PHE d   1      23.116  18.923 130.698  0.00  0.00     0.083 H 
ATOM    159  CE2 PHE d   1      22.828  20.473 127.710  0.00  0.00    -0.082 A 
ATOM    160 0H10 PHE d   1      23.593  21.089 129.613  0.00  0.00     0.083 H 
ATOM    161  CD2 PHE d   1      22.248  19.440 126.987  0.00  0.00    -0.077 A 
ATOM    162  H99 PHE d   1      23.036  21.423 127.231  0.00  0.00     0.083 H 
ATOM    163  H97 PHE d   1      21.997  19.592 125.944  0.00  0.00     0.084 H 
ENDBRANCH 150 153
ENDBRANCH 145 150
ENDBRANCH 143 145
ENDBRANCH 139 141
BRANCH 139 164
ATOM    164  CB  ASP d   1      24.308  12.321 128.945  0.00  0.00    -0.049 C 
ATOM    165  H89 ASP d   1      25.153  12.895 128.538  0.00  0.00     0.030 H 
ATOM    166  H90 ASP d   1      24.065  11.492 128.264  0.00  0.00     0.030 H 
ATOM    167  H91 ASP d   1      24.581  11.917 129.931  0.00  0.00     0.030 H 
ENDBRANCH 139 164
ENDBRANCH 137 139
ENDBRANCH 133 135
BRANCH 133 168
ATOM    168  CB  GLU d   1      18.277  12.386 129.515  0.00  0.00    -0.029 C 
ATOM    169  H83 GLU d   1      18.450  12.775 128.501  0.00  0.00     0.037 H 
ATOM    170  H84 GLU d   1      17.768  13.151 130.119  0.00  0.00     0.037 H 
BRANCH 168 171
ATOM    171  CG  GLU d   1      17.366  11.159 129.416  0.00  0.00     0.018 C 
ATOM    172  H85 GLU d   1      17.480  10.566 130.336  0.00  0.00     0.049 H 
ATOM    173  H86 GLU d   1      17.684  10.559 128.551  0.00  0.00     0.049 H 
BRANCH 171 174
ATOM    174  CD  GLU d   1      15.895  11.504 129.246  0.00  0.00     0.172 C 
ATOM    175  OE1 GLU d   1      15.529  12.692 129.395  0.00  0.00    -0.648 OA
ATOM    176  OE2 GLU d   1      15.101  10.578 128.967  0.00  0.00    -0.648 OA
ENDBRANCH 171 174
ENDBRANCH 168 171
ENDBRANCH 133 168
ENDBRANCH 131 133
ENDBRANCH 126 129
ENDBRANCH 124 126
ENDBRANCH 120 122
BRANCH 120 177
ATOM    177  CB  ASP d   1      17.070   8.868 135.926  0.00  0.00     0.043 C 
ATOM    178  H76 ASP d   1      16.832   7.877 136.339  0.00  0.00     0.052 H 
ATOM    179  H77 ASP d   1      16.236   9.213 135.297  0.00  0.00     0.052 H 
BRANCH 177 180
ATOM    180  CG  ASP d   1      17.246   9.847 137.081  0.00  0.00     0.175 C 
ATOM    181  OD1 ASP d   1      18.339   9.887 137.686  0.00  0.00    -0.648 OA
ATOM    182  OD2 ASP d   1      16.281  10.578 137.391  0.00  0.00    -0.648 OA
ENDBRANCH 177 180
ENDBRANCH 120 177
ENDBRANCH 118 120
ENDBRANCH 114 116
BRANCH 114 183
ATOM    183  CB  MET d   1      21.218   5.667 136.774  0.00  0.00    -0.030 C 
ATOM    184  H67 MET d   1      20.128   5.533 136.716  0.00  0.00     0.037 H 
ATOM    185  H68 MET d   1      21.539   5.614 137.825  0.00  0.00     0.037 H 
BRANCH 183 186
ATOM    186  CG  MET d   1      21.882   4.518 136.013  0.00  0.00    -0.021 C 
ATOM    187  H69 MET d   1      22.544   4.944 135.245  0.00  0.00     0.049 H 
ATOM    188  H70 MET d   1      21.097   3.919 135.529  0.00  0.00     0.049 H 
BRANCH 186 189
ATOM    189  SD  MET d   1      22.862   3.429 137.079  0.00  0.00    -0.173 SA
BRANCH 189 190
ATOM    190  CE  MET d   1      21.606   2.325 137.709  0.00  0.00    -0.035 C 
ATOM    191  H71 MET d   1      22.068   1.592 138.387  0.00  0.00     0.041 H 
ATOM    192  H72 MET d   1      21.127   1.798 136.871  0.00  0.00     0.041 H 
ATOM    193  H73 MET d   1      20.849   2.905 138.257  0.00  0.00     0.041 H 
ENDBRANCH 189 190
ENDBRANCH 186 189
ENDBRANCH 183 186
ENDBRANCH 114 183
ENDBRANCH 112 114
ENDBRANCH  99 110
ENDBRANCH   1  96
BRANCH   1 194
ATOM    194  CB  ILE d   1      26.899  10.259 136.730  0.00  0.00    -0.030 C 
ATOM    195  H49 ILE d   1      27.117   9.182 136.789  0.00  0.00     0.043 H 
BRANCH 194 196
ATOM    196  CG1 ILE d   1      28.204  11.021 136.555  0.00  0.00    -0.063 C 
ATOM    197  H50 ILE d   1      28.687  11.114 137.539  0.00  0.00     0.033 H 
ATOM    198  H51 ILE d   1      27.973  12.023 136.164  0.00  0.00     0.033 H 
BRANCH 196 199
ATOM    199  CD1 ILE d   1      29.162  10.357 135.618  0.00  0.00    -0.076 C 
ATOM    200  H55 ILE d   1      30.078  10.961 135.541  0.00  0.00     0.027 H 
ATOM    201  H56 ILE d   1      28.699  10.265 134.625  0.00  0.00     0.027 H 
ATOM    202  H57 ILE d   1      29.414   9.356 135.999  0.00  0.00     0.027 H 
ENDBRANCH 196 199
ENDBRANCH 194 196
BRANCH 194 203
ATOM    203  CG2 ILE d   1      25.970  10.505 135.548  0.00  0.00    -0.071 C 
ATOM    204  H52 ILE d   1      25.034   9.946 135.695  0.00  0.00     0.028 H 
ATOM    205  H53 ILE d   1      26.458  10.167 134.622  0.00  0.00     0.028 H 
ATOM    206  H54 ILE d   1      25.747  11.580 135.474  0.00  0.00     0.028 H 
ENDBRANCH 194 203
ENDBRANCH   1 194
TORSDOF 55
