REMARK  24 active torsions:
REMARK  status: ('A' for Active; 'I' for Inactive)
REMARK    1  A    between atoms: CA_6  and  CB_9 
REMARK    2  A    between atoms: CB_9  and  OG1_10 
REMARK    3  A    between atoms: CB_9  and  CG2_11 
REMARK    4  A    between atoms: CA_19  and  CB_22 
REMARK    5  A    between atoms: CB_22  and  OG1_23 
REMARK    6  A    between atoms: CB_22  and  CG2_24 
REMARK    7  A    between atoms: CA_26  and  CB_29 
REMARK    8  A    between atoms: CB_29  and  CG_30 
REMARK    9  A    between atoms: CG_30  and  CD_31 
REMARK   10  A    between atoms: CD_31  and  NE_32 
REMARK       I    between atoms: NE_32  and  CZ_33 
REMARK       I    between atoms: CZ_33  and  NH1_34 
REMARK   11  A    between atoms: CA_37  and  CB_40 
REMARK   12  A    between atoms: CB_40  and  OG_41 
REMARK   13  A    between atoms: CA_43  and  CB_46 
REMARK   14  A    between atoms: CB_46  and  CG1_47 
REMARK   15  A    between atoms: CB_46  and  CG2_48 
REMARK   16  A    between atoms: CG1_47  and  CD1_49 
REMARK   17  A    between atoms: CA_65  and  CB_68 
REMARK   18  A    between atoms: CB_68  and  CG1_69 
REMARK   19  A    between atoms: CB_68  and  CG2_70 
REMARK   20  A    between atoms: CG1_69  and  CD1_71 
REMARK   21  A    between atoms: CA_79  and  CB_82 
REMARK   22  A    between atoms: CB_82  and  CG_83 
REMARK       I    between atoms: CG_83  and  ND2_85 
REMARK   23  A    between atoms: CA_94  and  CB_97 
REMARK   24  A    between atoms: CB_97  and  CG_98 
REMARK       I    between atoms: CG_98  and  ND2_100 
ROOT
ATOM      1  N   GLY d   1       5.855  44.877  11.814  0.00  0.00    -0.084 NA
ATOM      2  CA  GLY d   1       5.550  43.458  11.865  0.00  0.00     0.215 A 
ATOM      3  C   GLY d   1       6.690  42.556  11.419  0.00  0.00     0.266 C 
ATOM      4  O   GLY d   1       6.590  41.330  11.499  0.00  0.00    -0.269 OA
ATOM      5  N   GLY d   1       7.779  43.157  10.949  0.00  0.00    -0.342 N 
ATOM      6  CA  GLY d   1       8.912  42.379  10.476  0.00  0.00     0.113 C 
ATOM      7  C   GLY d   1       9.797  41.973  11.648  0.00  0.00     0.243 C 
ATOM      8  O   GLY d   1      10.009  42.749  12.585  0.00  0.00    -0.271 OA
ATOM      9  N   GLY d   1      10.297  40.741  11.596  0.00  0.00    -0.345 N 
ATOM     10  CA  GLY d   1      11.092  40.176  12.675  0.00  0.00     0.098 C 
ATOM     11  C   GLY d   1      12.310  39.469  12.111  0.00  0.00     0.242 C 
ATOM     12  O   GLY d   1      12.251  38.875  11.027  0.00  0.00    -0.271 OA
ATOM     13  CB  GLY d   1      10.302  39.154  13.508  0.00  0.00     0.013 C 
ATOM     14  SG  GLY d   1       8.762  39.739  14.193  0.00  0.00    -0.095 SA
ATOM     15  N   GLY d   1      13.403  39.506  12.878  0.00  0.00    -0.344 N 
ATOM     16  CA  GLY d   1      14.507  38.593  12.628  0.00  0.00     0.113 C 
ATOM     17  C   GLY d   1      14.026  37.154  12.759  0.00  0.00     0.243 C 
ATOM     18  O   GLY d   1      13.023  36.858  13.417  0.00  0.00    -0.271 OA
ATOM     19  N   GLY d   1      14.771  36.238  12.152  0.00  0.00    -0.346 N 
ATOM     20  CA  GLY d   1      14.374  34.835  12.193  0.00  0.00     0.089 C 
ATOM     21  C   GLY d   1      15.169  34.038  13.222  0.00  0.00     0.241 C 
ATOM     22  O   GLY d   1      15.507  32.872  13.028  0.00  0.00    -0.271 OA
ATOM     23  N   GLY d   1      15.467  34.667  14.351  0.00  0.00    -0.344 N 
ATOM     24  CA  GLY d   1      16.150  34.032  15.463  0.00  0.00     0.109 C 
ATOM     25  C   GLY d   1      15.125  33.490  16.455  0.00  0.00     0.243 C 
ATOM     26  O   GLY d   1      13.934  33.801  16.380  0.00  0.00    -0.271 OA
ATOM     27  N   GLY d   1      15.595  32.671  17.392  0.00  0.00    -0.346 N 
ATOM     28  CA  GLY d   1      14.794  32.288  18.553  0.00  0.00     0.092 C 
ATOM     29  C   GLY d   1      15.358  33.020  19.767  0.00  0.00     0.243 C 
ATOM     30  O   GLY d   1      16.500  32.751  20.176  0.00  0.00    -0.271 OA
ATOM     31  N   GLY d   1      14.617  33.958  20.378  0.00  0.00    -0.337 N 
ATOM     32  CA  GLY d   1      13.317  34.487  19.954  0.00  0.00     0.092 C 
ATOM     33  C   GLY d   1      13.483  35.518  18.848  0.00  0.00     0.243 C 
ATOM     34  O   GLY d   1      14.586  36.021  18.663  0.00  0.00    -0.271 OA
ATOM     35  CB  GLY d   1      12.781  35.146  21.227  0.00  0.00    -0.036 C 
ATOM     36  CG  GLY d   1      13.996  35.598  21.931  0.00  0.00    -0.048 C 
ATOM     37  CD  GLY d   1      15.067  34.569  21.642  0.00  0.00    -0.001 C 
ATOM     38  N   GLY d   1      12.412  35.828  18.128  0.00  0.00    -0.337 N 
ATOM     39  CA  GLY d   1      12.501  36.874  17.105  0.00  0.00     0.091 C 
ATOM     40  C   GLY d   1      12.679  38.246  17.733  0.00  0.00     0.241 C 
ATOM     41  O   GLY d   1      12.228  38.512  18.851  0.00  0.00    -0.271 OA
ATOM     42  CB  GLY d   1      11.158  36.771  16.373  0.00  0.00    -0.036 C 
ATOM     43  CG  GLY d   1      10.217  36.182  17.406  0.00  0.00    -0.048 C 
ATOM     44  CD  GLY d   1      11.079  35.196  18.163  0.00  0.00    -0.001 C 
ATOM     45  N   GLY d   1      13.355  39.120  16.996  0.00  0.00    -0.346 N 
ATOM     46  CA  GLY d   1      13.463  40.537  17.327  0.00  0.00     0.092 C 
ATOM     47  C   GLY d   1      12.621  41.290  16.308  0.00  0.00     0.241 C 
ATOM     48  O   GLY d   1      12.903  41.233  15.106  0.00  0.00    -0.271 OA
ATOM     49  N   GLY d   1      11.588  41.987  16.775  0.00  0.00    -0.345 N 
ATOM     50  CA  GLY d   1      10.551  42.485  15.887  0.00  0.00     0.098 C 
ATOM     51  C   GLY d   1      10.464  44.004  15.909  0.00  0.00     0.242 C 
ATOM     52  O   GLY d   1      10.750  44.659  16.917  0.00  0.00    -0.271 OA
ATOM     53  CB  GLY d   1       9.192  41.882  16.254  0.00  0.00     0.013 C 
ATOM     54  SG  GLY d   1       9.183  40.077  16.160  0.00  0.00    -0.095 SA
ATOM     55  N   GLY d   1      10.073  44.524  14.834  0.00  0.00    -0.346 N 
ATOM     56  CA  GLY d   1       9.756  45.903  14.533  0.00  0.00     0.097 C 
ATOM     57  C   GLY d   1       8.261  46.134  14.706  0.00  0.00     0.243 C 
ATOM     58  O   GLY d   1       7.470  45.195  14.583  0.00  0.00    -0.271 OA
ATOM     59  N   GLY d   1       7.830  47.356  15.031  0.00  0.00    -0.337 N 
ATOM     60  CA  GLY d   1       6.384  47.619  15.068  0.00  0.00     0.091 C 
ATOM     61  C   GLY d   1       5.696  47.352  13.741  0.00  0.00     0.241 C 
ATOM     62  O   GLY d   1       4.536  46.921  13.732  0.00  0.00    -0.271 OA
ATOM     63  CB  GLY d   1       6.308  49.102  15.457  0.00  0.00    -0.036 C 
ATOM     64  CG  GLY d   1       7.569  49.349  16.212  0.00  0.00    -0.048 C 
ATOM     65  CD  GLY d   1       8.612  48.488  15.556  0.00  0.00    -0.001 C 
ATOM     66  N   GLY d   1       6.382  47.573  12.622  0.00  0.00    -0.346 N 
ATOM     67  CA  GLY d   1       5.796  47.370  11.299  0.00  0.00     0.094 C 
ATOM     68  C   GLY d   1       5.610  45.884  10.982  0.00  0.00     0.249 C 
ATOM     69  O   GLY d   1       5.040  45.526   9.947  0.00  0.00    -0.275 OA
ATOM     70  OXT GLY d   1       6.027  45.017  11.756  0.00  0.00    -0.260 OA
ATOM     71  H1  GLY d   1       4.583  42.968  12.049  0.00  0.00     0.131 H 
ATOM     72  H2  GLY d   1       7.819  44.156  10.921  0.00  0.00     0.163 HD
ATOM     73  H3  GLY d   1       8.531  41.466   9.995  0.00  0.00     0.091 H 
ATOM     74  H9  GLY d   1      10.120  40.183  10.785  0.00  0.00     0.163 HD
ATOM     75  H10 GLY d   1      11.418  40.995  13.332  0.00  0.00     0.088 H 
ATOM     76  H11 GLY d   1      10.942  38.831  14.342  0.00  0.00     0.053 H 
ATOM     77  H12 GLY d   1      10.079  38.292  12.862  0.00  0.00     0.053 H 
ATOM     78  H13 GLY d   1      13.462  40.165  13.628  0.00  0.00     0.163 HD
ATOM     79  H14 GLY d   1      14.877  38.761  11.606  0.00  0.00     0.091 H 
ATOM     80  H20 GLY d   1      15.603  36.509  11.668  0.00  0.00     0.163 HD
ATOM     81  H21 GLY d   1      13.319  34.794  12.501  0.00  0.00     0.087 H 
ATOM     82  H33 GLY d   1      15.208  35.629  14.441  0.00  0.00     0.163 HD
ATOM     83  H34 GLY d   1      16.756  33.196  15.084  0.00  0.00     0.090 H 
ATOM     84  H38 GLY d   1      16.522  32.307  17.299  0.00  0.00     0.163 HD
ATOM     85  H39 GLY d   1      13.755  32.611  18.389  0.00  0.00     0.088 H 
ATOM     86  H49 GLY d   1      12.652  33.680  19.612  0.00  0.00     0.087 H 
ATOM     87  H50 GLY d   1      12.222  34.421  21.837  0.00  0.00     0.036 H 
ATOM     88  H51 GLY d   1      12.130  35.999  20.982  0.00  0.00     0.036 H 
ATOM     89  H52 GLY d   1      13.808  35.658  23.013  0.00  0.00     0.035 H 
ATOM     90  H53 GLY d   1      14.307  36.585  21.558  0.00  0.00     0.035 H 
ATOM     91  H54 GLY d   1      16.050  35.047  21.521  0.00  0.00     0.064 H 
ATOM     92  H55 GLY d   1      15.120  33.819  22.445  0.00  0.00     0.064 H 
ATOM     93  H56 GLY d   1      13.337  36.678  16.418  0.00  0.00     0.087 H 
ATOM     94  H57 GLY d   1      11.240  36.110  15.498  0.00  0.00     0.036 H 
ATOM     95  H58 GLY d   1      10.812  37.764  16.051  0.00  0.00     0.036 H 
ATOM     96  H59 GLY d   1       9.373  35.671  16.920  0.00  0.00     0.035 H 
ATOM     97  H60 GLY d   1       9.835  36.964  18.078  0.00  0.00     0.035 H 
ATOM     98  H61 GLY d   1      10.726  35.075  19.198  0.00  0.00     0.064 H 
ATOM     99  H62 GLY d   1      11.092  34.217  17.663  0.00  0.00     0.064 H 
ATOM    100  H63 GLY d   1      13.814  38.790  16.171  0.00  0.00     0.163 HD
ATOM    101  H64 GLY d   1      13.055  40.707  18.334  0.00  0.00     0.088 H 
ATOM    102  H74 GLY d   1      11.524  42.172  17.756  0.00  0.00     0.163 HD
ATOM    103  H75 GLY d   1      10.803  42.172  14.863  0.00  0.00     0.088 H 
ATOM    104  H76 GLY d   1       8.434  42.275  15.560  0.00  0.00     0.053 H 
ATOM    105  H77 GLY d   1       8.940  42.182  17.282  0.00  0.00     0.053 H 
ATOM    106  H78 GLY d   1       9.964  43.888  14.070  0.00  0.00     0.163 HD
ATOM    107  H79 GLY d   1      10.305  46.559  15.225  0.00  0.00     0.088 H 
ATOM    108  H84 GLY d   1       5.907  46.996  15.839  0.00  0.00     0.087 H 
ATOM    109  H85 GLY d   1       5.430  49.294  16.091  0.00  0.00     0.036 H 
ATOM    110  H86 GLY d   1       6.259  49.738  14.561  0.00  0.00     0.036 H 
ATOM    111  H87 GLY d   1       7.446  49.065  17.267  0.00  0.00     0.035 H 
ATOM    112  H88 GLY d   1       7.852  50.410  16.148  0.00  0.00     0.035 H 
ATOM    113  H89 GLY d   1       9.117  49.030  14.743  0.00  0.00     0.064 H 
ATOM    114  H90 GLY d   1       9.359  48.146  16.288  0.00  0.00     0.064 H 
ATOM    115  H91 GLY d   1       7.329  47.888  12.689  0.00  0.00     0.163 HD
ATOM    116  H92 GLY d   1       4.803  47.844  11.292  0.00  0.00     0.087 H 
ENDROOT
BRANCH  20 117
ATOM    117  CB  GLY d   1      14.466  34.252  10.790  0.00  0.00    -0.036 C 
ATOM    118  H22 GLY d   1      14.571  33.158  10.844  0.00  0.00     0.036 H 
ATOM    119  H23 GLY d   1      15.332  34.678  10.262  0.00  0.00     0.036 H 
BRANCH 117 120
ATOM    120  CG  GLY d   1      13.185  34.614  10.062  0.00  0.00    -0.048 C 
ATOM    121  H24 GLY d   1      12.834  35.580  10.454  0.00  0.00     0.035 H 
ATOM    122  H25 GLY d   1      12.439  33.837  10.283  0.00  0.00     0.035 H 
BRANCH 120 123
ATOM    123  CD  GLY d   1      13.300  34.734   8.573  0.00  0.00     0.009 C 
ATOM    124  H26 GLY d   1      13.593  33.764   8.145  0.00  0.00     0.064 H 
ATOM    125  H27 GLY d   1      14.058  35.490   8.320  0.00  0.00     0.064 H 
BRANCH 123 126
ATOM    126  NE  GLY d   1      11.999  35.140   8.030  0.00  0.00    -0.227 N 
ATOM    127  CZ  GLY d   1      11.615  34.941   6.778  0.00  0.00     0.665 C 
ATOM    128  NH1 GLY d   1      12.439  34.351   5.921  0.00  0.00    -0.235 N 
ATOM    129  NH2 GLY d   1      10.411  35.341   6.384  0.00  0.00    -0.235 N 
ATOM    130  H29 GLY d   1      12.143  34.195   4.947  0.00  0.00     0.174 HD
ATOM    131  H30 GLY d   1      13.374  34.049   6.230  0.00  0.00     0.174 HD
ATOM    132  H31 GLY d   1       9.776  35.798   7.053  0.00  0.00     0.174 HD
ATOM    133  H32 GLY d   1      10.113  35.194   5.409  0.00  0.00     0.174 HD
ATOM    134  H28 GLY d   1      11.340  35.612   8.665  0.00  0.00     0.177 HD
ENDBRANCH 123 126
ENDBRANCH 120 123
ENDBRANCH 117 120
ENDBRANCH  20 117
BRANCH  16 135
ATOM    135  CB  GLY d   1      15.658  38.811  13.615  0.00  0.00     0.060 C 
ATOM    136  H15 GLY d   1      16.486  38.141  13.340  0.00  0.00     0.086 H 
BRANCH 135 137
ATOM    137  OG1 GLY d   1      15.227  38.486  14.949  0.00  0.00    -0.393 OA
ATOM    138  H16 GLY d   1      14.955  37.576  14.980  0.00  0.00     0.210 HD
ENDBRANCH 135 137
BRANCH 135 139
ATOM    139  CG2 GLY d   1      16.160  40.247  13.554  0.00  0.00    -0.050 C 
ATOM    140  H17 GLY d   1      16.985  40.378  14.270  0.00  0.00     0.031 H 
ATOM    141  H18 GLY d   1      15.339  40.934  13.810  0.00  0.00     0.031 H 
ATOM    142  H19 GLY d   1      16.519  40.467  12.538  0.00  0.00     0.031 H 
ENDBRANCH 135 139
ENDBRANCH  16 135
BRANCH  24 143
ATOM    143  CB  GLY d   1      17.071  35.044  16.142  0.00  0.00     0.044 C 
ATOM    144  H35 GLY d   1      17.889  35.312  15.457  0.00  0.00     0.077 H 
ATOM    145  H36 GLY d   1      17.490  34.601  17.058  0.00  0.00     0.077 H 
BRANCH 143 146
ATOM    146  OG  GLY d   1      16.327  36.219  16.478  0.00  0.00    -0.398 OA
ATOM    147  H37 GLY d   1      15.621  35.987  17.070  0.00  0.00     0.209 HD
ENDBRANCH 143 146
ENDBRANCH  24 143
BRANCH  28 148
ATOM    148  CB  GLY d   1      14.792  30.771  18.785  0.00  0.00    -0.030 C 
ATOM    149  H40 GLY d   1      15.832  30.415  18.810  0.00  0.00     0.043 H 
BRANCH 148 150
ATOM    150  CG1 GLY d   1      14.056  30.051  17.660  0.00  0.00    -0.063 C 
ATOM    151  H41 GLY d   1      14.319  30.530  16.706  0.00  0.00     0.033 H 
ATOM    152  H42 GLY d   1      12.974  30.146  17.832  0.00  0.00     0.033 H 
BRANCH 150 153
ATOM    153  CD1 GLY d   1      14.402  28.588  17.574  0.00  0.00    -0.076 C 
ATOM    154  H46 GLY d   1      13.842  28.127  16.747  0.00  0.00     0.027 H 
ATOM    155  H47 GLY d   1      14.136  28.092  18.519  0.00  0.00     0.027 H 
ATOM    156  H48 GLY d   1      15.481  28.477  17.393  0.00  0.00     0.027 H 
ENDBRANCH 150 153
ENDBRANCH 148 150
BRANCH 148 157
ATOM    157  CG2 GLY d   1      14.127  30.459  20.132  0.00  0.00    -0.071 C 
ATOM    158  H43 GLY d   1      14.665  30.983  20.936  0.00  0.00     0.028 H 
ATOM    159  H44 GLY d   1      14.159  29.375  20.315  0.00  0.00     0.028 H 
ATOM    160  H45 GLY d   1      13.080  30.796  20.111  0.00  0.00     0.028 H 
ENDBRANCH 148 157
ENDBRANCH  28 148
BRANCH   6 161
ATOM    161  CB  GLY d   1       9.716  43.171   9.440  0.00  0.00     0.060 C 
ATOM    162  H4  GLY d   1      10.487  42.518   9.005  0.00  0.00     0.086 H 
BRANCH 161 163
ATOM    163  OG1 GLY d   1      10.344  44.301  10.066  0.00  0.00    -0.393 OA
ATOM    164  H5  GLY d   1       9.678  44.864  10.443  0.00  0.00     0.210 HD
ENDBRANCH 161 163
BRANCH 161 165
ATOM    165  CG2 GLY d   1       8.795  43.670   8.338  0.00  0.00    -0.050 C 
ATOM    166  H6  GLY d   1       9.381  44.237   7.599  0.00  0.00     0.031 H 
ATOM    167  H7  GLY d   1       8.023  44.322   8.773  0.00  0.00     0.031 H 
ATOM    168  H8  GLY d   1       8.315  42.812   7.845  0.00  0.00     0.031 H 
ENDBRANCH 161 165
ENDBRANCH   6 161
BRANCH  46 169
ATOM    169  CB  GLY d   1      14.922  41.015  17.309  0.00  0.00    -0.030 C 
ATOM    170  H65 GLY d   1      15.313  40.908  16.286  0.00  0.00     0.043 H 
BRANCH 169 171
ATOM    171  CG1 GLY d   1      15.773  40.153  18.251  0.00  0.00    -0.063 C 
ATOM    172  H66 GLY d   1      15.463  39.104  18.138  0.00  0.00     0.033 H 
ATOM    173  H67 GLY d   1      15.588  40.480  19.285  0.00  0.00     0.033 H 
BRANCH 171 174
ATOM    174  CD1 GLY d   1      17.256  40.245  17.979  0.00  0.00    -0.076 C 
ATOM    175  H71 GLY d   1      17.799  39.604  18.689  0.00  0.00     0.027 H 
ATOM    176  H72 GLY d   1      17.587  41.287  18.099  0.00  0.00     0.027 H 
ATOM    177  H73 GLY d   1      17.462  39.910  16.951  0.00  0.00     0.027 H 
ENDBRANCH 171 174
ENDBRANCH 169 171
BRANCH 169 178
ATOM    178  CG2 GLY d   1      15.011  42.486  17.710  0.00  0.00    -0.071 C 
ATOM    179  H68 GLY d   1      14.397  43.090  17.026  0.00  0.00     0.028 H 
ATOM    180  H69 GLY d   1      16.058  42.819  17.653  0.00  0.00     0.028 H 
ATOM    181  H70 GLY d   1      14.643  42.608  18.739  0.00  0.00     0.028 H 
ENDBRANCH 169 178
ENDBRANCH  46 169
BRANCH  56 182
ATOM    182  CB  GLY d   1      10.172  46.230  13.096  0.00  0.00     0.036 C 
ATOM    183  H80 GLY d   1       9.345  45.965  12.422  0.00  0.00     0.051 H 
ATOM    184  H81 GLY d   1      11.059  45.631  12.842  0.00  0.00     0.051 H 
BRANCH 182 185
ATOM    185  CG  GLY d   1      10.504  47.688  12.901  0.00  0.00     0.217 C 
ATOM    186  OD1 GLY d   1       9.657  48.477  12.483  0.00  0.00    -0.274 OA
ATOM    187  ND2 GLY d   1      11.743  48.058  13.205  0.00  0.00    -0.370 N 
ATOM    188  H82 GLY d   1      12.021  49.012  13.096  0.00  0.00     0.159 HD
ATOM    189  H83 GLY d   1      12.398  47.382  13.543  0.00  0.00     0.159 HD
ENDBRANCH 182 185
ENDBRANCH  56 182
BRANCH  67 190
ATOM    190  CB  GLY d   1       6.658  48.049  10.221  0.00  0.00     0.035 C 
ATOM    191  H93 GLY d   1       7.019  49.010  10.617  0.00  0.00     0.051 H 
ATOM    192  H94 GLY d   1       6.031  48.230   9.336  0.00  0.00     0.051 H 
BRANCH 190 193
ATOM    193  CG  GLY d   1       7.871  47.212   9.795  0.00  0.00     0.217 C 
ATOM    194  OD1 GLY d   1       8.395  46.396  10.553  0.00  0.00    -0.274 OA
ATOM    195  ND2 GLY d   1       8.323  47.432   8.566  0.00  0.00    -0.370 N 
ATOM    196  H95 GLY d   1       9.111  46.920   8.224  0.00  0.00     0.159 HD
ATOM    197  H96 GLY d   1       7.875  48.109   7.982  0.00  0.00     0.159 HD
ENDBRANCH 190 193
ENDBRANCH  67 190
TORSDOF 24
