REMARK  14 active torsions:
REMARK  status: ('A' for Active; 'I' for Inactive)
REMARK    1  A    between atoms: CBD_24  and  CAA_1 
REMARK    2  A    between atoms: CBE_25  and  CAB_2 
REMARK    3  A    between atoms: CBF_26  and  CAC_3 
REMARK    4  A    between atoms: CBI_29  and  CAD_4 
REMARK    5  A    between atoms: NBS_40  and  CAE_5 
REMARK    6  A    between atoms: CAS_15  and  CAU_17 
REMARK    7  A    between atoms: CAV_18  and  CAS_15 
REMARK    8  A    between atoms: CAU_17  and  OBA_45 
REMARK    9  A    between atoms: CBM_33  and  CAV_18 
REMARK   10  A    between atoms: CAY_21  and  CBG_27 
REMARK   11  A    between atoms: NBR_39  and  CAY_21 
REMARK   12  A    between atoms: CBJ_30  and  CBB_22 
REMARK   13  A    between atoms: OBA_45  and  CBH_28 
REMARK   14  A    between atoms: CBL_32  and  CBN_34 
ROOT
ATOM      1  CAK ECY d   1      47.021  -1.420  36.259  0.00  0.00    -0.081 A 
ATOM      2  CAN ECY d   1      46.848  -2.030  37.512  0.00  0.00    -0.070 A 
ATOM      3  CAO ECY d   1      47.807  -2.026  35.303  0.00  0.00    -0.070 A 
ATOM      4  CAT ECY d   1      49.190  -7.491  37.651  0.00  0.00    -0.035 C 
ATOM      5  CAW ECY d   1      48.810  -7.756  36.193  0.00  0.00    -0.000 C 
ATOM      6  CAX ECY d   1      49.097  -5.986  37.945  0.00  0.00     0.002 C 
ATOM      7  CBC ECY d   1      50.492  -6.301  35.184  0.00  0.00     0.271 C 
ATOM      8  CBL ECY d   1      47.454  -3.242  37.826  0.00  0.00     0.006 A 
ATOM      9  CBM ECY d   1      49.284  -4.064  34.796  0.00  0.00    -0.013 A 
ATOM     10  CBO ECY d   1      49.641  -5.166  35.540  0.00  0.00     0.111 A 
ATOM     11  CBP ECY d   1      48.442  -3.252  35.582  0.00  0.00     0.000 A 
ATOM     12  CBQ ECY d   1      48.271  -3.857  36.825  0.00  0.00     0.057 A 
ATOM     13  NBR ECY d   1      50.079  -7.577  35.497  0.00  0.00    -0.343 N 
ATOM     14  NBT ECY d   1      49.015  -5.054  36.793  0.00  0.00    -0.341 N 
ATOM     15  OAG ECY d   1      51.579  -6.180  34.627  0.00  0.00    -0.266 OA
ATOM     16  H17 ECY d   1      46.537  -0.474  36.044  0.00  0.00     0.083 H 
ATOM     17  H20 ECY d   1      46.226  -1.543  38.254  0.00  0.00     0.084 H 
ATOM     18  H21 ECY d   1      47.937  -1.558  34.334  0.00  0.00     0.084 H 
ATOM     19  H27 ECY d   1      50.219  -7.835  37.829  0.00  0.00     0.037 H 
ATOM     20  H28 ECY d   1      48.501  -8.036  38.313  0.00  0.00     0.037 H 
ATOM     21  H33 ECY d   1      48.059  -7.034  35.841  0.00  0.00     0.064 H 
ATOM     22  H34 ECY d   1      48.426  -8.778  36.062  0.00  0.00     0.064 H 
ATOM     23  H35 ECY d   1      49.990  -5.710  38.526  0.00  0.00     0.065 H 
ATOM     24  H36 ECY d   1      48.198  -5.828  38.558  0.00  0.00     0.065 H 
ENDROOT
BRANCH   9  25
ATOM     25  CAV ECY d   1      49.707  -3.731  33.371  0.00  0.00    -0.036 C 
ATOM     26  H31 ECY d   1      50.193  -4.605  32.912  0.00  0.00     0.040 H 
ATOM     27  H32 ECY d   1      48.826  -3.448  32.777  0.00  0.00     0.040 H 
BRANCH  25  28
ATOM     28  CAS ECY d   1      50.700  -2.551  33.430  0.00  0.00    -0.041 C 
ATOM     29  H25 ECY d   1      50.964  -2.373  34.483  0.00  0.00     0.036 H 
ATOM     30  H26 ECY d   1      51.603  -2.830  32.868  0.00  0.00     0.036 H 
BRANCH  28  31
ATOM     31  CAU ECY d   1      50.150  -1.246  32.843  0.00  0.00     0.026 C 
ATOM     32  H29 ECY d   1      49.051  -1.278  32.817  0.00  0.00     0.075 H 
ATOM     33  H30 ECY d   1      50.536  -1.098  31.824  0.00  0.00     0.075 H 
BRANCH  31  34
ATOM     34  OBA ECY d   1      50.597  -0.168  33.706  0.00  0.00    -0.351 OA
BRANCH  34  35
ATOM     35  CBH ECY d   1      50.349   1.174  33.482  0.00  0.00     0.069 A 
ATOM     36  CAP ECY d   1      50.760   2.167  34.371  0.00  0.00    -0.043 A 
ATOM     37  CBD ECY d   1      50.484   3.503  34.098  0.00  0.00    -0.037 A 
ATOM     38  H22 ECY d   1      51.295   1.898  35.275  0.00  0.00     0.088 H 
ATOM     39  CBK ECY d   1      49.787   3.834  32.923  0.00  0.00     0.046 A 
ATOM     40  CBE ECY d   1      49.375   2.831  32.033  0.00  0.00    -0.037 A 
ATOM     41 CLAI ECY d   1      49.424   5.497  32.554  0.00  0.00    -0.083 Cl
ATOM     42  CAQ ECY d   1      49.661   1.500  32.320  0.00  0.00    -0.043 A 
ATOM     43  H23 ECY d   1      49.347   0.718  31.638  0.00  0.00     0.088 H 
BRANCH  37  44
ATOM     44  CAA ECY d   1      50.939   4.575  35.070  0.00  0.00    -0.050 C 
ATOM     45  H1  ECY d   1      51.462   4.105  35.916  0.00  0.00     0.033 H 
ATOM     46  H2  ECY d   1      50.064   5.128  35.442  0.00  0.00     0.033 H 
ATOM     47  H3  ECY d   1      51.621   5.269  34.557  0.00  0.00     0.033 H 
ENDBRANCH  37  44
BRANCH  40  48
ATOM     48  CAB ECY d   1      48.624   3.190  30.767  0.00  0.00    -0.050 C 
ATOM     49  H4  ECY d   1      48.391   2.273  30.206  0.00  0.00     0.033 H 
ATOM     50  H5  ECY d   1      49.247   3.851  30.146  0.00  0.00     0.033 H 
ATOM     51  H6  ECY d   1      47.689   3.707  31.029  0.00  0.00     0.033 H 
ENDBRANCH  40  48
ENDBRANCH  34  35
ENDBRANCH  31  34
ENDBRANCH  28  31
ENDBRANCH  25  28
ENDBRANCH   9  25
BRANCH  13  52
ATOM     52  CAY ECY d   1      50.967  -8.729  35.172  0.00  0.00     0.022 C 
ATOM     53  H37 ECY d   1      51.653  -8.394  34.380  0.00  0.00     0.071 H 
ATOM     54  H38 ECY d   1      51.541  -8.960  36.081  0.00  0.00     0.071 H 
BRANCH  52  55
ATOM     55  CBG ECY d   1      50.337 -10.038  34.695  0.00  0.00    -0.039 A 
ATOM     56  CAL ECY d   1      51.151 -11.173  34.750  0.00  0.00    -0.075 A 
ATOM     57  CAJ ECY d   1      50.687 -12.414  34.331  0.00  0.00    -0.081 A 
ATOM     58  H18 ECY d   1      52.163 -11.083  35.127  0.00  0.00     0.084 H 
ATOM     59  CAM ECY d   1      49.393 -12.538  33.840  0.00  0.00    -0.066 A 
ATOM     60  H16 ECY d   1      51.333 -13.283  34.387  0.00  0.00     0.083 H 
ATOM     61  CBJ ECY d   1      48.547 -11.422  33.762  0.00  0.00     0.041 A 
ATOM     62  H19 ECY d   1      49.034 -13.507  33.514  0.00  0.00     0.085 H 
ATOM     63  CAR ECY d   1      49.041 -10.178  34.186  0.00  0.00    -0.059 A 
ATOM     64  H24 ECY d   1      48.403  -9.305  34.117  0.00  0.00     0.086 H 
BRANCH  61  65
ATOM     65  CBB ECY d   1      47.173 -11.557  33.245  0.00  0.00     0.209 C 
ATOM     66  OAF ECY d   1      46.980 -12.175  32.160  0.00  0.00    -0.644 OA
ATOM     67  OAH ECY d   1      46.206 -11.059  33.887  0.00  0.00    -0.644 OA
ENDBRANCH  61  65
ENDBRANCH  52  55
ENDBRANCH  13  52
BRANCH   8  68
ATOM     68  CBN ECY d   1      47.210  -3.786  39.151  0.00  0.00     0.026 A 
ATOM     69  CBF ECY d   1      46.340  -4.829  39.466  0.00  0.00     0.064 A 
ATOM     70  NAZ ECY d   1      46.359  -5.087  40.738  0.00  0.00    -0.177 NA
ATOM     71  NBS ECY d   1      47.251  -4.209  41.259  0.00  0.00    -0.278 N 
ATOM     72  CBI ECY d   1      47.792  -3.404  40.315  0.00  0.00     0.039 A 
BRANCH  69  73
ATOM     73  CAC ECY d   1      45.477  -5.572  38.479  0.00  0.00    -0.033 C 
ATOM     74  H7  ECY d   1      44.895  -6.341  39.007  0.00  0.00     0.035 H 
ATOM     75  H8  ECY d   1      46.115  -6.051  37.722  0.00  0.00     0.035 H 
ATOM     76  H9  ECY d   1      44.791  -4.866  37.987  0.00  0.00     0.035 H 
ENDBRANCH  69  73
BRANCH  71  77
ATOM     77  CAE ECY d   1      47.547  -4.189  42.678  0.00  0.00     0.003 C 
ATOM     78  H13 ECY d   1      46.951  -4.960  43.188  0.00  0.00     0.059 H 
ATOM     79  H14 ECY d   1      47.297  -3.200  43.091  0.00  0.00     0.059 H 
ATOM     80  H15 ECY d   1      48.617  -4.391  42.832  0.00  0.00     0.059 H 
ENDBRANCH  71  77
BRANCH  72  81
ATOM     81  CAD ECY d   1      48.820  -2.321  40.584  0.00  0.00    -0.035 C 
ATOM     82  H10 ECY d   1      49.084  -1.823  39.639  0.00  0.00     0.035 H 
ATOM     83  H11 ECY d   1      49.721  -2.772  41.025  0.00  0.00     0.035 H 
ATOM     84  H12 ECY d   1      48.400  -1.582  41.283  0.00  0.00     0.035 H 
ENDBRANCH  72  81
ENDBRANCH   8  68
TORSDOF 14
