REMARK WARNING: 32 MAX_TORS EXCEEDED!!!
REMARK  48 active torsions:
REMARK  status: ('A' for Active; 'I' for Inactive)
REMARK    1  A    between atoms: N_1  and  CA_2 
REMARK    2  A    between atoms: CA_2  and  C_3 
REMARK    3  A    between atoms: CA_2  and  CB_5 
REMARK       I    between atoms: C_3  and  N_9 
REMARK    4  A    between atoms: CB_5  and  CG_6 
REMARK    5  A    between atoms: CG_6  and  SD_7 
REMARK    6  A    between atoms: SD_7  and  CE_8 
REMARK    7  A    between atoms: N_9  and  CA_10 
REMARK    8  A    between atoms: CA_10  and  C_11 
REMARK    9  A    between atoms: CA_10  and  CB_13 
REMARK       I    between atoms: C_11  and  N_20 
REMARK   10  A    between atoms: CB_13  and  CG_14 
REMARK   11  A    between atoms: CG_14  and  CD_15 
REMARK   12  A    between atoms: CD_15  and  NE_16 
REMARK       I    between atoms: NE_16  and  CZ_17 
REMARK       I    between atoms: CZ_17  and  NH1_18 
REMARK       I    between atoms: CZ_17  and  NH2_19 
REMARK   13  A    between atoms: N_20  and  CA_21 
REMARK   14  A    between atoms: CA_21  and  C_22 
REMARK   15  A    between atoms: CA_21  and  CB_24 
REMARK       I    between atoms: C_22  and  N_26 
REMARK   16  A    between atoms: CB_24  and  OG_25 
REMARK   17  A    between atoms: N_26  and  CA_27 
REMARK   18  A    between atoms: CA_27  and  C_28 
REMARK   19  A    between atoms: CA_27  and  CB_30 
REMARK       I    between atoms: C_28  and  N_35 
REMARK   20  A    between atoms: CB_30  and  CG_31 
REMARK   21  A    between atoms: CG_31  and  CD_32 
REMARK   22  A    between atoms: CD_32  and  CE_33 
REMARK   23  A    between atoms: CE_33  and  NZ_34 
REMARK   24  A    between atoms: N_35  and  CA_36 
REMARK   25  A    between atoms: CA_36  and  C_37 
REMARK       I    between atoms: C_37  and  N_39 
REMARK   26  A    between atoms: N_39  and  CA_40 
REMARK   27  A    between atoms: CA_40  and  C_41 
REMARK   28  A    between atoms: CA_40  and  CB_43 
REMARK       I    between atoms: C_41  and  N_50 
REMARK   29  A    between atoms: CB_43  and  CG_44 
REMARK   30  A    between atoms: CG_44  and  CD_45 
REMARK   31  A    between atoms: CD_45  and  NE_46 
REMARK       I    between atoms: NE_46  and  CZ_47 
REMARK       I    between atoms: CZ_47  and  NH1_48 
REMARK   32  A    between atoms: N_50  and  CA_51 
REMARK   33  A    between atoms: CA_51  and  C_52 
REMARK   34  A    between atoms: CA_51  and  CB_54 
REMARK       I    between atoms: C_52  and  N_55 
REMARK   35  A    between atoms: N_55  and  CA_56 
REMARK   36  A    between atoms: CA_56  and  C_57 
REMARK   37  A    between atoms: CA_56  and  CB_59 
REMARK       I    between atoms: C_57  and  N_61 
REMARK   38  A    between atoms: CB_59  and  CG_60 
REMARK   39  A    between atoms: N_61  and  CA_62 
REMARK   40  A    between atoms: CA_62  and  C_63 
REMARK   41  A    between atoms: CA_62  and  CB_65 
REMARK       I    between atoms: C_63  and  N_70 
REMARK   42  A    between atoms: CB_65  and  CG_66 
REMARK   43  A    between atoms: CG_66  and  CD_67 
REMARK   44  A    between atoms: CD_67  and  CE_68 
REMARK   45  A    between atoms: CE_68  and  NZ_69 
REMARK   46  A    between atoms: N_70  and  CA_71 
REMARK   47  A    between atoms: CA_71  and  C_72 
REMARK   48  A    between atoms: CA_71  and  CB_74 
ROOT
ATOM      1  C   MET d   1      -7.222  36.273 -22.043  0.00  0.00     0.236 C 
ATOM      2  O   MET d   1      -8.305  35.693 -22.021  0.00  0.00    -0.272 OA
ATOM      3  N   MET d   1      -6.959  37.231 -22.926  0.00  0.00    -0.346 N 
ATOM      4  H46 MET d   1      -6.132  37.784 -22.821  0.00  0.00     0.163 HD
ENDROOT
BRANCH   1   5
ATOM      5  CA  MET d   1      -6.126  35.939 -21.023  0.00  0.00     0.069 C 
ATOM      6  H44 MET d   1      -5.286  35.466 -21.553  0.00  0.00     0.078 H 
ATOM      7  H45 MET d   1      -5.785  36.875 -20.557  0.00  0.00     0.078 H 
BRANCH   5   8
ATOM      8  N   MET d   1      -6.586  35.023 -19.958  0.00  0.00    -0.351 N 
ATOM      9  C   MET d   1      -7.576  35.355 -19.126  0.00  0.00     0.240 C 
ATOM     10  O   MET d   1      -8.094  36.474 -19.109  0.00  0.00    -0.271 OA
ATOM     11  H43 MET d   1      -6.144  34.132 -19.858  0.00  0.00     0.163 HD
BRANCH   9  12
ATOM     12  CA  MET d   1      -8.077  34.275 -18.172  0.00  0.00     0.089 C 
ATOM     13  H31 MET d   1      -7.323  33.477 -18.113  0.00  0.00     0.087 H 
BRANCH  12  14
ATOM     14  N   MET d   1      -8.282  34.830 -16.818  0.00  0.00    -0.346 N 
ATOM     15  C   MET d   1      -7.255  35.159 -16.038  0.00  0.00     0.243 C 
ATOM     16  O   MET d   1      -6.086  35.004 -16.371  0.00  0.00    -0.271 OA
ATOM     17  H30 MET d   1      -9.214  34.961 -16.480  0.00  0.00     0.163 HD
BRANCH  15  18
ATOM     18  CA  MET d   1      -7.585  35.735 -14.671  0.00  0.00     0.109 C 
ATOM     19  H26 MET d   1      -8.671  35.883 -14.582  0.00  0.00     0.090 H 
BRANCH  18  20
ATOM     20  N   MET d   1      -7.132  34.753 -13.714  0.00  0.00    -0.344 N 
ATOM     21  C   MET d   1      -7.951  34.079 -12.926  0.00  0.00     0.241 C 
ATOM     22  O   MET d   1      -9.149  34.304 -12.841  0.00  0.00    -0.271 OA
ATOM     23  H25 MET d   1      -6.151  34.574 -13.644  0.00  0.00     0.163 HD
BRANCH  21  24
ATOM     24  CA  MET d   1      -7.285  33.013 -12.075  0.00  0.00     0.089 C 
ATOM     25  H13 MET d   1      -6.288  33.388 -11.799  0.00  0.00     0.087 H 
BRANCH  24  26
ATOM     26  N   MET d   1      -8.030  32.807 -10.851  0.00  0.00    -0.346 N 
ATOM     27  C   MET d   1      -7.843  33.604  -9.814  0.00  0.00     0.249 C 
ATOM     28  O   MET d   1      -7.087  34.550  -9.839  0.00  0.00    -0.271 OA
ATOM     29  H12 MET d   1      -8.690  32.058 -10.790  0.00  0.00     0.163 HD
BRANCH  27  30
ATOM     30  CA  MET d   1      -8.576  33.254  -8.552  0.00  0.00     0.176 C 
ATOM     31  H4  MET d   1      -9.171  32.341  -8.704  0.00  0.00     0.099 H 
BRANCH  30  32
ATOM     32  N   MET d   1      -7.538  33.009  -7.511  0.00  0.00    -0.066 N 
ATOM     33  H1  MET d   1      -7.986  32.769  -6.640  0.00  0.00     0.275 HD
ATOM     34  H2  MET d   1      -6.984  33.842  -7.386  0.00  0.00     0.275 HD
ATOM     35  H3  MET d   1      -6.942  32.250  -7.803  0.00  0.00     0.275 HD
ENDBRANCH  30  32
BRANCH  30  36
ATOM     36  CB  MET d   1      -9.504  34.388  -8.156  0.00  0.00    -0.022 C 
ATOM     37  H5  MET d   1      -8.941  35.330  -8.233  0.00  0.00     0.037 H 
ATOM     38  H6  MET d   1      -9.810  34.227  -7.112  0.00  0.00     0.037 H 
BRANCH  36  39
ATOM     39  CG  MET d   1     -10.762  34.524  -8.997  0.00  0.00    -0.021 C 
ATOM     40  H7  MET d   1     -11.490  33.752  -8.706  0.00  0.00     0.049 H 
ATOM     41  H8  MET d   1     -10.512  34.409 -10.062  0.00  0.00     0.049 H 
BRANCH  39  42
ATOM     42  SD  MET d   1     -11.465  36.171  -8.706  0.00  0.00    -0.173 SA
BRANCH  42  43
ATOM     43  CE  MET d   1     -13.216  35.791  -8.543  0.00  0.00    -0.035 C 
ATOM     44  H9  MET d   1     -13.777  36.719  -8.359  0.00  0.00     0.041 H 
ATOM     45  H10 MET d   1     -13.364  35.100  -7.700  0.00  0.00     0.041 H 
ATOM     46  H11 MET d   1     -13.577  35.322  -9.470  0.00  0.00     0.041 H 
ENDBRANCH  42  43
ENDBRANCH  39  42
ENDBRANCH  36  39
ENDBRANCH  30  36
ENDBRANCH  27  30
ENDBRANCH  24  26
BRANCH  24  47
ATOM     47  CB  MET d   1      -7.078  31.694 -12.840  0.00  0.00    -0.036 C 
ATOM     48  H14 MET d   1      -6.636  30.972 -12.137  0.00  0.00     0.036 H 
ATOM     49  H15 MET d   1      -6.367  31.895 -13.655  0.00  0.00     0.036 H 
BRANCH  47  50
ATOM     50  CG  MET d   1      -8.304  31.035 -13.458  0.00  0.00    -0.048 C 
ATOM     51  H16 MET d   1      -8.531  31.508 -14.425  0.00  0.00     0.035 H 
ATOM     52  H17 MET d   1      -9.165  31.149 -12.783  0.00  0.00     0.035 H 
BRANCH  50  53
ATOM     53  CD  MET d   1      -8.011  29.560 -13.668  0.00  0.00     0.009 C 
ATOM     54  H18 MET d   1      -6.965  29.445 -13.988  0.00  0.00     0.064 H 
ATOM     55  H19 MET d   1      -8.679  29.171 -14.451  0.00  0.00     0.064 H 
BRANCH  53  56
ATOM     56  NE  MET d   1      -8.220  28.790 -12.436  0.00  0.00    -0.227 N 
ATOM     57  CZ  MET d   1      -7.799  27.537 -12.221  0.00  0.00     0.665 C 
ATOM     58  NH1 MET d   1      -8.052  26.944 -11.054  0.00  0.00    -0.235 N 
ATOM     59  NH2 MET d   1      -7.122  26.871 -13.142  0.00  0.00    -0.235 N 
ATOM     60  H21 MET d   1      -7.730  25.980 -10.885  0.00  0.00     0.174 HD
ATOM     61  H22 MET d   1      -8.570  27.450 -10.321  0.00  0.00     0.174 HD
ATOM     62  H23 MET d   1      -6.917  27.312 -14.050  0.00  0.00     0.174 HD
ATOM     63  H24 MET d   1      -6.800  25.911 -12.951  0.00  0.00     0.174 HD
ATOM     64  H20 MET d   1      -8.734  29.252 -11.672  0.00  0.00     0.177 HD
ENDBRANCH  53  56
ENDBRANCH  50  53
ENDBRANCH  47  50
ENDBRANCH  24  47
ENDBRANCH  21  24
ENDBRANCH  18  20
BRANCH  18  65
ATOM     65  CB  MET d   1      -6.871  37.082 -14.410  0.00  0.00     0.044 C 
ATOM     66  H27 MET d   1      -5.892  36.879 -13.951  0.00  0.00     0.077 H 
ATOM     67  H28 MET d   1      -7.484  37.678 -13.718  0.00  0.00     0.077 H 
BRANCH  65  68
ATOM     68  OG  MET d   1      -6.670  37.830 -15.597  0.00  0.00    -0.398 OA
ATOM     69  H29 MET d   1      -6.135  37.327 -16.200  0.00  0.00     0.209 HD
ENDBRANCH  65  68
ENDBRANCH  18  65
ENDBRANCH  15  18
ENDBRANCH  12  14
BRANCH  12  70
ATOM     70  CB  MET d   1      -9.386  33.681 -18.715  0.00  0.00    -0.038 C 
ATOM     71  H32 MET d   1      -9.233  33.403 -19.768  0.00  0.00     0.036 H 
ATOM     72  H33 MET d   1     -10.171  34.448 -18.649  0.00  0.00     0.036 H 
BRANCH  70  73
ATOM     73  CG  MET d   1      -9.851  32.447 -17.952  0.00  0.00    -0.061 C 
ATOM     74  H34 MET d   1      -9.855  32.682 -16.878  0.00  0.00     0.033 H 
ATOM     75  H35 MET d   1      -9.141  31.629 -18.145  0.00  0.00     0.033 H 
BRANCH  73  76
ATOM     76  CD  MET d   1     -11.248  31.979 -18.350  0.00  0.00    -0.043 C 
ATOM     77  H36 MET d   1     -11.297  30.886 -18.233  0.00  0.00     0.035 H 
ATOM     78  H37 MET d   1     -11.418  32.243 -19.404  0.00  0.00     0.035 H 
BRANCH  76  79
ATOM     79  CE  MET d   1     -12.341  32.599 -17.518  0.00  0.00     0.080 C 
ATOM     80  H38 MET d   1     -12.631  33.560 -17.968  0.00  0.00     0.075 H 
ATOM     81  H39 MET d   1     -11.961  32.770 -16.500  0.00  0.00     0.075 H 
BRANCH  79  82
ATOM     82  NZ  MET d   1     -13.534  31.722 -17.446  0.00  0.00    -0.079 N 
ATOM     83  H40 MET d   1     -14.243  32.165 -16.884  0.00  0.00     0.274 HD
ATOM     84  H41 MET d   1     -13.278  30.840 -17.030  0.00  0.00     0.274 HD
ATOM     85  H42 MET d   1     -13.892  31.564 -18.375  0.00  0.00     0.274 HD
ENDBRANCH  79  82
ENDBRANCH  76  79
ENDBRANCH  73  76
ENDBRANCH  70  73
ENDBRANCH  12  70
ENDBRANCH   9  12
ENDBRANCH   5   8
ENDBRANCH   1   5
BRANCH   3  86
ATOM     86  CA  MET d   1      -7.867  37.490 -24.056  0.00  0.00     0.089 C 
ATOM     87  H47 MET d   1      -8.893  37.245 -23.744  0.00  0.00     0.087 H 
BRANCH  86  88
ATOM     88  C   MET d   1      -7.476  36.563 -25.223  0.00  0.00     0.241 C 
ATOM     89  O   MET d   1      -6.351  36.611 -25.728  0.00  0.00    -0.271 OA
ATOM     90  N   MET d   1      -8.411  35.716 -25.634  0.00  0.00    -0.346 N 
ATOM     91  H59 MET d   1      -9.334  35.786 -25.255  0.00  0.00     0.163 HD
BRANCH  90  92
ATOM     92  CA  MET d   1      -8.127  34.689 -26.622  0.00  0.00     0.086 C 
ATOM     93  H60 MET d   1      -7.159  34.222 -26.387  0.00  0.00     0.086 H 
BRANCH  92  94
ATOM     94  C   MET d   1      -8.054  35.319 -27.993  0.00  0.00     0.240 C 
ATOM     95  O   MET d   1      -8.892  36.151 -28.339  0.00  0.00    -0.271 OA
ATOM     96  N   MET d   1      -7.048  34.908 -28.753  0.00  0.00    -0.346 N 
ATOM     97  H64 MET d   1      -6.374  34.294 -28.343  0.00  0.00     0.163 HD
BRANCH  96  98
ATOM     98  CA  MET d   1      -6.861  35.291 -30.141  0.00  0.00     0.089 C 
ATOM     99  H65 MET d   1      -7.581  36.080 -30.402  0.00  0.00     0.087 H 
BRANCH  98 100
ATOM    100  C   MET d   1      -7.104  34.069 -31.057  0.00  0.00     0.241 C 
ATOM    101  O   MET d   1      -6.593  32.968 -30.789  0.00  0.00    -0.271 OA
ATOM    102  N   MET d   1      -7.886  34.268 -32.125  0.00  0.00    -0.346 N 
ATOM    103  H71 MET d   1      -8.321  35.162 -32.232  0.00  0.00     0.163 HD
BRANCH 102 104
ATOM    104  CA  MET d   1      -8.143  33.234 -33.160  0.00  0.00     0.089 C 
ATOM    105  H72 MET d   1      -8.414  32.296 -32.652  0.00  0.00     0.087 H 
BRANCH 104 106
ATOM    106  C   MET d   1      -6.909  32.973 -34.032  0.00  0.00     0.241 C 
ATOM    107  O   MET d   1      -5.989  33.778 -34.047  0.00  0.00    -0.271 OA
ATOM    108  N   MET d   1      -6.896  31.829 -34.719  0.00  0.00    -0.345 N 
ATOM    109  H84 MET d   1      -7.643  31.187 -34.546  0.00  0.00     0.163 HD
BRANCH 108 110
ATOM    110  CA  MET d   1      -5.877  31.421 -35.715  0.00  0.00     0.093 C 
ATOM    111  H85 MET d   1      -6.332  30.626 -36.324  0.00  0.00     0.089 H 
BRANCH 110 112
ATOM    112  C   MET d   1      -4.637  30.825 -35.056  0.00  0.00     0.196 C 
ATOM    113  O   MET d   1      -4.070  29.840 -35.545  0.00  0.00    -0.646 OA
ATOM    114  OXT MET d   1      -4.173  31.314 -34.019  0.00  0.00    -0.646 OA
ENDBRANCH 110 112
BRANCH 110 115
ATOM    115  CB  MET d   1      -5.494  32.550 -36.674  0.00  0.00    -0.048 C 
ATOM    116  H86 MET d   1      -4.738  32.186 -37.385  0.00  0.00     0.030 H 
ATOM    117  H87 MET d   1      -5.082  33.394 -36.101  0.00  0.00     0.030 H 
ATOM    118  H88 MET d   1      -6.386  32.882 -37.225  0.00  0.00     0.030 H 
ENDBRANCH 110 115
ENDBRANCH 108 110
ENDBRANCH 104 106
BRANCH 104 119
ATOM    119  CB  MET d   1      -9.315  33.672 -34.050  0.00  0.00    -0.038 C 
ATOM    120  H73 MET d   1      -8.969  34.517 -34.664  0.00  0.00     0.036 H 
ATOM    121  H74 MET d   1     -10.128  34.008 -33.389  0.00  0.00     0.036 H 
BRANCH 119 122
ATOM    122  CG  MET d   1      -9.888  32.627 -34.988  0.00  0.00    -0.061 C 
ATOM    123  H75 MET d   1     -10.130  31.720 -34.414  0.00  0.00     0.033 H 
ATOM    124  H76 MET d   1      -9.141  32.385 -35.759  0.00  0.00     0.033 H 
BRANCH 122 125
ATOM    125  CD  MET d   1     -11.149  33.144 -35.660  0.00  0.00    -0.043 C 
ATOM    126  H77 MET d   1     -10.930  34.116 -36.126  0.00  0.00     0.035 H 
ATOM    127  H78 MET d   1     -11.932  33.270 -34.898  0.00  0.00     0.035 H 
BRANCH 125 128
ATOM    128  CE  MET d   1     -11.655  32.189 -36.730  0.00  0.00     0.080 C 
ATOM    129  H79 MET d   1     -11.409  31.159 -36.432  0.00  0.00     0.075 H 
ATOM    130  H80 MET d   1     -11.156  32.425 -37.681  0.00  0.00     0.075 H 
BRANCH 128 131
ATOM    131  NZ  MET d   1     -13.133  32.296 -36.921  0.00  0.00    -0.079 N 
ATOM    132  H81 MET d   1     -13.427  31.649 -37.636  0.00  0.00     0.274 HD
ATOM    133  H82 MET d   1     -13.369  33.235 -37.200  0.00  0.00     0.274 HD
ATOM    134  H83 MET d   1     -13.601  32.076 -36.056  0.00  0.00     0.274 HD
ENDBRANCH 128 131
ENDBRANCH 125 128
ENDBRANCH 122 125
ENDBRANCH 119 122
ENDBRANCH 104 119
ENDBRANCH 102 104
ENDBRANCH  98 100
BRANCH  98 135
ATOM    135  CB  MET d   1      -5.438  35.834 -30.314  0.00  0.00    -0.041 C 
ATOM    136  H66 MET d   1      -5.315  36.160 -31.357  0.00  0.00     0.036 H 
ATOM    137  H67 MET d   1      -4.728  35.023 -30.097  0.00  0.00     0.036 H 
BRANCH 135 138
ATOM    138  CG  MET d   1      -5.117  37.014 -29.398  0.00  0.00    -0.074 C 
ATOM    139  H68 MET d   1      -4.084  37.348 -29.578  0.00  0.00     0.027 H 
ATOM    140  H69 MET d   1      -5.224  36.703 -28.348  0.00  0.00     0.027 H 
ATOM    141  H70 MET d   1      -5.811  37.841 -29.608  0.00  0.00     0.027 H 
ENDBRANCH 135 138
ENDBRANCH  98 135
ENDBRANCH  96  98
ENDBRANCH  92  94
BRANCH  92 142
ATOM    142  CB  MET d   1      -9.202  33.627 -26.602  0.00  0.00    -0.049 C 
ATOM    143  H61 MET d   1      -8.972  32.858 -27.355  0.00  0.00     0.030 H 
ATOM    144  H62 MET d   1     -10.175  34.086 -26.832  0.00  0.00     0.030 H 
ATOM    145  H63 MET d   1      -9.241  33.164 -25.605  0.00  0.00     0.030 H 
ENDBRANCH  92 142
ENDBRANCH  90  92
ENDBRANCH  86  88
BRANCH  86 146
ATOM    146  CB  MET d   1      -7.839  38.968 -24.471  0.00  0.00    -0.036 C 
ATOM    147  H48 MET d   1      -6.803  39.244 -24.715  0.00  0.00     0.036 H 
ATOM    148  H49 MET d   1      -8.192  39.577 -23.625  0.00  0.00     0.036 H 
BRANCH 146 149
ATOM    149  CG  MET d   1      -8.713  39.261 -25.675  0.00  0.00    -0.048 C 
ATOM    150  H50 MET d   1      -9.658  38.709 -25.560  0.00  0.00     0.035 H 
ATOM    151  H51 MET d   1      -8.190  38.910 -26.577  0.00  0.00     0.035 H 
BRANCH 149 152
ATOM    152  CD  MET d   1      -9.037  40.731 -25.853  0.00  0.00     0.009 C 
ATOM    153  H52 MET d   1      -8.253  41.207 -26.460  0.00  0.00     0.064 H 
ATOM    154  H53 MET d   1      -9.083  41.217 -24.867  0.00  0.00     0.064 H 
BRANCH 152 155
ATOM    155  NE  MET d   1     -10.327  40.875 -26.526  0.00  0.00    -0.227 N 
ATOM    156  CZ  MET d   1     -11.517  40.867 -25.922  0.00  0.00     0.665 C 
ATOM    157  NH1 MET d   1     -11.631  40.735 -24.596  0.00  0.00    -0.235 N 
ATOM    158  NH2 MET d   1     -12.617  40.986 -26.663  0.00  0.00    -0.235 N 
ATOM    159  H55 MET d   1     -12.563  40.732 -24.157  0.00  0.00     0.174 HD
ATOM    160  H56 MET d   1     -10.787  40.636 -24.014  0.00  0.00     0.174 HD
ATOM    161  H57 MET d   1     -12.541  41.088 -27.685  0.00  0.00     0.174 HD
ATOM    162  H58 MET d   1     -13.544  40.976 -26.214  0.00  0.00     0.174 HD
ATOM    163  H54 MET d   1     -10.316  40.992 -27.549  0.00  0.00     0.177 HD
ENDBRANCH 152 155
ENDBRANCH 149 152
ENDBRANCH 146 149
ENDBRANCH  86 146
ENDBRANCH   3  86
TORSDOF 48
