REMARK WARNING: 32 MAX_TORS EXCEEDED!!!
REMARK  48 active torsions:
REMARK  status: ('A' for Active; 'I' for Inactive)
REMARK    1  A    between atoms: N_1  and  CA_2 
REMARK    2  A    between atoms: CA_2  and  C_3 
REMARK    3  A    between atoms: CA_2  and  CB_5 
REMARK       I    between atoms: C_3  and  N_8 
REMARK    4  A    between atoms: CB_5  and  CG_6 
REMARK    5  A    between atoms: CG_6  and  SD_7 
REMARK    6  A    between atoms: N_8  and  CA_9 
REMARK    7  A    between atoms: CA_9  and  C_10 
REMARK    8  A    between atoms: CA_9  and  CB_12 
REMARK       I    between atoms: C_10  and  N_19 
REMARK    9  A    between atoms: CB_12  and  CG_13 
REMARK   10  A    between atoms: CG_13  and  CD_14 
REMARK   11  A    between atoms: CD_14  and  NE_15 
REMARK       I    between atoms: NE_15  and  CZ_16 
REMARK       I    between atoms: CZ_16  and  NH1_17 
REMARK       I    between atoms: CZ_16  and  NH2_18 
REMARK   12  A    between atoms: N_19  and  CA_20 
REMARK   13  A    between atoms: CA_20  and  C_21 
REMARK   14  A    between atoms: CA_20  and  CB_23 
REMARK       I    between atoms: C_21  and  N_24 
REMARK   15  A    between atoms: N_24  and  CA_25 
REMARK   16  A    between atoms: CA_25  and  C_26 
REMARK   17  A    between atoms: CA_25  and  CB_28 
REMARK       I    between atoms: C_26  and  N_33 
REMARK   18  A    between atoms: CB_28  and  CG_29 
REMARK   19  A    between atoms: CG_29  and  CD_30 
REMARK   20  A    between atoms: CD_30  and  CE_31 
REMARK   21  A    between atoms: CE_31  and  NZ_32 
REMARK   22  A    between atoms: N_33  and  CA_34 
REMARK   23  A    between atoms: CA_34  and  C_35 
REMARK   24  A    between atoms: CA_34  and  CB_37 
REMARK       I    between atoms: C_35  and  N_38 
REMARK   25  A    between atoms: N_38  and  CA_39 
REMARK   26  A    between atoms: CA_39  and  C_40 
REMARK   27  A    between atoms: CA_39  and  CB_42 
REMARK       I    between atoms: C_40  and  N_49 
REMARK   28  A    between atoms: CB_42  and  CG_43 
REMARK   29  A    between atoms: CG_43  and  CD_44 
REMARK   30  A    between atoms: CD_44  and  NE_45 
REMARK       I    between atoms: NE_45  and  CZ_46 
REMARK       I    between atoms: CZ_46  and  NH1_47 
REMARK   31  A    between atoms: N_49  and  CA_50 
REMARK   32  A    between atoms: CA_50  and  C_51 
REMARK   33  A    between atoms: CA_50  and  CB_53 
REMARK       I    between atoms: C_51  and  N_54 
REMARK   34  A    between atoms: N_54  and  CA_55 
REMARK   35  A    between atoms: CA_55  and  C_56 
REMARK   36  A    between atoms: CA_55  and  CB_58 
REMARK       I    between atoms: C_56  and  N_60 
REMARK   37  A    between atoms: CB_58  and  CG_59 
REMARK   38  A    between atoms: N_60  and  CA_61 
REMARK   39  A    between atoms: CA_61  and  C_62 
REMARK   40  A    between atoms: CA_61  and  CB_64 
REMARK       I    between atoms: C_62  and  N_69 
REMARK   41  A    between atoms: CB_64  and  CG_65 
REMARK   42  A    between atoms: CG_65  and  CD_66 
REMARK   43  A    between atoms: CD_66  and  CE_67 
REMARK   44  A    between atoms: CE_67  and  NZ_68 
REMARK   45  A    between atoms: N_69  and  CA_70 
REMARK   46  A    between atoms: CA_70  and  C_71 
REMARK   47  A    between atoms: CA_70  and  CB_73 
REMARK   48  A    between atoms: CB_73  and  CG_74 
ROOT
ATOM      1  C   MET d   1      -7.247  36.264 -22.066  0.00  0.00     0.240 C 
ATOM      2  O   MET d   1      -8.258  35.554 -22.093  0.00  0.00    -0.271 OA
ATOM      3  N   MET d   1      -7.090  37.288 -22.899  0.00  0.00    -0.346 N 
ATOM      4  H46 MET d   1      -6.366  37.960 -22.742  0.00  0.00     0.163 HD
ENDROOT
BRANCH   3   5
ATOM      5  CA  MET d   1      -7.988  37.422 -24.049  0.00  0.00     0.089 C 
ATOM      6  H47 MET d   1      -8.971  37.026 -23.753  0.00  0.00     0.087 H 
BRANCH   5   7
ATOM      7  C   MET d   1      -7.455  36.522 -25.179  0.00  0.00     0.241 C 
ATOM      8  O   MET d   1      -6.284  36.575 -25.554  0.00  0.00    -0.271 OA
ATOM      9  N   MET d   1      -8.323  35.647 -25.663  0.00  0.00    -0.346 N 
ATOM     10  H59 MET d   1      -9.273  35.687 -25.354  0.00  0.00     0.163 HD
BRANCH   9  11
ATOM     11  CA  MET d   1      -7.940  34.632 -26.628  0.00  0.00     0.086 C 
ATOM     12  H60 MET d   1      -6.968  34.203 -26.342  0.00  0.00     0.086 H 
BRANCH  11  13
ATOM     13  C   MET d   1      -7.822  35.287 -27.979  0.00  0.00     0.240 C 
ATOM     14  O   MET d   1      -8.639  36.127 -28.315  0.00  0.00    -0.271 OA
ATOM     15  N   MET d   1      -6.782  34.918 -28.714  0.00  0.00    -0.346 N 
ATOM     16  H64 MET d   1      -6.082  34.351 -28.280  0.00  0.00     0.163 HD
BRANCH  15  17
ATOM     17  CA  MET d   1      -6.591  35.282 -30.109  0.00  0.00     0.089 C 
ATOM     18  H65 MET d   1      -7.272  36.108 -30.361  0.00  0.00     0.087 H 
BRANCH  17  19
ATOM     19  C   MET d   1      -6.914  34.070 -31.016  0.00  0.00     0.241 C 
ATOM     20  O   MET d   1      -6.678  32.911 -30.637  0.00  0.00    -0.271 OA
ATOM     21  N   MET d   1      -7.444  34.347 -32.210  0.00  0.00    -0.346 N 
ATOM     22  H71 MET d   1      -7.659  35.300 -32.424  0.00  0.00     0.163 HD
BRANCH  21  23
ATOM     23  CA  MET d   1      -7.730  33.316 -33.234  0.00  0.00     0.089 C 
ATOM     24  H72 MET d   1      -7.996  32.373 -32.735  0.00  0.00     0.087 H 
BRANCH  23  25
ATOM     25  C   MET d   1      -6.493  33.091 -34.110  0.00  0.00     0.241 C 
ATOM     26  O   MET d   1      -5.683  34.007 -34.268  0.00  0.00    -0.271 OA
ATOM     27  N   MET d   1      -6.328  31.881 -34.657  0.00  0.00    -0.345 N 
ATOM     28  H84 MET d   1      -6.993  31.162 -34.457  0.00  0.00     0.163 HD
BRANCH  27  29
ATOM     29  CA  MET d   1      -5.189  31.579 -35.549  0.00  0.00     0.096 C 
ATOM     30  H85 MET d   1      -4.341  32.210 -35.245  0.00  0.00     0.089 H 
BRANCH  29  31
ATOM     31  C   MET d   1      -5.536  31.912 -36.999  0.00  0.00     0.196 C 
ATOM     32  O   MET d   1      -6.558  31.453 -37.518  0.00  0.00    -0.646 OA
ATOM     33  OXT MET d   1      -4.798  32.643 -37.666  0.00  0.00    -0.646 OA
ENDBRANCH  29  31
BRANCH  29  34
ATOM     34  CB  MET d   1      -4.759  30.109 -35.426  0.00  0.00    -0.040 C 
ATOM     35  H86 MET d   1      -5.455  29.502 -36.024  0.00  0.00     0.036 H 
ATOM     36  H87 MET d   1      -4.838  29.821 -34.367  0.00  0.00     0.036 H 
BRANCH  34  37
ATOM     37  CG  MET d   1      -3.334  29.790 -35.895  0.00  0.00    -0.074 C 
ATOM     38  H88 MET d   1      -3.136  28.716 -35.762  0.00  0.00     0.027 H 
ATOM     39  H89 MET d   1      -2.614  30.372 -35.301  0.00  0.00     0.027 H 
ATOM     40  H90 MET d   1      -3.230  30.053 -36.958  0.00  0.00     0.027 H 
ENDBRANCH  34  37
ENDBRANCH  29  34
ENDBRANCH  27  29
ENDBRANCH  23  25
BRANCH  23  41
ATOM     41  CB  MET d   1      -8.897  33.774 -34.102  0.00  0.00    -0.038 C 
ATOM     42  H73 MET d   1      -8.521  34.534 -34.803  0.00  0.00     0.036 H 
ATOM     43  H74 MET d   1      -9.654  34.225 -33.443  0.00  0.00     0.036 H 
BRANCH  41  44
ATOM     44  CG  MET d   1      -9.572  32.682 -34.913  0.00  0.00    -0.061 C 
ATOM     45  H75 MET d   1     -10.400  32.259 -34.326  0.00  0.00     0.033 H 
ATOM     46  H76 MET d   1      -8.838  31.893 -35.134  0.00  0.00     0.033 H 
BRANCH  44  47
ATOM     47  CD  MET d   1     -10.121  33.231 -36.223  0.00  0.00    -0.043 C 
ATOM     48  H77 MET d   1      -9.334  33.809 -36.729  0.00  0.00     0.035 H 
ATOM     49  H78 MET d   1     -10.977  33.887 -36.008  0.00  0.00     0.035 H 
BRANCH  47  50
ATOM     50  CE  MET d   1     -10.574  32.104 -37.134  0.00  0.00     0.080 C 
ATOM     51  H79 MET d   1      -9.794  31.329 -37.159  0.00  0.00     0.075 H 
ATOM     52  H80 MET d   1     -10.726  32.503 -38.148  0.00  0.00     0.075 H 
BRANCH  50  53
ATOM     53  NZ  MET d   1     -11.841  31.497 -36.660  0.00  0.00    -0.079 N 
ATOM     54  H81 MET d   1     -12.113  30.755 -37.285  0.00  0.00     0.274 HD
ATOM     55  H82 MET d   1     -12.563  32.200 -36.639  0.00  0.00     0.274 HD
ATOM     56  H83 MET d   1     -11.709  31.124 -35.733  0.00  0.00     0.274 HD
ENDBRANCH  50  53
ENDBRANCH  47  50
ENDBRANCH  44  47
ENDBRANCH  41  44
ENDBRANCH  23  41
ENDBRANCH  21  23
ENDBRANCH  17  19
BRANCH  17  57
ATOM     57  CB  MET d   1      -5.141  35.746 -30.329  0.00  0.00    -0.041 C 
ATOM     58  H66 MET d   1      -4.993  35.909 -31.407  0.00  0.00     0.036 H 
ATOM     59  H67 MET d   1      -4.469  34.947 -29.983  0.00  0.00     0.036 H 
BRANCH  57  60
ATOM     60  CG  MET d   1      -4.767  37.033 -29.597  0.00  0.00    -0.074 C 
ATOM     61  H68 MET d   1      -3.718  37.286 -29.812  0.00  0.00     0.027 H 
ATOM     62  H69 MET d   1      -4.895  36.889 -28.514  0.00  0.00     0.027 H 
ATOM     63  H70 MET d   1      -5.418  37.851 -29.938  0.00  0.00     0.027 H 
ENDBRANCH  57  60
ENDBRANCH  17  57
ENDBRANCH  15  17
ENDBRANCH  11  13
BRANCH  11  64
ATOM     64  CB  MET d   1      -8.980  33.524 -26.669  0.00  0.00    -0.049 C 
ATOM     65  H61 MET d   1      -8.677  32.763 -27.404  0.00  0.00     0.030 H 
ATOM     66  H62 MET d   1      -9.954  33.946 -26.959  0.00  0.00     0.030 H 
ATOM     67  H63 MET d   1      -9.062  33.061 -25.674  0.00  0.00     0.030 H 
ENDBRANCH  11  64
ENDBRANCH   9  11
ENDBRANCH   5   7
BRANCH   5  68
ATOM     68  CB  MET d   1      -8.215  38.886 -24.453  0.00  0.00    -0.036 C 
ATOM     69  H48 MET d   1      -8.607  38.917 -25.480  0.00  0.00     0.036 H 
ATOM     70  H49 MET d   1      -7.255  39.422 -24.411  0.00  0.00     0.036 H 
BRANCH  68  71
ATOM     71  CG  MET d   1      -9.219  39.581 -23.512  0.00  0.00    -0.048 C 
ATOM     72  H50 MET d   1      -8.777  39.615 -22.505  0.00  0.00     0.035 H 
ATOM     73  H51 MET d   1     -10.139  38.978 -23.488  0.00  0.00     0.035 H 
BRANCH  71  74
ATOM     74  CD  MET d   1      -9.595  41.007 -23.915  0.00  0.00     0.009 C 
ATOM     75  H52 MET d   1      -8.751  41.443 -24.469  0.00  0.00     0.064 H 
ATOM     76  H53 MET d   1      -9.772  41.590 -22.999  0.00  0.00     0.064 H 
BRANCH  74  77
ATOM     77  NE  MET d   1     -10.796  41.095 -24.758  0.00  0.00    -0.227 N 
ATOM     78  CZ  MET d   1     -10.825  40.999 -26.092  0.00  0.00     0.665 C 
ATOM     79  NH1 MET d   1     -11.992  41.082 -26.728  0.00  0.00    -0.235 N 
ATOM     80  NH2 MET d   1      -9.712  40.811 -26.805  0.00  0.00    -0.235 N 
ATOM     81  H55 MET d   1     -12.025  41.009 -27.755  0.00  0.00     0.174 HD
ATOM     82  H56 MET d   1     -12.861  41.219 -26.193  0.00  0.00     0.174 HD
ATOM     83  H57 MET d   1      -8.801  40.745 -26.329  0.00  0.00     0.174 HD
ATOM     84  H58 MET d   1      -9.764  40.733 -27.831  0.00  0.00     0.174 HD
ATOM     85  H54 MET d   1     -11.695  41.244 -24.279  0.00  0.00     0.177 HD
ENDBRANCH  74  77
ENDBRANCH  71  74
ENDBRANCH  68  71
ENDBRANCH   5  68
ENDBRANCH   3   5
BRANCH   1  86
ATOM     86  CA  MET d   1      -6.134  36.009 -21.032  0.00  0.00     0.086 C 
ATOM     87  H42 MET d   1      -5.893  36.955 -20.526  0.00  0.00     0.086 H 
BRANCH  86  88
ATOM     88  N   MET d   1      -6.624  35.050 -20.039  0.00  0.00    -0.346 N 
ATOM     89  C   MET d   1      -7.525  35.392 -19.114  0.00  0.00     0.241 C 
ATOM     90  O   MET d   1      -7.885  36.562 -18.908  0.00  0.00    -0.271 OA
ATOM     91  H41 MET d   1      -6.274  34.113 -20.054  0.00  0.00     0.163 HD
BRANCH  89  92
ATOM     92  CA  MET d   1      -8.060  34.262 -18.242  0.00  0.00     0.089 C 
ATOM     93  H29 MET d   1      -7.335  33.435 -18.258  0.00  0.00     0.087 H 
BRANCH  92  94
ATOM     94  N   MET d   1      -8.188  34.751 -16.863  0.00  0.00    -0.346 N 
ATOM     95  C   MET d   1      -7.109  35.062 -16.157  0.00  0.00     0.240 C 
ATOM     96  O   MET d   1      -5.966  34.868 -16.562  0.00  0.00    -0.271 OA
ATOM     97  H28 MET d   1      -9.095  34.850 -16.453  0.00  0.00     0.163 HD
BRANCH  95  98
ATOM     98  CA  MET d   1      -7.338  35.672 -14.795  0.00  0.00     0.086 C 
ATOM     99  H24 MET d   1      -8.409  35.868 -14.640  0.00  0.00     0.086 H 
BRANCH  98 100
ATOM    100  N   MET d   1      -6.873  34.686 -13.836  0.00  0.00    -0.346 N 
ATOM    101  C   MET d   1      -7.683  34.074 -12.978  0.00  0.00     0.241 C 
ATOM    102  O   MET d   1      -8.877  34.360 -12.831  0.00  0.00    -0.271 OA
ATOM    103  H23 MET d   1      -5.900  34.457 -13.820  0.00  0.00     0.163 HD
BRANCH 101 104
ATOM    104  CA  MET d   1      -7.010  33.003 -12.111  0.00  0.00     0.089 C 
ATOM    105  H11 MET d   1      -6.000  33.367 -11.870  0.00  0.00     0.087 H 
BRANCH 104 106
ATOM    106  N   MET d   1      -7.694  32.758 -10.836  0.00  0.00    -0.346 N 
ATOM    107  C   MET d   1      -7.681  33.663  -9.865  0.00  0.00     0.249 C 
ATOM    108  O   MET d   1      -7.139  34.757  -9.969  0.00  0.00    -0.271 OA
ATOM    109  H10 MET d   1      -8.178  31.894 -10.696  0.00  0.00     0.163 HD
BRANCH 107 110
ATOM    110  CA  MET d   1      -8.360  33.266  -8.572  0.00  0.00     0.176 C 
ATOM    111  H4  MET d   1      -8.883  32.309  -8.719  0.00  0.00     0.099 H 
BRANCH 110 112
ATOM    112  N   MET d   1      -7.302  33.081  -7.526  0.00  0.00    -0.066 N 
ATOM    113  H1  MET d   1      -7.734  32.816  -6.655  0.00  0.00     0.275 HD
ATOM    114  H2  MET d   1      -6.798  33.945  -7.402  0.00  0.00     0.275 HD
ATOM    115  H3  MET d   1      -6.663  32.358  -7.818  0.00  0.00     0.275 HD
ENDBRANCH 110 112
BRANCH 110 116
ATOM    116  CB  MET d   1      -9.393  34.322  -8.167  0.00  0.00    -0.022 C 
ATOM    117  H5  MET d   1      -8.882  35.293  -8.092  0.00  0.00     0.037 H 
ATOM    118  H6  MET d   1      -9.801  34.046  -7.183  0.00  0.00     0.037 H 
BRANCH 116 119
ATOM    119  CG  MET d   1     -10.557  34.469  -9.142  0.00  0.00    -0.023 C 
ATOM    120  H7  MET d   1     -11.014  33.480  -9.295  0.00  0.00     0.048 H 
ATOM    121  H8  MET d   1     -10.168  34.845 -10.100  0.00  0.00     0.048 H 
BRANCH 119 122
ATOM    122  SD  MET d   1     -11.836  35.612  -8.548  0.00  0.00    -0.182 SA
ATOM    123  H9  MET d   1     -12.576  35.669  -9.229  0.00  0.00     0.101 HD
ENDBRANCH 119 122
ENDBRANCH 116 119
ENDBRANCH 110 116
ENDBRANCH 107 110
ENDBRANCH 104 106
BRANCH 104 124
ATOM    124  CB  MET d   1      -6.862  31.713 -12.897  0.00  0.00    -0.036 C 
ATOM    125  H12 MET d   1      -6.383  30.970 -12.242  0.00  0.00     0.036 H 
ATOM    126  H13 MET d   1      -6.211  31.914 -13.760  0.00  0.00     0.036 H 
BRANCH 124 127
ATOM    127  CG  MET d   1      -8.161  31.113 -13.418  0.00  0.00    -0.048 C 
ATOM    128  H14 MET d   1      -8.470  31.637 -14.335  0.00  0.00     0.035 H 
ATOM    129  H15 MET d   1      -8.947  31.214 -12.655  0.00  0.00     0.035 H 
BRANCH 127 130
ATOM    130  CD  MET d   1      -7.930  29.647 -13.722  0.00  0.00     0.009 C 
ATOM    131  H16 MET d   1      -6.870  29.499 -13.976  0.00  0.00     0.064 H 
ATOM    132  H17 MET d   1      -8.556  29.358 -14.579  0.00  0.00     0.064 H 
BRANCH 130 133
ATOM    133  NE  MET d   1      -8.269  28.792 -12.576  0.00  0.00    -0.227 N 
ATOM    134  CZ  MET d   1      -7.760  27.577 -12.335  0.00  0.00     0.665 C 
ATOM    135  NH1 MET d   1      -6.839  27.039 -13.134  0.00  0.00    -0.235 N 
ATOM    136  NH2 MET d   1      -8.163  26.892 -11.259  0.00  0.00    -0.235 N 
ATOM    137  H19 MET d   1      -6.462  26.103 -12.928  0.00  0.00     0.174 HD
ATOM    138  H20 MET d   1      -6.504  27.559 -13.957  0.00  0.00     0.174 HD
ATOM    139  H21 MET d   1      -8.874  27.292 -10.630  0.00  0.00     0.174 HD
ATOM    140  H22 MET d   1      -7.762  25.964 -11.059  0.00  0.00     0.174 HD
ATOM    141  H18 MET d   1      -8.956  29.158 -11.901  0.00  0.00     0.177 HD
ENDBRANCH 130 133
ENDBRANCH 127 130
ENDBRANCH 124 127
ENDBRANCH 104 124
ENDBRANCH 101 104
ENDBRANCH  98 100
BRANCH  98 142
ATOM    142  CB  MET d   1      -6.563  36.993 -14.679  0.00  0.00    -0.049 C 
ATOM    143  H25 MET d   1      -6.946  37.709 -15.421  0.00  0.00     0.030 H 
ATOM    144  H26 MET d   1      -5.495  36.809 -14.865  0.00  0.00     0.030 H 
ATOM    145  H27 MET d   1      -6.693  37.407 -13.668  0.00  0.00     0.030 H 
ENDBRANCH  98 142
ENDBRANCH  95  98
ENDBRANCH  92  94
BRANCH  92 146
ATOM    146  CB  MET d   1      -9.407  33.727 -18.762  0.00  0.00    -0.038 C 
ATOM    147  H30 MET d   1      -9.341  33.592 -19.852  0.00  0.00     0.036 H 
ATOM    148  H31 MET d   1     -10.195  34.458 -18.530  0.00  0.00     0.036 H 
BRANCH 146 149
ATOM    149  CG  MET d   1      -9.763  32.396 -18.120  0.00  0.00    -0.061 C 
ATOM    150  H32 MET d   1      -9.743  32.522 -17.027  0.00  0.00     0.033 H 
ATOM    151  H33 MET d   1      -9.007  31.654 -18.418  0.00  0.00     0.033 H 
BRANCH 149 152
ATOM    152  CD  MET d   1     -11.135  31.868 -18.517  0.00  0.00    -0.043 C 
ATOM    153  H34 MET d   1     -11.145  30.777 -18.376  0.00  0.00     0.035 H 
ATOM    154  H35 MET d   1     -11.308  32.102 -19.578  0.00  0.00     0.035 H 
BRANCH 152 155
ATOM    155  CE  MET d   1     -12.253  32.468 -17.704  0.00  0.00     0.080 C 
ATOM    156  H36 MET d   1     -12.515  33.445 -18.137  0.00  0.00     0.075 H 
ATOM    157  H37 MET d   1     -11.899  32.607 -16.672  0.00  0.00     0.075 H 
BRANCH 155 158
ATOM    158  NZ  MET d   1     -13.476  31.619 -17.675  0.00  0.00    -0.079 N 
ATOM    159  H38 MET d   1     -14.185  32.070 -17.119  0.00  0.00     0.274 HD
ATOM    160  H39 MET d   1     -13.253  30.722 -17.272  0.00  0.00     0.274 HD
ATOM    161  H40 MET d   1     -13.818  31.490 -18.614  0.00  0.00     0.274 HD
ENDBRANCH 155 158
ENDBRANCH 152 155
ENDBRANCH 149 152
ENDBRANCH 146 149
ENDBRANCH  92 146
ENDBRANCH  89  92
ENDBRANCH  86  88
BRANCH  86 162
ATOM    162  CB  MET d   1      -4.876  35.490 -21.712  0.00  0.00    -0.049 C 
ATOM    163  H43 MET d   1      -4.529  36.227 -22.451  0.00  0.00     0.030 H 
ATOM    164  H44 MET d   1      -5.098  34.539 -22.218  0.00  0.00     0.030 H 
ATOM    165  H45 MET d   1      -4.091  35.329 -20.958  0.00  0.00     0.030 H 
ENDBRANCH  86 162
ENDBRANCH   1  86
TORSDOF 48
