REMARK  30 active torsions:
REMARK  status: ('A' for Active; 'I' for Inactive)
REMARK    1  A    between atoms: C5_2  and  C4_1 
REMARK       I    between atoms: N7_11  and  C5_2 
REMARK    2  A    between atoms: C8_3  and  N7_11 
REMARK    3  A    between atoms: C14_16  and  C13_4 
REMARK    4  A    between atoms: C17_6  and  C15_5 
REMARK    5  A    between atoms: C15_5  and  C14_16 
REMARK    6  A    between atoms: C15_5  and  O16_17 
REMARK    7  A    between atoms: C20_7  and  O21_20 
REMARK    8  A    between atoms: C22_8  and  O23_21 
REMARK    9  A    between atoms: C9_12  and  O10_13 
REMARK   10  A    between atoms: C11_14  and  O12_15 
REMARK   11  A    between atoms: N24_22  and  C19_19 
REMARK   12  A    between atoms: C33_30  and  O34_31 
REMARK   13  A    between atoms: O34_31  and  C35_32 
REMARK   14  A    between atoms: C37_34  and  C38_35 
REMARK   15  A    between atoms: C38_35  and  O39_36 
REMARK   16  A    between atoms: C40_37  and  O41_38 
REMARK   17  A    between atoms: C42_39  and  O43_40 
REMARK   18  A    between atoms: C44_41  and  N45_42 
REMARK       I    between atoms: N45_42  and  C46_43 
REMARK   19  A    between atoms: C46_43  and  C48_45 
REMARK   20  A    between atoms: C1_46  and  C2_47 
REMARK   21  A    between atoms: C2_47  and  C3_48 
REMARK   22  A    between atoms: C3_48  and  C6_49 
REMARK   23  A    between atoms: C6_49  and  C7_50 
REMARK   24  A    between atoms: C7_50  and  C10_51 
REMARK   25  A    between atoms: C10_51  and  C12_52 
REMARK   26  A    between atoms: C12_52  and  C16_53 
REMARK   27  A    between atoms: C16_53  and  C18_54 
REMARK   28  A    between atoms: C18_54  and  C21_55 
REMARK   29  A    between atoms: C21_55  and  C23_56 
REMARK   30  A    between atoms: C21_55  and  C24_57 
ROOT
ATOM      1  C8  TUM d   1      26.329   5.938  36.242  0.00  0.00     0.087 C 
ATOM      2  C13 TUM d   1      28.065   4.034  35.023  0.00  0.00     0.071 C 
ATOM      3  C9  TUM d   1      26.869   6.274  34.861  0.00  0.00     0.086 C 
ATOM      4  C11 TUM d   1      28.191   5.522  34.697  0.00  0.00     0.087 C 
ATOM      5  O32 TUM d   1      27.360   3.808  36.222  0.00  0.00    -0.351 OA
ATOM      6  C33 TUM d   1      26.108   4.424  36.283  0.00  0.00     0.156 C 
ATOM      7  H2  TUM d   1      27.095   6.205  36.985  0.00  0.00     0.084 H 
ATOM      8  H3  TUM d   1      27.543   3.532  34.195  0.00  0.00     0.087 H 
ATOM      9  H10 TUM d   1      26.152   5.966  34.085  0.00  0.00     0.090 H 
ATOM     10  H12 TUM d   1      28.539   5.628  33.659  0.00  0.00     0.091 H 
ATOM     11  H22 TUM d   1      25.489   4.109  35.430  0.00  0.00     0.132 H 
ENDROOT
BRANCH   1  12
ATOM     12  N7  TUM d   1      25.105   6.658  36.597  0.00  0.00    -0.346 N 
ATOM     13  C5  TUM d   1      23.765   6.235  36.147  0.00  0.00     0.241 C 
ATOM     14  O6  TUM d   1      23.614   5.288  35.454  0.00  0.00    -0.269 OA
ATOM     15  H9  TUM d   1      25.180   7.474  37.171  0.00  0.00     0.163 HD
BRANCH  13  16
ATOM     16  C4  TUM d   1      22.531   7.052  36.586  0.00  0.00    -0.021 C 
ATOM     17  C1  TUM d   1      21.413   6.406  36.958  0.00  0.00    -0.098 C 
ATOM     18  H37 TUM d   1      21.381   5.317  36.949  0.00  0.00     0.077 H 
ATOM     19  H1  TUM d   1      22.566   8.140  36.594  0.00  0.00     0.091 H 
BRANCH  17  20
ATOM     20  C2  TUM d   1      20.176   7.214  37.397  0.00  0.00    -0.050 C 
ATOM     21  H38 TUM d   1      19.905   7.928  36.605  0.00  0.00     0.038 H 
ATOM     22  H39 TUM d   1      20.406   7.762  38.323  0.00  0.00     0.038 H 
BRANCH  20  23
ATOM     23  C3  TUM d   1      18.993   6.252  37.649  0.00  0.00    -0.062 C 
ATOM     24  H40 TUM d   1      19.117   5.772  38.631  0.00  0.00     0.033 H 
ATOM     25  H41 TUM d   1      18.976   5.482  36.864  0.00  0.00     0.033 H 
BRANCH  23  26
ATOM     26  C6  TUM d   1      17.667   7.032  37.627  0.00  0.00    -0.065 C 
ATOM     27  H42 TUM d   1      17.786   7.929  37.002  0.00  0.00     0.033 H 
ATOM     28  H43 TUM d   1      17.407   7.331  38.653  0.00  0.00     0.033 H 
BRANCH  26  29
ATOM     29  C7  TUM d   1      16.533   6.161  37.051  0.00  0.00    -0.065 C 
ATOM     30  H44 TUM d   1      16.048   5.598  37.862  0.00  0.00     0.033 H 
ATOM     31  H45 TUM d   1      16.944   5.458  36.312  0.00  0.00     0.033 H 
BRANCH  29  32
ATOM     32  C10 TUM d   1      15.511   7.081  36.377  0.00  0.00    -0.065 C 
ATOM     33  H46 TUM d   1      16.020   7.666  35.597  0.00  0.00     0.033 H 
ATOM     34  H47 TUM d   1      15.095   7.763  37.133  0.00  0.00     0.033 H 
BRANCH  32  35
ATOM     35  C12 TUM d   1      14.361   6.294  35.734  0.00  0.00    -0.065 C 
ATOM     36  H48 TUM d   1      14.176   5.373  36.306  0.00  0.00     0.033 H 
ATOM     37  H49 TUM d   1      14.621   6.036  34.697  0.00  0.00     0.033 H 
BRANCH  35  38
ATOM     38  C16 TUM d   1      13.106   7.175  35.750  0.00  0.00    -0.065 C 
ATOM     39  H50 TUM d   1      13.375   8.191  35.426  0.00  0.00     0.033 H 
ATOM     40  H51 TUM d   1      12.704   7.210  36.773  0.00  0.00     0.033 H 
BRANCH  38  41
ATOM     41  C18 TUM d   1      12.032   6.614  34.806  0.00  0.00    -0.062 C 
ATOM     42  H52 TUM d   1      12.060   5.515  34.832  0.00  0.00     0.033 H 
ATOM     43  H53 TUM d   1      12.228   6.962  33.781  0.00  0.00     0.033 H 
BRANCH  41  44
ATOM     44  C21 TUM d   1      10.645   7.100  35.253  0.00  0.00    -0.061 C 
ATOM     45  H54 TUM d   1      10.627   7.189  36.349  0.00  0.00     0.038 H 
BRANCH  44  46
ATOM     46  C23 TUM d   1      10.345   8.465  34.627  0.00  0.00    -0.073 C 
ATOM     47  H55 TUM d   1       9.351   8.806  34.951  0.00  0.00     0.028 H 
ATOM     48  H56 TUM d   1      10.363   8.378  33.531  0.00  0.00     0.028 H 
ATOM     49  H57 TUM d   1      11.105   9.191  34.950  0.00  0.00     0.028 H 
ENDBRANCH  44  46
BRANCH  44  50
ATOM     50  C24 TUM d   1       9.580   6.096  34.807  0.00  0.00    -0.073 C 
ATOM     51  H58 TUM d   1       9.792   5.114  35.255  0.00  0.00     0.028 H 
ATOM     52  H59 TUM d   1       9.594   6.010  33.711  0.00  0.00     0.028 H 
ATOM     53  H60 TUM d   1       8.589   6.442  35.135  0.00  0.00     0.028 H 
ENDBRANCH  44  50
ENDBRANCH  41  44
ENDBRANCH  38  41
ENDBRANCH  35  38
ENDBRANCH  32  35
ENDBRANCH  29  32
ENDBRANCH  26  29
ENDBRANCH  23  26
ENDBRANCH  20  23
ENDBRANCH  17  20
ENDBRANCH  13  16
ENDBRANCH   1  12
BRANCH   3  54
ATOM     54  O10 TUM d   1      27.113   7.650  34.768  0.00  0.00    -0.391 OA
ATOM     55  H11 TUM d   1      27.751   7.902  35.425  0.00  0.00     0.210 HD
ENDBRANCH   3  54
BRANCH   6  56
ATOM     56  O34 TUM d   1      25.476   4.078  37.478  0.00  0.00    -0.327 OA
BRANCH  56  57
ATOM     57  C35 TUM d   1      24.595   2.996  37.304  0.00  0.00     0.156 C 
ATOM     58  O36 TUM d   1      25.290   1.837  36.921  0.00  0.00    -0.349 OA
ATOM     59  C37 TUM d   1      26.110   1.180  37.879  0.00  0.00     0.089 C 
ATOM     60  C40 TUM d   1      25.410   1.002  39.229  0.00  0.00     0.089 C 
ATOM     61  H24 TUM d   1      27.032   1.763  38.023  0.00  0.00     0.090 H 
ATOM     62  C42 TUM d   1      24.851   2.338  39.670  0.00  0.00     0.086 C 
ATOM     63  H28 TUM d   1      24.593   0.272  39.130  0.00  0.00     0.091 H 
ATOM     64  C44 TUM d   1      23.861   2.776  38.613  0.00  0.00     0.087 C 
ATOM     65  H30 TUM d   1      25.661   3.078  39.755  0.00  0.00     0.090 H 
ATOM     66  H32 TUM d   1      23.090   2.003  38.476  0.00  0.00     0.084 H 
ATOM     67  H23 TUM d   1      23.867   3.245  36.518  0.00  0.00     0.132 H 
BRANCH  59  68
ATOM     68  C38 TUM d   1      26.444  -0.198  37.358  0.00  0.00     0.043 C 
ATOM     69  H25 TUM d   1      25.562  -0.849  37.444  0.00  0.00     0.078 H 
ATOM     70  H26 TUM d   1      27.272  -0.624  37.944  0.00  0.00     0.078 H 
BRANCH  68  71
ATOM     71  O39 TUM d   1      26.823  -0.095  36.015  0.00  0.00    -0.398 OA
ATOM     72  H27 TUM d   1      27.584   0.469  35.944  0.00  0.00     0.209 HD
ENDBRANCH  68  71
ENDBRANCH  59  68
BRANCH  60  73
ATOM     73  O41 TUM d   1      26.331   0.550  40.178  0.00  0.00    -0.390 OA
ATOM     74  H29 TUM d   1      25.894   0.440  41.014  0.00  0.00     0.210 HD
ENDBRANCH  60  73
BRANCH  62  75
ATOM     75  O43 TUM d   1      24.215   2.196  40.914  0.00  0.00    -0.391 OA
ATOM     76  H31 TUM d   1      23.507   1.567  40.837  0.00  0.00     0.210 HD
ENDBRANCH  62  75
BRANCH  64  77
ATOM     77  N45 TUM d   1      23.245   4.007  39.064  0.00  0.00    -0.349 N 
ATOM     78  C46 TUM d   1      22.201   3.918  40.058  0.00  0.00     0.214 C 
ATOM     79  O47 TUM d   1      21.881   2.865  40.478  0.00  0.00    -0.274 OA
ATOM     80  H33 TUM d   1      23.534   4.892  38.698  0.00  0.00     0.163 HD
BRANCH  78  81
ATOM     81  C48 TUM d   1      21.531   5.170  40.580  0.00  0.00    -0.003 C 
ATOM     82  H34 TUM d   1      20.769   4.895  41.324  0.00  0.00     0.040 H 
ATOM     83  H35 TUM d   1      21.053   5.705  39.746  0.00  0.00     0.040 H 
ATOM     84  H36 TUM d   1      22.284   5.820  41.049  0.00  0.00     0.040 H 
ENDBRANCH  78  81
ENDBRANCH  64  77
ENDBRANCH  56  57
ENDBRANCH   6  56
BRANCH   4  85
ATOM     85  O12 TUM d   1      29.121   6.108  35.573  0.00  0.00    -0.390 OA
ATOM     86  H13 TUM d   1      29.230   7.025  35.350  0.00  0.00     0.210 HD
ENDBRANCH   4  85
BRANCH   2  87
ATOM     87  C14 TUM d   1      29.465   3.432  35.196  0.00  0.00    -0.012 C 
ATOM     88  H14 TUM d   1      30.004   3.984  35.980  0.00  0.00     0.040 H 
ATOM     89  H15 TUM d   1      30.015   3.512  34.247  0.00  0.00     0.040 H 
BRANCH  87  90
ATOM     90  C15 TUM d   1      29.356   1.941  35.601  0.00  0.00     0.065 C 
ATOM     91  H4  TUM d   1      28.657   1.845  36.445  0.00  0.00     0.087 H 
BRANCH  90  92
ATOM     92  C17 TUM d   1      30.699   1.424  36.013  0.00  0.00     0.093 C 
ATOM     93  C22 TUM d   1      31.568   1.207  34.832  0.00  0.00     0.091 C 
ATOM     94  C20 TUM d   1      32.498   0.157  35.231  0.00  0.00     0.105 C 
ATOM     95  H7  TUM d   1      30.966   0.880  33.971  0.00  0.00     0.091 H 
ATOM     96  C19 TUM d   1      31.801  -0.662  36.255  0.00  0.00     0.141 C 
ATOM     97  H6  TUM d   1      32.779  -0.463  34.367  0.00  0.00     0.093 H 
ATOM     98  O18 TUM d   1      30.558   0.080  36.651  0.00  0.00    -0.353 OA
ATOM     99  H17 TUM d   1      32.451  -0.826  37.127  0.00  0.00     0.123 H 
ATOM    100  H5  TUM d   1      31.168   2.135  36.709  0.00  0.00     0.091 H 
BRANCH  93 101
ATOM    101  O23 TUM d   1      32.292   2.415  34.477  0.00  0.00    -0.390 OA
ATOM    102  H19 TUM d   1      32.794   2.713  35.226  0.00  0.00     0.210 HD
ENDBRANCH  93 101
BRANCH  94 103
ATOM    103  O21 TUM d   1      33.679   0.769  35.810  0.00  0.00    -0.388 OA
ATOM    104  H18 TUM d   1      34.266   0.090  36.122  0.00  0.00     0.210 HD
ENDBRANCH  94 103
BRANCH  96 105
ATOM    105  N24 TUM d   1      31.420  -1.905  35.683  0.00  0.00    -0.280 N 
ATOM    106  C25 TUM d   1      30.621  -1.895  34.637  0.00  0.00    -0.008 A 
ATOM    107  C26 TUM d   1      30.229  -3.053  34.058  0.00  0.00    -0.002 A 
ATOM    108  H20 TUM d   1      30.272  -0.945  34.234  0.00  0.00     0.112 H 
ATOM    109  C27 TUM d   1      30.657  -4.232  34.553  0.00  0.00     0.250 A 
ATOM    110  H8  TUM d   1      29.568  -3.033  33.193  0.00  0.00     0.094 H 
ATOM    111  O28 TUM d   1      30.312  -5.249  34.046  0.00  0.00    -0.268 OA
ATOM    112  N29 TUM d   1      31.459  -4.249  35.602  0.00  0.00    -0.275 N 
ATOM    113  C30 TUM d   1      31.849  -3.088  36.183  0.00  0.00     0.331 A 
ATOM    114  H21 TUM d   1      31.780  -5.122  35.969  0.00  0.00     0.173 HD
ATOM    115  O31 TUM d   1      32.569  -3.109  37.128  0.00  0.00    -0.246 OA
ENDBRANCH  96 105
ENDBRANCH  90  92
BRANCH  90 116
ATOM    116  O16 TUM d   1      28.873   1.193  34.510  0.00  0.00    -0.393 OA
ATOM    117  H16 TUM d   1      28.806   0.279  34.759  0.00  0.00     0.210 HD
ENDBRANCH  90 116
ENDBRANCH  87  90
ENDBRANCH   2  87
TORSDOF 30
