REMARK  14 active torsions:
REMARK  status: ('A' for Active; 'I' for Inactive)
REMARK    1  A    between atoms: C11_17  and  C10_1 
REMARK    2  A    between atoms: C10_1  and  O09_45 
REMARK    3  A    between atoms: C13_2  and  C12_18 
REMARK    4  A    between atoms: N16_40  and  C17_4 
REMARK    5  A    between atoms: N23_41  and  C24_8 
REMARK    6  A    between atoms: C26_9  and  C27_23 
REMARK    7  A    between atoms: C02_11  and  C01_10 
REMARK    8  A    between atoms: C05_13  and  C06_14 
REMARK    9  A    between atoms: O09_45  and  C08_16 
REMARK   10  A    between atoms: C12_18  and  C11_17 
REMARK   11  A    between atoms: C41_32  and  C42_33 
REMARK   12  A    between atoms: C43_34  and  C44_35 
REMARK   13  A    between atoms: N45_43  and  C46_36 
REMARK   14  A    between atoms: C48_37  and  C49_38 
ROOT
ATOM      1  C13 ECM d   1      15.088  31.677  34.749  0.00  0.00    -0.013 A 
ATOM      2  C15 ECM d   1      13.921  34.011  35.533  0.00  0.00     0.275 C 
ATOM      3  C14 ECM d   1      14.797  32.741  35.649  0.00  0.00     0.111 A 
ATOM      4  C30 ECM d   1      15.916  35.195  36.299  0.00  0.00     0.005 C 
ATOM      5  C31 ECM d   1      15.997  34.832  37.761  0.00  0.00    -0.034 C 
ATOM      6  C32 ECM d   1      15.342  33.487  37.885  0.00  0.00     0.002 C 
ATOM      7  C35 ECM d   1      16.218  31.404  36.704  0.00  0.00     0.059 A 
ATOM      8  C36 ECM d   1      16.015  30.827  35.462  0.00  0.00     0.001 A 
ATOM      9  C37 ECM d   1      16.663  29.626  35.117  0.00  0.00    -0.069 A 
ATOM     10  C38 ECM d   1      17.527  29.004  36.036  0.00  0.00    -0.060 A 
ATOM     11  C39 ECM d   1      17.740  29.593  37.295  0.00  0.00     0.047 A 
ATOM     12  C41 ECM d   1      17.100  30.776  37.637  0.00  0.00     0.028 A 
ATOM     13  N16 ECM d   1      14.570  35.239  35.855  0.00  0.00    -0.310 N 
ATOM     14  N34 ECM d   1      15.473  32.564  36.766  0.00  0.00    -0.340 N 
ATOM     15  O33 ECM d   1      12.796  33.972  35.155  0.00  0.00    -0.265 OA
ATOM     16 CL40 ECM d   1      18.806  28.830  38.427  0.00  0.00    -0.083 Cl
ATOM     17  H21 ECM d   1      16.463  34.443  35.712  0.00  0.00     0.065 H 
ATOM     18  H22 ECM d   1      16.376  36.183  36.149  0.00  0.00     0.065 H 
ATOM     19  H23 ECM d   1      15.463  35.576  38.371  0.00  0.00     0.037 H 
ATOM     20  H24 ECM d   1      17.047  34.778  38.085  0.00  0.00     0.037 H 
ATOM     21  H25 ECM d   1      14.267  33.658  38.045  0.00  0.00     0.065 H 
ATOM     22  H26 ECM d   1      15.770  32.993  38.770  0.00  0.00     0.065 H 
ATOM     23  H27 ECM d   1      16.496  29.180  34.143  0.00  0.00     0.085 H 
ATOM     24  H28 ECM d   1      18.025  28.077  35.776  0.00  0.00     0.086 H 
ENDROOT
BRANCH   1  25
ATOM     25  C12 ECM d   1      14.563  31.428  33.329  0.00  0.00    -0.036 C 
ATOM     26  H16 ECM d   1      15.280  30.781  32.802  0.00  0.00     0.040 H 
ATOM     27  H17 ECM d   1      14.492  32.395  32.810  0.00  0.00     0.040 H 
BRANCH  25  28
ATOM     28  C11 ECM d   1      13.157  30.742  33.290  0.00  0.00    -0.041 C 
ATOM     29  H14 ECM d   1      12.550  31.169  34.102  0.00  0.00     0.036 H 
ATOM     30  H15 ECM d   1      12.692  30.978  32.321  0.00  0.00     0.036 H 
BRANCH  28  31
ATOM     31  C10 ECM d   1      13.159  29.185  33.457  0.00  0.00     0.026 C 
ATOM     32  H1  ECM d   1      12.420  28.745  32.772  0.00  0.00     0.075 H 
ATOM     33  H2  ECM d   1      12.895  28.930  34.494  0.00  0.00     0.075 H 
BRANCH  31  34
ATOM     34  O09 ECM d   1      14.461  28.655  33.155  0.00  0.00    -0.351 OA
BRANCH  34  35
ATOM     35  C08 ECM d   1      14.583  27.212  33.100  0.00  0.00     0.069 A 
ATOM     36  C07 ECM d   1      14.305  26.423  34.213  0.00  0.00    -0.043 A 
ATOM     37  C05 ECM d   1      14.445  25.034  34.129  0.00  0.00    -0.037 A 
ATOM     38  H13 ECM d   1      13.982  26.883  35.140  0.00  0.00     0.088 H 
ATOM     39  C03 ECM d   1      14.862  24.443  32.949  0.00  0.00     0.046 A 
ATOM     40  C02 ECM d   1      15.142  25.236  31.844  0.00  0.00    -0.037 A 
ATOM     41 CL04 ECM d   1      15.025  22.685  32.881  0.00  0.00    -0.083 Cl
ATOM     42  C50 ECM d   1      15.004  26.615  31.919  0.00  0.00    -0.043 A 
ATOM     43  H38 ECM d   1      15.226  27.228  31.053  0.00  0.00     0.088 H 
BRANCH  37  44
ATOM     44  C06 ECM d   1      14.138  24.123  35.333  0.00  0.00    -0.050 C 
ATOM     45  H10 ECM d   1      13.821  24.739  36.188  0.00  0.00     0.033 H 
ATOM     46  H11 ECM d   1      15.041  23.557  35.604  0.00  0.00     0.033 H 
ATOM     47  H12 ECM d   1      13.332  23.423  35.067  0.00  0.00     0.033 H 
ENDBRANCH  37  44
BRANCH  40  48
ATOM     48  C01 ECM d   1      15.601  24.611  30.544  0.00  0.00    -0.050 C 
ATOM     49  H7  ECM d   1      15.769  25.401  29.797  0.00  0.00     0.033 H 
ATOM     50  H8  ECM d   1      14.829  23.918  30.178  0.00  0.00     0.033 H 
ATOM     51  H9  ECM d   1      16.538  24.060  30.713  0.00  0.00     0.033 H 
ENDBRANCH  40  48
ENDBRANCH  34  35
ENDBRANCH  31  34
ENDBRANCH  28  31
ENDBRANCH  25  28
ENDBRANCH   1  25
BRANCH  13  52
ATOM     52  C17 ECM d   1      13.903  36.572  35.822  0.00  0.00     0.065 A 
ATOM     53  C22 ECM d   1      14.330  37.656  34.999  0.00  0.00     0.072 A 
ATOM     54  C21 ECM d   1      13.621  38.871  35.086  0.00  0.00     0.011 A 
ATOM     55  N23 ECM d   1      15.303  37.829  34.073  0.00  0.00    -0.358 N 
ATOM     56  C20 ECM d   1      12.528  39.029  35.967  0.00  0.00    -0.070 A 
ATOM     57  C26 ECM d   1      14.235  39.770  34.155  0.00  0.00     0.068 A 
ATOM     58  C19 ECM d   1      12.129  37.978  36.775  0.00  0.00    -0.080 A 
ATOM     59  H3  ECM d   1      12.001  39.975  36.010  0.00  0.00     0.084 H 
ATOM     60  C18 ECM d   1      12.827  36.750  36.705  0.00  0.00    -0.055 A 
ATOM     61  H19 ECM d   1      11.291  38.095  37.453  0.00  0.00     0.083 H 
ATOM     62  H18 ECM d   1      12.525  35.930  37.346  0.00  0.00     0.087 H 
ATOM     63  C25 ECM d   1      15.263  39.061  33.568  0.00  0.00    -0.003 A 
ATOM     64  H20 ECM d   1      15.939  39.450  32.808  0.00  0.00     0.113 H 
BRANCH  57  65
ATOM     65  C27 ECM d   1      13.832  41.235  33.870  0.00  0.00     0.211 C 
ATOM     66  O28 ECM d   1      14.327  42.163  34.558  0.00  0.00    -0.644 OA
ATOM     67  O29 ECM d   1      13.008  41.491  32.961  0.00  0.00    -0.644 OA
ENDBRANCH  57  65
BRANCH  55  68
ATOM     68  C24 ECM d   1      16.309  36.907  33.596  0.00  0.00    -0.014 C 
ATOM     69  H4  ECM d   1      16.930  37.403  32.836  0.00  0.00     0.057 H 
ATOM     70  H5  ECM d   1      15.819  36.028  33.152  0.00  0.00     0.057 H 
ATOM     71  H6  ECM d   1      16.943  36.588  34.437  0.00  0.00     0.057 H 
ENDBRANCH  55  68
ENDBRANCH  13  52
BRANCH  12  72
ATOM     72  C42 ECM d   1      17.328  31.439  39.022  0.00  0.00     0.028 A 
ATOM     73  C43 ECM d   1      18.183  32.568  39.315  0.00  0.00     0.039 A 
ATOM     74  N45 ECM d   1      18.051  32.816  40.594  0.00  0.00    -0.278 N 
ATOM     75  N47 ECM d   1      17.205  31.986  41.150  0.00  0.00    -0.177 NA
ATOM     76  C48 ECM d   1      16.719  31.129  40.250  0.00  0.00     0.064 A 
BRANCH  73  77
ATOM     77  C44 ECM d   1      19.080  33.322  38.327  0.00  0.00    -0.035 C 
ATOM     78  H29 ECM d   1      18.975  32.880  37.325  0.00  0.00     0.035 H 
ATOM     79  H30 ECM d   1      20.128  33.247  38.653  0.00  0.00     0.035 H 
ATOM     80  H31 ECM d   1      18.781  34.380  38.294  0.00  0.00     0.035 H 
ENDBRANCH  73  77
BRANCH  74  81
ATOM     81  C46 ECM d   1      18.752  33.867  41.298  0.00  0.00     0.003 C 
ATOM     82  H32 ECM d   1      18.460  33.856  42.358  0.00  0.00     0.059 H 
ATOM     83  H33 ECM d   1      18.493  34.840  40.856  0.00  0.00     0.059 H 
ATOM     84  H34 ECM d   1      19.837  33.704  41.215  0.00  0.00     0.059 H 
ENDBRANCH  74  81
BRANCH  76  85
ATOM     85  C49 ECM d   1      15.710  30.013  40.507  0.00  0.00    -0.033 C 
ATOM     86  H35 ECM d   1      15.416  30.021  41.567  0.00  0.00     0.035 H 
ATOM     87  H36 ECM d   1      16.166  29.043  40.261  0.00  0.00     0.035 H 
ATOM     88  H37 ECM d   1      14.821  30.171  39.879  0.00  0.00     0.035 H 
ENDBRANCH  76  85
ENDBRANCH  12  72
TORSDOF 14
