REMARK  12 active torsions:
REMARK  status: ('A' for Active; 'I' for Inactive)
REMARK    1  A    between atoms: C4_1  and  OAU_21 
REMARK    2  A    between atoms: OAR_7  and  CAB_6 
REMARK    3  A    between atoms: CBA_8  and  OAR_7 
REMARK    4  A    between atoms: CBE_10  and  OAT_11 
REMARK    5  A    between atoms: OAT_11  and  CAD_12 
REMARK    6  A    between atoms: CBB_13  and  OAS_14 
REMARK    7  A    between atoms: OAS_14  and  CAC_15 
REMARK    8  A    between atoms: NAQ_18  and  CAW_17 
REMARK    9  A    between atoms: NAQ_18  and  C2_19 
REMARK   10  A    between atoms: OAU_21  and  CAZ_22 
REMARK   11  A    between atoms: CBC_27  and  CAV_28 
REMARK       I    between atoms: CAV_28  and  NAP_30 
REMARK   12  A    between atoms: NAP_30  and  CAA_31 
ROOT
ATOM      1  C4  EDJ d   1      52.151 -42.164  33.102  0.00  0.00     0.207 A 
ATOM      2  C5  EDJ d   1      52.854 -43.341  33.313  0.00  0.00     0.083 A 
ATOM      3  C6  EDJ d   1      54.093 -43.475  32.717  0.00  0.00     0.042 A 
ATOM      4  N1  EDJ d   1      54.572 -42.427  31.938  0.00  0.00    -0.073 NA
ATOM      5  N3  EDJ d   1      52.655 -41.180  32.346  0.00  0.00    -0.036 NA
ATOM      6  C2  EDJ d   1      53.855 -41.312  31.771  0.00  0.00     0.729 A 
ATOM      7 BR5  EDJ d   1      52.177 -44.728  34.363  0.00  0.00    -0.045 Br
ATOM      8  H1  EDJ d   1      54.679 -44.377  32.853  0.00  0.00     0.118 H 
ENDROOT
BRANCH   6   9
ATOM      9  NAQ EDJ d   1      54.361 -40.346  31.016  0.00  0.00    -0.188 N 
ATOM     10  H13 EDJ d   1      55.174 -40.526  30.410  0.00  0.00     0.184 HD
BRANCH   9  11
ATOM     11  CAW EDJ d   1      53.802 -39.143  31.055  0.00  0.00     0.054 A 
ATOM     12  CAL EDJ d   1      52.439 -39.003  31.306  0.00  0.00    -0.022 A 
ATOM     13  CBA EDJ d   1      51.881 -37.731  31.333  0.00  0.00     0.106 A 
ATOM     14  H5  EDJ d   1      51.821 -39.877  31.478  0.00  0.00     0.091 H 
ATOM     15  CBE EDJ d   1      52.681 -36.628  31.113  0.00  0.00     0.135 A 
ATOM     16  CBB EDJ d   1      54.034 -36.762  30.868  0.00  0.00     0.106 A 
ATOM     17  CAM EDJ d   1      54.600 -38.025  30.831  0.00  0.00    -0.022 A 
ATOM     18  H12 EDJ d   1      55.658 -38.142  30.629  0.00  0.00     0.091 H 
BRANCH  13  19
ATOM     19  OAR EDJ d   1      50.567 -37.496  31.574  0.00  0.00    -0.353 OA
BRANCH  19  20
ATOM     20  CAB EDJ d   1      49.938 -36.976  30.403  0.00  0.00     0.010 C 
ATOM     21  H2  EDJ d   1      48.874 -36.790  30.610  0.00  0.00     0.066 H 
ATOM     22  H3  EDJ d   1      50.030 -37.704  29.584  0.00  0.00     0.066 H 
ATOM     23  H4  EDJ d   1      50.425 -36.034  30.113  0.00  0.00     0.066 H 
ENDBRANCH  19  20
ENDBRANCH  13  19
BRANCH  15  24
ATOM     24  OAT EDJ d   1      52.122 -35.392  31.153  0.00  0.00    -0.351 OA
BRANCH  24  25
ATOM     25  CAD EDJ d   1      52.310 -34.691  29.925  0.00  0.00     0.011 C 
ATOM     26  H6  EDJ d   1      51.845 -33.697  29.995  0.00  0.00     0.067 H 
ATOM     27  H7  EDJ d   1      51.844 -35.257  29.105  0.00  0.00     0.067 H 
ATOM     28  H8  EDJ d   1      53.386 -34.579  29.728  0.00  0.00     0.067 H 
ENDBRANCH  24  25
ENDBRANCH  15  24
BRANCH  16  29
ATOM     29  OAS EDJ d   1      54.740 -35.623  30.660  0.00  0.00    -0.353 OA
BRANCH  29  30
ATOM     30  CAC EDJ d   1      54.770 -34.826  31.847  0.00  0.00     0.010 C 
ATOM     31  H9  EDJ d   1      55.346 -33.908  31.658  0.00  0.00     0.066 H 
ATOM     32  H10 EDJ d   1      55.244 -35.396  32.660  0.00  0.00     0.066 H 
ATOM     33  H11 EDJ d   1      53.742 -34.561  32.136  0.00  0.00     0.066 H 
ENDBRANCH  29  30
ENDBRANCH  16  29
ENDBRANCH   9  11
ENDBRANCH   6   9
BRANCH   1  34
ATOM     34  OAU EDJ d   1      50.938 -42.061  33.704  0.00  0.00    -0.289 OA
BRANCH  34  35
ATOM     35  CAZ EDJ d   1      49.990 -42.640  32.928  0.00  0.00     0.093 A 
ATOM     36  CAI EDJ d   1      50.188 -43.867  32.316  0.00  0.00    -0.049 A 
ATOM     37  CAG EDJ d   1      49.177 -44.405  31.532  0.00  0.00    -0.080 A 
ATOM     38  H14 EDJ d   1      51.122 -44.401  32.448  0.00  0.00     0.087 H 
ATOM     39  CAH EDJ d   1      47.984 -43.716  31.370  0.00  0.00    -0.082 A 
ATOM     40  H15 EDJ d   1      49.320 -45.364  31.046  0.00  0.00     0.083 H 
ATOM     41  CAJ EDJ d   1      47.796 -42.488  31.989  0.00  0.00    -0.065 A 
ATOM     42  H16 EDJ d   1      47.196 -44.138  30.758  0.00  0.00     0.083 H 
ATOM     43  CBC EDJ d   1      48.802 -41.941  32.773  0.00  0.00     0.065 A 
ATOM     44  H17 EDJ d   1      46.861 -41.955  31.860  0.00  0.00     0.085 H 
BRANCH  43  45
ATOM     45  CAV EDJ d   1      48.593 -40.708  33.384  0.00  0.00     0.254 C 
ATOM     46  OAE EDJ d   1      47.460 -40.241  33.467  0.00  0.00    -0.268 OA
ATOM     47  NAP EDJ d   1      49.688 -40.089  33.844  0.00  0.00    -0.361 N 
ATOM     48  H18 EDJ d   1      50.596 -40.497  33.753  0.00  0.00     0.162 HD
BRANCH  47  49
ATOM     49  CAA EDJ d   1      49.494 -38.783  34.489  0.00  0.00    -0.018 C 
ATOM     50  H19 EDJ d   1      50.467 -38.388  34.818  0.00  0.00     0.056 H 
ATOM     51  H20 EDJ d   1      48.832 -38.899  35.360  0.00  0.00     0.056 H 
ATOM     52  H21 EDJ d   1      49.038 -38.084  33.772  0.00  0.00     0.056 H 
ENDBRANCH  47  49
ENDBRANCH  43  45
ENDBRANCH  34  35
ENDBRANCH   1  34
TORSDOF 12
