REMARK  9 active torsions:
REMARK  status: ('A' for Active; 'I' for Inactive)
REMARK    1  A    between atoms: NAY_37  and  C6_3 
REMARK    2  A    between atoms: CBC_23  and  CAA_7 
REMARK    3  A    between atoms: CAS_19  and  CBF_26 
REMARK    4  A    between atoms: NBN_38  and  CAS_19 
REMARK    5  A    between atoms: CBD_24  and  CAT_20 
REMARK    6  A    between atoms: CAT_20  and  CBP_31 
REMARK    7  A    between atoms: CAU_21  and  CBM_30 
REMARK    8  A    between atoms: NBO_39  and  CAU_21 
REMARK    9  A    between atoms: CBL_29  and  NAY_37 
ROOT
ATOM      1  CAG EEV d   1     -15.880 -22.323 -13.820  0.00  0.00     0.118 C 
ATOM      2  CAI EEV d   1     -13.014 -18.447 -10.344  0.00  0.00    -0.072 A 
ATOM      3  CAJ EEV d   1     -12.892 -19.665 -11.067  0.00  0.00    -0.056 A 
ATOM      4  CAL EEV d   1     -16.030 -20.187 -12.539  0.00  0.00    -0.034 A 
ATOM      5  CBC EEV d   1     -15.313 -18.311 -11.057  0.00  0.00    -0.042 A 
ATOM      6  CBE EEV d   1     -15.357 -21.279 -12.954  0.00  0.00     0.117 A 
ATOM      7  CBF EEV d   1     -14.234 -17.767 -10.325  0.00  0.00    -0.026 A 
ATOM      8  CBH EEV d   1     -15.164 -19.457 -11.771  0.00  0.00     0.000 A 
ATOM      9  CBK EEV d   1     -13.963 -20.123 -11.778  0.00  0.00     0.046 A 
ATOM     10  NAB EEV d   1     -16.272 -23.132 -14.476  0.00  0.00    -0.190 NA
ATOM     11  NBO EEV d   1     -14.099 -21.247 -12.519  0.00  0.00    -0.335 N 
ATOM     12  H5  EEV d   1     -12.161 -18.046  -9.808  0.00  0.00     0.084 H 
ATOM     13  H6  EEV d   1     -11.962 -20.222 -11.054  0.00  0.00     0.087 H 
ATOM     14  H8  EEV d   1     -17.064 -19.934 -12.770  0.00  0.00     0.089 H 
ENDROOT
BRANCH  11  15
ATOM     15  CAU EEV d   1     -13.033 -22.265 -12.773  0.00  0.00     0.026 C 
ATOM     16  H25 EEV d   1     -13.285 -22.840 -13.676  0.00  0.00     0.069 H 
ATOM     17  H26 EEV d   1     -12.069 -21.756 -12.920  0.00  0.00     0.069 H 
BRANCH  15  18
ATOM     18  CBM EEV d   1     -12.927 -23.223 -11.568  0.00  0.00     0.070 C 
ATOM     19  CAR EEV d   1     -11.656 -24.107 -11.706  0.00  0.00     0.021 C 
ATOM     20  NAX EEV d   1     -11.648 -25.091 -10.583  0.00  0.00    -0.357 N 
ATOM     21  H19 EEV d   1     -10.756 -23.476 -11.655  0.00  0.00     0.068 H 
ATOM     22  H20 EEV d   1     -11.676 -24.640 -12.668  0.00  0.00     0.068 H 
ATOM     23  CBB EEV d   1     -12.850 -25.357  -9.954  0.00  0.00     0.241 C 
ATOM     24  H29 EEV d   1     -10.803 -25.542 -10.296  0.00  0.00     0.162 HD
ATOM     25  CAQ EEV d   1     -14.067 -24.699 -10.238  0.00  0.00     0.093 C 
ATOM     26  OAC EEV d   1     -12.809 -26.176  -9.030  0.00  0.00    -0.271 OA
ATOM     27  OAZ EEV d   1     -14.051 -23.963 -11.477  0.00  0.00    -0.373 OA
ATOM     28  H17 EEV d   1     -14.281 -23.996  -9.419  0.00  0.00     0.089 H 
ATOM     29  H18 EEV d   1     -14.866 -25.453 -10.292  0.00  0.00     0.089 H 
ATOM     30  H28 EEV d   1     -12.832 -22.625 -10.649  0.00  0.00     0.088 H 
ENDBRANCH  15  18
ENDBRANCH  11  15
BRANCH   5  31
ATOM     31  CAA EEV d   1     -16.545 -17.631 -11.121  0.00  0.00    -0.050 C 
ATOM     32  H2  EEV d   1     -16.500 -16.730 -10.491  0.00  0.00     0.033 H 
ATOM     33  H3  EEV d   1     -17.347 -18.291 -10.760  0.00  0.00     0.033 H 
ATOM     34  H4  EEV d   1     -16.750 -17.340 -12.162  0.00  0.00     0.033 H 
ENDBRANCH   5  31
BRANCH   7  35
ATOM     35  CAS EEV d   1     -14.330 -16.534  -9.550  0.00  0.00     0.107 C 
ATOM     36  H21 EEV d   1     -14.097 -16.780  -8.504  0.00  0.00     0.083 H 
ATOM     37  H22 EEV d   1     -15.368 -16.177  -9.621  0.00  0.00     0.083 H 
BRANCH  35  38
ATOM     38  NBN EEV d   1     -13.504 -15.492  -9.927  0.00  0.00    -0.067 N 
ATOM     39  CAO EEV d   1     -13.884 -14.945 -11.252  0.00  0.00     0.086 C 
ATOM     40  CAM EEV d   1     -12.965 -13.721 -11.713  0.00  0.00    -0.023 C 
ATOM     41  H13 EEV d   1     -13.799 -15.748 -11.999  0.00  0.00     0.076 H 
ATOM     42  H14 EEV d   1     -14.927 -14.600 -11.202  0.00  0.00     0.076 H 
ATOM     43  CBL EEV d   1     -12.980 -12.595 -10.658  0.00  0.00     0.014 C 
ATOM     44  H9  EEV d   1     -13.343 -13.326 -12.667  0.00  0.00     0.038 H 
ATOM     45  H10 EEV d   1     -11.932 -14.076 -11.847  0.00  0.00     0.038 H 
ATOM     46  CAN EEV d   1     -12.599 -13.258  -9.288  0.00  0.00    -0.023 C 
ATOM     47  H27 EEV d   1     -13.993 -12.171 -10.589  0.00  0.00     0.072 H 
ATOM     48  CAP EEV d   1     -13.608 -14.354  -8.954  0.00  0.00     0.086 C 
ATOM     49  H11 EEV d   1     -11.592 -13.696  -9.360  0.00  0.00     0.038 H 
ATOM     50  H12 EEV d   1     -12.611 -12.495  -8.496  0.00  0.00     0.038 H 
ATOM     51  H15 EEV d   1     -14.624 -13.934  -8.998  0.00  0.00     0.076 H 
ATOM     52  H16 EEV d   1     -13.410 -14.729  -7.939  0.00  0.00     0.076 H 
ATOM     53  H31 EEV d   1     -12.554 -15.827  -9.960  0.00  0.00     0.280 HD
BRANCH  43  54
ATOM     54  NAY EEV d   1     -12.039 -11.506 -11.016  0.00  0.00    -0.369 N 
ATOM     55  H30 EEV d   1     -11.061 -11.766 -11.207  0.00  0.00     0.161 HD
BRANCH  54  56
ATOM     56  C6  EEV d   1     -12.368 -10.198 -11.111  0.00  0.00     0.138 A 
ATOM     57  C5  EEV d   1     -11.436  -9.304 -11.582  0.00  0.00     0.046 A 
ATOM     58  C4  EEV d   1     -11.834  -8.017 -11.739  0.00  0.00     0.113 A 
ATOM     59  CAK EEV d   1     -10.144  -9.507 -11.994  0.00  0.00    -0.053 A 
ATOM     60  N3  EEV d   1     -13.071  -7.604 -11.357  0.00  0.00    -0.234 NA
ATOM     61  SBA EEV d   1     -10.577  -7.058 -12.304  0.00  0.00    -0.074 SA
ATOM     62  C2  EEV d   1     -14.011  -8.500 -10.848  0.00  0.00     0.090 A 
ATOM     63  N1  EEV d   1     -13.600  -9.804 -10.746  0.00  0.00    -0.224 NA
ATOM     64  H1  EEV d   1     -15.005  -8.185 -10.551  0.00  0.00     0.146 H 
ATOM     65  CBD EEV d   1      -9.519  -8.393 -12.395  0.00  0.00    -0.006 A 
ATOM     66  H7  EEV d   1      -9.669 -10.487 -11.995  0.00  0.00     0.086 H 
BRANCH  65  67
ATOM     67  CAT EEV d   1      -8.051  -8.245 -12.873  0.00  0.00     0.056 C 
ATOM     68  H23 EEV d   1      -8.009  -7.549 -13.724  0.00  0.00     0.054 H 
ATOM     69  H24 EEV d   1      -7.663  -9.227 -13.182  0.00  0.00     0.054 H 
BRANCH  67  70
ATOM     70  CBP EEV d   1      -7.163  -7.672 -11.665  0.00  0.00     0.392 C 
ATOM     71  FAD EEV d   1      -7.506  -6.523 -11.326  0.00  0.00    -0.171 F 
ATOM     72  FAE EEV d   1      -7.288  -8.337 -10.542  0.00  0.00    -0.171 F 
ATOM     73  FAF EEV d   1      -5.825  -7.600 -12.049  0.00  0.00    -0.171 F 
ENDBRANCH  67  70
ENDBRANCH  65  67
ENDBRANCH  54  56
ENDBRANCH  43  54
ENDBRANCH  35  38
ENDBRANCH   7  35
TORSDOF 9
