REMARK  9 active torsions:
REMARK  status: ('A' for Active; 'I' for Inactive)
REMARK    1  A    between atoms: NAY_37  and  C6_3 
REMARK    2  A    between atoms: CBC_23  and  CAA_7 
REMARK    3  A    between atoms: CAS_19  and  CBF_26 
REMARK    4  A    between atoms: NBN_38  and  CAS_19 
REMARK    5  A    between atoms: CBD_24  and  CAT_20 
REMARK    6  A    between atoms: CAT_20  and  CBP_31 
REMARK    7  A    between atoms: CAU_21  and  CBM_30 
REMARK    8  A    between atoms: NBO_39  and  CAU_21 
REMARK    9  A    between atoms: CBL_29  and  NAY_37 
ROOT
ATOM      1  CAG FNV d   1       8.549  21.871  14.532  0.00  0.00     0.118 C 
ATOM      2  CAI FNV d   1      11.517  18.119  11.135  0.00  0.00    -0.072 A 
ATOM      3  CAJ FNV d   1      11.551  19.339  11.812  0.00  0.00    -0.056 A 
ATOM      4  CAL FNV d   1       8.491  19.699  13.351  0.00  0.00    -0.034 A 
ATOM      5  CBC FNV d   1       9.304  17.822  11.956  0.00  0.00    -0.042 A 
ATOM      6  CBE FNV d   1       9.088  20.842  13.713  0.00  0.00     0.117 A 
ATOM      7  CBF FNV d   1      10.384  17.309  11.208  0.00  0.00    -0.026 A 
ATOM      8  CBH FNV d   1       9.384  19.016  12.596  0.00  0.00     0.000 A 
ATOM      9  CBK FNV d   1      10.499  19.764  12.523  0.00  0.00     0.046 A 
ATOM     10  NAB FNV d   1       8.155  22.707  15.163  0.00  0.00    -0.190 NA
ATOM     11  NBO FNV d   1      10.311  20.891  13.220  0.00  0.00    -0.335 N 
ATOM     12  H5  FNV d   1      12.373  17.800  10.551  0.00  0.00     0.084 H 
ATOM     13  H6  FNV d   1      12.443  19.952  11.761  0.00  0.00     0.087 H 
ATOM     14  H8  FNV d   1       7.483  19.381  13.613  0.00  0.00     0.089 H 
ENDROOT
BRANCH  11  15
ATOM     15  CAU FNV d   1      11.273  22.025  13.411  0.00  0.00     0.026 C 
ATOM     16  H25 FNV d   1      11.176  22.413  14.436  0.00  0.00     0.069 H 
ATOM     17  H26 FNV d   1      12.299  21.660  13.253  0.00  0.00     0.069 H 
BRANCH  15  18
ATOM     18  CBM FNV d   1      10.981  23.153  12.415  0.00  0.00     0.070 C 
ATOM     19  CAR FNV d   1      11.984  24.254  12.642  0.00  0.00     0.021 C 
ATOM     20  NAX FNV d   1      11.960  25.232  11.541  0.00  0.00    -0.357 N 
ATOM     21  H19 FNV d   1      12.990  23.814  12.710  0.00  0.00     0.068 H 
ATOM     22  H20 FNV d   1      11.745  24.769  13.584  0.00  0.00     0.068 H 
ATOM     23  CBB FNV d   1      11.355  24.919  10.327  0.00  0.00     0.241 C 
ATOM     24  H29 FNV d   1      12.382  26.130  11.667  0.00  0.00     0.162 HD
ATOM     25  CAQ FNV d   1      10.694  23.697  10.136  0.00  0.00     0.093 C 
ATOM     26  OAC FNV d   1      11.370  25.763   9.435  0.00  0.00    -0.271 OA
ATOM     27  OAZ FNV d   1      11.136  22.691  11.058  0.00  0.00    -0.373 OA
ATOM     28  H17 FNV d   1      10.886  23.347   9.111  0.00  0.00     0.089 H 
ATOM     29  H18 FNV d   1       9.614  23.853  10.274  0.00  0.00     0.089 H 
ATOM     30  H28 FNV d   1       9.958  23.529  12.568  0.00  0.00     0.088 H 
ENDBRANCH  15  18
ENDBRANCH  11  15
BRANCH   5  31
ATOM     31  CAA FNV d   1       8.120  17.090  12.075  0.00  0.00    -0.050 C 
ATOM     32  H2  FNV d   1       8.209  16.154  11.505  0.00  0.00     0.033 H 
ATOM     33  H3  FNV d   1       7.282  17.682  11.679  0.00  0.00     0.033 H 
ATOM     34  H4  FNV d   1       7.937  16.858  13.135  0.00  0.00     0.033 H 
ENDBRANCH   5  31
BRANCH   7  35
ATOM     35  CAS FNV d   1      10.341  16.062  10.512  0.00  0.00     0.107 C 
ATOM     36  H21 FNV d   1      10.488  16.295   9.447  0.00  0.00     0.083 H 
ATOM     37  H22 FNV d   1       9.329  15.657  10.662  0.00  0.00     0.083 H 
BRANCH  35  38
ATOM     38  NBN FNV d   1      11.214  15.045  10.810  0.00  0.00    -0.067 N 
ATOM     39  CAO FNV d   1      11.091  13.943   9.823  0.00  0.00     0.086 C 
ATOM     40  CAM FNV d   1      12.061  12.751  10.094  0.00  0.00    -0.023 C 
ATOM     41  H13 FNV d   1      10.059  13.565   9.851  0.00  0.00     0.076 H 
ATOM     42  H14 FNV d   1      11.307  14.346   8.823  0.00  0.00     0.076 H 
ATOM     43  CBL FNV d   1      11.828  12.171  11.515  0.00  0.00     0.014 C 
ATOM     44  H9  FNV d   1      13.100  13.104  10.013  0.00  0.00     0.038 H 
ATOM     45  H10 FNV d   1      11.883  11.963   9.348  0.00  0.00     0.038 H 
ATOM     46  CAN FNV d   1      11.892  13.338  12.510  0.00  0.00    -0.023 C 
ATOM     47  H27 FNV d   1      10.837  11.695  11.558  0.00  0.00     0.072 H 
ATOM     48  CAP FNV d   1      10.888  14.456  12.120  0.00  0.00     0.086 C 
ATOM     49  H11 FNV d   1      11.645  12.967  13.516  0.00  0.00     0.038 H 
ATOM     50  H12 FNV d   1      12.911  13.754  12.512  0.00  0.00     0.038 H 
ATOM     51  H15 FNV d   1      10.919  15.246  12.884  0.00  0.00     0.076 H 
ATOM     52  H16 FNV d   1       9.876  14.028  12.077  0.00  0.00     0.076 H 
ATOM     53  H31 FNV d   1      12.156  15.405  10.814  0.00  0.00     0.280 HD
BRANCH  43  54
ATOM     54  NAY FNV d   1      12.870  11.164  11.876  0.00  0.00    -0.369 N 
ATOM     55  H30 FNV d   1      13.835  11.492  12.027  0.00  0.00     0.161 HD
BRANCH  54  56
ATOM     56  C6  FNV d   1      12.611   9.838  12.015  0.00  0.00     0.138 A 
ATOM     57  C5  FNV d   1      13.611   8.991  12.406  0.00  0.00     0.046 A 
ATOM     58  C4  FNV d   1      13.322   7.664  12.550  0.00  0.00     0.113 A 
ATOM     59  CAK FNV d   1      14.920   9.259  12.687  0.00  0.00    -0.053 A 
ATOM     60  N3  FNV d   1      12.086   7.181  12.322  0.00  0.00    -0.234 NA
ATOM     61  SBA FNV d   1      14.685   6.818  13.061  0.00  0.00    -0.074 SA
ATOM     62  C2  FNV d   1      11.071   8.035  11.919  0.00  0.00     0.090 A 
ATOM     63  N1  FNV d   1      11.378   9.391  11.771  0.00  0.00    -0.224 NA
ATOM     64  H1  FNV d   1      10.071   7.663  11.725  0.00  0.00     0.146 H 
ATOM     65  CBD FNV d   1      15.648   8.178  13.047  0.00  0.00    -0.006 A 
ATOM     66  H7  FNV d   1      15.343  10.261  12.626  0.00  0.00     0.086 H 
BRANCH  65  67
ATOM     67  CAT FNV d   1      17.149   8.187  13.400  0.00  0.00     0.056 C 
ATOM     68  H23 FNV d   1      17.320   7.555  14.284  0.00  0.00     0.054 H 
ATOM     69  H24 FNV d   1      17.467   9.217  13.618  0.00  0.00     0.054 H 
BRANCH  67  70
ATOM     70  CBP FNV d   1      17.972   7.635  12.204  0.00  0.00     0.392 C 
ATOM     71  FAD FNV d   1      17.750   8.339  11.110  0.00  0.00    -0.171 F 
ATOM     72  FAE FNV d   1      19.215   7.662  12.474  0.00  0.00    -0.171 F 
ATOM     73  FAF FNV d   1      17.632   6.393  11.946  0.00  0.00    -0.171 F 
ENDBRANCH  67  70
ENDBRANCH  65  67
ENDBRANCH  54  56
ENDBRANCH  43  54
ENDBRANCH  35  38
ENDBRANCH   7  35
TORSDOF 9
