REMARK  18 active torsions:
REMARK  status: ('A' for Active; 'I' for Inactive)
REMARK    1  A    between atoms: CA_2  and  C_3 
REMARK       I    between atoms: C_3  and  N_8 
REMARK    2  A    between atoms: N_8  and  CA_9 
REMARK    3  A    between atoms: CA_9  and  C_10 
REMARK    4  A    between atoms: CA_9  and  CB_12 
REMARK       I    between atoms: C_10  and  N_15 
REMARK    5  A    between atoms: CB_12  and  CG1_13 
REMARK    6  A    between atoms: CB_12  and  CG2_14 
REMARK    7  A    between atoms: N_15  and  CA_16 
REMARK    8  A    between atoms: CA_16  and  C_17 
REMARK    9  A    between atoms: CA_16  and  CB_19 
REMARK       I    between atoms: C_17  and  N_21 
REMARK   10  A    between atoms: CB_19  and  OG_20 
REMARK   11  A    between atoms: N_21  and  CA_22 
REMARK   12  A    between atoms: CA_22  and  C_23 
REMARK   13  A    between atoms: CA_22  and  CB_25 
REMARK       I    between atoms: C_23  and  N_30 
REMARK   14  A    between atoms: CB_25  and  CG_26 
REMARK   15  A    between atoms: CG_26  and  CD_27 
REMARK       I    between atoms: CD_27  and  NE2_29 
REMARK   16  A    between atoms: N_30  and  CA_31 
REMARK   17  A    between atoms: CA_31  and  C_32 
REMARK   18  A    between atoms: CA_31  and  CB_34 
ROOT
ATOM      1  CA  PRO d   1      -6.051   2.955  -5.992  0.00  0.00     0.109 C 
ATOM      2  H20 PRO d   1      -5.400   2.087  -5.813  0.00  0.00     0.090 H 
ENDROOT
BRANCH   1   3
ATOM      3  N   PRO d   1      -5.847   3.920  -4.920  0.00  0.00    -0.344 N 
ATOM      4  C   PRO d   1      -5.555   3.538  -3.679  0.00  0.00     0.241 C 
ATOM      5  O   PRO d   1      -5.379   2.360  -3.368  0.00  0.00    -0.271 OA
ATOM      6  H19 PRO d   1      -5.929   4.896  -5.122  0.00  0.00     0.163 HD
BRANCH   4   7
ATOM      7  CA  PRO d   1      -5.485   4.643  -2.624  0.00  0.00     0.092 C 
ATOM      8  H11 PRO d   1      -6.373   5.281  -2.740  0.00  0.00     0.088 H 
BRANCH   7   9
ATOM      9  N   PRO d   1      -5.498   4.118  -1.257  0.00  0.00    -0.346 N 
ATOM     10  C   PRO d   1      -6.627   4.003  -0.564  0.00  0.00     0.249 C 
ATOM     11  O   PRO d   1      -7.742   4.143  -1.062  0.00  0.00    -0.271 OA
ATOM     12  H10 PRO d   1      -4.636   3.839  -0.834  0.00  0.00     0.163 HD
BRANCH  10  13
ATOM     13  CA  PRO d   1      -6.512   3.666   0.923  0.00  0.00     0.178 C 
ATOM     14  N   PRO d   1      -7.574   4.313   1.693  0.00  0.00    -0.062 N 
ATOM     15  CD  PRO d   1      -8.736   3.423   1.858  0.00  0.00     0.083 C 
ATOM     16  H1  PRO d   1      -7.867   5.148   1.211  0.00  0.00     0.278 HD
ATOM     17  H2  PRO d   1      -7.217   4.558   2.603  0.00  0.00     0.278 HD
ATOM     18  CG  PRO d   1      -8.244   2.090   1.322  0.00  0.00    -0.040 C 
ATOM     19  H8  PRO d   1      -9.595   3.787   1.276  0.00  0.00     0.075 H 
ATOM     20  H9  PRO d   1      -9.020   3.340   2.917  0.00  0.00     0.075 H 
ATOM     21  CB  PRO d   1      -6.758   2.184   1.192  0.00  0.00    -0.028 C 
ATOM     22  H6  PRO d   1      -8.511   1.282   2.020  0.00  0.00     0.035 H 
ATOM     23  H7  PRO d   1      -8.696   1.890   0.339  0.00  0.00     0.035 H 
ATOM     24  H4  PRO d   1      -6.262   1.866   2.121  0.00  0.00     0.036 H 
ATOM     25  H5  PRO d   1      -6.398   1.568   0.355  0.00  0.00     0.036 H 
ATOM     26  H3  PRO d   1      -5.519   3.970   1.287  0.00  0.00     0.099 H 
ENDBRANCH  10  13
ENDBRANCH   7   9
BRANCH   7  27
ATOM     27  CB  PRO d   1      -4.230   5.507  -2.897  0.00  0.00    -0.033 C 
ATOM     28  H12 PRO d   1      -3.924   5.340  -3.940  0.00  0.00     0.042 H 
BRANCH  27  29
ATOM     29  CG1 PRO d   1      -4.567   6.982  -2.733  0.00  0.00    -0.071 C 
ATOM     30  H13 PRO d   1      -3.670   7.587  -2.929  0.00  0.00     0.028 H 
ATOM     31  H14 PRO d   1      -4.917   7.166  -1.706  0.00  0.00     0.028 H 
ATOM     32  H15 PRO d   1      -5.358   7.259  -3.445  0.00  0.00     0.028 H 
ENDBRANCH  27  29
BRANCH  27  33
ATOM     33  CG2 PRO d   1      -3.056   5.111  -1.998  0.00  0.00    -0.071 C 
ATOM     34  H16 PRO d   1      -2.833   4.043  -2.135  0.00  0.00     0.028 H 
ATOM     35  H17 PRO d   1      -3.320   5.298  -0.947  0.00  0.00     0.028 H 
ATOM     36  H18 PRO d   1      -2.171   5.707  -2.266  0.00  0.00     0.028 H 
ENDBRANCH  27  33
ENDBRANCH   7  27
ENDBRANCH   4   7
ENDBRANCH   1   3
BRANCH   1  37
ATOM     37  C   PRO d   1      -5.715   3.538  -7.371  0.00  0.00     0.243 C 
ATOM     38  O   PRO d   1      -4.975   4.511  -7.460  0.00  0.00    -0.271 OA
ATOM     39  N   PRO d   1      -6.279   2.986  -8.446  0.00  0.00    -0.346 N 
ATOM     40  H24 PRO d   1      -7.042   2.349  -8.340  0.00  0.00     0.163 HD
BRANCH  39  41
ATOM     41  CA  PRO d   1      -5.779   3.315  -9.777  0.00  0.00     0.090 C 
ATOM     42  H25 PRO d   1      -5.521   4.384  -9.791  0.00  0.00     0.087 H 
BRANCH  41  43
ATOM     43  C   PRO d   1      -6.808   3.077 -10.864  0.00  0.00     0.241 C 
ATOM     44  O   PRO d   1      -7.368   1.985 -10.977  0.00  0.00    -0.271 OA
ATOM     45  N   PRO d   1      -7.068   4.114 -11.655  0.00  0.00    -0.345 N 
ATOM     46  H32 PRO d   1      -6.720   5.020 -11.413  0.00  0.00     0.163 HD
BRANCH  45  47
ATOM     47  CA  PRO d   1      -7.853   3.946 -12.868  0.00  0.00     0.093 C 
ATOM     48  H33 PRO d   1      -8.061   2.874 -13.002  0.00  0.00     0.089 H 
BRANCH  47  49
ATOM     49  C   PRO d   1      -7.050   4.437 -14.063  0.00  0.00     0.196 C 
ATOM     50  O   PRO d   1      -7.409   5.421 -14.707  0.00  0.00    -0.646 OA
ATOM     51  OXT PRO d   1      -6.022   3.862 -14.415  0.00  0.00    -0.646 OA
ENDBRANCH  47  49
BRANCH  47  52
ATOM     52  CB  PRO d   1      -9.187   4.683 -12.773  0.00  0.00    -0.048 C 
ATOM     53  H34 PRO d   1      -9.754   4.536 -13.704  0.00  0.00     0.030 H 
ATOM     54  H35 PRO d   1      -9.003   5.757 -12.622  0.00  0.00     0.030 H 
ATOM     55  H36 PRO d   1      -9.765   4.287 -11.925  0.00  0.00     0.030 H 
ENDBRANCH  47  52
ENDBRANCH  45  47
ENDBRANCH  41  43
BRANCH  41  56
ATOM     56  CB  PRO d   1      -4.500   2.504 -10.032  0.00  0.00    -0.030 C 
ATOM     57  H26 PRO d   1      -4.476   1.695  -9.287  0.00  0.00     0.037 H 
ATOM     58  H27 PRO d   1      -3.649   3.181  -9.866  0.00  0.00     0.037 H 
BRANCH  56  59
ATOM     59  CG  PRO d   1      -4.300   1.856 -11.408  0.00  0.00     0.011 C 
ATOM     60  H28 PRO d   1      -5.229   1.336 -11.685  0.00  0.00     0.047 H 
ATOM     61  H29 PRO d   1      -3.479   1.127 -11.333  0.00  0.00     0.047 H 
BRANCH  59  62
ATOM     62  CD  PRO d   1      -3.962   2.845 -12.501  0.00  0.00     0.215 C 
ATOM     63  OE1 PRO d   1      -3.297   3.852 -12.259  0.00  0.00    -0.274 OA
ATOM     64  NE2 PRO d   1      -4.399   2.550 -13.722  0.00  0.00    -0.370 N 
ATOM     65  H30 PRO d   1      -4.206   3.167 -14.485  0.00  0.00     0.159 HD
ATOM     66  H31 PRO d   1      -4.921   1.711 -13.877  0.00  0.00     0.159 HD
ENDBRANCH  59  62
ENDBRANCH  56  59
ENDBRANCH  41  56
ENDBRANCH  39  41
ENDBRANCH   1  37
BRANCH   1  67
ATOM     67  CB  PRO d   1      -7.487   2.509  -5.970  0.00  0.00     0.044 C 
ATOM     68  H21 PRO d   1      -7.774   2.192  -4.956  0.00  0.00     0.077 H 
ATOM     69  H22 PRO d   1      -7.639   1.675  -6.671  0.00  0.00     0.077 H 
BRANCH  67  70
ATOM     70  OG  PRO d   1      -8.258   3.645  -6.373  0.00  0.00    -0.398 OA
ATOM     71  H23 PRO d   1      -9.180   3.416  -6.376  0.00  0.00     0.209 HD
ENDBRANCH  67  70
ENDBRANCH   1  67
TORSDOF 18
