REMARK  9 active torsions:
REMARK  status: ('A' for Active; 'I' for Inactive)
REMARK    1  A    between atoms: C20_1  and  C21_2 
REMARK    2  A    between atoms: C22_3  and  C23_4 
REMARK    3  A    between atoms: C24_5  and  C25_6 
REMARK    4  A    between atoms: C02_13  and  C01_12 
REMARK    5  A    between atoms: C01_12  and  O01_36 
REMARK    6  A    between atoms: S01_39  and  C07_18 
REMARK    7  A    between atoms: C08_19  and  C09_20 
REMARK    8  A    between atoms: C16_26  and  C17_27 
REMARK    9  A    between atoms: N02_35  and  S01_39 
ROOT
ATOM      1  C02 J18 d   1     105.174 -48.905  38.790  0.00  0.00     0.133 C 
ATOM      2  C03 J18 d   1     104.591 -50.803  37.394  0.00  0.00     0.085 C 
ATOM      3  C04 J18 d   1     104.908 -52.062  36.546  0.00  0.00    -0.041 C 
ATOM      4  C05 J18 d   1     106.176 -52.692  37.035  0.00  0.00    -0.052 C 
ATOM      5  C06 J18 d   1     107.260 -51.830  36.395  0.00  0.00    -0.006 C 
ATOM      6  C14 J18 d   1     108.120 -50.654  38.400  0.00  0.00     0.021 C 
ATOM      7  C15 J18 d   1     106.639 -50.361  38.858  0.00  0.00     0.126 C 
ATOM      8  C16 J18 d   1     106.582 -48.940  39.409  0.00  0.00     0.030 C 
ATOM      9  N01 J18 d   1     105.688 -49.861  37.810  0.00  0.00    -0.058 N 
ATOM     10  N02 J18 d   1     108.416 -51.595  37.274  0.00  0.00    -0.204 NA
ATOM     11  H14 J18 d   1     104.356 -49.255  39.437  0.00  0.00     0.089 H 
ATOM     12  H15 J18 d   1     104.115 -51.159  38.319  0.00  0.00     0.076 H 
ATOM     13  H16 J18 d   1     103.869 -50.208  36.816  0.00  0.00     0.076 H 
ATOM     14  H17 J18 d   1     105.026 -51.773  35.491  0.00  0.00     0.035 H 
ATOM     15  H18 J18 d   1     104.082 -52.783  36.638  0.00  0.00     0.035 H 
ATOM     16  H19 J18 d   1     106.253 -53.737  36.699  0.00  0.00     0.034 H 
ATOM     17  H20 J18 d   1     106.238 -52.654  38.133  0.00  0.00     0.034 H 
ATOM     18  H21 J18 d   1     106.820 -50.857  36.130  0.00  0.00     0.057 H 
ATOM     19  H22 J18 d   1     107.613 -52.334  35.483  0.00  0.00     0.057 H 
ATOM     20  H26 J18 d   1     108.646 -51.049  39.282  0.00  0.00     0.060 H 
ATOM     21  H27 J18 d   1     108.556 -49.684  38.117  0.00  0.00     0.060 H 
ATOM     22  H28 J18 d   1     106.254 -51.170  39.496  0.00  0.00     0.087 H 
ATOM     23  H29 J18 d   1     107.315 -48.243  38.977  0.00  0.00     0.054 H 
ATOM     24  H33 J18 d   1     106.135 -49.464  36.999  0.00  0.00     0.281 HD
ENDROOT
BRANCH   8  25
ATOM     25  C17 J18 d   1     106.566 -48.808  40.827  0.00  0.00    -0.050 A 
ATOM     26  C18 J18 d   1     105.587 -49.446  41.599  0.00  0.00    -0.076 A 
ATOM     27  C19 J18 d   1     105.528 -49.332  42.981  0.00  0.00    -0.072 A 
ATOM     28  H30 J18 d   1     104.844 -50.054  41.096  0.00  0.00     0.084 H 
ATOM     29  C20 J18 d   1     106.459 -48.554  43.647  0.00  0.00    -0.025 A 
ATOM     30  H31 J18 d   1     104.755 -49.851  43.537  0.00  0.00     0.084 H 
ATOM     31  C29 J18 d   1     107.438 -47.916  42.884  0.00  0.00    -0.072 A 
ATOM     32  C30 J18 d   1     107.501 -48.029  41.492  0.00  0.00    -0.076 A 
ATOM     33  H10 J18 d   1     108.179 -47.309  43.391  0.00  0.00     0.084 H 
ATOM     34  H32 J18 d   1     108.275 -47.512  40.937  0.00  0.00     0.084 H 
BRANCH  29  35
ATOM     35  C21 J18 d   1     106.424 -48.396  45.045  0.00  0.00    -0.019 A 
ATOM     36  C22 J18 d   1     105.474 -47.574  45.701  0.00  0.00    -0.045 A 
ATOM     37  C24 J18 d   1     105.518 -47.449  47.099  0.00  0.00    -0.055 A 
ATOM     38  C26 J18 d   1     106.485 -48.131  47.829  0.00  0.00    -0.077 A 
ATOM     39  C27 J18 d   1     107.418 -48.936  47.187  0.00  0.00    -0.082 A 
ATOM     40  H7  J18 d   1     106.511 -48.034  48.908  0.00  0.00     0.084 H 
ATOM     41  C28 J18 d   1     107.385 -49.059  45.800  0.00  0.00    -0.072 A 
ATOM     42  H8  J18 d   1     108.168 -49.466  47.763  0.00  0.00     0.083 H 
ATOM     43  H9  J18 d   1     108.120 -49.681  45.302  0.00  0.00     0.084 H 
BRANCH  36  44
ATOM     44  C23 J18 d   1     104.488 -46.878  44.986  0.00  0.00    -0.050 C 
ATOM     45  H1  J18 d   1     104.598 -47.087  43.912  0.00  0.00     0.033 H 
ATOM     46  H2  J18 d   1     104.601 -45.798  45.163  0.00  0.00     0.033 H 
ATOM     47  H3  J18 d   1     103.493 -47.203  45.323  0.00  0.00     0.033 H 
ENDBRANCH  36  44
BRANCH  37  48
ATOM     48  C25 J18 d   1     104.618 -46.668  47.828  0.00  0.00    -0.051 C 
ATOM     49  H4  J18 d   1     104.860 -46.733  48.899  0.00  0.00     0.033 H 
ATOM     50  H5  J18 d   1     103.595 -47.035  47.660  0.00  0.00     0.033 H 
ATOM     51  H6  J18 d   1     104.691 -45.621  47.499  0.00  0.00     0.033 H 
ENDBRANCH  37  48
ENDBRANCH  29  35
ENDBRANCH   8  25
BRANCH   1  52
ATOM     52  C01 J18 d   1     104.823 -47.574  38.129  0.00  0.00     0.044 C 
ATOM     53  H12 J18 d   1     103.732 -47.509  38.001  0.00  0.00     0.077 H 
ATOM     54  H13 J18 d   1     105.311 -47.518  37.145  0.00  0.00     0.077 H 
BRANCH  52  55
ATOM     55  O01 J18 d   1     105.269 -46.482  38.940  0.00  0.00    -0.399 OA
ATOM     56  H34 J18 d   1     105.044 -45.662  38.517  0.00  0.00     0.209 HD
ENDBRANCH  52  55
ENDBRANCH   1  52
BRANCH  10  57
ATOM     57  S01 J18 d   1     109.242 -52.895  37.667  0.00  0.00     0.244 S 
ATOM     58  O02 J18 d   1     108.691 -54.099  36.892  0.00  0.00    -0.206 OA
ATOM     59  O03 J18 d   1     109.186 -53.149  39.181  0.00  0.00    -0.206 OA
BRANCH  57  60
ATOM     60  C07 J18 d   1     110.948 -52.403  37.115  0.00  0.00     0.089 A 
ATOM     61  C08 J18 d   1     112.088 -53.230  37.033  0.00  0.00     0.070 A 
ATOM     62  C10 J18 d   1     113.286 -52.663  36.591  0.00  0.00    -0.067 A 
ATOM     63  C11 J18 d   1     113.368 -51.324  36.241  0.00  0.00    -0.082 A 
ATOM     64  H23 J18 d   1     114.171 -53.284  36.520  0.00  0.00     0.084 H 
ATOM     65  C12 J18 d   1     112.255 -50.521  36.321  0.00  0.00    -0.081 A 
ATOM     66  H11 J18 d   1     114.311 -50.910  35.904  0.00  0.00     0.083 H 
ATOM     67  C13 J18 d   1     111.061 -51.059  36.756  0.00  0.00    -0.060 A 
ATOM     68  H24 J18 d   1     112.315 -49.474  36.045  0.00  0.00     0.083 H 
ATOM     69  H25 J18 d   1     110.187 -50.421  36.821  0.00  0.00     0.085 H 
BRANCH  61  70
ATOM     70  C09 J18 d   1     112.095 -54.605  37.368  0.00  0.00     0.418 C 
ATOM     71  F01 J18 d   1     113.375 -55.096  37.313  0.00  0.00    -0.166 F 
ATOM     72  F02 J18 d   1     111.626 -54.787  38.600  0.00  0.00    -0.166 F 
ATOM     73  F03 J18 d   1     111.357 -55.286  36.515  0.00  0.00    -0.166 F 
ENDBRANCH  61  70
ENDBRANCH  57  60
ENDBRANCH  10  57
TORSDOF 9
