REMARK  11 active torsions:
REMARK  status: ('A' for Active; 'I' for Inactive)
REMARK    1  A    between atoms: C02_2  and  C01_1 
REMARK    2  A    between atoms: C04_4  and  C05_5 
REMARK    3  A    between atoms: C10_9  and  C11_10 
REMARK    4  A    between atoms: O13_36  and  C12_11 
REMARK    5  A    between atoms: C14_12  and  O13_36 
REMARK    6  A    between atoms: C16_13  and  N17_32 
REMARK    7  A    between atoms: N17_32  and  C18_14 
REMARK    8  A    between atoms: C22_17  and  C23_18 
REMARK    9  A    between atoms: N21_33  and  C22_17 
REMARK   10  A    between atoms: C26_21  and  S27_39 
REMARK   11  A    between atoms: S27_39  and  N28_34 
ROOT
ATOM      1  C05 K5C d   1      47.987 -28.310  40.321  0.00  0.00    -0.063 C 
ATOM      2  C06 K5C d   1      47.074 -27.919  41.231  0.00  0.00    -0.006 C 
ATOM      3  C07 K5C d   1      46.277 -28.878  41.828  0.00  0.00     0.087 C 
ATOM      4  N08 K5C d   1      45.612 -29.693  42.367  0.00  0.00    -0.192 NA
ATOM      5  H5  K5C d   1      47.990 -29.374  40.087  0.00  0.00     0.085 H 
ATOM      6  H6  K5C d   1      46.966 -26.867  41.492  0.00  0.00     0.100 H 
ENDROOT
BRANCH   1   7
ATOM      7  C04 K5C d   1      48.997 -27.487  39.587  0.00  0.00    -0.034 A 
ATOM      8  C03 K5C d   1      50.345 -27.871  39.396  0.00  0.00    -0.065 A 
ATOM      9  C02 K5C d   1      51.316 -27.083  38.742  0.00  0.00    -0.027 A 
ATOM     10  H4  K5C d   1      50.653 -28.837  39.778  0.00  0.00     0.085 H 
ATOM     11  C12 K5C d   1      50.905 -25.823  38.246  0.00  0.00     0.089 A 
ATOM     12  C10 K5C d   1      49.574 -25.374  38.438  0.00  0.00    -0.027 A 
ATOM     13  C09 K5C d   1      48.653 -26.215  39.105  0.00  0.00    -0.065 A 
ATOM     14  H7  K5C d   1      47.638 -25.862  39.250  0.00  0.00     0.085 H 
BRANCH   9  15
ATOM     15  C01 K5C d   1      52.772 -27.506  38.534  0.00  0.00    -0.049 C 
ATOM     16  H1  K5C d   1      52.931 -28.502  38.973  0.00  0.00     0.033 H 
ATOM     17  H2  K5C d   1      53.438 -26.779  39.022  0.00  0.00     0.033 H 
ATOM     18  H3  K5C d   1      52.993 -27.541  37.457  0.00  0.00     0.033 H 
ENDBRANCH   9  15
BRANCH  11  19
ATOM     19  O13 K5C d   1      51.790 -24.942  37.629  0.00  0.00    -0.289 OA
BRANCH  19  20
ATOM     20  C14 K5C d   1      52.269 -25.083  36.380  0.00  0.00     0.208 A 
ATOM     21  C40 K5C d   1      53.150 -24.172  35.852  0.00  0.00     0.088 A 
ATOM     22  C36 K5C d   1      53.598 -24.398  34.529  0.00  0.00     0.098 A 
ATOM     23  S39 K5C d   1      53.848 -22.749  36.476  0.00  0.00    -0.095 SA
ATOM     24  C37 K5C d   1      54.501 -23.352  34.079  0.00  0.00    -0.047 A 
ATOM     25  N35 K5C d   1      53.179 -25.466  33.786  0.00  0.00    -0.062 NA
ATOM     26  C38 K5C d   1      54.720 -22.414  35.030  0.00  0.00    -0.042 A 
ATOM     27  H26 K5C d   1      54.951 -23.326  33.088  0.00  0.00     0.087 H 
ATOM     28  H27 K5C d   1      55.370 -21.551  34.896  0.00  0.00     0.095 H 
ATOM     29  C16 K5C d   1      52.314 -26.286  34.446  0.00  0.00     0.725 A 
ATOM     30  N15 K5C d   1      51.839 -26.139  35.724  0.00  0.00    -0.037 NA
BRANCH  29  31
ATOM     31  N17 K5C d   1      51.856 -27.400  33.769  0.00  0.00    -0.218 N 
ATOM     32  H28 K5C d   1      52.224 -27.511  32.814  0.00  0.00     0.178 HD
BRANCH  31  33
ATOM     33  C18 K5C d   1      50.931 -28.443  34.199  0.00  0.00     0.029 C 
ATOM     34  C19 K5C d   1      51.564 -29.462  35.089  0.00  0.00    -0.023 C 
ATOM     35  C20 K5C d   1      50.584 -30.478  35.501  0.00  0.00     0.086 C 
ATOM     36  H12 K5C d   1      51.962 -28.961  35.984  0.00  0.00     0.038 H 
ATOM     37  H13 K5C d   1      52.386 -29.953  34.547  0.00  0.00     0.038 H 
ATOM     38  N21 K5C d   1      49.968 -31.104  34.253  0.00  0.00    -0.067 N 
ATOM     39  H14 K5C d   1      49.795 -30.007  36.106  0.00  0.00     0.076 H 
ATOM     40  H15 K5C d   1      51.086 -31.256  36.095  0.00  0.00     0.076 H 
ATOM     41  C33 K5C d   1      49.307 -30.111  33.339  0.00  0.00     0.086 C 
ATOM     42  H29 K5C d   1      50.674 -31.589  33.722  0.00  0.00     0.280 HD
ATOM     43  C34 K5C d   1      50.287 -29.009  32.956  0.00  0.00    -0.023 C 
ATOM     44  H22 K5C d   1      48.967 -30.627  32.429  0.00  0.00     0.076 H 
ATOM     45  H23 K5C d   1      48.442 -29.665  33.852  0.00  0.00     0.076 H 
ATOM     46  H24 K5C d   1      51.065 -29.424  32.298  0.00  0.00     0.038 H 
ATOM     47  H25 K5C d   1      49.748 -28.209  32.427  0.00  0.00     0.038 H 
ATOM     48  H11 K5C d   1      50.139 -27.964  34.793  0.00  0.00     0.073 H 
BRANCH  38  49
ATOM     49  C22 K5C d   1      49.011 -32.088  34.867  0.00  0.00     0.107 C 
ATOM     50  H16 K5C d   1      48.509 -31.614  35.724  0.00  0.00     0.083 H 
ATOM     51  H17 K5C d   1      48.261 -32.375  34.116  0.00  0.00     0.083 H 
BRANCH  49  52
ATOM     52  C23 K5C d   1      49.725 -33.314  35.337  0.00  0.00    -0.033 A 
ATOM     53  C24 K5C d   1      50.951 -33.657  34.706  0.00  0.00    -0.074 A 
ATOM     54  C25 K5C d   1      51.666 -34.783  35.096  0.00  0.00    -0.060 A 
ATOM     55  H18 K5C d   1      51.334 -33.031  33.908  0.00  0.00     0.084 H 
ATOM     56  C26 K5C d   1      51.258 -35.664  36.118  0.00  0.00     0.079 A 
ATOM     57  H19 K5C d   1      52.596 -34.997  34.582  0.00  0.00     0.085 H 
ATOM     58  C31 K5C d   1      50.046 -35.279  36.711  0.00  0.00    -0.060 A 
ATOM     59  C32 K5C d   1      49.295 -34.157  36.351  0.00  0.00    -0.074 A 
ATOM     60  H20 K5C d   1      49.662 -35.901  37.511  0.00  0.00     0.085 H 
ATOM     61  H21 K5C d   1      48.367 -33.943  36.869  0.00  0.00     0.084 H 
BRANCH  56  62
ATOM     62  S27 K5C d   1      52.178 -37.081  36.586  0.00  0.00     0.256 S 
ATOM     63  O29 K5C d   1      53.300 -36.720  37.388  0.00  0.00    -0.201 OA
ATOM     64  O30 K5C d   1      51.284 -37.995  37.213  0.00  0.00    -0.201 OA
BRANCH  62  65
ATOM     65  N28 K5C d   1      52.778 -37.772  35.207  0.00  0.00    -0.324 N 
ATOM     66  H30 K5C d   1      53.336 -38.600  35.264  0.00  0.00     0.169 HD
ATOM     67  H31 K5C d   1      52.583 -37.362  34.316  0.00  0.00     0.169 HD
ENDBRANCH  62  65
ENDBRANCH  56  62
ENDBRANCH  49  52
ENDBRANCH  38  49
ENDBRANCH  31  33
ENDBRANCH  29  31
ENDBRANCH  19  20
ENDBRANCH  11  19
BRANCH  12  68
ATOM     68  C11 K5C d   1      49.126 -24.015  37.926  0.00  0.00    -0.049 C 
ATOM     69  H8  K5C d   1      48.066 -23.860  38.176  0.00  0.00     0.033 H 
ATOM     70  H9  K5C d   1      49.255 -23.974  36.834  0.00  0.00     0.033 H 
ATOM     71  H10 K5C d   1      49.732 -23.227  38.397  0.00  0.00     0.033 H 
ENDBRANCH  12  68
ENDBRANCH   1   7
TORSDOF 11
