REMARK  11 active torsions:
REMARK  status: ('A' for Active; 'I' for Inactive)
REMARK    1  A    between atoms: C02_2  and  C01_1 
REMARK    2  A    between atoms: C04_4  and  C05_5 
REMARK    3  A    between atoms: C10_9  and  C11_10 
REMARK    4  A    between atoms: O13_36  and  C12_11 
REMARK    5  A    between atoms: C14_12  and  O13_36 
REMARK    6  A    between atoms: C16_13  and  N17_32 
REMARK    7  A    between atoms: N17_32  and  C18_14 
REMARK    8  A    between atoms: C22_17  and  C23_18 
REMARK    9  A    between atoms: N21_33  and  C22_17 
REMARK   10  A    between atoms: C26_21  and  S27_39 
REMARK   11  A    between atoms: S27_39  and  N28_34 
ROOT
ATOM      1  C05 K5C d   1      47.911 -28.845  40.352  0.00  0.00    -0.063 C 
ATOM      2  C06 K5C d   1      47.110 -28.567  41.402  0.00  0.00    -0.006 C 
ATOM      3  C07 K5C d   1      46.256 -29.543  41.879  0.00  0.00     0.087 C 
ATOM      4  N08 K5C d   1      45.533 -30.373  42.311  0.00  0.00    -0.192 NA
ATOM      5  H5  K5C d   1      47.807 -29.841  39.924  0.00  0.00     0.085 H 
ATOM      6  H6  K5C d   1      47.136 -27.583  41.869  0.00  0.00     0.100 H 
ENDROOT
BRANCH   1   7
ATOM      7  C04 K5C d   1      48.921 -27.957  39.705  0.00  0.00    -0.034 A 
ATOM      8  C03 K5C d   1      50.296 -28.265  39.546  0.00  0.00    -0.065 A 
ATOM      9  C02 K5C d   1      51.241 -27.391  38.964  0.00  0.00    -0.027 A 
ATOM     10  H4  K5C d   1      50.644 -29.231  39.893  0.00  0.00     0.085 H 
ATOM     11  C12 K5C d   1      50.763 -26.134  38.508  0.00  0.00     0.089 A 
ATOM     12  C10 K5C d   1      49.413 -25.776  38.674  0.00  0.00    -0.027 A 
ATOM     13  C09 K5C d   1      48.528 -26.689  39.262  0.00  0.00    -0.065 A 
ATOM     14  H7  K5C d   1      47.490 -26.400  39.379  0.00  0.00     0.085 H 
BRANCH   9  15
ATOM     15  C01 K5C d   1      52.723 -27.723  38.774  0.00  0.00    -0.049 C 
ATOM     16  H1  K5C d   1      52.929 -28.725  39.178  0.00  0.00     0.033 H 
ATOM     17  H2  K5C d   1      53.336 -26.980  39.306  0.00  0.00     0.033 H 
ATOM     18  H3  K5C d   1      52.969 -27.702  37.702  0.00  0.00     0.033 H 
ENDBRANCH   9  15
BRANCH  11  19
ATOM     19  O13 K5C d   1      51.579 -25.167  37.971  0.00  0.00    -0.289 OA
BRANCH  19  20
ATOM     20  C14 K5C d   1      52.050 -25.196  36.730  0.00  0.00     0.208 A 
ATOM     21  C40 K5C d   1      52.832 -24.170  36.265  0.00  0.00     0.088 A 
ATOM     22  C36 K5C d   1      53.296 -24.264  34.935  0.00  0.00     0.098 A 
ATOM     23  S39 K5C d   1      53.386 -22.736  36.988  0.00  0.00    -0.095 SA
ATOM     24  C37 K5C d   1      54.107 -23.118  34.566  0.00  0.00    -0.047 A 
ATOM     25  N35 K5C d   1      52.994 -25.313  34.136  0.00  0.00    -0.062 NA
ATOM     26  C38 K5C d   1      54.236 -22.227  35.577  0.00  0.00    -0.042 A 
ATOM     27  H26 K5C d   1      54.561 -22.989  33.585  0.00  0.00     0.087 H 
ATOM     28  H27 K5C d   1      54.807 -21.302  35.508  0.00  0.00     0.095 H 
ATOM     29  C16 K5C d   1      52.205 -26.261  34.729  0.00  0.00     0.725 A 
ATOM     30  N15 K5C d   1      51.713 -26.252  36.005  0.00  0.00    -0.037 NA
BRANCH  29  31
ATOM     31  N17 K5C d   1      51.871 -27.355  33.952  0.00  0.00    -0.218 N 
ATOM     32  H28 K5C d   1      52.306 -27.360  33.019  0.00  0.00     0.178 HD
BRANCH  31  33
ATOM     33  C18 K5C d   1      51.023 -28.487  34.216  0.00  0.00     0.029 C 
ATOM     34  C19 K5C d   1      51.659 -29.490  35.083  0.00  0.00    -0.023 C 
ATOM     35  C20 K5C d   1      50.717 -30.568  35.396  0.00  0.00     0.086 C 
ATOM     36  H12 K5C d   1      51.982 -29.008  36.018  0.00  0.00     0.038 H 
ATOM     37  H13 K5C d   1      52.534 -29.912  34.567  0.00  0.00     0.038 H 
ATOM     38  N21 K5C d   1      50.128 -31.154  34.083  0.00  0.00    -0.067 N 
ATOM     39  H14 K5C d   1      49.900 -30.170  36.016  0.00  0.00     0.076 H 
ATOM     40  H15 K5C d   1      51.242 -31.363  35.947  0.00  0.00     0.076 H 
ATOM     41  C33 K5C d   1      49.579 -30.139  33.108  0.00  0.00     0.086 C 
ATOM     42  H29 K5C d   1      50.831 -31.694  33.603  0.00  0.00     0.280 HD
ATOM     43  C34 K5C d   1      50.582 -29.031  32.888  0.00  0.00    -0.023 C 
ATOM     44  H22 K5C d   1      49.368 -30.634  32.149  0.00  0.00     0.076 H 
ATOM     45  H23 K5C d   1      48.649 -29.712  33.513  0.00  0.00     0.076 H 
ATOM     46  H24 K5C d   1      51.453 -29.427  32.346  0.00  0.00     0.038 H 
ATOM     47  H25 K5C d   1      50.117 -28.227  32.298  0.00  0.00     0.038 H 
ATOM     48  H11 K5C d   1      50.130 -28.127  34.748  0.00  0.00     0.073 H 
BRANCH  38  49
ATOM     49  C22 K5C d   1      49.062 -32.040  34.621  0.00  0.00     0.107 C 
ATOM     50  H16 K5C d   1      48.518 -31.503  35.412  0.00  0.00     0.083 H 
ATOM     51  H17 K5C d   1      48.367 -32.296  33.807  0.00  0.00     0.083 H 
BRANCH  49  52
ATOM     52  C23 K5C d   1      49.620 -33.290  35.186  0.00  0.00    -0.033 A 
ATOM     53  C24 K5C d   1      50.861 -33.762  34.691  0.00  0.00    -0.074 A 
ATOM     54  C25 K5C d   1      51.431 -34.933  35.189  0.00  0.00    -0.060 A 
ATOM     55  H18 K5C d   1      51.374 -33.205  33.915  0.00  0.00     0.084 H 
ATOM     56  C26 K5C d   1      50.846 -35.737  36.192  0.00  0.00     0.079 A 
ATOM     57  H19 K5C d   1      52.385 -35.246  34.780  0.00  0.00     0.085 H 
ATOM     58  C31 K5C d   1      49.622 -35.219  36.638  0.00  0.00    -0.060 A 
ATOM     59  C32 K5C d   1      49.018 -34.051  36.170  0.00  0.00    -0.074 A 
ATOM     60  H20 K5C d   1      49.101 -35.772  37.411  0.00  0.00     0.085 H 
ATOM     61  H21 K5C d   1      48.066 -33.737  36.583  0.00  0.00     0.084 H 
BRANCH  56  62
ATOM     62  S27 K5C d   1      51.578 -37.213  36.804  0.00  0.00     0.256 S 
ATOM     63  O29 K5C d   1      52.941 -36.995  37.161  0.00  0.00    -0.201 OA
ATOM     64  O30 K5C d   1      50.780 -37.729  37.864  0.00  0.00    -0.201 OA
BRANCH  62  65
ATOM     65  N28 K5C d   1      51.577 -38.324  35.575  0.00  0.00    -0.324 N 
ATOM     66  H30 K5C d   1      51.956 -39.237  35.726  0.00  0.00     0.169 HD
ATOM     67  H31 K5C d   1      51.198 -38.081  34.682  0.00  0.00     0.169 HD
ENDBRANCH  62  65
ENDBRANCH  56  62
ENDBRANCH  49  52
ENDBRANCH  38  49
ENDBRANCH  31  33
ENDBRANCH  29  31
ENDBRANCH  19  20
ENDBRANCH  11  19
BRANCH  12  68
ATOM     68  C11 K5C d   1      48.912 -24.434  38.199  0.00  0.00    -0.049 C 
ATOM     69  H8  K5C d   1      47.838 -24.345  38.418  0.00  0.00     0.033 H 
ATOM     70  H9  K5C d   1      49.074 -24.345  37.115  0.00  0.00     0.033 H 
ATOM     71  H10 K5C d   1      49.459 -23.634  38.718  0.00  0.00     0.033 H 
ENDBRANCH  12  68
ENDBRANCH   1   7
TORSDOF 11
