REMARK  12 active torsions:
REMARK  status: ('A' for Active; 'I' for Inactive)
REMARK    1  A    between atoms: C15_3  and  C12_17 
REMARK       I    between atoms: N17_32  and  C15_3 
REMARK    2  A    between atoms: C22_5  and  N23_34 
REMARK    3  A    between atoms: C24_6  and  C26_7 
REMARK       I    between atoms: N23_34  and  C24_6 
REMARK    4  A    between atoms: C02_10  and  C01_9 
REMARK    5  A    between atoms: C03_11  and  C02_10 
REMARK    6  A    between atoms: O04_37  and  C03_11 
REMARK    7  A    between atoms: C05_12  and  O04_37 
REMARK    8  A    between atoms: C07_14  and  C06_13 
REMARK    9  A    between atoms: C09_15  and  C07_14 
REMARK   10  A    between atoms: C18_19  and  N17_32 
REMARK   11  A    between atoms: C37_27  and  O38_41 
REMARK   12  A    between atoms: O38_41  and  C39_28 
ROOT
ATOM      1  C10 EE4 d   1     -19.107  16.251  16.861  0.00  0.00    -0.068 A 
ATOM      2  C13 EE4 d   1     -17.228  18.287  17.540  0.00  0.00    -0.067 A 
ATOM      3  C09 EE4 d   1     -18.033  15.981  17.750  0.00  0.00     0.015 A 
ATOM      4  C11 EE4 d   1     -19.232  17.519  16.331  0.00  0.00    -0.067 A 
ATOM      5  C12 EE4 d   1     -18.256  18.548  16.693  0.00  0.00     0.032 A 
ATOM      6  C14 EE4 d   1     -17.098  16.980  18.085  0.00  0.00    -0.068 A 
ATOM      7  H1  EE4 d   1     -19.817  15.474  16.603  0.00  0.00     0.085 H 
ATOM      8  H2  EE4 d   1     -16.517  19.063  17.797  0.00  0.00     0.085 H 
ATOM      9  H13 EE4 d   1     -20.045  17.751  15.653  0.00  0.00     0.085 H 
ATOM     10  H14 EE4 d   1     -16.279  16.752  18.758  0.00  0.00     0.085 H 
ENDROOT
BRANCH   5  11
ATOM     11  C15 EE4 d   1     -18.423  19.995  16.100  0.00  0.00     0.252 C 
ATOM     12  N17 EE4 d   1     -19.412  20.214  15.007  0.00  0.00    -0.346 N 
ATOM     13  H26 EE4 d   1     -19.963  19.470  14.630  0.00  0.00     0.163 HD
ATOM     14  O16 EE4 d   1     -17.829  20.897  16.525  0.00  0.00    -0.268 OA
BRANCH  12  15
ATOM     15  C18 EE4 d   1     -19.517  21.518  14.548  0.00  0.00     0.065 C 
ATOM     16  C22 EE4 d   1     -19.983  21.441  13.092  0.00  0.00     0.053 C 
ATOM     17  C21 EE4 d   1     -21.311  21.621  13.089  0.00  0.00     0.035 C 
ATOM     18  H5  EE4 d   1     -19.737  20.460  12.659  0.00  0.00     0.079 H 
ATOM     19  N20 EE4 d   1     -21.760  21.970  14.594  0.00  0.00    -0.301 NA
ATOM     20  H3  EE4 d   1     -21.813  20.702  12.752  0.00  0.00     0.070 H 
ATOM     21  H4  EE4 d   1     -21.575  22.451  12.417  0.00  0.00     0.070 H 
ATOM     22  C19 EE4 d   1     -20.652  22.265  15.284  0.00  0.00     0.000 C 
ATOM     23  H16 EE4 d   1     -20.569  22.893  16.169  0.00  0.00     0.110 H 
ATOM     24  H15 EE4 d   1     -18.558  22.048  14.649  0.00  0.00     0.084 H 
BRANCH  16  25
ATOM     25  N23 EE4 d   1     -19.263  22.562  12.295  0.00  0.00    -0.348 N 
ATOM     26  C24 EE4 d   1     -18.029  22.137  11.694  0.00  0.00     0.252 C 
ATOM     27  O25 EE4 d   1     -17.682  21.029  11.804  0.00  0.00    -0.268 OA
ATOM     28  H27 EE4 d   1     -19.623  23.491  12.208  0.00  0.00     0.163 HD
BRANCH  26  29
ATOM     29  C26 EE4 d   1     -17.288  23.089  10.849  0.00  0.00     0.033 A 
ATOM     30  C27 EE4 d   1     -17.624  24.469  10.865  0.00  0.00    -0.054 A 
ATOM     31  C28 EE4 d   1     -16.912  25.330   9.989  0.00  0.00     0.012 A 
ATOM     32  H17 EE4 d   1     -18.396  24.851  11.523  0.00  0.00     0.086 H 
ATOM     33  C29 EE4 d   1     -15.930  24.817   9.119  0.00  0.00     0.088 A 
ATOM     34  C32 EE4 d   1     -16.938  26.749   9.719  0.00  0.00     0.008 A 
ATOM     35  C33 EE4 d   1     -15.614  23.416   9.113  0.00  0.00    -0.052 A 
ATOM     36  N30 EE4 d   1     -15.415  25.852   8.414  0.00  0.00    -0.175 NA
ATOM     37  C34 EE4 d   1     -16.316  22.560   9.961  0.00  0.00    -0.065 A 
ATOM     38  H19 EE4 d   1     -14.841  23.029   8.459  0.00  0.00     0.087 H 
ATOM     39  H20 EE4 d   1     -16.120  21.494   9.942  0.00  0.00     0.085 H 
ATOM     40  N31 EE4 d   1     -16.022  27.015   8.769  0.00  0.00    -0.288 N 
ATOM     41  H28 EE4 d   1     -15.816  27.945   8.377  0.00  0.00     0.188 HD
ATOM     42  H18 EE4 d   1     -17.587  27.478  10.201  0.00  0.00     0.115 H 
ENDBRANCH  26  29
ENDBRANCH  16  25
ENDBRANCH  12  15
ENDBRANCH   5  11
BRANCH   3  43
ATOM     43  C07 EE4 d   1     -17.865  14.553  18.373  0.00  0.00     0.198 C 
ATOM     44  O08 EE4 d   1     -17.312  14.441  19.446  0.00  0.00    -0.286 OA
BRANCH  43  45
ATOM     45  C06 EE4 d   1     -18.369  13.321  17.639  0.00  0.00     0.089 A 
ATOM     46  C05 EE4 d   1     -19.520  12.593  18.062  0.00  0.00     0.086 A 
ATOM     47  C41 EE4 d   1     -19.916  11.501  17.382  0.00  0.00    -0.047 A 
ATOM     48  C40 EE4 d   1     -19.205  11.084  16.264  0.00  0.00    -0.045 A 
ATOM     49  H25 EE4 d   1     -20.790  10.947  17.707  0.00  0.00     0.087 H 
ATOM     50  C37 EE4 d   1     -18.076  11.793  15.852  0.00  0.00     0.107 A 
ATOM     51  H24 EE4 d   1     -19.527  10.208  15.712  0.00  0.00     0.088 H 
ATOM     52  C35 EE4 d   1     -17.675  12.909  16.542  0.00  0.00     0.166 A 
ATOM     53  F36 EE4 d   1     -16.582  13.619  16.164  0.00  0.00    -0.202 F 
BRANCH  46  54
ATOM     54  O04 EE4 d   1     -20.297  13.029  19.286  0.00  0.00    -0.350 OA
BRANCH  54  55
ATOM     55  C03 EE4 d   1     -19.699  12.598  20.396  0.00  0.00     0.026 C 
ATOM     56  H11 EE4 d   1     -18.776  12.065  20.124  0.00  0.00     0.075 H 
ATOM     57  H12 EE4 d   1     -19.451  13.462  21.030  0.00  0.00     0.075 H 
BRANCH  55  58
ATOM     58  C02 EE4 d   1     -20.654  11.608  21.211  0.00  0.00    -0.048 C 
ATOM     59  H9  EE4 d   1     -21.676  12.015  21.225  0.00  0.00     0.035 H 
ATOM     60  H10 EE4 d   1     -20.659  10.622  20.724  0.00  0.00     0.035 H 
BRANCH  58  61
ATOM     61  C01 EE4 d   1     -20.149  11.465  22.635  0.00  0.00    -0.075 C 
ATOM     62  H6  EE4 d   1     -20.809  10.783  23.191  0.00  0.00     0.027 H 
ATOM     63  H7  EE4 d   1     -20.145  12.451  23.123  0.00  0.00     0.027 H 
ATOM     64  H8  EE4 d   1     -19.127  11.057  22.623  0.00  0.00     0.027 H 
ENDBRANCH  58  61
ENDBRANCH  55  58
ENDBRANCH  54  55
ENDBRANCH  46  54
BRANCH  50  65
ATOM     65  O38 EE4 d   1     -17.368  11.386  14.735  0.00  0.00    -0.353 OA
BRANCH  65  66
ATOM     66  C39 EE4 d   1     -17.699  10.010  14.253  0.00  0.00     0.011 C 
ATOM     67  H21 EE4 d   1     -17.091   9.776  13.367  0.00  0.00     0.066 H 
ATOM     68  H22 EE4 d   1     -18.766   9.961  13.989  0.00  0.00     0.066 H 
ATOM     69  H23 EE4 d   1     -17.484   9.281  15.049  0.00  0.00     0.066 H 
ENDBRANCH  65  66
ENDBRANCH  50  65
ENDBRANCH  43  45
ENDBRANCH   3  43
TORSDOF 12
