REMARK  12 active torsions:
REMARK  status: ('A' for Active; 'I' for Inactive)
REMARK    1  A    between atoms: C15_3  and  C12_17 
REMARK       I    between atoms: N17_32  and  C15_3 
REMARK    2  A    between atoms: C22_5  and  N23_34 
REMARK    3  A    between atoms: C24_6  and  C26_7 
REMARK       I    between atoms: N23_34  and  C24_6 
REMARK    4  A    between atoms: C02_10  and  C01_9 
REMARK    5  A    between atoms: C03_11  and  C02_10 
REMARK    6  A    between atoms: O04_37  and  C03_11 
REMARK    7  A    between atoms: C05_12  and  O04_37 
REMARK    8  A    between atoms: C07_14  and  C06_13 
REMARK    9  A    between atoms: C09_15  and  C07_14 
REMARK   10  A    between atoms: C18_19  and  N17_32 
REMARK   11  A    between atoms: C37_27  and  O38_41 
REMARK   12  A    between atoms: O38_41  and  C39_28 
ROOT
ATOM      1  C10 EE4 d   1      -7.984  56.977  91.821  0.00  0.00    -0.068 A 
ATOM      2  C13 EE4 d   1      -8.693  59.669  92.338  0.00  0.00    -0.067 A 
ATOM      3  C09 EE4 d   1      -7.849  57.505  93.127  0.00  0.00     0.015 A 
ATOM      4  C11 EE4 d   1      -8.460  57.778  90.802  0.00  0.00    -0.067 A 
ATOM      5  C12 EE4 d   1      -8.824  59.165  91.080  0.00  0.00     0.032 A 
ATOM      6  C14 EE4 d   1      -8.200  58.843  93.390  0.00  0.00    -0.068 A 
ATOM      7  H1  EE4 d   1      -7.714  55.946  91.621  0.00  0.00     0.085 H 
ATOM      8  H2  EE4 d   1      -8.964  60.699  92.540  0.00  0.00     0.085 H 
ATOM      9  H13 EE4 d   1      -8.563  57.379  89.799  0.00  0.00     0.085 H 
ATOM     10  H14 EE4 d   1      -8.095  59.245  94.391  0.00  0.00     0.085 H 
ENDROOT
BRANCH   5  11
ATOM     11  C15 EE4 d   1      -9.368  60.087  89.917  0.00  0.00     0.252 C 
ATOM     12  N17 EE4 d   1      -9.727  61.518  90.218  0.00  0.00    -0.346 N 
ATOM     13  H26 EE4 d   1      -9.622  61.875  91.146  0.00  0.00     0.163 HD
ATOM     14  O16 EE4 d   1      -9.484  59.671  88.844  0.00  0.00    -0.268 OA
BRANCH  12  15
ATOM     15  C18 EE4 d   1     -10.205  62.344  89.203  0.00  0.00     0.065 C 
ATOM     16  C22 EE4 d   1     -11.494  63.037  89.693  0.00  0.00     0.053 C 
ATOM     17  C21 EE4 d   1     -11.261  64.360  89.699  0.00  0.00     0.035 C 
ATOM     18  H5  EE4 d   1     -11.736  62.689  90.708  0.00  0.00     0.079 H 
ATOM     19  N20 EE4 d   1      -9.710  64.618  89.349  0.00  0.00    -0.301 NA
ATOM     20  H3  EE4 d   1     -11.488  64.770  90.694  0.00  0.00     0.070 H 
ATOM     21  H4  EE4 d   1     -11.896  64.850  88.946  0.00  0.00     0.070 H 
ATOM     22  C19 EE4 d   1      -9.163  63.465  88.949  0.00  0.00     0.000 C 
ATOM     23  H16 EE4 d   1      -8.169  63.337  88.523  0.00  0.00     0.110 H 
ATOM     24  H15 EE4 d   1     -10.393  61.764  88.287  0.00  0.00     0.084 H 
BRANCH  16  25
ATOM     25  N23 EE4 d   1     -12.706  62.750  88.743  0.00  0.00    -0.348 N 
ATOM     26  C24 EE4 d   1     -13.728  61.784  89.102  0.00  0.00     0.252 C 
ATOM     27  O25 EE4 d   1     -13.672  61.198  90.106  0.00  0.00    -0.268 OA
ATOM     28  H27 EE4 d   1     -12.777  63.241  87.874  0.00  0.00     0.163 HD
BRANCH  26  29
ATOM     29  C26 EE4 d   1     -14.865  61.582  88.159  0.00  0.00     0.033 A 
ATOM     30  C27 EE4 d   1     -14.798  62.183  86.869  0.00  0.00    -0.054 A 
ATOM     31  C28 EE4 d   1     -15.875  62.018  85.959  0.00  0.00     0.012 A 
ATOM     32  H17 EE4 d   1     -13.928  62.764  86.584  0.00  0.00     0.086 H 
ATOM     33  C29 EE4 d   1     -17.008  61.276  86.337  0.00  0.00     0.088 A 
ATOM     34  C32 EE4 d   1     -16.141  62.463  84.606  0.00  0.00     0.008 A 
ATOM     35  C33 EE4 d   1     -17.080  60.671  87.646  0.00  0.00    -0.052 A 
ATOM     36  N30 EE4 d   1     -17.867  61.287  85.282  0.00  0.00    -0.175 NA
ATOM     37  C34 EE4 d   1     -16.010  60.834  88.545  0.00  0.00    -0.065 A 
ATOM     38  H19 EE4 d   1     -17.952  60.095  87.934  0.00  0.00     0.087 H 
ATOM     39  H20 EE4 d   1     -16.059  60.389  89.532  0.00  0.00     0.085 H 
ATOM     40  N31 EE4 d   1     -17.348  61.996  84.241  0.00  0.00    -0.288 N 
ATOM     41  H28 EE4 d   1     -17.803  62.148  83.329  0.00  0.00     0.188 HD
ATOM     42  H18 EE4 d   1     -15.478  63.070  83.991  0.00  0.00     0.115 H 
ENDBRANCH  26  29
ENDBRANCH  16  25
ENDBRANCH  12  15
ENDBRANCH   5  11
BRANCH   3  43
ATOM     43  C07 EE4 d   1      -7.299  56.584  94.275  0.00  0.00     0.198 C 
ATOM     44  O08 EE4 d   1      -6.743  55.544  93.985  0.00  0.00    -0.286 OA
BRANCH  43  45
ATOM     45  C06 EE4 d   1      -7.441  56.974  95.737  0.00  0.00     0.089 A 
ATOM     46  C05 EE4 d   1      -6.586  57.968  96.298  0.00  0.00     0.086 A 
ATOM     47  C41 EE4 d   1      -6.714  58.302  97.596  0.00  0.00    -0.047 A 
ATOM     48  C40 EE4 d   1      -7.679  57.676  98.384  0.00  0.00    -0.045 A 
ATOM     49  H25 EE4 d   1      -6.067  59.057  98.028  0.00  0.00     0.087 H 
ATOM     50  C37 EE4 d   1      -8.519  56.701  97.837  0.00  0.00     0.107 A 
ATOM     51  H24 EE4 d   1      -7.779  57.947  99.429  0.00  0.00     0.088 H 
ATOM     52  C35 EE4 d   1      -8.387  56.358  96.511  0.00  0.00     0.166 A 
ATOM     53  F36 EE4 d   1      -9.185  55.412  95.947  0.00  0.00    -0.202 F 
BRANCH  46  54
ATOM     54  O04 EE4 d   1      -5.539  58.642  95.424  0.00  0.00    -0.350 OA
BRANCH  54  55
ATOM     55  C03 EE4 d   1      -4.584  59.301  96.085  0.00  0.00     0.026 C 
ATOM     56  H11 EE4 d   1      -5.013  59.791  96.972  0.00  0.00     0.075 H 
ATOM     57  H12 EE4 d   1      -3.795  58.602  96.398  0.00  0.00     0.075 H 
BRANCH  55  58
ATOM     58  C02 EE4 d   1      -3.973  60.405  95.093  0.00  0.00    -0.048 C 
ATOM     59  H9  EE4 d   1      -3.455  59.890  94.271  0.00  0.00     0.035 H 
ATOM     60  H10 EE4 d   1      -4.799  61.007  94.686  0.00  0.00     0.035 H 
BRANCH  58  61
ATOM     61  C01 EE4 d   1      -2.988  61.335  95.780  0.00  0.00    -0.075 C 
ATOM     62  H6  EE4 d   1      -2.605  62.066  95.052  0.00  0.00     0.027 H 
ATOM     63  H7  EE4 d   1      -2.151  60.748  96.185  0.00  0.00     0.027 H 
ATOM     64  H8  EE4 d   1      -3.495  61.865  96.600  0.00  0.00     0.027 H 
ENDBRANCH  58  61
ENDBRANCH  55  58
ENDBRANCH  54  55
ENDBRANCH  46  54
BRANCH  50  65
ATOM     65  O38 EE4 d   1      -9.469  56.088  98.642  0.00  0.00    -0.353 OA
BRANCH  65  66
ATOM     66  C39 EE4 d   1     -10.895  56.345  98.268  0.00  0.00     0.011 C 
ATOM     67  H21 EE4 d   1     -11.559  55.815  98.967  0.00  0.00     0.066 H 
ATOM     68  H22 EE4 d   1     -11.077  55.984  97.245  0.00  0.00     0.066 H 
ATOM     69  H23 EE4 d   1     -11.098  57.425  98.317  0.00  0.00     0.066 H 
ENDBRANCH  65  66
ENDBRANCH  50  65
ENDBRANCH  43  45
ENDBRANCH   3  43
TORSDOF 12
