REMARK  7 active torsions:
REMARK  status: ('A' for Active; 'I' for Inactive)
REMARK    1  A    between atoms: O2_7  and  C1_1 
REMARK    2  A    between atoms: C3_2  and  O2_7 
REMARK    3  A    between atoms: C5_4  and  C11_11 
REMARK    4  A    between atoms: C8_6  and  O9_9 
REMARK    5  A    between atoms: O9_9  and  C10_10 
REMARK    6  A    between atoms: N18_18  and  C21_21 
REMARK    7  A    between atoms: N24_24  and  C26_26 
ROOT
ATOM      1  C26 EFV d   1      14.387  62.453  24.220  0.00  0.00     0.094 C 
ATOM      2  C27 EFV d   1      13.646  61.617  23.256  0.00  0.00     0.081 C 
ATOM      3  N28 EFV d   1      13.054  60.966  22.531  0.00  0.00    -0.195 NA
ATOM      4  H15 EFV d   1      13.886  63.429  24.295  0.00  0.00     0.089 H 
ATOM      5  H16 EFV d   1      14.371  61.956  25.201  0.00  0.00     0.089 H 
ENDROOT
BRANCH   1   6
ATOM      6  N24 EFV d   1      15.789  62.673  23.828  0.00  0.00    -0.266 N 
ATOM      7  N23 EFV d   1      16.314  63.813  23.206  0.00  0.00    -0.182 NA
ATOM      8  C22 EFV d   1      17.596  63.639  23.025  0.00  0.00     0.049 A 
ATOM      9  C21 EFV d   1      17.967  62.386  23.549  0.00  0.00     0.074 A 
ATOM     10  H13 EFV d   1      18.269  64.349  22.546  0.00  0.00     0.121 H 
ATOM     11  C25 EFV d   1      16.826  61.822  24.035  0.00  0.00     0.027 A 
ATOM     12  H14 EFV d   1      16.757  60.846  24.513  0.00  0.00     0.117 H 
BRANCH   9  13
ATOM     13  N18 EFV d   1      19.274  61.810  23.556  0.00  0.00    -0.305 N 
ATOM     14  C17 EFV d   1      20.419  62.263  22.739  0.00  0.00     0.044 A 
ATOM     15  C15 EFV d   1      21.556  61.327  23.057  0.00  0.00     0.069 A 
ATOM     16  H11 EFV d   1      20.169  62.210  21.669  0.00  0.00     0.074 H 
ATOM     17  H12 EFV d   1      20.690  63.296  23.002  0.00  0.00     0.074 H 
ATOM     18  C14 EFV d   1      21.082  60.430  24.030  0.00  0.00     0.059 A 
ATOM     19  N16 EFV d   1      22.789  61.217  22.602  0.00  0.00    -0.250 NA
ATOM     20  C13 EFV d   1      21.915  59.407  24.499  0.00  0.00    -0.063 A 
ATOM     21  C19 EFV d   1      19.688  60.764  24.314  0.00  0.00     0.260 A 
ATOM     22  C12 EFV d   1      23.212  59.346  24.016  0.00  0.00    -0.053 A 
ATOM     23  H10 EFV d   1      21.555  58.682  25.220  0.00  0.00     0.085 H 
ATOM     24  C11 EFV d   1      23.645  60.289  23.061  0.00  0.00     0.069 A 
ATOM     25  H9  EFV d   1      23.890  58.578  24.370  0.00  0.00     0.087 H 
ATOM     26  O20 EFV d   1      19.014  60.133  25.090  0.00  0.00    -0.267 OA
BRANCH  24  27
ATOM     27  C5  EFV d   1      24.981  60.187  22.416  0.00  0.00     0.013 A 
ATOM     28  C4  EFV d   1      25.187  60.869  21.202  0.00  0.00    -0.033 A 
ATOM     29  C3  EFV d   1      26.377  60.736  20.481  0.00  0.00     0.122 A 
ATOM     30  H4  EFV d   1      24.404  61.513  20.817  0.00  0.00     0.089 H 
ATOM     31  C8  EFV d   1      27.366  59.886  21.013  0.00  0.00     0.198 A 
ATOM     32  N7  EFV d   1      27.135  59.251  22.171  0.00  0.00    -0.234 NA
ATOM     33  C6  EFV d   1      26.004  59.347  22.862  0.00  0.00     0.017 A 
ATOM     34  H5  EFV d   1      25.875  58.773  23.773  0.00  0.00     0.116 H 
BRANCH  29  35
ATOM     35  O2  EFV d   1      26.566  61.428  19.301  0.00  0.00    -0.352 OA
BRANCH  35  36
ATOM     36  C1  EFV d   1      25.505  61.488  18.337  0.00  0.00     0.011 C 
ATOM     37  H1  EFV d   1      25.833  62.076  17.467  0.00  0.00     0.067 H 
ATOM     38  H2  EFV d   1      24.624  61.965  18.791  0.00  0.00     0.067 H 
ATOM     39  H3  EFV d   1      25.245  60.469  18.014  0.00  0.00     0.067 H 
ENDBRANCH  35  36
ENDBRANCH  29  35
BRANCH  31  40
ATOM     40  O9  EFV d   1      28.571  59.787  20.366  0.00  0.00    -0.337 OA
BRANCH  40  41
ATOM     41  C10 EFV d   1      29.468  58.699  20.611  0.00  0.00     0.012 C 
ATOM     42  H6  EFV d   1      30.368  58.819  19.989  0.00  0.00     0.067 H 
ATOM     43  H7  EFV d   1      28.971  57.750  20.359  0.00  0.00     0.067 H 
ATOM     44  H8  EFV d   1      29.754  58.692  21.673  0.00  0.00     0.067 H 
ENDBRANCH  40  41
ENDBRANCH  31  40
ENDBRANCH  24  27
ENDBRANCH   9  13
ENDBRANCH   1   6
TORSDOF 7
