REMARK  28 active torsions:
REMARK  status: ('A' for Active; 'I' for Inactive)
REMARK    1  A    between atoms: C6_3  and  N6_59 
REMARK    2  A    between atoms: CBS_9  and  OAJ_10 
REMARK    3  A    between atoms: CAR_14  and  CBT_13 
REMARK    4  A    between atoms: CBP_16  and  CAQ_15 
REMARK    5  A    between atoms: SBO_18  and  CBP_16 
REMARK    6  A    between atoms: CBA_19  and  SBO_18 
REMARK    7  A    between atoms: CAY_20  and  CBA_19 
REMARK    8  A    between atoms: NBH_21  and  CAY_20 
REMARK       I    between atoms: CBQ_22  and  NBH_21 
REMARK    9  A    between atoms: CBB_24  and  CBQ_22 
REMARK   10  A    between atoms: CAZ_25  and  CBB_24 
REMARK   11  A    between atoms: NBI_26  and  CAZ_25 
REMARK       I    between atoms: CBR_27  and  NBI_26 
REMARK   12  A    between atoms: CBX_29  and  CBR_27 
REMARK   13  A    between atoms: CBX_29  and  OAK_30 
REMARK   14  A    between atoms: CCD_31  and  CBX_29 
REMARK   15  A    between atoms: CCD_31  and  CAA_32 
REMARK   16  A    between atoms: CCD_31  and  CAB_33 
REMARK   17  A    between atoms: CBD_34  and  CCD_31 
REMARK   18  A    between atoms: OBK_35  and  CBD_34 
REMARK   19  A    between atoms: PCG_36  and  OBK_35 
REMARK   20  A    between atoms: OBN_39  and  PCG_36 
REMARK   21  A    between atoms: PCF_40  and  OBN_39 
REMARK   22  A    between atoms: O5'_43  and  PCF_40 
REMARK   23  A    between atoms: C5'_44  and  O5'_43 
REMARK   24  A    between atoms: C4'_45  and  C5'_44 
REMARK   25  A    between atoms: C3'_47  and  O3'_48 
REMARK   26  A    between atoms: O3'_48  and  PCE_49 
REMARK   27  A    between atoms: C2'_53  and  O2'_54 
REMARK   28  A    between atoms: C1'_55  and  N9_56 
ROOT
ATOM      1  CCD WCA d   1     127.964  -1.806 174.536  0.00  0.00     0.009 C 
ENDROOT
BRANCH   1   2
ATOM      2  CBX WCA d   1     127.482  -1.165 175.872  0.00  0.00     0.120 C 
ATOM      3  H19 WCA d   1     127.496  -0.072 175.746  0.00  0.00     0.099 H 
BRANCH   2   4
ATOM      4  CBR WCA d   1     128.361  -1.526 177.043  0.00  0.00     0.247 C 
ATOM      5  NBI WCA d   1     129.301  -0.578 177.444  0.00  0.00    -0.358 N 
ATOM      6  H18 WCA d   1     129.353   0.300 176.968  0.00  0.00     0.162 HD
ATOM      7  OAF WCA d   1     128.295  -2.612 177.597  0.00  0.00    -0.271 OA
BRANCH   5   8
ATOM      8  CAZ WCA d   1     130.208  -0.853 178.550  0.00  0.00     0.003 C 
ATOM      9  H16 WCA d   1     130.190  -0.002 179.247  0.00  0.00     0.064 H 
ATOM     10  H17 WCA d   1     129.871  -1.762 179.071  0.00  0.00     0.064 H 
BRANCH   8  11
ATOM     11  CBB WCA d   1     131.688  -1.070 178.044  0.00  0.00     0.024 C 
ATOM     12  H14 WCA d   1     132.336  -0.986 178.929  0.00  0.00     0.049 H 
ATOM     13  H15 WCA d   1     131.736  -2.096 177.650  0.00  0.00     0.049 H 
BRANCH  11  14
ATOM     14  CBQ WCA d   1     132.292  -0.176 176.985  0.00  0.00     0.219 C 
ATOM     15  NBH WCA d   1     133.528  -0.546 176.379  0.00  0.00    -0.360 N 
ATOM     16  H13 WCA d   1     133.970  -1.393 176.676  0.00  0.00     0.162 HD
ATOM     17  OAE WCA d   1     131.752   0.837 176.662  0.00  0.00    -0.274 OA
BRANCH  15  18
ATOM     18  CAY WCA d   1     134.165   0.235 175.369  0.00  0.00     0.003 C 
ATOM     19  H11 WCA d   1     133.967   1.304 175.535  0.00  0.00     0.065 H 
ATOM     20  H12 WCA d   1     135.250   0.057 175.380  0.00  0.00     0.065 H 
BRANCH  18  21
ATOM     21  CBA WCA d   1     133.582  -0.202 174.055  0.00  0.00    -0.001 C 
ATOM     22  H9  WCA d   1     133.619  -1.296 173.951  0.00  0.00     0.052 H 
ATOM     23  H10 WCA d   1     132.542   0.141 173.951  0.00  0.00     0.052 H 
BRANCH  21  24
ATOM     24  SBO WCA d   1     134.644   0.594 172.851  0.00  0.00    -0.086 SA
BRANCH  24  25
ATOM     25  CBP WCA d   1     134.141   2.315 172.792  0.00  0.00     0.208 C 
ATOM     26  OAD WCA d   1     133.258   2.713 173.483  0.00  0.00    -0.281 OA
BRANCH  25  27
ATOM     27  CAQ WCA d   1     134.773   3.165 171.745  0.00  0.00    -0.027 C 
ATOM     28  CAR WCA d   1     134.671   4.488 171.795  0.00  0.00    -0.069 C 
ATOM     29  H7  WCA d   1     134.172   4.941 172.650  0.00  0.00     0.085 H 
ATOM     30  H8  WCA d   1     135.324   2.697 170.931  0.00  0.00     0.090 H 
BRANCH  28  31
ATOM     31  CBT WCA d   1     135.206   5.368 170.741  0.00  0.00    -0.036 A 
ATOM     32  CAV WCA d   1     134.885   6.697 170.866  0.00  0.00    -0.070 A 
ATOM     33  CAT WCA d   1     135.325   7.599 169.934  0.00  0.00    -0.050 A 
ATOM     34  H2  WCA d   1     134.283   7.033 171.703  0.00  0.00     0.084 H 
ATOM     35  CBS WCA d   1     136.080   7.185 168.884  0.00  0.00     0.065 A 
ATOM     36  H3  WCA d   1     135.070   8.648 170.035  0.00  0.00     0.087 H 
ATOM     37  CAU WCA d   1     136.381   5.838 168.723  0.00  0.00    -0.050 A 
ATOM     38  CAW WCA d   1     135.948   4.915 169.643  0.00  0.00    -0.070 A 
ATOM     39  H5  WCA d   1     136.961   5.514 167.866  0.00  0.00     0.087 H 
ATOM     40  H6  WCA d   1     136.175   3.862 169.522  0.00  0.00     0.084 H 
BRANCH  35  41
ATOM     41  OAJ WCA d   1     136.509   8.107 167.950  0.00  0.00    -0.361 OA
ATOM     42  H4  WCA d   1     137.022   7.665 167.283  0.00  0.00     0.217 HD
ENDBRANCH  35  41
ENDBRANCH  28  31
ENDBRANCH  25  27
ENDBRANCH  24  25
ENDBRANCH  21  24
ENDBRANCH  18  21
ENDBRANCH  15  18
ENDBRANCH  11  14
ENDBRANCH   8  11
ENDBRANCH   5   8
ENDBRANCH   2   4
BRANCH   2  43
ATOM     43  OAK WCA d   1     126.195  -1.565 176.182  0.00  0.00    -0.385 OA
ATOM     44  H20 WCA d   1     126.183  -2.503 176.331  0.00  0.00     0.210 HD
ENDBRANCH   2  43
ENDBRANCH   1   2
BRANCH   1  45
ATOM     45  CAA WCA d   1     129.404  -1.405 174.305  0.00  0.00    -0.065 C 
ATOM     46  H21 WCA d   1     129.762  -1.849 173.364  0.00  0.00     0.028 H 
ATOM     47  H22 WCA d   1     130.023  -1.765 175.140  0.00  0.00     0.028 H 
ATOM     48  H23 WCA d   1     129.474  -0.309 174.243  0.00  0.00     0.028 H 
ENDBRANCH   1  45
BRANCH   1  49
ATOM     49  CAB WCA d   1     127.829  -3.382 174.462  0.00  0.00    -0.065 C 
ATOM     50  H24 WCA d   1     126.780  -3.668 174.631  0.00  0.00     0.028 H 
ATOM     51  H25 WCA d   1     128.463  -3.841 175.235  0.00  0.00     0.028 H 
ATOM     52  H26 WCA d   1     128.149  -3.731 173.469  0.00  0.00     0.028 H 
ENDBRANCH   1  49
BRANCH   1  53
ATOM     53  CBD WCA d   1     127.072  -1.317 173.344  0.00  0.00     0.041 C 
ATOM     54  H27 WCA d   1     126.032  -1.645 173.488  0.00  0.00     0.076 H 
ATOM     55  H28 WCA d   1     127.454  -1.718 172.393  0.00  0.00     0.076 H 
BRANCH  53  56
ATOM     56  OBK WCA d   1     127.145   0.106 173.344  0.00  0.00    -0.289 OA
BRANCH  56  57
ATOM     57  PCG WCA d   1     126.422   0.853 172.147  0.00  0.00     0.417 P 
ATOM     58  OAP WCA d   1     126.954   0.280 170.847  0.00  0.00    -0.624 OA
ATOM     59  OAI WCA d   1     126.739   2.347 172.317  0.00  0.00    -0.624 OA
BRANCH  57  60
ATOM     60  OBN WCA d   1     124.893   0.408 172.063  0.00  0.00    -0.180 OA
BRANCH  60  61
ATOM     61  PCF WCA d   1     123.626   1.051 172.809  0.00  0.00     0.417 P 
ATOM     62  OAO WCA d   1     124.055   2.370 173.449  0.00  0.00    -0.624 OA
ATOM     63  OAH WCA d   1     122.556   1.216 171.760  0.00  0.00    -0.624 OA
BRANCH  61  64
ATOM     64  O5' WCA d   1     123.014  -0.057 173.801  0.00  0.00    -0.287 OA
BRANCH  64  65
ATOM     65  C5' WCA d   1     123.642  -0.632 174.969  0.00  0.00     0.058 C 
ATOM     66  H29 WCA d   1     124.327   0.102 175.419  0.00  0.00     0.079 H 
ATOM     67  H30 WCA d   1     124.206  -1.531 174.680  0.00  0.00     0.079 H 
BRANCH  65  68
ATOM     68  C4' WCA d   1     122.516  -1.023 176.018  0.00  0.00     0.090 C 
ATOM     69  O4' WCA d   1     122.107   0.222 176.799  0.00  0.00    -0.353 OA
ATOM     70  C1' WCA d   1     120.489   0.272 176.618  0.00  0.00     0.140 C 
ATOM     71  C2' WCA d   1     120.307  -0.218 175.485  0.00  0.00     0.106 C 
ATOM     72  H35 WCA d   1     120.025  -0.378 177.374  0.00  0.00     0.122 H 
ATOM     73  C3' WCA d   1     121.387  -1.508 175.469  0.00  0.00     0.107 C 
ATOM     74  H33 WCA d   1     120.576   0.504 174.700  0.00  0.00     0.093 H 
ATOM     75  H32 WCA d   1     121.585  -1.829 174.435  0.00  0.00     0.092 H 
ATOM     76  H31 WCA d   1     122.930  -1.777 176.704  0.00  0.00     0.090 H 
BRANCH  70  77
ATOM     77  N9  WCA d   1     119.903   1.586 176.770  0.00  0.00    -0.294 N 
ATOM     78  C4  WCA d   1     119.208   1.968 177.892  0.00  0.00     0.167 A 
ATOM     79  C5  WCA d   1     118.780   3.274 177.693  0.00  0.00     0.149 A 
ATOM     80  N3  WCA d   1     118.908   1.314 179.068  0.00  0.00    -0.222 NA
ATOM     81  C6  WCA d   1     118.038   3.896 178.727  0.00  0.00     0.155 A 
ATOM     82  N7  WCA d   1     119.216   3.656 176.448  0.00  0.00    -0.236 NA
ATOM     83  N1  WCA d   1     117.761   3.218 179.872  0.00  0.00    -0.222 NA
ATOM     84  C2  WCA d   1     118.194   1.941 180.039  0.00  0.00     0.091 A 
ATOM     85  H36 WCA d   1     117.967   1.415 180.959  0.00  0.00     0.146 H 
ATOM     86  C8  WCA d   1     119.893   2.630 175.895  0.00  0.00     0.071 A 
ATOM     87  H1  WCA d   1     120.356   2.635 174.910  0.00  0.00     0.144 H 
BRANCH  81  88
ATOM     88  N6  WCA d   1     117.575   5.259 178.548  0.00  0.00    -0.382 N 
ATOM     89  H37 WCA d   1     117.035   5.721 179.293  0.00  0.00     0.157 HD
ATOM     90  H38 WCA d   1     117.787   5.764 177.676  0.00  0.00     0.157 HD
ENDBRANCH  81  88
ENDBRANCH  70  77
BRANCH  71  91
ATOM     91  O2' WCA d   1     118.881  -0.597 175.302  0.00  0.00    -0.388 OA
ATOM     92  H34 WCA d   1     118.775  -1.033 174.465  0.00  0.00     0.210 HD
ENDBRANCH  71  91
BRANCH  73  93
ATOM     93  O3' WCA d   1     120.838  -2.614 176.197  0.00  0.00    -0.272 OA
BRANCH  93  94
ATOM     94  PCE WCA d   1     119.958  -3.742 175.501  0.00  0.00     0.422 P 
ATOM     95  OAM WCA d   1     118.873  -3.098 174.679  0.00  0.00    -0.617 OA
ATOM     96  OAN WCA d   1     119.251  -4.565 176.578  0.00  0.00    -0.617 OA
ATOM     97  OAG WCA d   1     120.852  -4.649 174.668  0.00  0.00    -0.617 OA
ENDBRANCH  93  94
ENDBRANCH  73  93
ENDBRANCH  65  68
ENDBRANCH  64  65
ENDBRANCH  61  64
ENDBRANCH  60  61
ENDBRANCH  57  60
ENDBRANCH  56  57
ENDBRANCH  53  56
ENDBRANCH   1  53
TORSDOF 28
