REMARK  8 active torsions:
REMARK  status: ('A' for Active; 'I' for Inactive)
REMARK    1  A    between atoms: C26_26  and  C13_13 
REMARK    2  A    between atoms: C27_27  and  C16_16 
REMARK    3  A    between atoms: C17_17  and  N31_31 
REMARK    4  A    between atoms: N31_31  and  C18_18 
REMARK    5  A    between atoms: C24_24  and  C19_19 
REMARK    6  A    between atoms: C23_23  and  C25_25 
REMARK    7  A    between atoms: C24_24  and  C27_27 
REMARK    8  A    between atoms: C26_26  and  N30_30 
ROOT
ATOM      1  C20 EGJ d   1     109.610 -17.824   6.462  0.00  0.00    -0.025 C 
ATOM      2  C21 EGJ d   1     111.092 -17.181   8.389  0.00  0.00    -0.022 C 
ATOM      3  C22 EGJ d   1     109.936 -19.269   6.810  0.00  0.00     0.085 C 
ATOM      4  C23 EGJ d   1     111.378 -18.683   8.655  0.00  0.00     0.102 C 
ATOM      5  C24 EGJ d   1     109.745 -16.909   7.691  0.00  0.00     0.057 C 
ATOM      6  N30 EGJ d   1     111.282 -19.466   7.388  0.00  0.00    -0.063 N 
ATOM      7  H11 EGJ d   1     108.577 -17.770   6.087  0.00  0.00     0.037 H 
ATOM      8  H12 EGJ d   1     110.303 -17.479   5.680  0.00  0.00     0.037 H 
ATOM      9  H13 EGJ d   1     111.897 -16.784   7.753  0.00  0.00     0.037 H 
ATOM     10  H14 EGJ d   1     111.093 -16.653   9.354  0.00  0.00     0.037 H 
ATOM     11  H15 EGJ d   1     109.864 -19.869   5.891  0.00  0.00     0.076 H 
ATOM     12  H16 EGJ d   1     109.193 -19.624   7.539  0.00  0.00     0.076 H 
ATOM     13  H17 EGJ d   1     110.604 -19.064   9.338  0.00  0.00     0.084 H 
ATOM     14  H25 EGJ d   1     111.352 -20.437   7.650  0.00  0.00     0.280 HD
ENDROOT
BRANCH   5  15
ATOM     15  C19 EGJ d   1     108.582 -17.205   8.609  0.00  0.00     0.182 C 
ATOM     16  O32 EGJ d   1     107.532 -17.694   8.238  0.00  0.00    -0.647 OA
ATOM     17  O33 EGJ d   1     108.828 -16.837   9.882  0.00  0.00    -0.647 OA
ENDBRANCH   5  15
BRANCH   5  18
ATOM     18  C27 EGJ d   1     109.657 -15.426   7.306  0.00  0.00    -0.007 C 
ATOM     19  H23 EGJ d   1     109.748 -14.831   8.226  0.00  0.00     0.044 H 
ATOM     20  H24 EGJ d   1     110.500 -15.198   6.637  0.00  0.00     0.044 H 
BRANCH  18  21
ATOM     21  C16 EGJ d   1     108.385 -15.013   6.608  0.00  0.00     0.049 A 
ATOM     22  C12 EGJ d   1     107.281 -14.401   7.221  0.00  0.00    -0.001 A 
ATOM     23  C5  EGJ d   1     107.209 -14.145   8.613  0.00  0.00    -0.070 C 
ATOM     24  C11 EGJ d   1     106.146 -14.121   6.405  0.00  0.00    -0.020 A 
ATOM     25  C2  EGJ d   1     106.022 -13.670   9.180  0.00  0.00    -0.082 C 
ATOM     26  H4  EGJ d   1     108.076 -14.318   9.240  0.00  0.00     0.084 H 
ATOM     27  C1  EGJ d   1     104.939 -13.356   8.369  0.00  0.00    -0.082 C 
ATOM     28  H7  EGJ d   1     105.947 -13.547  10.254  0.00  0.00     0.083 H 
ATOM     29  C4  EGJ d   1     104.958 -13.675   7.022  0.00  0.00    -0.072 C 
ATOM     30  H3  EGJ d   1     104.074 -12.858   8.793  0.00  0.00     0.083 H 
ATOM     31  H5  EGJ d   1     104.051 -13.581   6.436  0.00  0.00     0.084 H 
ATOM     32  C8  EGJ d   1     106.141 -14.472   5.043  0.00  0.00    -0.028 A 
ATOM     33  C17 EGJ d   1     107.320 -14.997   4.546  0.00  0.00     0.130 A 
ATOM     34  H8  EGJ d   1     105.264 -14.339   4.419  0.00  0.00     0.090 H 
ATOM     35  N29 EGJ d   1     108.403 -15.289   5.296  0.00  0.00    -0.235 NA
BRANCH  33  36
ATOM     36  N31 EGJ d   1     107.398 -15.381   3.188  0.00  0.00    -0.320 N 
ATOM     37  H26 EGJ d   1     106.499 -15.343   2.688  0.00  0.00     0.169 HD
BRANCH  36  38
ATOM     38  C18 EGJ d   1     108.469 -15.801   2.403  0.00  0.00     0.171 C 
ATOM     39  N28 EGJ d   1     108.287 -16.055   1.130  0.00  0.00    -0.236 NA
ATOM     40  C9  EGJ d   1     109.483 -16.454   0.595  0.00  0.00     0.011 C 
ATOM     41  C10 EGJ d   1     110.479 -16.723   1.505  0.00  0.00    -0.025 C 
ATOM     42  H9  EGJ d   1     109.635 -16.552  -0.479  0.00  0.00     0.115 H 
ATOM     43  S35 EGJ d   1     109.994 -16.253   3.078  0.00  0.00    -0.062 SA
ATOM     44  H10 EGJ d   1     111.440 -17.172   1.259  0.00  0.00     0.097 H 
ENDBRANCH  36  38
ENDBRANCH  33  36
ENDBRANCH  18  21
ENDBRANCH   5  18
BRANCH   4  45
ATOM     45  C25 EGJ d   1     112.734 -18.835   9.358  0.00  0.00    -0.049 C 
ATOM     46  H18 EGJ d   1     112.933 -19.901   9.545  0.00  0.00     0.030 H 
ATOM     47  H19 EGJ d   1     112.714 -18.293  10.315  0.00  0.00     0.030 H 
ATOM     48  H20 EGJ d   1     113.527 -18.421   8.718  0.00  0.00     0.030 H 
ENDBRANCH   4  45
BRANCH   6  49
ATOM     49  C26 EGJ d   1     112.352 -19.245   6.405  0.00  0.00     0.110 C 
ATOM     50  H21 EGJ d   1     112.349 -18.179   6.135  0.00  0.00     0.083 H 
ATOM     51  H22 EGJ d   1     113.309 -19.499   6.883  0.00  0.00     0.083 H 
BRANCH  49  52
ATOM     52  C13 EGJ d   1     112.241 -20.046   5.135  0.00  0.00     0.008 A 
ATOM     53  C6  EGJ d   1     112.000 -21.425   5.192  0.00  0.00    -0.072 A 
ATOM     54  C3  EGJ d   1     111.978 -22.178   4.008  0.00  0.00    -0.081 A 
ATOM     55  H2  EGJ d   1     111.831 -21.909   6.147  0.00  0.00     0.084 H 
ATOM     56  C7  EGJ d   1     112.147 -21.549   2.776  0.00  0.00    -0.059 A 
ATOM     57  H6  EGJ d   1     111.829 -23.251   4.052  0.00  0.00     0.083 H 
ATOM     58  C15 EGJ d   1     112.379 -20.166   2.726  0.00  0.00     0.073 A 
ATOM     59  H1  EGJ d   1     112.099 -22.126   1.860  0.00  0.00     0.086 H 
ATOM     60  C14 EGJ d   1     112.421 -19.417   3.899  0.00  0.00     0.146 A 
ATOM     61 CL1  EGJ d   1     112.725 -19.364   1.246  0.00  0.00    -0.081 Cl
ATOM     62  F34 EGJ d   1     112.658 -18.096   3.807  0.00  0.00    -0.204 F 
ENDBRANCH  49  52
ENDBRANCH   6  49
TORSDOF 8
