REMARK  7 active torsions:
REMARK  status: ('A' for Active; 'I' for Inactive)
REMARK    1  A    between atoms: C01_1  and  C02_2 
REMARK    2  A    between atoms: C08_7  and  C09_8 
REMARK    3  A    between atoms: C09_8  and  C11_9 
REMARK    4  A    between atoms: C09_8  and  O10_12 
REMARK    5  A    between atoms: C11_9  and  C12_10 
REMARK    6  A    between atoms: C12_10  and  C14_11 
REMARK    7  A    between atoms: C12_10  and  O13_13 
ROOT
ATOM      1  C02 EHV d   1      34.602  76.867  63.661  0.00  0.00    -0.048 A 
ATOM      2  C03 EHV d   1      33.738  75.632  63.935  0.00  0.00    -0.076 A 
ATOM      3  C04 EHV d   1      32.431  75.530  63.394  0.00  0.00    -0.081 A 
ATOM      4  C05 EHV d   1      31.884  76.637  62.518  0.00  0.00    -0.065 A 
ATOM      5  C06 EHV d   1      32.730  77.783  62.263  0.00  0.00     0.024 A 
ATOM      6  C08 EHV d   1      34.090  77.933  62.832  0.00  0.00     0.020 A 
ATOM      7 BR07 EHV d   1      32.016  79.109  61.214  0.00  0.00    -0.050 Br
ATOM      8  H4  EHV d   1      34.129  74.828  64.548  0.00  0.00     0.084 H 
ATOM      9  H5  EHV d   1      31.823  74.658  63.608  0.00  0.00     0.083 H 
ATOM     10  H6  EHV d   1      30.888  76.573  62.094  0.00  0.00     0.085 H 
ENDROOT
BRANCH   6  11
ATOM     11  C09 EHV d   1      34.950  79.157  62.517  0.00  0.00     0.077 C 
BRANCH  11  12
ATOM     12  C11 EHV d   1      35.073  79.922  63.268  0.00  0.00    -0.033 C 
ATOM     13  H7  EHV d   1      34.334  80.023  64.061  0.00  0.00     0.086 H 
BRANCH  12  14
ATOM     14  C12 EHV d   1      36.328  80.907  63.228  0.00  0.00     0.138 C 
ATOM     15  H8  EHV d   1      35.852  81.752  63.747  0.00  0.00     0.106 H 
BRANCH  14  16
ATOM     16  C14 EHV d   1      37.403  80.738  64.102  0.00  0.00     0.206 C 
ATOM     17  O15 EHV d   1      38.578  81.084  63.628  0.00  0.00    -0.646 OA
ATOM     18  O16 EHV d   1      37.055  80.192  65.416  0.00  0.00    -0.646 OA
ENDBRANCH  14  16
BRANCH  14  19
ATOM     19  O13 EHV d   1      36.633  81.579  61.984  0.00  0.00    -0.381 OA
ATOM     20  H10 EHV d   1      37.288  81.082  61.509  0.00  0.00     0.211 HD
ENDBRANCH  14  19
ENDBRANCH  12  14
ENDBRANCH  11  12
BRANCH  11  21
ATOM     21  O10 EHV d   1      35.573  79.217  61.114  0.00  0.00    -0.360 OA
ATOM     22  H9  EHV d   1      36.519  79.263  61.190  0.00  0.00     0.217 HD
ENDBRANCH  11  21
ENDBRANCH   6  11
BRANCH   1  23
ATOM     23  C01 EHV d   1      36.013  76.922  64.285  0.00  0.00    -0.050 C 
ATOM     24  H1  EHV d   1      36.190  76.009  64.873  0.00  0.00     0.033 H 
ATOM     25  H2  EHV d   1      36.090  77.802  64.941  0.00  0.00     0.033 H 
ATOM     26  H3  EHV d   1      36.765  76.994  63.485  0.00  0.00     0.033 H 
ENDBRANCH   1  23
TORSDOF 7
