REMARK  10 active torsions:
REMARK  status: ('A' for Active; 'I' for Inactive)
REMARK    1  A    between atoms: C02_2  and  C03_3 
REMARK       I    between atoms: C02_2  and  N30_30 
REMARK    2  A    between atoms: C04_4  and  C05_5 
REMARK    3  A    between atoms: C09_9  and  C10_10 
REMARK    4  A    between atoms: C12_12  and  C13_13 
REMARK       I    between atoms: C13_13  and  N14_14 
REMARK    5  A    between atoms: N14_14  and  C15_15 
REMARK    6  A    between atoms: C15_15  and  C16_16 
REMARK    7  A    between atoms: C18_18  and  C19_19 
REMARK    8  A    between atoms: C19_19  and  O20_20 
REMARK    9  A    between atoms: O20_20  and  C21_21 
REMARK   10  A    between atoms: N30_30  and  C31_31 
ROOT
ATOM      1  C03 EJS d   1     -18.341  29.073  17.823  0.00  0.00     0.067 C 
ATOM      2  C04 EJS d   1     -18.581  29.729  19.121  0.00  0.00     0.024 C 
ATOM      3  N06 EJS d   1     -17.621  30.653  19.638  0.00  0.00    -0.338 N 
ATOM      4  C07 EJS d   1     -16.471  31.078  18.803  0.00  0.00     0.317 C 
ATOM      5  N08 EJS d   1     -16.282  30.562  17.413  0.00  0.00    -0.334 N 
ATOM      6  C09 EJS d   1     -17.294  29.586  16.887  0.00  0.00     0.053 C 
ATOM      7  O29 EJS d   1     -15.689  31.845  19.249  0.00  0.00    -0.247 OA
ATOM      8  H1  EJS d   1     -17.777  28.203  18.190  0.00  0.00     0.061 H 
ATOM      9  H2  EJS d   1     -18.224  28.877  19.718  0.00  0.00     0.073 H 
ATOM     10  H6  EJS d   1     -17.725  31.014  20.565  0.00  0.00     0.164 HD
ATOM     11  H7  EJS d   1     -15.508  30.857  16.853  0.00  0.00     0.165 HD
ATOM     12  H8  EJS d   1     -17.808  30.057  16.036  0.00  0.00     0.081 H 
ENDROOT
BRANCH   6  13
ATOM     13  C10 EJS d   1     -16.483  28.361  16.413  0.00  0.00    -0.033 A 
ATOM     14  C11 EJS d   1     -15.302  28.045  17.066  0.00  0.00    -0.057 A 
ATOM     15  C12 EJS d   1     -14.555  26.951  16.661  0.00  0.00     0.071 A 
ATOM     16  H9  EJS d   1     -14.962  28.655  17.895  0.00  0.00     0.086 H 
ATOM     17  C25 EJS d   1     -14.989  26.176  15.601  0.00  0.00     0.132 A 
ATOM     18  F26 EJS d   1     -14.255  25.100  15.198  0.00  0.00    -0.205 F 
ATOM     19  C27 EJS d   1     -16.173  26.489  14.946  0.00  0.00    -0.044 A 
ATOM     20  C28 EJS d   1     -16.922  27.584  15.355  0.00  0.00    -0.072 A 
ATOM     21  H18 EJS d   1     -16.512  25.879  14.116  0.00  0.00     0.088 H 
ATOM     22  H19 EJS d   1     -17.848  27.830  14.847  0.00  0.00     0.084 H 
BRANCH  15  23
ATOM     23  C13 EJS d   1     -13.248  26.619  17.390  0.00  0.00     0.255 C 
ATOM     24  N14 EJS d   1     -12.994  27.172  18.715  0.00  0.00    -0.349 N 
ATOM     25  H10 EJS d   1     -13.673  27.762  19.152  0.00  0.00     0.163 HD
ATOM     26  O24 EJS d   1     -12.444  25.918  16.876  0.00  0.00    -0.268 OA
BRANCH  24  27
ATOM     27  C15 EJS d   1     -11.746  26.860  19.400  0.00  0.00     0.058 C 
ATOM     28  H11 EJS d   1     -11.640  27.523  20.271  0.00  0.00     0.076 H 
ATOM     29  H12 EJS d   1     -10.906  27.026  18.709  0.00  0.00     0.076 H 
BRANCH  27  30
ATOM     30  C16 EJS d   1     -11.723  25.401  19.875  0.00  0.00     0.190 A 
ATOM     31  N17 EJS d   1     -12.484  24.403  19.415  0.00  0.00    -0.205 NA
ATOM     32  C18 EJS d   1     -12.149  23.285  20.101  0.00  0.00     0.179 A 
ATOM     33  N22 EJS d   1     -11.190  23.607  20.960  0.00  0.00    -0.109 NA
ATOM     34  O23 EJS d   1     -10.933  24.908  20.816  0.00  0.00    -0.194 OA
BRANCH  32  35
ATOM     35  C19 EJS d   1     -12.752  21.890  19.926  0.00  0.00     0.077 C 
ATOM     36  H13 EJS d   1     -13.497  21.903  19.117  0.00  0.00     0.086 H 
ATOM     37  H14 EJS d   1     -13.232  21.569  20.862  0.00  0.00     0.086 H 
BRANCH  35  38
ATOM     38  O20 EJS d   1     -11.709  21.014  19.600  0.00  0.00    -0.388 OA
BRANCH  38  39
ATOM     39  C21 EJS d   1     -12.105  19.918  18.829  0.00  0.00     0.004 C 
ATOM     40  H15 EJS d   1     -11.232  19.283  18.618  0.00  0.00     0.066 H 
ATOM     41  H16 EJS d   1     -12.538  20.273  17.882  0.00  0.00     0.066 H 
ATOM     42  H17 EJS d   1     -12.857  19.335  19.380  0.00  0.00     0.066 H 
ENDBRANCH  38  39
ENDBRANCH  35  38
ENDBRANCH  32  35
ENDBRANCH  27  30
ENDBRANCH  24  27
ENDBRANCH  15  23
ENDBRANCH   6  13
BRANCH   1  43
ATOM     43  C02 EJS d   1     -19.557  28.334  17.276  0.00  0.00     0.230 C 
ATOM     44  O01 EJS d   1     -19.998  28.595  16.208  0.00  0.00    -0.273 OA
ATOM     45  N30 EJS d   1     -20.136  27.333  18.155  0.00  0.00    -0.327 N 
ATOM     46  H20 EJS d   1     -19.679  27.154  19.026  0.00  0.00     0.169 HD
BRANCH  45  47
ATOM     47  C31 EJS d   1     -21.332  26.578  17.849  0.00  0.00     0.035 A 
ATOM     48  C32 EJS d   1     -22.276  27.110  16.978  0.00  0.00    -0.044 A 
ATOM     49  C33 EJS d   1     -23.467  26.407  16.706  0.00  0.00     0.013 A 
ATOM     50  H21 EJS d   1     -22.095  28.069  16.506  0.00  0.00     0.088 H 
ATOM     51  C34 EJS d   1     -24.610  26.637  15.871  0.00  0.00     0.008 A 
ATOM     52  C37 EJS d   1     -23.708  25.207  17.327  0.00  0.00     0.088 A 
ATOM     53  N35 EJS d   1     -25.441  25.620  16.018  0.00  0.00    -0.288 N 
ATOM     54  H22 EJS d   1     -24.766  27.501  15.227  0.00  0.00     0.115 H 
ATOM     55  N36 EJS d   1     -24.901  24.757  16.896  0.00  0.00    -0.175 NA
ATOM     56  H23 EJS d   1     -26.347  25.508  15.541  0.00  0.00     0.188 HD
ATOM     57  C38 EJS d   1     -22.761  24.676  18.237  0.00  0.00    -0.051 A 
ATOM     58  C39 EJS d   1     -21.587  25.370  18.502  0.00  0.00    -0.055 A 
ATOM     59  H24 EJS d   1     -22.952  23.728  18.727  0.00  0.00     0.087 H 
ATOM     60  H25 EJS d   1     -20.871  24.975  19.214  0.00  0.00     0.087 H 
ENDBRANCH  45  47
ENDBRANCH   1  43
BRANCH   2  61
ATOM     61  C05 EJS d   1     -19.988  29.734  19.726  0.00  0.00    -0.056 C 
ATOM     62  H3  EJS d   1     -19.971  30.266  20.689  0.00  0.00     0.030 H 
ATOM     63  H4  EJS d   1     -20.322  28.698  19.885  0.00  0.00     0.030 H 
ATOM     64  H5  EJS d   1     -20.681  30.242  19.039  0.00  0.00     0.030 H 
ENDBRANCH   2  61
TORSDOF 10
