REMARK  3 active torsions:
REMARK  status: ('A' for Active; 'I' for Inactive)
REMARK    1  A    between atoms: C4_1  and  N2_11 
REMARK    2  A    between atoms: C11_14  and  C10_5 
REMARK    3  A    between atoms: C11_14  and  C12_15 
ROOT
ATOM      1  C4  EJY d   1       6.032 -12.878 -26.179  0.00  0.00     0.105 A 
ATOM      2  C5  EJY d   1       6.319 -13.587 -27.342  0.00  0.00    -0.049 A 
ATOM      3  C6  EJY d   1       6.744 -12.926 -28.472  0.00  0.00    -0.052 A 
ATOM      4  C7  EJY d   1       6.894 -11.547 -28.446  0.00  0.00     0.062 A 
ATOM      5  C10 EJY d   1       7.254  -9.403 -28.808  0.00  0.00     0.109 A 
ATOM      6  C20 EJY d   1       6.173 -11.507 -26.145  0.00  0.00    -0.021 A 
ATOM      7  N8  EJY d   1       7.295 -10.627 -29.379  0.00  0.00    -0.342 N 
ATOM      8  N18 EJY d   1       6.854  -9.504 -27.573  0.00  0.00    -0.233 NA
ATOM      9  C19 EJY d   1       6.611 -10.814 -27.283  0.00  0.00     0.087 A 
ATOM     10  H1  EJY d   1       6.207 -14.665 -27.358  0.00  0.00     0.087 H 
ATOM     11  H2  EJY d   1       6.960 -13.480 -29.378  0.00  0.00     0.087 H 
ATOM     12  H6  EJY d   1       5.945 -10.963 -25.236  0.00  0.00     0.091 H 
ATOM     13  H7  EJY d   1       7.579 -10.833 -30.348  0.00  0.00     0.167 HD
ENDROOT
BRANCH   5  14
ATOM     14  C11 EJY d   1       7.661  -8.165 -29.562  0.00  0.00     0.014 C 
ATOM     15  H8  EJY d   1       7.636  -8.402 -30.636  0.00  0.00     0.051 H 
ATOM     16  H9  EJY d   1       8.690  -7.914 -29.265  0.00  0.00     0.051 H 
BRANCH  14  17
ATOM     17  C12 EJY d   1       6.811  -6.947 -29.342  0.00  0.00    -0.051 A 
ATOM     18  C13 EJY d   1       7.404  -5.791 -28.862  0.00  0.00    -0.076 A 
ATOM     19  C14 EJY d   1       6.641  -4.654 -28.662  0.00  0.00    -0.082 A 
ATOM     20  H3  EJY d   1       8.466  -5.777 -28.643  0.00  0.00     0.084 H 
ATOM     21  C15 EJY d   1       5.289  -4.671 -28.956  0.00  0.00    -0.083 A 
ATOM     22  H10 EJY d   1       7.101  -3.752 -28.276  0.00  0.00     0.083 H 
ATOM     23  C16 EJY d   1       4.700  -5.825 -29.444  0.00  0.00    -0.082 A 
ATOM     24  H4  EJY d   1       4.691  -3.780 -28.804  0.00  0.00     0.083 H 
ATOM     25  C17 EJY d   1       5.463  -6.963 -29.644  0.00  0.00    -0.076 A 
ATOM     26  H11 EJY d   1       3.640  -5.838 -29.670  0.00  0.00     0.083 H 
ATOM     27  H5  EJY d   1       5.004  -7.863 -30.036  0.00  0.00     0.084 H 
ENDBRANCH  14  17
ENDBRANCH   5  14
BRANCH   1  28
ATOM     28  N2  EJY d   1       5.582 -13.624 -24.973  0.00  0.00    -0.116 N 
ATOM     29  O1  EJY d   1       4.968 -13.053 -24.088  0.00  0.00    -0.532 OA
ATOM     30  O3  EJY d   1       5.838 -14.812 -24.851  0.00  0.00    -0.532 OA
ENDBRANCH   1  28
TORSDOF 3
