REMARK  11 active torsions:
REMARK  status: ('A' for Active; 'I' for Inactive)
REMARK    1  A    between atoms: N_1  and  CA_2 
REMARK    2  A    between atoms: CA_2  and  C_3 
REMARK       I    between atoms: C_3  and  NBN_39 
REMARK    3  A    between atoms: NBL_37  and  CAA_5 
REMARK    4  A    between atoms: CAP_18  and  CAM_15 
REMARK    5  A    between atoms: CAM_15  and  NAY_34 
REMARK    6  A    between atoms: CBF_28  and  CAP_18 
REMARK    7  A    between atoms: CBG_29  and  CAX_25 
REMARK    8  A    between atoms: CAX_25  and  NBM_38 
REMARK    9  A    between atoms: NAY_34  and  CBC_26 
REMARK   10  A    between atoms: CBC_26  and  NAZ_35 
REMARK   11  A    between atoms: NAZ_35  and  CBE_27 
ROOT
ATOM      1  N   EGP d   1     -20.701   3.701   2.150  0.00  0.00    -0.347 N 
ATOM      2  CAF EGP d   1     -18.151   0.775   1.081  0.00  0.00    -0.056 A 
ATOM      3  CAI EGP d   1     -18.251   1.322   2.352  0.00  0.00    -0.068 A 
ATOM      4  CAK EGP d   1     -19.877   2.263   0.377  0.00  0.00    -0.030 A 
ATOM      5  CAL EGP d   1     -20.388   3.845   3.435  0.00  0.00    -0.011 A 
ATOM      6  CBE EGP d   1     -18.968   1.259   0.066  0.00  0.00     0.036 A 
ATOM      7  CBG EGP d   1     -19.427   2.970   3.683  0.00  0.00    -0.004 A 
ATOM      8  CBJ EGP d   1     -19.134   2.289   2.583  0.00  0.00     0.000 A 
ATOM      9  CBK EGP d   1     -19.931   2.753   1.616  0.00  0.00     0.047 A 
ATOM     10  H8  EGP d   1     -17.443  -0.021   0.882  0.00  0.00     0.086 H 
ATOM     11  H11 EGP d   1     -17.613   0.963   3.152  0.00  0.00     0.085 H 
ATOM     12  H13 EGP d   1     -20.542   2.648  -0.388  0.00  0.00     0.090 H 
ATOM     13  H14 EGP d   1     -20.834   4.543   4.142  0.00  0.00     0.112 H 
ENDROOT
BRANCH   6  14
ATOM     14  NAZ EGP d   1     -18.925   0.752  -1.174  0.00  0.00    -0.333 N 
ATOM     15  H38 EGP d   1     -19.751   0.348  -1.567  0.00  0.00     0.168 HD
BRANCH  14  16
ATOM     16  CBC EGP d   1     -17.789   0.776  -1.902  0.00  0.00     0.172 C 
ATOM     17  SAC EGP d   1     -17.801   0.086  -3.460  0.00  0.00    -0.041 SA
BRANCH  16  18
ATOM     18  NAY EGP d   1     -16.667   1.342  -1.420  0.00  0.00    -0.367 N 
ATOM     19  H37 EGP d   1     -16.693   1.751  -0.508  0.00  0.00     0.161 HD
BRANCH  18  20
ATOM     20  CAM EGP d   1     -15.404   1.387  -2.172  0.00  0.00    -0.002 C 
ATOM     21  H15 EGP d   1     -15.053   0.361  -2.357  0.00  0.00     0.064 H 
ATOM     22  H16 EGP d   1     -15.570   1.897  -3.133  0.00  0.00     0.064 H 
BRANCH  20  23
ATOM     23  CAP EGP d   1     -14.341   2.151  -1.367  0.00  0.00    -0.024 C 
ATOM     24  H21 EGP d   1     -14.629   3.211  -1.305  0.00  0.00     0.042 H 
ATOM     25  H22 EGP d   1     -13.370   2.064  -1.877  0.00  0.00     0.042 H 
BRANCH  23  26
ATOM     26  CBF EGP d   1     -14.217   1.579   0.052  0.00  0.00    -0.029 A 
ATOM     27  CAJ EGP d   1     -14.886   2.022   1.109  0.00  0.00    -0.015 A 
ATOM     28  NBA EGP d   1     -14.503   1.277   2.143  0.00  0.00    -0.365 N 
ATOM     29  H12 EGP d   1     -15.608   2.837   1.127  0.00  0.00     0.112 H 
ATOM     30  CBH EGP d   1     -13.604   0.387   1.717  0.00  0.00     0.042 A 
ATOM     31  H39 EGP d   1     -14.843   1.371   3.111  0.00  0.00     0.165 HD
ATOM     32  CAG EGP d   1     -12.938  -0.565   2.370  0.00  0.00    -0.056 A 
ATOM     33  CBI EGP d   1     -13.421   0.576   0.407  0.00  0.00    -0.002 A 
ATOM     34  CAD EGP d   1     -12.036  -1.382   1.700  0.00  0.00    -0.081 A 
ATOM     35  H9  EGP d   1     -13.101  -0.703   3.433  0.00  0.00     0.086 H 
ATOM     36  CAE EGP d   1     -11.845  -1.185   0.341  0.00  0.00    -0.082 A 
ATOM     37  H6  EGP d   1     -11.493  -2.157   2.229  0.00  0.00     0.083 H 
ATOM     38  CAH EGP d   1     -12.570  -0.179  -0.288  0.00  0.00    -0.070 A 
ATOM     39  H7  EGP d   1     -11.148  -1.800  -0.217  0.00  0.00     0.083 H 
ATOM     40  H10 EGP d   1     -12.442  -0.007  -1.351  0.00  0.00     0.084 H 
ENDBRANCH  23  26
ENDBRANCH  20  23
ENDBRANCH  18  20
ENDBRANCH  16  18
ENDBRANCH  14  16
ENDBRANCH   6  14
BRANCH   1  41
ATOM     41  CA  EGP d   1     -21.712   4.502   1.454  0.00  0.00     0.073 C 
ATOM     42  H1  EGP d   1     -22.565   4.705   2.118  0.00  0.00     0.079 H 
ATOM     43  H2  EGP d   1     -22.064   3.978   0.553  0.00  0.00     0.079 H 
BRANCH  41  44
ATOM     44  C   EGP d   1     -21.010   5.808   1.072  0.00  0.00     0.238 C 
ATOM     45  O   EGP d   1     -20.009   6.184   1.680  0.00  0.00    -0.272 OA
ATOM     46  NBN EGP d   1     -21.522   6.480   0.039  0.00  0.00    -0.347 N 
ATOM     47  CAQ EGP d   1     -20.864   7.737  -0.360  0.00  0.00     0.017 C 
ATOM     48  CAR EGP d   1     -22.720   6.002  -0.687  0.00  0.00     0.017 C 
ATOM     49  CAN EGP d   1     -20.896   7.892  -1.857  0.00  0.00     0.034 C 
ATOM     50  H23 EGP d   1     -21.390   8.585   0.104  0.00  0.00     0.067 H 
ATOM     51  H24 EGP d   1     -19.818   7.723  -0.019  0.00  0.00     0.067 H 
ATOM     52  OBB EGP d   1     -22.241   7.716  -2.335  0.00  0.00    -0.388 OA
ATOM     53  H17 EGP d   1     -20.243   7.136  -2.317  0.00  0.00     0.076 H 
ATOM     54  H18 EGP d   1     -20.541   8.897  -2.128  0.00  0.00     0.076 H 
ATOM     55  CAO EGP d   1     -22.639   6.345  -2.168  0.00  0.00     0.034 C 
ATOM     56  H19 EGP d   1     -23.625   6.193  -2.631  0.00  0.00     0.076 H 
ATOM     57  H20 EGP d   1     -21.901   5.690  -2.654  0.00  0.00     0.076 H 
ATOM     58  H25 EGP d   1     -22.796   4.910  -0.575  0.00  0.00     0.067 H 
ATOM     59  H26 EGP d   1     -23.614   6.478  -0.257  0.00  0.00     0.067 H 
ENDBRANCH  41  44
ENDBRANCH   1  41
BRANCH   7  60
ATOM     60  CAX EGP d   1     -18.761   2.781   5.045  0.00  0.00     0.109 C 
ATOM     61  H35 EGP d   1     -18.050   1.944   4.986  0.00  0.00     0.083 H 
ATOM     62  H36 EGP d   1     -19.533   2.554   5.795  0.00  0.00     0.083 H 
BRANCH  60  63
ATOM     63  NBM EGP d   1     -18.039   4.000   5.449  0.00  0.00    -0.064 N 
ATOM     64  CAU EGP d   1     -17.321   3.759   6.712  0.00  0.00     0.106 C 
ATOM     65  CAS EGP d   1     -16.511   4.984   7.114  0.00  0.00     0.105 C 
ATOM     66  H31 EGP d   1     -18.050   3.533   7.504  0.00  0.00     0.078 H 
ATOM     67  H32 EGP d   1     -16.642   2.903   6.583  0.00  0.00     0.078 H 
ATOM     68  NBL EGP d   1     -15.552   5.338   6.055  0.00  0.00    -0.072 N 
ATOM     69  H27 EGP d   1     -15.962   4.766   8.042  0.00  0.00     0.078 H 
ATOM     70  H28 EGP d   1     -17.194   5.830   7.282  0.00  0.00     0.078 H 
ATOM     71  CAT EGP d   1     -16.285   5.597   4.808  0.00  0.00     0.105 C 
ATOM     72  H40 EGP d   1     -14.913   4.571   5.915  0.00  0.00     0.279 HD
ATOM     73  CAV EGP d   1     -17.074   4.368   4.402  0.00  0.00     0.106 C 
ATOM     74  H29 EGP d   1     -16.976   6.439   4.961  0.00  0.00     0.078 H 
ATOM     75  H30 EGP d   1     -15.570   5.850   4.011  0.00  0.00     0.078 H 
ATOM     76  H33 EGP d   1     -16.380   3.530   4.240  0.00  0.00     0.078 H 
ATOM     77  H34 EGP d   1     -17.617   4.579   3.469  0.00  0.00     0.078 H 
ATOM     78  H41 EGP d   1     -18.698   4.752   5.577  0.00  0.00     0.280 HD
BRANCH  68  79
ATOM     79  CAA EGP d   1     -14.793   6.536   6.440  0.00  0.00     0.066 C 
ATOM     80  H3  EGP d   1     -14.246   6.339   7.373  0.00  0.00     0.068 H 
ATOM     81  H4  EGP d   1     -15.486   7.376   6.592  0.00  0.00     0.068 H 
ATOM     82  H5  EGP d   1     -14.079   6.790   5.643  0.00  0.00     0.068 H 
ENDBRANCH  68  79
ENDBRANCH  60  63
ENDBRANCH   7  60
TORSDOF 11
