REMARK  6 active torsions:
REMARK  status: ('A' for Active; 'I' for Inactive)
REMARK    1  A    between atoms: CAK_10  and  CAL_11 
REMARK    2  A    between atoms: NAN_16  and  CAK_10 
REMARK    3  A    between atoms: CAL_11  and  CAQ_13 
REMARK    4  A    between atoms: CAP_12  and  NAN_16 
REMARK    5  A    between atoms: NAO_17  and  CAP_12 
REMARK    6  A    between atoms: CAR_14  and  NAO_17 
ROOT
ATOM      1  CAK EHY d   1     -10.583 -27.050  20.549  0.00  0.00    -0.002 C 
ATOM      2  H10 EHY d   1     -10.313 -27.918  21.169  0.00  0.00     0.064 H 
ATOM      3  H11 EHY d   1     -10.780 -26.183  21.197  0.00  0.00     0.064 H 
ENDROOT
BRANCH   1   4
ATOM      4  CAL EHY d   1     -11.829 -27.372  19.723  0.00  0.00    -0.026 C 
ATOM      5  H12 EHY d   1     -11.931 -28.460  19.596  0.00  0.00     0.042 H 
ATOM      6  H13 EHY d   1     -11.766 -26.892  18.735  0.00  0.00     0.042 H 
BRANCH   4   7
ATOM      7  CAQ EHY d   1     -12.905 -26.870  20.432  0.00  0.00    -0.057 A 
ATOM      8  CAG EHY d   1     -13.356 -25.578  20.182  0.00  0.00    -0.077 A 
ATOM      9  CAC EHY d   1     -14.428 -25.069  20.907  0.00  0.00    -0.082 A 
ATOM     10  H6  EHY d   1     -12.874 -24.970  19.425  0.00  0.00     0.084 H 
ATOM     11  CAB EHY d   1     -15.038 -25.853  21.883  0.00  0.00    -0.083 A 
ATOM     12  H2  EHY d   1     -14.788 -24.065  20.713  0.00  0.00     0.083 H 
ATOM     13  CAD EHY d   1     -14.582 -27.142  22.137  0.00  0.00    -0.082 A 
ATOM     14  H1  EHY d   1     -15.873 -25.456  22.448  0.00  0.00     0.083 H 
ATOM     15  CAH EHY d   1     -13.511 -27.649  21.413  0.00  0.00    -0.077 A 
ATOM     16  H3  EHY d   1     -15.061 -27.749  22.897  0.00  0.00     0.083 H 
ATOM     17  H7  EHY d   1     -13.147 -28.651  21.612  0.00  0.00     0.084 H 
ENDBRANCH   4   7
ENDBRANCH   1   4
BRANCH   1  18
ATOM     18  NAN EHY d   1      -9.491 -26.741  19.632  0.00  0.00    -0.367 N 
ATOM     19  H14 EHY d   1      -9.389 -27.384  18.873  0.00  0.00     0.161 HD
BRANCH  18  20
ATOM     20  CAP EHY d   1      -8.594 -25.728  19.640  0.00  0.00     0.172 C 
ATOM     21  SAA EHY d   1      -7.568 -25.763  18.453  0.00  0.00    -0.041 SA
BRANCH  20  22
ATOM     22  NAO EHY d   1      -8.424 -24.699  20.526  0.00  0.00    -0.332 N 
ATOM     23  H15 EHY d   1      -7.646 -24.105  20.323  0.00  0.00     0.168 HD
BRANCH  22  24
ATOM     24  CAR EHY d   1      -9.120 -24.345  21.624  0.00  0.00     0.051 A 
ATOM     25  CAI EHY d   1     -10.464 -23.972  21.585  0.00  0.00    -0.054 A 
ATOM     26  CAE EHY d   1     -11.129 -23.566  22.743  0.00  0.00    -0.064 A 
ATOM     27  H8  EHY d   1     -10.999 -23.998  20.642  0.00  0.00     0.087 H 
ATOM     28  CAF EHY d   1     -10.452 -23.485  23.954  0.00  0.00     0.002 A 
ATOM     29  H4  EHY d   1     -12.182 -23.312  22.697  0.00  0.00     0.085 H 
ATOM     30  NAM EHY d   1      -9.096 -23.820  24.005  0.00  0.00    -0.271 NA
ATOM     31  H5  EHY d   1     -10.971 -23.165  24.851  0.00  0.00     0.114 H 
ATOM     32  CAJ EHY d   1      -8.437 -24.233  22.835  0.00  0.00     0.027 A 
ATOM     33  H9  EHY d   1      -7.380 -24.469  22.874  0.00  0.00     0.118 H 
ENDBRANCH  22  24
ENDBRANCH  20  22
ENDBRANCH  18  20
ENDBRANCH   1  18
TORSDOF 6
