REMARK  2 active torsions:
REMARK  status: ('A' for Active; 'I' for Inactive)
REMARK    1  A    between atoms: N02_2  and  C04_4 
REMARK    2  A    between atoms: C08_8  and  C09_9 
ROOT
ATOM      1  C09 NY2 d   1      34.243  -0.727  49.227  0.00  0.00     0.030 A 
ATOM      2  C10 NY2 d   1      34.658   0.482  48.662  0.00  0.00     0.018 A 
ATOM      3  N11 NY2 d   1      33.937   1.034  47.694  0.00  0.00    -0.239 NA
ATOM      4  C12 NY2 d   1      32.797   0.439  47.263  0.00  0.00     0.171 A 
ATOM      5  C13 NY2 d   1      31.872   0.850  46.256  0.00  0.00     0.127 A 
ATOM      6 BR   NY2 d   1      31.990   2.452  45.169  0.00  0.00    -0.041 Br
ATOM      7  C15 NY2 d   1      30.878  -0.116  46.210  0.00  0.00     0.281 A 
ATOM      8  O16 NY2 d   1      29.942  -0.113  45.484  0.00  0.00    -0.265 OA
ATOM      9  N17 NY2 d   1      31.168  -1.039  47.115  0.00  0.00    -0.257 N 
ATOM     10  N18 NY2 d   1      32.366  -0.685  47.766  0.00  0.00    -0.244 N 
ATOM     11  C19 NY2 d   1      33.065  -1.302  48.755  0.00  0.00     0.018 A 
ATOM     12  H3  NY2 d   1      35.567   0.968  49.014  0.00  0.00     0.116 H 
ATOM     13  H4  NY2 d   1      30.624  -1.856  47.305  0.00  0.00     0.191 HD
ATOM     14  H5  NY2 d   1      32.706  -2.240  49.176  0.00  0.00     0.116 H 
ENDROOT
BRANCH   1  15
ATOM     15  C08 NY2 d   1      34.981  -1.317  50.242  0.00  0.00     0.097 A 
ATOM     16  C04 NY2 d   1      34.603  -1.369  51.574  0.00  0.00     0.150 A 
ATOM     17  C05 NY2 d   1      35.620  -2.029  52.245  0.00  0.00     0.056 A 
ATOM     18  N06 NY2 d   1      36.548  -2.350  51.359  0.00  0.00    -0.184 NA
ATOM     19  H1  NY2 d   1      35.650  -2.245  53.312  0.00  0.00     0.121 H 
ATOM     20  N07 NY2 d   1      36.157  -1.909  50.128  0.00  0.00    -0.275 N 
ATOM     21  H2  NY2 d   1      36.691  -2.019  49.254  0.00  0.00     0.189 HD
BRANCH  16  22
ATOM     22  N02 NY2 d   1      33.378  -0.831  52.142  0.00  0.00    -0.112 N 
ATOM     23  O01 NY2 d   1      33.380   0.446  52.728  0.00  0.00    -0.532 OA
ATOM     24  O03 NY2 d   1      32.386  -1.466  52.110  0.00  0.00    -0.532 OA
ENDBRANCH  16  22
ENDBRANCH   1  15
TORSDOF 2
