REMARK  9 active torsions:
REMARK  status: ('A' for Active; 'I' for Inactive)
REMARK    1  A    between atoms: NBC_5  and  CBB_6 
REMARK    2  A    between atoms: CBB_6  and  CBA_7 
REMARK    3  A    between atoms: CBA_7  and  OAZ_8 
REMARK    4  A    between atoms: OAZ_8  and  CAW_9 
REMARK    5  A    between atoms: CAT_14  and  CAI_15 
REMARK    6  A    between atoms: CAC_19  and  OAG_20 
REMARK    7  A    between atoms: CAK_24  and  CAR_25 
REMARK    8  A    between atoms: CAJ_26  and  CAL_27 
REMARK    9  A    between atoms: CAO_30  and  OAS_31 
ROOT
ATOM      1  CAI MOL d   1      -2.896 -31.315  26.822  0.00  0.00     0.078 C 
ATOM      2  OAH MOL d   1      -3.661 -30.218  27.258  0.00  0.00    -0.340 OA
ATOM      3  CAE MOL d   1      -3.178 -28.933  26.984  0.00  0.00     0.079 A 
ATOM      4  CAD MOL d   1      -4.065 -27.933  26.554  0.00  0.00    -0.018 A 
ATOM      5  CAC MOL d   1      -3.612 -26.671  26.237  0.00  0.00     0.068 A 
ATOM      6  CAB MOL d   1      -2.241 -26.381  26.348  0.00  0.00    -0.050 A 
ATOM      7  CAA MOL d   1      -1.343 -27.373  26.732  0.00  0.00    -0.071 A 
ATOM      8  CAF MOL d   1      -1.836 -28.677  27.055  0.00  0.00    -0.020 A 
ATOM      9  CAK MOL d   1      -0.933 -29.821  27.551  0.00  0.00    -0.019 C 
ATOM     10  CAJ MOL d   1      -1.380 -31.135  26.895  0.00  0.00     0.008 C 
ATOM     11  H18 MOL d   1      -3.154 -32.141  27.502  0.00  0.00     0.092 H 
ATOM     12  H19 MOL d   1      -5.122 -28.157  26.470  0.00  0.00     0.092 H 
ATOM     13  H21 MOL d   1      -1.882 -25.381  26.134  0.00  0.00     0.087 H 
ATOM     14  H22 MOL d   1      -0.281 -27.160  26.786  0.00  0.00     0.084 H 
ATOM     15  H23 MOL d   1      -1.099 -29.922  28.634  0.00  0.00     0.048 H 
ATOM     16  H27 MOL d   1      -1.096 -30.962  25.846  0.00  0.00     0.052 H 
ENDROOT
BRANCH   1  17
ATOM     17  CAT MOL d   1      -3.219 -31.792  25.376  0.00  0.00    -0.028 A 
ATOM     18  CAY MOL d   1      -4.289 -32.626  25.139  0.00  0.00    -0.072 A 
ATOM     19  CAX MOL d   1      -4.590 -33.074  23.839  0.00  0.00    -0.050 A 
ATOM     20  H15 MOL d   1      -4.911 -32.943  25.968  0.00  0.00     0.084 H 
ATOM     21  CAW MOL d   1      -3.812 -32.676  22.750  0.00  0.00     0.068 A 
ATOM     22  H14 MOL d   1      -5.435 -33.735  23.682  0.00  0.00     0.087 H 
ATOM     23  CAV MOL d   1      -2.735 -31.873  22.975  0.00  0.00    -0.050 A 
ATOM     24  CAU MOL d   1      -2.430 -31.441  24.267  0.00  0.00    -0.072 A 
ATOM     25  H16 MOL d   1      -2.110 -31.567  22.144  0.00  0.00     0.087 H 
ATOM     26  H17 MOL d   1      -1.558 -30.816  24.420  0.00  0.00     0.084 H 
BRANCH  21  27
ATOM     27  OAZ MOL d   1      -4.047 -33.112  21.420  0.00  0.00    -0.350 OA
BRANCH  27  28
ATOM     28  CBA MOL d   1      -5.357 -33.288  20.951  0.00  0.00     0.049 C 
ATOM     29  H12 MOL d   1      -5.775 -34.238  21.314  0.00  0.00     0.077 H 
ATOM     30  H13 MOL d   1      -6.000 -32.457  21.275  0.00  0.00     0.077 H 
BRANCH  28  31
ATOM     31  CBB MOL d   1      -5.220 -33.305  19.405  0.00  0.00     0.103 C 
ATOM     32  H10 MOL d   1      -4.249 -33.759  19.157  0.00  0.00     0.079 H 
ATOM     33  H11 MOL d   1      -6.031 -33.929  19.001  0.00  0.00     0.079 H 
BRANCH  31  34
ATOM     34  NBC MOL d   1      -5.272 -32.285  18.889  0.00  0.00    -0.069 N 
ATOM     35  CBD MOL d   1      -3.938 -31.487  19.026  0.00  0.00     0.084 C 
ATOM     36  CBE MOL d   1      -4.030 -30.573  18.140  0.00  0.00    -0.041 C 
ATOM     37  H1  MOL d   1      -3.846 -31.049  20.031  0.00  0.00     0.076 H 
ATOM     38  H2  MOL d   1      -3.072 -32.136  18.829  0.00  0.00     0.076 H 
ATOM     39  CBF MOL d   1      -4.792 -31.211  17.073  0.00  0.00    -0.041 C 
ATOM     40  H3  MOL d   1      -3.035 -30.268  17.785  0.00  0.00     0.035 H 
ATOM     41  H4  MOL d   1      -4.564 -29.695  18.534  0.00  0.00     0.035 H 
ATOM     42  CBG MOL d   1      -5.415 -32.463  17.714  0.00  0.00     0.084 C 
ATOM     43  H5  MOL d   1      -4.129 -31.493  16.241  0.00  0.00     0.035 H 
ATOM     44  H6  MOL d   1      -5.578 -30.536  16.703  0.00  0.00     0.035 H 
ATOM     45  H7  MOL d   1      -4.889 -33.373  17.389  0.00  0.00     0.076 H 
ATOM     46  H8  MOL d   1      -6.481 -32.545  17.457  0.00  0.00     0.076 H 
ATOM     47  H9  MOL d   1      -6.038 -31.752  19.270  0.00  0.00     0.280 HD
ENDBRANCH  31  34
ENDBRANCH  28  31
ENDBRANCH  27  28
ENDBRANCH  21  27
ENDBRANCH   1  17
BRANCH  10  48
ATOM     48  CAL MOL d   1      -0.679 -32.434  27.195  0.00  0.00    -0.050 A 
ATOM     49  CAM MOL d   1      -0.958 -33.275  28.246  0.00  0.00    -0.074 A 
ATOM     50  CAN MOL d   1      -0.251 -34.448  28.361  0.00  0.00    -0.051 A 
ATOM     51  H28 MOL d   1      -1.722 -33.018  28.971  0.00  0.00     0.084 H 
ATOM     52  CAO MOL d   1       0.699 -34.775  27.389  0.00  0.00     0.065 A 
ATOM     53  H29 MOL d   1      -0.428 -35.114  29.198  0.00  0.00     0.087 H 
ATOM     54  CAP MOL d   1       1.003 -33.942  26.327  0.00  0.00    -0.051 A 
ATOM     55  CAQ MOL d   1       0.293 -32.798  26.231  0.00  0.00    -0.074 A 
ATOM     56  H31 MOL d   1       1.773 -34.196  25.608  0.00  0.00     0.087 H 
ATOM     57  H32 MOL d   1       0.472 -32.138  25.390  0.00  0.00     0.084 H 
BRANCH  52  58
ATOM     58  OAS MOL d   1       1.427 -35.909  27.473  0.00  0.00    -0.361 OA
ATOM     59  H30 MOL d   1       0.844 -36.659  27.470  0.00  0.00     0.217 HD
ENDBRANCH  52  58
ENDBRANCH  10  48
BRANCH   9  60
ATOM     60  CAR MOL d   1       0.508 -29.549  27.371  0.00  0.00    -0.068 C 
ATOM     61  H24 MOL d   1       0.766 -28.598  27.861  0.00  0.00     0.028 H 
ATOM     62  H25 MOL d   1       0.737 -29.482  26.297  0.00  0.00     0.028 H 
ATOM     63  H26 MOL d   1       1.094 -30.364  27.821  0.00  0.00     0.028 H 
ENDBRANCH   9  60
BRANCH   5  64
ATOM     64  OAG MOL d   1      -4.550 -25.725  25.853  0.00  0.00    -0.361 OA
ATOM     65  H20 MOL d   1      -4.111 -24.904  25.663  0.00  0.00     0.217 HD
ENDBRANCH   5  64
TORSDOF 9
