REMARK  4 active torsions:
REMARK  status: ('A' for Active; 'I' for Inactive)
REMARK    1  A    between atoms: N3_2  and  C24_15 
REMARK    2  A    between atoms: C22_14  and  N5_29 
REMARK    3  A    between atoms: C24_15  and  C12_21 
REMARK    4  A    between atoms: N4_28  and  C23_26 
ROOT
ATOM      1  N1  EJP d   1       3.103  -6.944   9.561  0.00  0.00    -0.191 NA
ATOM      2  C5  EJP d   1       4.456  -4.373  11.473  0.00  0.00    -0.061 A 
ATOM      3  C8  EJP d   1       5.381  -3.602  12.139  0.00  0.00    -0.053 A 
ATOM      4  C10 EJP d   1       4.855  -5.504  10.804  0.00  0.00     0.047 A 
ATOM      5  C13 EJP d   1       6.717  -3.943  12.154  0.00  0.00     0.070 A 
ATOM      6  C21 EJP d   1       9.290  -4.679  10.690  0.00  0.00     0.053 C 
ATOM      7  C22 EJP d   1       9.126  -3.183  10.882  0.00  0.00     0.113 C 
ATOM      8  C1  EJP d   1       3.892  -6.298  10.117  0.00  0.00     0.099 C 
ATOM      9  C9  EJP d   1       6.182  -5.863  10.804  0.00  0.00    -0.029 A 
ATOM     10  C14 EJP d   1       7.093  -5.082  11.474  0.00  0.00     0.097 A 
ATOM     11  C18 EJP d   1       8.887  -2.776  12.308  0.00  0.00     0.249 C 
ATOM     12  N4  EJP d   1       7.667  -3.158  12.830  0.00  0.00    -0.318 N 
ATOM     13  O2  EJP d   1       9.722  -2.141  12.935  0.00  0.00    -0.271 OA
ATOM     14  O3  EJP d   1       8.403  -5.502  11.433  0.00  0.00    -0.346 OA
ATOM     15  H2  EJP d   1       3.410  -4.087  11.476  0.00  0.00     0.086 H 
ATOM     16  H5  EJP d   1       5.053  -2.710  12.661  0.00  0.00     0.087 H 
ATOM     17  H8  EJP d   1      10.318  -4.945  10.979  0.00  0.00     0.079 H 
ATOM     18  H9  EJP d   1       9.140  -4.900   9.623  0.00  0.00     0.079 H 
ATOM     19  H10 EJP d   1       8.228  -2.891  10.318  0.00  0.00     0.091 H 
ATOM     20  H15 EJP d   1       6.507  -6.755  10.280  0.00  0.00     0.090 H 
ENDROOT
BRANCH  12  21
ATOM     21  C23 EJP d   1       7.375  -2.860  14.213  0.00  0.00    -0.011 C 
ATOM     22  H18 EJP d   1       6.370  -3.230  14.463  0.00  0.00     0.057 H 
ATOM     23  H19 EJP d   1       7.415  -1.772  14.370  0.00  0.00     0.057 H 
ATOM     24  H20 EJP d   1       8.118  -3.351  14.859  0.00  0.00     0.057 H 
ENDBRANCH  12  21
BRANCH   7  25
ATOM     25  N5  EJP d   1      10.244  -2.457  10.308  0.00  0.00    -0.331 N 
ATOM     26  C17 EJP d   1      10.020  -1.697   9.178  0.00  0.00     0.275 C 
ATOM     27  C15 EJP d   1      11.144  -0.888   8.802  0.00  0.00     0.154 A 
ATOM     28  O1  EJP d   1       8.983  -1.676   8.528  0.00  0.00    -0.266 OA
ATOM     29  C11 EJP d   1      12.319  -0.773   9.587  0.00  0.00     0.020 A 
ATOM     30  N2  EJP d   1      11.200  -0.158   7.683  0.00  0.00    -0.165 NA
ATOM     31  C16 EJP d   1      13.110   0.087   8.863  0.00  0.00     0.131 A 
ATOM     32  C19 EJP d   1      12.458  -1.498  10.858  0.00  0.00    -0.021 C 
ATOM     33  N3  EJP d   1      12.405   0.422   7.745  0.00  0.00    -0.253 N 
ATOM     34 CL1  EJP d   1      14.682   0.712   9.161  0.00  0.00    -0.062 Cl
ATOM     35  C20 EJP d   1      11.590  -2.733  10.768  0.00  0.00     0.003 C 
ATOM     36  H16 EJP d   1      13.508  -1.786  11.014  0.00  0.00     0.042 H 
ATOM     37  H17 EJP d   1      12.124  -0.863  11.692  0.00  0.00     0.042 H 
ATOM     38  H6  EJP d   1      11.530  -3.191  11.766  0.00  0.00     0.065 H 
ATOM     39  H7  EJP d   1      12.060  -3.439  10.068  0.00  0.00     0.065 H 
BRANCH  33  40
ATOM     40  C24 EJP d   1      12.822   1.305   6.677  0.00  0.00     0.042 C 
ATOM     41  H11 EJP d   1      13.557   2.025   7.066  0.00  0.00     0.074 H 
ATOM     42  H12 EJP d   1      11.947   1.848   6.291  0.00  0.00     0.074 H 
BRANCH  40  43
ATOM     43  C12 EJP d   1      13.437   0.522   5.577  0.00  0.00    -0.038 A 
ATOM     44  C6  EJP d   1      14.772   0.203   5.640  0.00  0.00    -0.075 A 
ATOM     45  C3  EJP d   1      15.355  -0.522   4.626  0.00  0.00    -0.082 A 
ATOM     46  H3  EJP d   1      15.366   0.522   6.489  0.00  0.00     0.084 H 
ATOM     47  C2  EJP d   1      14.604  -0.927   3.547  0.00  0.00    -0.083 A 
ATOM     48  H14 EJP d   1      16.408  -0.774   4.678  0.00  0.00     0.083 H 
ATOM     49  C4  EJP d   1      13.268  -0.606   3.485  0.00  0.00    -0.082 A 
ATOM     50  H13 EJP d   1      15.064  -1.497   2.748  0.00  0.00     0.083 H 
ATOM     51  C7  EJP d   1      12.684   0.117   4.499  0.00  0.00    -0.075 A 
ATOM     52  H1  EJP d   1      12.674  -0.923   2.635  0.00  0.00     0.083 H 
ATOM     53  H4  EJP d   1      11.631   0.368   4.449  0.00  0.00     0.084 H 
ENDBRANCH  40  43
ENDBRANCH  33  40
ENDBRANCH   7  25
TORSDOF 4
