REMARK  24 active torsions:
REMARK  status: ('A' for Active; 'I' for Inactive)
REMARK    1  A    between atoms: C42_1  and  O43_3 
REMARK       I    between atoms: N41_11  and  C42_1 
REMARK    2  A    between atoms: O43_3  and  C44_4 
REMARK    3  A    between atoms: C44_4  and  C45_5 
REMARK    4  A    between atoms: C33_12  and  N41_11 
REMARK    5  A    between atoms: C33_12  and  C34_13 
REMARK    6  A    between atoms: C02_15  and  C33_12 
REMARK    7  A    between atoms: C34_13  and  C35_14 
REMARK    8  A    between atoms: C35_14  and  O36_16 
REMARK       I    between atoms: N03_22  and  C02_15 
REMARK    9  A    between atoms: O36_16  and  N37_17 
REMARK       I    between atoms: N37_17  and  C38_18 
REMARK       I    between atoms: C38_18  and  N39_19 
REMARK   10  A    between atoms: C04_23  and  N03_22 
REMARK   11  A    between atoms: C11_24  and  C04_23 
REMARK   12  A    between atoms: C04_23  and  C05_26 
REMARK       I    between atoms: N12_32  and  C11_24 
REMARK   13  A    between atoms: C13_33  and  N12_32 
REMARK   14  A    between atoms: C13_33  and  C28_34 
REMARK   15  A    between atoms: C14_38  and  C13_33 
REMARK   16  A    between atoms: C28_34  and  C29_35 
REMARK   17  A    between atoms: C29_35  and  C30_36 
REMARK   18  A    between atoms: C29_35  and  C31_37 
REMARK   19  A    between atoms: C14_38  and  O15_39 
REMARK   20  A    between atoms: C16_40  and  C14_38 
REMARK   21  A    between atoms: C17_41  and  C16_40 
REMARK       I    between atoms: N18_51  and  C17_41 
REMARK   22  A    between atoms: C20_49  and  C21_43 
REMARK   23  A    between atoms: C19_50  and  C20_49 
REMARK   24  A    between atoms: C19_50  and  N18_51 
ROOT
ATOM      1  C04 EQG d   1      10.909   4.150 -12.604  0.00  0.00     0.093 C 
ATOM      2  H20 EQG d   1      11.567   4.500 -13.413  0.00  0.00     0.088 H 
ENDROOT
BRANCH   1   3
ATOM      3  N03 EQG d   1      10.045   5.261 -12.352  0.00  0.00    -0.346 N 
ATOM      4  C02 EQG d   1      10.510   6.537 -12.559  0.00  0.00     0.241 C 
ATOM      5  O01 EQG d   1      11.679   6.769 -12.855  0.00  0.00    -0.271 OA
ATOM      6  H19 EQG d   1       9.111   5.111 -12.028  0.00  0.00     0.163 HD
BRANCH   4   7
ATOM      7  C33 EQG d   1       9.508   7.665 -12.362  0.00  0.00     0.093 C 
ATOM      8  H9  EQG d   1       8.685   7.386 -11.687  0.00  0.00     0.087 H 
BRANCH   7   9
ATOM      9  N41 EQG d   1      10.208   8.763 -11.867  0.00  0.00    -0.324 N 
ATOM     10  C42 EQG d   1      10.214   8.991 -10.526  0.00  0.00     0.361 C 
ATOM     11  O51 EQG d   1       9.605   8.241  -9.784  0.00  0.00    -0.238 OA
ATOM     12  H8  EQG d   1      10.699   9.374 -12.488  0.00  0.00     0.165 HD
BRANCH  10  13
ATOM     13  O43 EQG d   1      10.911  10.073 -10.120  0.00  0.00    -0.299 OA
BRANCH  13  14
ATOM     14  C44 EQG d   1      10.854  10.396  -8.725  0.00  0.00     0.054 C 
ATOM     15  H1  EQG d   1      11.706  11.041  -8.463  0.00  0.00     0.082 H 
ATOM     16  H2  EQG d   1      10.899   9.471  -8.132  0.00  0.00     0.082 H 
BRANCH  14  17
ATOM     17  C45 EQG d   1       9.576  11.114  -8.432  0.00  0.00    -0.034 A 
ATOM     18  C46 EQG d   1       9.215  11.372  -7.106  0.00  0.00    -0.075 A 
ATOM     19  C47 EQG d   1       8.029  12.038  -6.828  0.00  0.00    -0.082 A 
ATOM     20  H3  EQG d   1       9.861  11.052  -6.296  0.00  0.00     0.084 H 
ATOM     21  C48 EQG d   1       7.205  12.446  -7.863  0.00  0.00    -0.083 A 
ATOM     22  H4  EQG d   1       7.748  12.239  -5.800  0.00  0.00     0.083 H 
ATOM     23  C49 EQG d   1       7.566  12.197  -9.199  0.00  0.00    -0.082 A 
ATOM     24  H5  EQG d   1       6.277  12.960  -7.642  0.00  0.00     0.083 H 
ATOM     25  C50 EQG d   1       8.745  11.536  -9.485  0.00  0.00    -0.075 A 
ATOM     26  H6  EQG d   1       6.919  12.524 -10.005  0.00  0.00     0.083 H 
ATOM     27  H7  EQG d   1       9.027  11.344 -10.514  0.00  0.00     0.084 H 
ENDBRANCH  14  17
ENDBRANCH  13  14
ENDBRANCH  10  13
ENDBRANCH   7   9
BRANCH   7  28
ATOM     28  C34 EQG d   1       9.012   7.930 -13.789  0.00  0.00    -0.016 C 
ATOM     29  H10 EQG d   1       8.754   6.959 -14.237  0.00  0.00     0.040 H 
ATOM     30  H11 EQG d   1       9.842   8.384 -14.350  0.00  0.00     0.040 H 
BRANCH  28  31
ATOM     31  C35 EQG d   1       7.791   8.850 -13.943  0.00  0.00     0.048 C 
ATOM     32  H12 EQG d   1       7.367   8.698 -14.947  0.00  0.00     0.078 H 
ATOM     33  H13 EQG d   1       8.127   9.892 -13.841  0.00  0.00     0.078 H 
BRANCH  31  34
ATOM     34  O36 EQG d   1       6.755   8.611 -12.972  0.00  0.00    -0.266 OA
BRANCH  34  35
ATOM     35  N37 EQG d   1       5.949   7.517 -13.232  0.00  0.00    -0.097 N 
ATOM     36  C38 EQG d   1       4.679   7.591 -13.983  0.00  0.00     0.689 C 
ATOM     37  N39 EQG d   1       4.377   8.839 -14.448  0.00  0.00    -0.233 N 
ATOM     38  N40 EQG d   1       3.873   6.619 -14.231  0.00  0.00    -0.233 N 
ATOM     39  H15 EQG d   1       3.511   8.993 -14.984  0.00  0.00     0.174 HD
ATOM     40  H16 EQG d   1       5.015   9.626 -14.263  0.00  0.00     0.174 HD
ATOM     41  H17 EQG d   1       4.087   5.672 -13.887  0.00  0.00     0.174 HD
ATOM     42  H18 EQG d   1       3.014   6.788 -14.774  0.00  0.00     0.174 HD
ATOM     43  H14 EQG d   1       6.252   6.597 -12.882  0.00  0.00     0.213 HD
ENDBRANCH  34  35
ENDBRANCH  31  34
ENDBRANCH  28  31
ENDBRANCH   7  28
ENDBRANCH   4   7
ENDBRANCH   1   3
BRANCH   1  44
ATOM     44  C11 EQG d   1      10.059   3.060 -13.237  0.00  0.00     0.241 C 
ATOM     45  O32 EQG d   1       9.406   2.241 -12.597  0.00  0.00    -0.271 OA
ATOM     46  N12 EQG d   1      10.044   3.127 -14.606  0.00  0.00    -0.352 N 
ATOM     47  H32 EQG d   1      10.570   3.858 -15.040  0.00  0.00     0.163 HD
BRANCH  46  48
ATOM     48  C13 EQG d   1       9.334   2.232 -15.455  0.00  0.00     0.037 C 
ATOM     49  H33 EQG d   1       8.715   1.562 -14.840  0.00  0.00     0.076 H 
BRANCH  48  50
ATOM     50  C28 EQG d   1       8.405   3.074 -16.409  0.00  0.00    -0.041 C 
ATOM     51  H34 EQG d   1       7.693   2.384 -16.885  0.00  0.00     0.036 H 
ATOM     52  H35 EQG d   1       9.039   3.536 -17.180  0.00  0.00     0.036 H 
BRANCH  50  53
ATOM     53  C29 EQG d   1       7.587   4.208 -15.713  0.00  0.00    -0.059 C 
ATOM     54  H36 EQG d   1       8.257   4.729 -15.013  0.00  0.00     0.038 H 
BRANCH  53  55
ATOM     55  C30 EQG d   1       7.035   5.214 -16.714  0.00  0.00    -0.073 C 
ATOM     56  H37 EQG d   1       6.469   5.990 -16.179  0.00  0.00     0.028 H 
ATOM     57  H38 EQG d   1       6.371   4.699 -17.423  0.00  0.00     0.028 H 
ATOM     58  H39 EQG d   1       7.867   5.679 -17.263  0.00  0.00     0.028 H 
ENDBRANCH  53  55
BRANCH  53  59
ATOM     59  C31 EQG d   1       6.420   3.668 -14.959  0.00  0.00    -0.073 C 
ATOM     60  H40 EQG d   1       6.770   2.933 -14.219  0.00  0.00     0.028 H 
ATOM     61  H41 EQG d   1       5.724   3.182 -15.659  0.00  0.00     0.028 H 
ATOM     62  H42 EQG d   1       5.905   4.491 -14.442  0.00  0.00     0.028 H 
ENDBRANCH  53  59
ENDBRANCH  50  53
ENDBRANCH  48  50
BRANCH  48  63
ATOM     63  C14 EQG d   1      10.339   1.364 -16.310  0.00  0.00     0.063 C 
ATOM     64  H43 EQG d   1       9.737   0.850 -17.074  0.00  0.00     0.086 H 
BRANCH  63  65
ATOM     65  O15 EQG d   1      11.218   2.169 -17.012  0.00  0.00    -0.393 OA
ATOM     66  H44 EQG d   1      11.810   1.624 -17.517  0.00  0.00     0.210 HD
ENDBRANCH  63  65
BRANCH  63  67
ATOM     67  C16 EQG d   1      10.965   0.252 -15.466  0.00  0.00     0.035 C 
ATOM     68  H45 EQG d   1      11.311   0.677 -14.512  0.00  0.00     0.051 H 
ATOM     69  H46 EQG d   1      11.821  -0.173 -16.010  0.00  0.00     0.051 H 
BRANCH  67  70
ATOM     70  C17 EQG d   1       9.970  -0.841 -15.185  0.00  0.00     0.220 C 
ATOM     71  O27 EQG d   1       9.341  -0.887 -14.131  0.00  0.00    -0.274 OA
ATOM     72  N18 EQG d   1       9.680  -1.830 -16.142  0.00  0.00    -0.361 N 
ATOM     73  H56 EQG d   1      10.189  -1.737 -16.998  0.00  0.00     0.162 HD
BRANCH  72  74
ATOM     74  C19 EQG d   1       8.773  -2.960 -16.106  0.00  0.00    -0.001 C 
ATOM     75  H54 EQG d   1       8.250  -2.956 -15.138  0.00  0.00     0.064 H 
ATOM     76  H55 EQG d   1       8.041  -2.845 -16.919  0.00  0.00     0.064 H 
BRANCH  74  77
ATOM     77  C20 EQG d   1       9.487  -4.334 -16.276  0.00  0.00    -0.026 C 
ATOM     78  H52 EQG d   1       8.798  -5.119 -15.931  0.00  0.00     0.042 H 
ATOM     79  H53 EQG d   1       9.697  -4.476 -17.346  0.00  0.00     0.042 H 
BRANCH  77  80
ATOM     80  C21 EQG d   1      10.780  -4.492 -15.526  0.00  0.00    -0.057 A 
ATOM     81  C22 EQG d   1      10.836  -5.241 -14.346  0.00  0.00    -0.077 A 
ATOM     82  C23 EQG d   1      12.044  -5.405 -13.664  0.00  0.00    -0.082 A 
ATOM     83  H47 EQG d   1       9.934  -5.699 -13.957  0.00  0.00     0.084 H 
ATOM     84  C24 EQG d   1      13.210  -4.818 -14.145  0.00  0.00    -0.083 A 
ATOM     85  H48 EQG d   1      12.073  -5.994 -12.754  0.00  0.00     0.083 H 
ATOM     86  C25 EQG d   1      13.167  -4.075 -15.325  0.00  0.00    -0.082 A 
ATOM     87  H49 EQG d   1      14.144  -4.937 -13.608  0.00  0.00     0.083 H 
ATOM     88  C26 EQG d   1      11.967  -3.915 -16.012  0.00  0.00    -0.077 A 
ATOM     89  H50 EQG d   1      14.073  -3.620 -15.709  0.00  0.00     0.083 H 
ATOM     90  H51 EQG d   1      11.947  -3.340 -16.931  0.00  0.00     0.084 H 
ENDBRANCH  77  80
ENDBRANCH  74  77
ENDBRANCH  72  74
ENDBRANCH  67  70
ENDBRANCH  63  67
ENDBRANCH  48  63
ENDBRANCH  46  48
ENDBRANCH   1  44
BRANCH   1  91
ATOM     91  C05 EQG d   1      11.961   3.680 -11.487  0.00  0.00    -0.026 C 
ATOM     92  C10 EQG d   1      12.169   2.202 -11.393  0.00  0.00    -0.059 C 
ATOM     93  C09 EQG d   1      13.369   1.883 -10.474  0.00  0.00    -0.065 C 
ATOM     94  H22 EQG d   1      12.365   1.799 -12.398  0.00  0.00     0.033 H 
ATOM     95  H23 EQG d   1      11.263   1.734 -10.981  0.00  0.00     0.033 H 
ATOM     96  C08 EQG d   1      13.317   2.608  -9.115  0.00  0.00    -0.065 C 
ATOM     97  H24 EQG d   1      14.292   2.182 -10.992  0.00  0.00     0.033 H 
ATOM     98  H25 EQG d   1      13.386   0.799 -10.289  0.00  0.00     0.033 H 
ATOM     99  C07 EQG d   1      12.964   4.073  -9.298  0.00  0.00    -0.065 C 
ATOM    100  H26 EQG d   1      14.300   2.532  -8.628  0.00  0.00     0.033 H 
ATOM    101  H27 EQG d   1      12.556   2.130  -8.480  0.00  0.00     0.033 H 
ATOM    102  C06 EQG d   1      11.698   4.232 -10.152  0.00  0.00    -0.059 C 
ATOM    103  H28 EQG d   1      13.800   4.585  -9.796  0.00  0.00     0.033 H 
ATOM    104  H29 EQG d   1      12.791   4.527  -8.311  0.00  0.00     0.033 H 
ATOM    105  H30 EQG d   1      10.864   3.688  -9.684  0.00  0.00     0.033 H 
ATOM    106  H31 EQG d   1      11.439   5.298 -10.236  0.00  0.00     0.033 H 
ATOM    107  H21 EQG d   1      12.926   4.100 -11.807  0.00  0.00     0.043 H 
ENDBRANCH   1  91
TORSDOF 24
