REMARK  21 active torsions:
REMARK  status: ('A' for Active; 'I' for Inactive)
REMARK    1  A    between atoms: N_1  and  CA_2 
REMARK    2  A    between atoms: CA_2  and  C_3 
REMARK    3  A    between atoms: CA_2  and  CB_5 
REMARK       I    between atoms: C_3  and  N_9 
REMARK    4  A    between atoms: CB_5  and  CG_6 
REMARK    5  A    between atoms: CG_6  and  CD1_7 
REMARK    6  A    between atoms: CG_6  and  CD2_8 
REMARK    7  A    between atoms: CA_10  and  C_11 
REMARK       I    between atoms: C_11  and  N_16 
REMARK    8  A    between atoms: N_16  and  CA_17 
REMARK    9  A    between atoms: CA_17  and  CB_18 
REMARK   10  A    between atoms: CA_17  and  C_25 
REMARK   11  A    between atoms: CB_18  and  CG2_19 
REMARK   12  A    between atoms: CB_18  and  OG1_20 
REMARK   13  A    between atoms: OG1_20  and  P_21 
REMARK       I    between atoms: C_25  and  N_27 
REMARK   14  A    between atoms: CA_28  and  C_29 
REMARK       I    between atoms: C_29  and  N_34 
REMARK   15  A    between atoms: CA_35  and  C_36 
REMARK       I    between atoms: C_36  and  N_41 
REMARK   16  A    between atoms: N_41  and  CA_42 
REMARK   17  A    between atoms: CA_42  and  C_43 
REMARK   18  A    between atoms: CA_42  and  CB_45 
REMARK   19  A    between atoms: CB_45  and  CG_46 
REMARK   20  A    between atoms: CG_46  and  CD1_47 
REMARK   21  A    between atoms: CG_46  and  CD2_48 
ROOT
ATOM      1  CA  TPO d   1      86.408  -5.910  -4.954  0.00  0.00     0.114 C 
ATOM      2  H22 TPO d   1      86.517  -6.927  -5.359  0.00  0.00     0.091 H 
ENDROOT
BRANCH   1   3
ATOM      3  N   TPO d   1      86.930  -5.836  -3.588  0.00  0.00    -0.344 N 
ATOM      4  C   PRO d   1      87.445  -6.865  -2.917  0.00  0.00     0.241 C 
ATOM      5  O   PRO d   1      87.884  -7.875  -3.458  0.00  0.00    -0.271 OA
ATOM      6  H21 TPO d   1      86.898  -4.950  -3.126  0.00  0.00     0.163 HD
BRANCH   4   7
ATOM      7  CA  PRO d   1      87.495  -6.653  -1.378  0.00  0.00     0.091 C 
ATOM      8  N   PRO d   1      87.850  -7.724  -0.386  0.00  0.00    -0.337 N 
ATOM      9  C   LEU d   1      87.710  -9.087  -0.434  0.00  0.00     0.251 C 
ATOM     10  CD  PRO d   1      88.474  -7.095   0.804  0.00  0.00    -0.001 C 
ATOM     11  O   LEU d   1      87.512  -9.695  -1.482  0.00  0.00    -0.271 OA
ATOM     12  CG  PRO d   1      88.584  -5.627   0.440  0.00  0.00    -0.048 C 
ATOM     13  H19 PRO d   1      89.469  -7.524   0.995  0.00  0.00     0.064 H 
ATOM     14  H20 PRO d   1      87.840  -7.229   1.693  0.00  0.00     0.064 H 
ATOM     15  CB  PRO d   1      88.508  -5.555  -1.047  0.00  0.00    -0.036 C 
ATOM     16  H17 PRO d   1      87.756  -5.060   0.891  0.00  0.00     0.035 H 
ATOM     17  H18 PRO d   1      89.543  -5.219   0.792  0.00  0.00     0.035 H 
ATOM     18  H15 PRO d   1      88.150  -4.570  -1.380  0.00  0.00     0.036 H 
ATOM     19  H16 PRO d   1      89.486  -5.764  -1.506  0.00  0.00     0.036 H 
ATOM     20  H14 PRO d   1      86.486  -6.309  -1.108  0.00  0.00     0.087 H 
BRANCH   9  21
ATOM     21  CA  LEU d   1      87.817  -9.884   0.899  0.00  0.00     0.176 C 
ATOM     22  H4  LEU d   1      88.714  -9.538   1.434  0.00  0.00     0.099 H 
BRANCH  21  23
ATOM     23  N   LEU d   1      86.620  -9.625   1.754  0.00  0.00    -0.066 N 
ATOM     24  H1  LEU d   1      86.701 -10.146   2.613  0.00  0.00     0.275 HD
ATOM     25  H2  LEU d   1      85.788  -9.914   1.264  0.00  0.00     0.275 HD
ATOM     26  H3  LEU d   1      86.563  -8.640   1.963  0.00  0.00     0.275 HD
ENDBRANCH  21  23
BRANCH  21  27
ATOM     27  CB  LEU d   1      87.952 -11.401   0.655  0.00  0.00    -0.028 C 
ATOM     28  H5  LEU d   1      88.979 -11.578   0.304  0.00  0.00     0.037 H 
ATOM     29  H6  LEU d   1      87.242 -11.661  -0.144  0.00  0.00     0.037 H 
BRANCH  27  30
ATOM     30  CG  LEU d   1      87.698 -12.387   1.822  0.00  0.00    -0.059 C 
ATOM     31  H7  LEU d   1      86.632 -12.320   2.085  0.00  0.00     0.038 H 
BRANCH  30  32
ATOM     32  CD1 LEU d   1      87.979 -13.793   1.297  0.00  0.00    -0.073 C 
ATOM     33  H8  LEU d   1      87.809 -14.525   2.100  0.00  0.00     0.028 H 
ATOM     34  H9  LEU d   1      89.024 -13.856   0.959  0.00  0.00     0.028 H 
ATOM     35  H10 LEU d   1      87.307 -14.011   0.454  0.00  0.00     0.028 H 
ENDBRANCH  30  32
BRANCH  30  36
ATOM     36  CD2 LEU d   1      88.492 -12.114   3.114  0.00  0.00    -0.073 C 
ATOM     37  H11 LEU d   1      88.273 -11.097   3.471  0.00  0.00     0.028 H 
ATOM     38  H12 LEU d   1      89.569 -12.206   2.909  0.00  0.00     0.028 H 
ATOM     39  H13 LEU d   1      88.201 -12.844   3.884  0.00  0.00     0.028 H 
ENDBRANCH  30  36
ENDBRANCH  27  30
ENDBRANCH  21  27
ENDBRANCH   9  21
ENDBRANCH   4   7
ENDBRANCH   1   3
BRANCH   1  40
ATOM     40  CB  TPO d   1      84.900  -5.530  -4.847  0.00  0.00     0.076 C 
ATOM     41  H23 TPO d   1      84.869  -4.502  -4.458  0.00  0.00     0.087 H 
BRANCH  40  42
ATOM     42  CG2 TPO d   1      84.187  -5.536  -6.202  0.00  0.00    -0.049 C 
ATOM     43  H24 TPO d   1      83.131  -5.261  -6.062  0.00  0.00     0.031 H 
ATOM     44  H25 TPO d   1      84.249  -6.541  -6.644  0.00  0.00     0.031 H 
ATOM     45  H26 TPO d   1      84.669  -4.810  -6.873  0.00  0.00     0.031 H 
ENDBRANCH  40  42
BRANCH  40  46
ATOM     46  OG1 TPO d   1      84.119  -6.364  -3.933  0.00  0.00    -0.275 OA
BRANCH  46  47
ATOM     47  P   TPO d   1      83.062  -5.501  -2.999  0.00  0.00     0.422 P 
ATOM     48  O1P TPO d   1      82.512  -4.318  -3.808  0.00  0.00    -0.617 OA
ATOM     49  O2P TPO d   1      83.858  -5.013  -1.813  0.00  0.00    -0.617 OA
ATOM     50  O3P TPO d   1      82.007  -6.422  -2.395  0.00  0.00    -0.617 OA
ENDBRANCH  46  47
ENDBRANCH  40  46
ENDBRANCH   1  40
BRANCH   1  51
ATOM     51  C   TPO d   1      87.173  -4.920  -5.838  0.00  0.00     0.246 C 
ATOM     52  O   TPO d   1      87.121  -3.718  -5.612  0.00  0.00    -0.271 OA
ATOM     53  N   PRO d   1      87.903  -5.404  -6.851  0.00  0.00    -0.337 N 
ATOM     54  CA  PRO d   1      88.569  -4.497  -7.819  0.00  0.00     0.092 C 
ATOM     55  CD  PRO d   1      88.374  -6.801  -6.963  0.00  0.00    -0.001 C 
ATOM     56  CB  PRO d   1      89.394  -5.459  -8.692  0.00  0.00    -0.036 C 
ATOM     57  H27 PRO d   1      89.225  -3.801  -7.276  0.00  0.00     0.087 H 
ATOM     58  CG  PRO d   1      89.538  -6.724  -7.903  0.00  0.00    -0.048 C 
ATOM     59  H28 PRO d   1      90.383  -5.028  -8.904  0.00  0.00     0.036 H 
ATOM     60  H29 PRO d   1      88.871  -5.658  -9.639  0.00  0.00     0.036 H 
ATOM     61  H30 PRO d   1      90.480  -6.707  -7.335  0.00  0.00     0.035 H 
ATOM     62  H31 PRO d   1      89.533  -7.591  -8.579  0.00  0.00     0.035 H 
ATOM     63  H32 PRO d   1      87.584  -7.447  -7.373  0.00  0.00     0.064 H 
ATOM     64  H33 PRO d   1      88.690  -7.186  -5.982  0.00  0.00     0.064 H 
BRANCH  54  65
ATOM     65  C   PRO d   1      87.626  -3.665  -8.735  0.00  0.00     0.243 C 
ATOM     66  O   PRO d   1      86.711  -4.237  -9.303  0.00  0.00    -0.271 OA
ATOM     67  N   PRO d   1      87.840  -2.330  -8.870  0.00  0.00    -0.337 N 
ATOM     68  CA  PRO d   1      87.145  -1.406  -9.828  0.00  0.00     0.091 C 
ATOM     69  CD  PRO d   1      88.372  -1.559  -7.727  0.00  0.00    -0.001 C 
ATOM     70  CB  PRO d   1      87.772  -0.044  -9.495  0.00  0.00    -0.036 C 
ATOM     71  H34 PRO d   1      86.076  -1.399  -9.570  0.00  0.00     0.087 H 
ATOM     72  CG  PRO d   1      87.984  -0.122  -8.026  0.00  0.00    -0.048 C 
ATOM     73  H35 PRO d   1      87.089   0.779  -9.752  0.00  0.00     0.036 H 
ATOM     74  H36 PRO d   1      88.726   0.092 -10.025  0.00  0.00     0.036 H 
ATOM     75  H37 PRO d   1      87.058   0.141  -7.493  0.00  0.00     0.035 H 
ATOM     76  H38 PRO d   1      88.790   0.561  -7.721  0.00  0.00     0.035 H 
ATOM     77  H39 PRO d   1      89.465  -1.662  -7.664  0.00  0.00     0.064 H 
ATOM     78  H40 PRO d   1      87.917  -1.897  -6.784  0.00  0.00     0.064 H 
BRANCH  68  79
ATOM     79  C   PRO d   1      87.224  -1.664 -11.358  0.00  0.00     0.241 C 
ATOM     80  O   PRO d   1      87.687  -2.727 -11.768  0.00  0.00    -0.271 OA
ATOM     81  N   LEU d   1      86.734  -0.703 -12.167  0.00  0.00    -0.345 N 
ATOM     82  H41 LEU d   1      86.270   0.078 -11.748  0.00  0.00     0.163 HD
BRANCH  81  83
ATOM     83  CA  LEU d   1      86.846  -0.743 -13.638  0.00  0.00     0.096 C 
ATOM     84  H42 LEU d   1      86.367  -1.668 -13.992  0.00  0.00     0.089 H 
BRANCH  83  85
ATOM     85  C   LEU d   1      88.316  -0.771 -14.046  0.00  0.00     0.196 C 
ATOM     86  O   LEU d   1      88.678  -1.337 -15.075  0.00  0.00    -0.646 OA
ATOM     87  OXT LEU d   1      89.176  -0.228 -13.356  0.00  0.00    -0.646 OA
ENDBRANCH  83  85
BRANCH  83  88
ATOM     88  CB  LEU d   1      86.132   0.459 -14.316  0.00  0.00    -0.034 C 
ATOM     89  H43 LEU d   1      85.125   0.482 -13.874  0.00  0.00     0.037 H 
ATOM     90  H44 LEU d   1      86.059   0.187 -15.379  0.00  0.00     0.037 H 
BRANCH  88  91
ATOM     91  CG  LEU d   1      86.615   1.945 -14.307  0.00  0.00    -0.059 C 
ATOM     92  H45 LEU d   1      86.702   2.243 -13.252  0.00  0.00     0.038 H 
BRANCH  91  93
ATOM     93  CD1 LEU d   1      87.985   2.214 -14.955  0.00  0.00    -0.073 C 
ATOM     94  H46 LEU d   1      88.217   3.287 -14.889  0.00  0.00     0.028 H 
ATOM     95  H47 LEU d   1      87.957   1.909 -16.011  0.00  0.00     0.028 H 
ATOM     96  H48 LEU d   1      88.760   1.638 -14.427  0.00  0.00     0.028 H 
ENDBRANCH  91  93
BRANCH  91  97
ATOM     97  CD2 LEU d   1      85.546   2.832 -14.963  0.00  0.00    -0.073 C 
ATOM     98  H49 LEU d   1      84.570   2.635 -14.496  0.00  0.00     0.028 H 
ATOM     99  H50 LEU d   1      85.491   2.605 -16.038  0.00  0.00     0.028 H 
ATOM    100  H51 LEU d   1      85.812   3.890 -14.825  0.00  0.00     0.028 H 
ENDBRANCH  91  97
ENDBRANCH  88  91
ENDBRANCH  83  88
ENDBRANCH  81  83
ENDBRANCH  68  79
ENDBRANCH  54  65
ENDBRANCH   1  51
TORSDOF 21
