REMARK  4 active torsions:
REMARK  status: ('A' for Active; 'I' for Inactive)
REMARK    1  A    between atoms: CAG_2  and  CAE_4 
REMARK    2  A    between atoms: CAC_9  and  CAJ_10 
REMARK    3  A    between atoms: CAL_12  and  CAS_13 
REMARK    4  A    between atoms: CAO_18  and  CAP_19 
ROOT
ATOM      1  CAJ 7L9 d   1     -28.753 -14.796   0.807  0.00  0.00    -0.005 A 
ATOM      2  CAK 7L9 d   1     -30.001 -14.422   1.377  0.00  0.00    -0.037 A 
ATOM      3  CAL 7L9 d   1     -31.022 -13.872   0.643  0.00  0.00     0.133 A 
ATOM      4  NAM 7L9 d   1     -30.891 -13.722  -0.705  0.00  0.00    -0.253 NA
ATOM      5  CAN 7L9 d   1     -29.707 -14.056  -1.312  0.00  0.00     0.020 A 
ATOM      6  CAO 7L9 d   1     -28.596 -14.566  -0.556  0.00  0.00     0.069 A 
ATOM      7  H5  7L9 d   1     -30.153 -14.578   2.439  0.00  0.00     0.088 H 
ATOM      8  H6  7L9 d   1     -29.607 -13.933  -2.384  0.00  0.00     0.116 H 
ENDROOT
BRANCH   1   9
ATOM      9  CAC 7L9 d   1     -27.780 -15.481   1.654  0.00  0.00    -0.024 C 
ATOM     10  CAD 7L9 d   1     -27.569 -15.123   2.980  0.00  0.00    -0.056 C 
ATOM     11  CAE 7L9 d   1     -26.650 -15.818   3.757  0.00  0.00     0.041 C 
ATOM     12  H1  7L9 d   1     -28.124 -14.297   3.410  0.00  0.00     0.086 H 
ATOM     13  CAF 7L9 d   1     -26.052 -16.950   3.243  0.00  0.00    -0.066 C 
ATOM     14  CAA 7L9 d   1     -26.209 -17.336   1.919  0.00  0.00    -0.081 C 
ATOM     15  H2  7L9 d   1     -25.438 -17.559   3.896  0.00  0.00     0.085 H 
ATOM     16  CAB 7L9 d   1     -27.120 -16.609   1.144  0.00  0.00    -0.072 C 
ATOM     17  H3  7L9 d   1     -25.649 -18.166   1.503  0.00  0.00     0.083 H 
ATOM     18  H4  7L9 d   1     -27.320 -16.925   0.127  0.00  0.00     0.084 H 
BRANCH  11  19
ATOM     19  CAG 7L9 d   1     -26.413 -15.408   5.100  0.00  0.00     0.209 C 
ATOM     20  OAH 7L9 d   1     -26.824 -14.225   5.491  0.00  0.00    -0.644 OA
ATOM     21  OAI 7L9 d   1     -25.672 -16.047   5.911  0.00  0.00    -0.644 OA
ENDBRANCH  11  19
ENDBRANCH   1   9
BRANCH   6  22
ATOM     22  CAP 7L9 d   1     -27.405 -14.734  -1.286  0.00  0.00     0.211 C 
ATOM     23  OAR 7L9 d   1     -26.373 -14.248  -0.772  0.00  0.00    -0.644 OA
ATOM     24  OAQ 7L9 d   1     -27.313 -15.229  -2.390  0.00  0.00    -0.644 OA
ENDBRANCH   6  22
BRANCH   3  25
ATOM     25  CAS 7L9 d   1     -32.255 -13.444   1.274  0.00  0.00     0.229 C 
ATOM     26  OAU 7L9 d   1     -32.351 -13.215   2.503  0.00  0.00    -0.643 OA
ATOM     27  OAT 7L9 d   1     -33.210 -13.058   0.576  0.00  0.00    -0.643 OA
ENDBRANCH   3  25
TORSDOF 4
