REMARK WARNING: 32 MAX_TORS EXCEEDED!!!
REMARK  38 active torsions:
REMARK  status: ('A' for Active; 'I' for Inactive)
REMARK    1  A    between atoms: C1B_1  and  O1B_8 
REMARK    2  A    between atoms: C2B_2  and  N2B_7 
REMARK    3  A    between atoms: C3B_3  and  O3B_9 
REMARK    4  A    between atoms: C4B_4  and  O4B_10 
REMARK    5  A    between atoms: C6B_6  and  C5B_5 
REMARK    6  A    between atoms: O5B_11  and  C6B_6 
REMARK    7  A    between atoms: O1B_8  and  P4B_14 
REMARK    8  A    between atoms: C1_21  and  O5B_11 
REMARK    9  A    between atoms: C2_23  and  N1_17 
REMARK   10  A    between atoms: O4_22  and  P1_18 
REMARK   11  A    between atoms: O6_19  and  C6_31 
REMARK   12  A    between atoms: C2_35  and  O6_19 
REMARK   13  A    between atoms: C3_25  and  O3_20 
REMARK   14  A    between atoms: C4_27  and  O4_22 
REMARK   15  A    between atoms: C6_31  and  C5_29 
REMARK   16  A    between atoms: C2_35  and  C1_32 
REMARK   17  A    between atoms: O4_38  and  C4_37 
REMARK   18  A    between atoms: C2_50  and  O4_38 
REMARK   19  A    between atoms: C5_39  and  O5_40 
REMARK   20  A    between atoms: C6_41  and  C7_43 
REMARK   21  A    between atoms: C7_43  and  O7_44 
REMARK   22  A    between atoms: C7_43  and  C8_45 
REMARK   23  A    between atoms: C8_45  and  O8_46 
REMARK   24  A    between atoms: C2_50  and  C1_47 
REMARK   25  A    between atoms: C4_52  and  O4_53 
REMARK   26  A    between atoms: C5_54  and  O5_55 
REMARK   27  A    between atoms: C7_58  and  C6_56 
REMARK   28  A    between atoms: C7_58  and  O7_59 
REMARK   29  A    between atoms: C8_60  and  C7_58 
REMARK   30  A    between atoms: O8_61  and  C8_60 
REMARK   31  A    between atoms: C2_65  and  O8_61 
REMARK   32  A    between atoms: C1_62  and  C2_65 
REMARK   33  A    between atoms: C4_67  and  O4_68 
REMARK   34  A    between atoms: C5_69  and  O5_70 
REMARK   35  A    between atoms: C6_71  and  C7_73 
REMARK   36  A    between atoms: C7_73  and  O7_74 
REMARK   37  A    between atoms: C7_73  and  C8_75 
REMARK   38  A    between atoms: C8_75  and  O8_76 
ROOT
ATOM      1  C2  GP1 d   1       7.971  20.831  33.330  0.00  0.00     0.258 C 
ATOM      2  C3  GP1 d   1       9.228  20.961  32.437  0.00  0.00     0.024 C 
ATOM      3  C4  GP1 d   1      10.389  21.534  33.262  0.00  0.00     0.075 C 
ATOM      4  C5  GP1 d   1      10.001  22.831  33.907  0.00  0.00     0.088 C 
ATOM      5  C6  GP1 d   1       8.766  22.546  34.767  0.00  0.00     0.096 C 
ATOM      6  O6  GP1 d   1       7.696  22.052  33.957  0.00  0.00    -0.336 OA
ATOM      7  H24 GP1 d   1       9.011  21.634  31.595  0.00  0.00     0.045 H 
ATOM      8  H25 GP1 d   1       9.507  19.969  32.051  0.00  0.00     0.045 H 
ATOM      9  H26 GP1 d   1      10.639  20.812  34.054  0.00  0.00     0.087 H 
ATOM     10  H27 GP1 d   1      10.824  23.188  34.544  0.00  0.00     0.091 H 
ATOM     11  H29 GP1 d   1       9.033  21.800  35.531  0.00  0.00     0.091 H 
ENDROOT
BRANCH   1  12
ATOM     12  O6  GP1 d   1       8.238  19.818  34.310  0.00  0.00    -0.344 OA
BRANCH  12  13
ATOM     13  C6  GP1 d   1       7.143  19.471  35.171  0.00  0.00     0.050 C 
ATOM     14  H22 GP1 d   1       6.501  18.726  34.678  0.00  0.00     0.078 H 
ATOM     15  H23 GP1 d   1       6.551  20.369  35.403  0.00  0.00     0.078 H 
BRANCH  13  16
ATOM     16  C5  GP1 d   1       7.715  18.893  36.441  0.00  0.00     0.090 C 
ATOM     17  O5  GP1 d   1       8.534  19.938  37.014  0.00  0.00    -0.349 OA
ATOM     18  C1  GP1 d   1       9.218  19.452  38.194  0.00  0.00     0.161 C 
ATOM     19  C2  GP1 d   1       8.184  19.077  39.269  0.00  0.00     0.173 C 
ATOM     20  H17 GP1 d   1       9.798  18.555  37.931  0.00  0.00     0.132 H 
ATOM     21  C3  GP1 d   1       7.239  18.026  38.688  0.00  0.00     0.095 C 
ATOM     22  H18 GP1 d   1       7.606  19.973  39.538  0.00  0.00     0.096 H 
ATOM     23  C4  GP1 d   1       6.602  18.558  37.414  0.00  0.00     0.105 C 
ATOM     24  H19 GP1 d   1       7.817  17.122  38.447  0.00  0.00     0.090 H 
ATOM     25  H20 GP1 d   1       6.001  19.454  37.628  0.00  0.00     0.092 H 
ATOM     26  H21 GP1 d   1       8.313  17.995  36.226  0.00  0.00     0.090 H 
BRANCH  18  27
ATOM     27  O5B GP1 d   1      10.127  20.472  38.680  0.00  0.00    -0.356 OA
BRANCH  27  28
ATOM     28  C6B GP1 d   1      11.442  20.366  38.079  0.00  0.00     0.049 C 
ATOM     29  H6  GP1 d   1      11.363  19.816  37.130  0.00  0.00     0.078 H 
ATOM     30  H7  GP1 d   1      11.834  21.375  37.887  0.00  0.00     0.078 H 
BRANCH  28  31
ATOM     31  C5B GP1 d   1      12.407  19.618  39.018  0.00  0.00     0.089 C 
ATOM     32  C4B GP1 d   1      13.787  19.407  38.371  0.00  0.00     0.089 C 
ATOM     33  C3B GP1 d   1      14.732  18.898  39.476  0.00  0.00     0.094 C 
ATOM     34  H4  GP1 d   1      13.707  18.653  37.574  0.00  0.00     0.091 H 
ATOM     35  C2B GP1 d   1      14.210  17.576  40.068  0.00  0.00     0.174 C 
ATOM     36  H3  GP1 d   1      14.783  19.656  40.271  0.00  0.00     0.090 H 
ATOM     37  C1B GP1 d   1      12.745  17.737  40.531  0.00  0.00     0.174 C 
ATOM     38  H2  GP1 d   1      14.236  16.809  39.280  0.00  0.00     0.096 H 
ATOM     39  O6B GP1 d   1      11.932  18.291  39.443  0.00  0.00    -0.348 OA
ATOM     40  H1  GP1 d   1      12.338  16.750  40.795  0.00  0.00     0.133 H 
ATOM     41  H5  GP1 d   1      12.532  20.240  39.916  0.00  0.00     0.090 H 
BRANCH  32  42
ATOM     42  O4B GP1 d   1      14.295  20.627  37.807  0.00  0.00    -0.390 OA
ATOM     43  H12 GP1 d   1      13.694  20.941  37.141  0.00  0.00     0.210 HD
ENDBRANCH  32  42
BRANCH  33  44
ATOM     44  O3B GP1 d   1      16.048  18.665  38.965  0.00  0.00    -0.391 OA
ATOM     45  H11 GP1 d   1      16.399  19.476  38.615  0.00  0.00     0.210 HD
ENDBRANCH  33  44
BRANCH  35  46
ATOM     46  N2B GP1 d   1      15.092  17.132  41.171  0.00  0.00    -0.068 N 
ATOM     47  H8  GP1 d   1      14.743  16.267  41.553  0.00  0.00     0.275 HD
ATOM     48  H9  GP1 d   1      15.107  17.835  41.893  0.00  0.00     0.275 HD
ATOM     49  H10 GP1 d   1      16.026  16.992  40.819  0.00  0.00     0.275 HD
ENDBRANCH  35  46
BRANCH  37  50
ATOM     50  O1B GP1 d   1      12.748  18.576  41.727  0.00  0.00    -0.249 OA
BRANCH  50  51
ATOM     51  P4B GP1 d   1      11.455  18.769  42.717  0.00  0.00     0.424 P 
ATOM     52  O7B GP1 d   1      12.114  19.557  43.967  0.00  0.00    -0.617 OA
ATOM     53  O8B GP1 d   1      10.511  19.700  42.054  0.00  0.00    -0.617 OA
ATOM     54  O9B GP1 d   1      10.999  17.413  43.149  0.00  0.00    -0.617 OA
ENDBRANCH  50  51
ENDBRANCH  37  50
ENDBRANCH  28  31
ENDBRANCH  27  28
ENDBRANCH  18  27
BRANCH  19  55
ATOM     55  N1  GP1 d   1       8.842  18.561  40.479  0.00  0.00    -0.068 N 
ATOM     56  H13 GP1 d   1       9.461  19.264  40.850  0.00  0.00     0.275 HD
ATOM     57  H14 GP1 d   1       9.372  17.735  40.247  0.00  0.00     0.275 HD
ATOM     58  H15 GP1 d   1       8.144  18.330  41.169  0.00  0.00     0.275 HD
ENDBRANCH  19  55
BRANCH  21  59
ATOM     59  O3  GP1 d   1       6.208  17.679  39.657  0.00  0.00    -0.391 OA
ATOM     60  H16 GP1 d   1       5.709  18.456  39.878  0.00  0.00     0.210 HD
ENDBRANCH  21  59
BRANCH  23  61
ATOM     61  O4  GP1 d   1       5.785  17.541  36.868  0.00  0.00    -0.272 OA
BRANCH  61  62
ATOM     62  P1  GP1 d   1       4.213  17.700  36.462  0.00  0.00     0.422 P 
ATOM     63  O9  GP1 d   1       4.104  18.080  35.028  0.00  0.00    -0.617 OA
ATOM     64  O7  GP1 d   1       3.598  18.941  37.254  0.00  0.00    -0.617 OA
ATOM     65  O8  GP1 d   1       3.658  16.410  36.872  0.00  0.00    -0.617 OA
ENDBRANCH  61  62
ENDBRANCH  23  61
ENDBRANCH  13  16
ENDBRANCH  12  13
ENDBRANCH   1  12
BRANCH   1  66
ATOM     66  C1  GP1 d   1       6.761  20.482  32.461  0.00  0.00     0.239 C 
ATOM     67  O1A GP1 d   1       6.030  21.400  32.101  0.00  0.00    -0.644 OA
ATOM     68  O1B GP1 d   1       6.571  19.287  32.176  0.00  0.00    -0.644 OA
ENDBRANCH   1  66
BRANCH   3  69
ATOM     69  O4  GP1 d   1      11.568  21.731  32.424  0.00  0.00    -0.338 OA
BRANCH  69  70
ATOM     70  C2  GP1 d   1      12.719  20.901  32.809  0.00  0.00     0.259 C 
ATOM     71  C3  GP1 d   1      13.927  21.258  31.952  0.00  0.00     0.024 C 
ATOM     72  C4  GP1 d   1      13.675  20.856  30.482  0.00  0.00     0.068 C 
ATOM     73  H35 GP1 d   1      14.811  20.723  32.329  0.00  0.00     0.045 H 
ATOM     74  H36 GP1 d   1      14.104  22.342  32.007  0.00  0.00     0.045 H 
ATOM     75  C5  GP1 d   1      13.349  19.379  30.378  0.00  0.00     0.088 C 
ATOM     76  H37 GP1 d   1      12.803  21.420  30.118  0.00  0.00     0.087 H 
ATOM     77  C6  GP1 d   1      12.106  19.113  31.295  0.00  0.00     0.096 C 
ATOM     78  H39 GP1 d   1      13.096  19.129  29.337  0.00  0.00     0.091 H 
ATOM     79  O6  GP1 d   1      12.416  19.523  32.608  0.00  0.00    -0.336 OA
ATOM     80  H41 GP1 d   1      11.264  19.702  30.902  0.00  0.00     0.091 H 
BRANCH  70  81
ATOM     81  C1  GP1 d   1      13.094  21.133  34.306  0.00  0.00     0.239 C 
ATOM     82  O1A GP1 d   1      13.330  22.313  34.632  0.00  0.00    -0.644 OA
ATOM     83  O1B GP1 d   1      13.148  20.142  35.073  0.00  0.00    -0.644 OA
ENDBRANCH  70  81
BRANCH  72  84
ATOM     84  O4  GP1 d   1      14.800  21.208  29.665  0.00  0.00    -0.393 OA
ATOM     85  H38 GP1 d   1      14.941  22.146  29.709  0.00  0.00     0.210 HD
ENDBRANCH  72  84
BRANCH  75  86
ATOM     86  O5  GP1 d   1      14.476  18.590  30.782  0.00  0.00    -0.390 OA
ATOM     87  H40 GP1 d   1      14.699  18.796  31.682  0.00  0.00     0.210 HD
ENDBRANCH  75  86
BRANCH  77  88
ATOM     88  C7  GP1 d   1      11.655  17.643  31.434  0.00  0.00     0.083 C 
ATOM     89  H42 GP1 d   1      10.636  17.641  31.847  0.00  0.00     0.090 H 
BRANCH  88  90
ATOM     90  O7  GP1 d   1      12.512  16.903  32.325  0.00  0.00    -0.391 OA
ATOM     91  H43 GP1 d   1      12.494  17.304  33.186  0.00  0.00     0.210 HD
ENDBRANCH  88  90
BRANCH  88  92
ATOM     92  C8  GP1 d   1      11.634  16.926  30.088  0.00  0.00     0.050 C 
ATOM     93  H44 GP1 d   1      12.662  16.655  29.804  0.00  0.00     0.078 H 
ATOM     94  H45 GP1 d   1      11.207  17.594  29.326  0.00  0.00     0.078 H 
BRANCH  92  95
ATOM     95  O8  GP1 d   1      10.839  15.740  30.177  0.00  0.00    -0.344 OA
BRANCH  95  96
ATOM     96  C2  GP1 d   1      11.120  14.704  29.247  0.00  0.00     0.258 C 
ATOM     97  C3  GP1 d   1      10.073  13.657  29.345  0.00  0.00     0.024 C 
ATOM     98  C4  GP1 d   1      10.182  12.995  30.746  0.00  0.00     0.068 C 
ATOM     99  H46 GP1 d   1      10.228  12.900  28.562  0.00  0.00     0.045 H 
ATOM    100  H47 GP1 d   1       9.079  14.111  29.224  0.00  0.00     0.045 H 
ATOM    101  C5  GP1 d   1      11.573  12.437  30.997  0.00  0.00     0.088 C 
ATOM    102  H48 GP1 d   1       9.930  13.728  31.526  0.00  0.00     0.087 H 
ATOM    103  C6  GP1 d   1      12.553  13.581  30.884  0.00  0.00     0.096 C 
ATOM    104  H50 GP1 d   1      11.632  11.995  32.003  0.00  0.00     0.091 H 
ATOM    105  O6  GP1 d   1      12.442  14.140  29.553  0.00  0.00    -0.336 OA
ATOM    106  H52 GP1 d   1      12.288  14.346  31.628  0.00  0.00     0.091 H 
BRANCH  96 107
ATOM    107  C1  GP1 d   1      11.093  15.269  27.819  0.00  0.00     0.239 C 
ATOM    108  O1A GP1 d   1      12.125  15.110  27.115  0.00  0.00    -0.644 OA
ATOM    109  O1B GP1 d   1      10.054  15.869  27.474  0.00  0.00    -0.644 OA
ENDBRANCH  96 107
BRANCH  98 110
ATOM    110  O4  GP1 d   1       9.268  11.908  30.767  0.00  0.00    -0.393 OA
ATOM    111  H49 GP1 d   1       8.388  12.233  30.617  0.00  0.00     0.210 HD
ENDBRANCH  98 110
BRANCH 101 112
ATOM    112  O5  GP1 d   1      11.842  11.420  30.004  0.00  0.00    -0.390 OA
ATOM    113  H51 GP1 d   1      11.195  10.728  30.078  0.00  0.00     0.210 HD
ENDBRANCH 101 112
BRANCH 103 114
ATOM    114  C7  GP1 d   1      14.020  13.154  31.119  0.00  0.00     0.083 C 
ATOM    115  H53 GP1 d   1      14.317  12.468  30.312  0.00  0.00     0.090 H 
BRANCH 114 116
ATOM    116  O7  GP1 d   1      14.166  12.482  32.368  0.00  0.00    -0.391 OA
ATOM    117  H54 GP1 d   1      13.618  11.706  32.374  0.00  0.00     0.210 HD
ENDBRANCH 114 116
BRANCH 114 118
ATOM    118  C8  GP1 d   1      14.945  14.377  31.097  0.00  0.00     0.043 C 
ATOM    119  H55 GP1 d   1      14.779  14.963  30.181  0.00  0.00     0.078 H 
ATOM    120  H56 GP1 d   1      15.997  14.059  31.144  0.00  0.00     0.078 H 
BRANCH 118 121
ATOM    121  O8  GP1 d   1      14.607  15.164  32.264  0.00  0.00    -0.398 OA
ATOM    122  H57 GP1 d   1      13.695  15.425  32.215  0.00  0.00     0.209 HD
ENDBRANCH 118 121
ENDBRANCH 114 118
ENDBRANCH 103 114
ENDBRANCH  95  96
ENDBRANCH  92  95
ENDBRANCH  88  92
ENDBRANCH  77  88
ENDBRANCH  69  70
ENDBRANCH   3  69
BRANCH   5 123
ATOM    123  C7  GP1 d   1       8.236  23.802  35.445  0.00  0.00     0.083 C 
ATOM    124  H30 GP1 d   1       7.743  24.452  34.707  0.00  0.00     0.090 H 
BRANCH 123 125
ATOM    125  O7  GP1 d   1       9.260  24.498  36.106  0.00  0.00    -0.391 OA
ATOM    126  H31 GP1 d   1       8.899  25.274  36.518  0.00  0.00     0.210 HD
ENDBRANCH 123 125
BRANCH 123 127
ATOM    127  C8  GP1 d   1       7.271  23.365  36.520  0.00  0.00     0.043 C 
ATOM    128  H32 GP1 d   1       7.776  23.197  37.483  0.00  0.00     0.078 H 
ATOM    129  H33 GP1 d   1       6.718  22.459  36.233  0.00  0.00     0.078 H 
BRANCH 127 130
ATOM    130  O8  GP1 d   1       6.436  24.509  36.551  0.00  0.00    -0.398 OA
ATOM    131  H34 GP1 d   1       6.955  25.272  36.776  0.00  0.00     0.209 HD
ENDBRANCH 127 130
ENDBRANCH 123 127
ENDBRANCH   5 123
BRANCH   4 132
ATOM    132  O5  GP1 d   1       9.700  23.851  32.903  0.00  0.00    -0.390 OA
ATOM    133  H28 GP1 d   1       8.980  23.555  32.359  0.00  0.00     0.210 HD
ENDBRANCH   4 132
TORSDOF 38
