REMARK WARNING: 32 MAX_TORS EXCEEDED!!!
REMARK  38 active torsions:
REMARK  status: ('A' for Active; 'I' for Inactive)
REMARK    1  A    between atoms: C1B_1  and  O1B_8 
REMARK    2  A    between atoms: C2B_2  and  N2B_7 
REMARK    3  A    between atoms: C3B_3  and  O3B_9 
REMARK    4  A    between atoms: C4B_4  and  O4B_10 
REMARK    5  A    between atoms: C6B_6  and  C5B_5 
REMARK    6  A    between atoms: O5B_11  and  C6B_6 
REMARK    7  A    between atoms: O1B_8  and  P4B_14 
REMARK    8  A    between atoms: C1_21  and  O5B_11 
REMARK    9  A    between atoms: C2_23  and  N1_17 
REMARK   10  A    between atoms: O4_22  and  P1_18 
REMARK   11  A    between atoms: O6_19  and  C6_31 
REMARK   12  A    between atoms: C2_35  and  O6_19 
REMARK   13  A    between atoms: C3_25  and  O3_20 
REMARK   14  A    between atoms: C4_27  and  O4_22 
REMARK   15  A    between atoms: C6_31  and  C5_29 
REMARK   16  A    between atoms: C2_35  and  C1_32 
REMARK   17  A    between atoms: O4_38  and  C4_37 
REMARK   18  A    between atoms: C2_50  and  O4_38 
REMARK   19  A    between atoms: C5_39  and  O5_40 
REMARK   20  A    between atoms: C6_41  and  C7_43 
REMARK   21  A    between atoms: C7_43  and  O7_44 
REMARK   22  A    between atoms: C7_43  and  C8_45 
REMARK   23  A    between atoms: C8_45  and  O8_46 
REMARK   24  A    between atoms: C2_50  and  C1_47 
REMARK   25  A    between atoms: C4_52  and  O4_53 
REMARK   26  A    between atoms: C5_54  and  O5_55 
REMARK   27  A    between atoms: C7_58  and  C6_56 
REMARK   28  A    between atoms: C7_58  and  O7_59 
REMARK   29  A    between atoms: C8_60  and  C7_58 
REMARK   30  A    between atoms: O8_61  and  C8_60 
REMARK   31  A    between atoms: C2_65  and  O8_61 
REMARK   32  A    between atoms: C1_62  and  C2_65 
REMARK   33  A    between atoms: C4_67  and  O4_68 
REMARK   34  A    between atoms: C5_69  and  O5_70 
REMARK   35  A    between atoms: C6_71  and  C7_73 
REMARK   36  A    between atoms: C7_73  and  O7_74 
REMARK   37  A    between atoms: C7_73  and  C8_75 
REMARK   38  A    between atoms: C8_75  and  O8_76 
ROOT
ATOM      1  C2  GP1 d   1     147.032 -30.423   4.356  0.00  0.00     0.258 C 
ATOM      2  C3  GP1 d   1     146.603 -29.154   5.062  0.00  0.00     0.024 C 
ATOM      3  C4  GP1 d   1     147.805 -28.313   5.473  0.00  0.00     0.075 C 
ATOM      4  C5  GP1 d   1     148.775 -29.140   6.283  0.00  0.00     0.088 C 
ATOM      5  C6  GP1 d   1     149.232 -30.304   5.397  0.00  0.00     0.096 C 
ATOM      6  O6  GP1 d   1     148.050 -31.090   5.129  0.00  0.00    -0.336 OA
ATOM      7  H24 GP1 d   1     146.029 -29.421   5.961  0.00  0.00     0.045 H 
ATOM      8  H25 GP1 d   1     145.969 -28.564   4.384  0.00  0.00     0.045 H 
ATOM      9  H26 GP1 d   1     148.304 -27.923   4.574  0.00  0.00     0.087 H 
ATOM     10  H27 GP1 d   1     149.634 -28.530   6.599  0.00  0.00     0.091 H 
ATOM     11  H29 GP1 d   1     149.629 -29.900   4.454  0.00  0.00     0.091 H 
ENDROOT
BRANCH   1  12
ATOM     12  O6  GP1 d   1     147.519 -29.989   3.087  0.00  0.00    -0.344 OA
BRANCH  12  13
ATOM     13  C6  GP1 d   1     148.090 -30.998   2.240  0.00  0.00     0.050 C 
ATOM     14  H22 GP1 d   1     147.297 -31.540   1.704  0.00  0.00     0.078 H 
ATOM     15  H23 GP1 d   1     148.681 -31.708   2.837  0.00  0.00     0.078 H 
BRANCH  13  16
ATOM     16  C5  GP1 d   1     148.984 -30.266   1.257  0.00  0.00     0.090 C 
ATOM     17  O5  GP1 d   1     150.181 -29.996   1.954  0.00  0.00    -0.349 OA
ATOM     18  C1  GP1 d   1     150.936 -29.050   1.199  0.00  0.00     0.161 C 
ATOM     19  C2  GP1 d   1     151.470 -29.750  -0.046  0.00  0.00     0.173 C 
ATOM     20  H17 GP1 d   1     150.310 -28.189   0.923  0.00  0.00     0.132 H 
ATOM     21  C3  GP1 d   1     150.368 -30.499  -0.823  0.00  0.00     0.095 C 
ATOM     22  H18 GP1 d   1     152.198 -30.503   0.289  0.00  0.00     0.096 H 
ATOM     23  C4  GP1 d   1     149.289 -31.126   0.069  0.00  0.00     0.105 C 
ATOM     24  H19 GP1 d   1     149.888 -29.805  -1.529  0.00  0.00     0.090 H 
ATOM     25  H20 GP1 d   1     149.611 -32.124   0.400  0.00  0.00     0.092 H 
ATOM     26  H21 GP1 d   1     148.506 -29.332   0.926  0.00  0.00     0.090 H 
BRANCH  18  27
ATOM     27  O5B GP1 d   1     152.054 -28.629   1.981  0.00  0.00    -0.356 OA
BRANCH  27  28
ATOM     28  C6B GP1 d   1     151.739 -27.753   3.057  0.00  0.00     0.049 C 
ATOM     29  H6  GP1 d   1     150.757 -27.283   2.899  0.00  0.00     0.078 H 
ATOM     30  H7  GP1 d   1     151.735 -28.299   4.012  0.00  0.00     0.078 H 
BRANCH  28  31
ATOM     31  C5B GP1 d   1     152.833 -26.713   3.045  0.00  0.00     0.089 C 
ATOM     32  C4B GP1 d   1     152.890 -25.902   4.316  0.00  0.00     0.089 C 
ATOM     33  C3B GP1 d   1     154.028 -24.918   4.165  0.00  0.00     0.094 C 
ATOM     34  H4  GP1 d   1     151.940 -25.371   4.475  0.00  0.00     0.091 H 
ATOM     35  C2B GP1 d   1     153.792 -24.047   2.921  0.00  0.00     0.174 C 
ATOM     36  H3  GP1 d   1     154.970 -25.473   4.045  0.00  0.00     0.090 H 
ATOM     37  C1B GP1 d   1     153.583 -24.921   1.666  0.00  0.00     0.174 C 
ATOM     38  H2  GP1 d   1     152.875 -23.462   3.083  0.00  0.00     0.096 H 
ATOM     39  O6B GP1 d   1     152.514 -25.853   1.930  0.00  0.00    -0.348 OA
ATOM     40  H1  GP1 d   1     153.276 -24.275   0.830  0.00  0.00     0.133 H 
ATOM     41  H5  GP1 d   1     153.808 -27.199   2.889  0.00  0.00     0.090 H 
BRANCH  32  42
ATOM     42  O4B GP1 d   1     153.161 -26.759   5.424  0.00  0.00    -0.390 OA
ATOM     43  H12 GP1 d   1     153.196 -26.243   6.221  0.00  0.00     0.210 HD
ENDBRANCH  32  42
BRANCH  33  44
ATOM     44  O3B GP1 d   1     154.121 -24.078   5.333  0.00  0.00    -0.391 OA
ATOM     45  H11 GP1 d   1     154.277 -24.618   6.099  0.00  0.00     0.210 HD
ENDBRANCH  33  44
BRANCH  35  46
ATOM     46  N2B GP1 d   1     154.905 -23.107   2.736  0.00  0.00    -0.068 N 
ATOM     47  H8  GP1 d   1     154.736 -22.543   1.917  0.00  0.00     0.275 HD
ATOM     48  H9  GP1 d   1     155.764 -23.622   2.618  0.00  0.00     0.275 HD
ATOM     49  H10 GP1 d   1     154.979 -22.511   3.545  0.00  0.00     0.275 HD
ENDBRANCH  35  46
BRANCH  37  50
ATOM     50  O1B GP1 d   1     154.842 -25.573   1.293  0.00  0.00    -0.249 OA
BRANCH  50  51
ATOM     51  P4B GP1 d   1     155.015 -26.548  -0.021  0.00  0.00     0.424 P 
ATOM     52  O7B GP1 d   1     155.687 -27.795   0.426  0.00  0.00    -0.617 OA
ATOM     53  O8B GP1 d   1     156.043 -25.740  -0.956  0.00  0.00    -0.617 OA
ATOM     54  O9B GP1 d   1     153.715 -26.605  -0.727  0.00  0.00    -0.617 OA
ENDBRANCH  50  51
ENDBRANCH  37  50
ENDBRANCH  28  31
ENDBRANCH  27  28
ENDBRANCH  18  27
BRANCH  19  55
ATOM     55  N1  GP1 d   1     152.188 -28.792  -0.910  0.00  0.00    -0.068 N 
ATOM     56  H13 GP1 d   1     152.899 -28.322  -0.372  0.00  0.00     0.275 HD
ATOM     57  H14 GP1 d   1     151.537 -28.113  -1.273  0.00  0.00     0.275 HD
ATOM     58  H15 GP1 d   1     152.619 -29.287  -1.675  0.00  0.00     0.275 HD
ENDBRANCH  19  55
BRANCH  21  59
ATOM     59  O3  GP1 d   1     151.019 -31.554  -1.525  0.00  0.00    -0.391 OA
ATOM     60  H16 GP1 d   1     150.376 -32.047  -2.021  0.00  0.00     0.210 HD
ENDBRANCH  21  59
BRANCH  23  61
ATOM     61  O4  GP1 d   1     148.106 -31.206  -0.693  0.00  0.00    -0.272 OA
BRANCH  61  62
ATOM     62  P1  GP1 d   1     147.658 -32.589  -1.341  0.00  0.00     0.422 P 
ATOM     63  O9  GP1 d   1     148.795 -32.819  -2.435  0.00  0.00    -0.617 OA
ATOM     64  O7  GP1 d   1     146.408 -32.359  -2.110  0.00  0.00    -0.617 OA
ATOM     65  O8  GP1 d   1     147.759 -33.663  -0.310  0.00  0.00    -0.617 OA
ENDBRANCH  61  62
ENDBRANCH  23  61
ENDBRANCH  13  16
ENDBRANCH  12  13
ENDBRANCH   1  12
BRANCH   1  66
ATOM     66  C1  GP1 d   1     145.833 -31.405   4.192  0.00  0.00     0.239 C 
ATOM     67  O1A GP1 d   1     144.943 -31.098   3.368  0.00  0.00    -0.644 OA
ATOM     68  O1B GP1 d   1     145.808 -32.448   4.892  0.00  0.00    -0.644 OA
ENDBRANCH   1  66
BRANCH   3  69
ATOM     69  O4  GP1 d   1     147.374 -27.236   6.301  0.00  0.00    -0.338 OA
BRANCH  69  70
ATOM     70  C2  GP1 d   1     147.566 -25.899   5.828  0.00  0.00     0.259 C 
ATOM     71  C3  GP1 d   1     147.189 -24.909   6.939  0.00  0.00     0.024 C 
ATOM     72  C4  GP1 d   1     145.678 -24.855   7.199  0.00  0.00     0.068 C 
ATOM     73  H35 GP1 d   1     147.531 -23.905   6.647  0.00  0.00     0.045 H 
ATOM     74  H36 GP1 d   1     147.695 -25.213   7.867  0.00  0.00     0.045 H 
ATOM     75  C5  GP1 d   1     144.817 -24.764   5.906  0.00  0.00     0.088 C 
ATOM     76  H37 GP1 d   1     145.388 -25.772   7.733  0.00  0.00     0.087 H 
ATOM     77  C6  GP1 d   1     145.304 -25.811   4.895  0.00  0.00     0.096 C 
ATOM     78  H39 GP1 d   1     143.780 -25.011   6.177  0.00  0.00     0.091 H 
ATOM     79  O6  GP1 d   1     146.716 -25.665   4.659  0.00  0.00    -0.336 OA
ATOM     80  H41 GP1 d   1     145.102 -26.809   5.310  0.00  0.00     0.091 H 
BRANCH  70  81
ATOM     81  C1  GP1 d   1     149.056 -25.669   5.507  0.00  0.00     0.239 C 
ATOM     82  O1A GP1 d   1     149.357 -25.305   4.343  0.00  0.00    -0.644 OA
ATOM     83  O1B GP1 d   1     149.861 -25.869   6.446  0.00  0.00    -0.644 OA
ENDBRANCH  70  81
BRANCH  72  84
ATOM     84  O4  GP1 d   1     145.416 -23.730   8.031  0.00  0.00    -0.393 OA
ATOM     85  H38 GP1 d   1     145.703 -22.938   7.591  0.00  0.00     0.210 HD
ENDBRANCH  72  84
BRANCH  75  86
ATOM     86  O5  GP1 d   1     144.807 -23.443   5.332  0.00  0.00    -0.390 OA
ATOM     87  H40 GP1 d   1     144.269 -23.443   4.549  0.00  0.00     0.210 HD
ENDBRANCH  75  86
BRANCH  77  88
ATOM     88  C7  GP1 d   1     144.625 -25.693   3.537  0.00  0.00     0.083 C 
ATOM     89  H42 GP1 d   1     144.861 -26.591   2.948  0.00  0.00     0.090 H 
BRANCH  88  90
ATOM     90  O7  GP1 d   1     145.085 -24.534   2.841  0.00  0.00    -0.391 OA
ATOM     91  H43 GP1 d   1     144.886 -23.759   3.353  0.00  0.00     0.210 HD
ENDBRANCH  88  90
BRANCH  88  92
ATOM     92  C8  GP1 d   1     143.126 -25.567   3.673  0.00  0.00     0.050 C 
ATOM     93  H44 GP1 d   1     142.859 -24.555   4.011  0.00  0.00     0.078 H 
ATOM     94  H45 GP1 d   1     142.746 -26.306   4.393  0.00  0.00     0.078 H 
BRANCH  92  95
ATOM     95  O8  GP1 d   1     142.584 -25.813   2.386  0.00  0.00    -0.344 OA
BRANCH  95  96
ATOM     96  C2  GP1 d   1     141.381 -25.131   2.089  0.00  0.00     0.258 C 
ATOM     97  C3  GP1 d   1     140.811 -25.773   0.810  0.00  0.00     0.024 C 
ATOM     98  C4  GP1 d   1     141.590 -25.415  -0.466  0.00  0.00     0.068 C 
ATOM     99  H46 GP1 d   1     139.771 -25.436   0.687  0.00  0.00     0.045 H 
ATOM    100  H47 GP1 d   1     140.830 -26.866   0.933  0.00  0.00     0.045 H 
ATOM    101  C5  GP1 d   1     141.858 -23.956  -0.559  0.00  0.00     0.088 C 
ATOM    102  H48 GP1 d   1     142.533 -25.980  -0.502  0.00  0.00     0.087 H 
ATOM    103  C6  GP1 d   1     142.547 -23.438   0.736  0.00  0.00     0.096 C 
ATOM    104  H50 GP1 d   1     142.522 -23.756  -1.413  0.00  0.00     0.091 H 
ATOM    105  O6  GP1 d   1     141.765 -23.744   1.903  0.00  0.00    -0.336 OA
ATOM    106  H52 GP1 d   1     143.547 -23.890   0.815  0.00  0.00     0.091 H 
BRANCH  96 107
ATOM    107  C1  GP1 d   1     140.297 -25.214   3.229  0.00  0.00     0.239 C 
ATOM    108  O1A GP1 d   1     139.819 -24.112   3.625  0.00  0.00    -0.644 OA
ATOM    109  O1B GP1 d   1     139.937 -26.353   3.646  0.00  0.00    -0.644 OA
ENDBRANCH  96 107
BRANCH  98 110
ATOM    110  O4  GP1 d   1     140.747 -25.732  -1.597  0.00  0.00    -0.393 OA
ATOM    111  H49 GP1 d   1     139.945 -25.225  -1.545  0.00  0.00     0.210 HD
ENDBRANCH  98 110
BRANCH 101 112
ATOM    112  O5  GP1 d   1     140.588 -23.322  -0.782  0.00  0.00    -0.390 OA
ATOM    113  H51 GP1 d   1     140.209 -23.650  -1.589  0.00  0.00     0.210 HD
ENDBRANCH 101 112
BRANCH 103 114
ATOM    114  C7  GP1 d   1     142.650 -21.919   0.740  0.00  0.00     0.083 C 
ATOM    115  H53 GP1 d   1     141.637 -21.498   0.818  0.00  0.00     0.090 H 
BRANCH 114 116
ATOM    116  O7  GP1 d   1     143.257 -21.421  -0.437  0.00  0.00    -0.391 OA
ATOM    117  H54 GP1 d   1     144.135 -21.776  -0.514  0.00  0.00     0.210 HD
ENDBRANCH 114 116
BRANCH 114 118
ATOM    118  C8  GP1 d   1     143.476 -21.480   1.956  0.00  0.00     0.043 C 
ATOM    119  H55 GP1 d   1     142.988 -21.833   2.877  0.00  0.00     0.078 H 
ATOM    120  H56 GP1 d   1     143.545 -20.382   1.975  0.00  0.00     0.078 H 
BRANCH 118 121
ATOM    121  O8  GP1 d   1     144.769 -22.029   1.871  0.00  0.00    -0.398 OA
ATOM    122  H57 GP1 d   1     144.709 -22.977   1.855  0.00  0.00     0.209 HD
ENDBRANCH 118 121
ENDBRANCH 114 118
ENDBRANCH 103 114
ENDBRANCH  95  96
ENDBRANCH  92  95
ENDBRANCH  88  92
ENDBRANCH  77  88
ENDBRANCH  69  70
ENDBRANCH   3  69
BRANCH   5 123
ATOM    123  C7  GP1 d   1     150.334 -31.190   6.044  0.00  0.00     0.083 C 
ATOM    124  H30 GP1 d   1     149.901 -31.742   6.891  0.00  0.00     0.090 H 
BRANCH 123 125
ATOM    125  O7  GP1 d   1     151.435 -30.386   6.514  0.00  0.00    -0.391 OA
ATOM    126  H31 GP1 d   1     152.093 -30.949   6.904  0.00  0.00     0.210 HD
ENDBRANCH 123 125
BRANCH 123 127
ATOM    127  C8  GP1 d   1     150.863 -32.188   4.994  0.00  0.00     0.043 C 
ATOM    128  H32 GP1 d   1     151.647 -31.702   4.394  0.00  0.00     0.078 H 
ATOM    129  H33 GP1 d   1     150.036 -32.495   4.337  0.00  0.00     0.078 H 
BRANCH 127 130
ATOM    130  O8  GP1 d   1     151.407 -33.339   5.633  0.00  0.00    -0.398 OA
ATOM    131  H34 GP1 d   1     151.728 -33.943   4.974  0.00  0.00     0.209 HD
ENDBRANCH 127 130
ENDBRANCH 123 127
ENDBRANCH   5 123
BRANCH   4 132
ATOM    132  O5  GP1 d   1     148.106 -29.669   7.409  0.00  0.00    -0.390 OA
ATOM    133  H28 GP1 d   1     147.385 -30.215   7.120  0.00  0.00     0.210 HD
ENDBRANCH   4 132
TORSDOF 38
