REMARK WARNING: 32 MAX_TORS EXCEEDED!!!
REMARK  38 active torsions:
REMARK  status: ('A' for Active; 'I' for Inactive)
REMARK    1  A    between atoms: C1B_1  and  O1B_8 
REMARK    2  A    between atoms: C2B_2  and  N2B_7 
REMARK    3  A    between atoms: C3B_3  and  O3B_9 
REMARK    4  A    between atoms: C4B_4  and  O4B_10 
REMARK    5  A    between atoms: C6B_6  and  C5B_5 
REMARK    6  A    between atoms: O5B_11  and  C6B_6 
REMARK    7  A    between atoms: O1B_8  and  P4B_14 
REMARK    8  A    between atoms: C1_21  and  O5B_11 
REMARK    9  A    between atoms: C2_23  and  N1_17 
REMARK   10  A    between atoms: O4_22  and  P1_18 
REMARK   11  A    between atoms: O6_19  and  C6_31 
REMARK   12  A    between atoms: C2_35  and  O6_19 
REMARK   13  A    between atoms: C3_25  and  O3_20 
REMARK   14  A    between atoms: C4_27  and  O4_22 
REMARK   15  A    between atoms: C6_31  and  C5_29 
REMARK   16  A    between atoms: C2_35  and  C1_32 
REMARK   17  A    between atoms: O4_38  and  C4_37 
REMARK   18  A    between atoms: C2_50  and  O4_38 
REMARK   19  A    between atoms: C5_39  and  O5_40 
REMARK   20  A    between atoms: C6_41  and  C7_43 
REMARK   21  A    between atoms: C7_43  and  O7_44 
REMARK   22  A    between atoms: C7_43  and  C8_45 
REMARK   23  A    between atoms: C8_45  and  O8_46 
REMARK   24  A    between atoms: C2_50  and  C1_47 
REMARK   25  A    between atoms: C4_52  and  O4_53 
REMARK   26  A    between atoms: C5_54  and  O5_55 
REMARK   27  A    between atoms: C7_58  and  C6_56 
REMARK   28  A    between atoms: C7_58  and  O7_59 
REMARK   29  A    between atoms: C8_60  and  C7_58 
REMARK   30  A    between atoms: O8_61  and  C8_60 
REMARK   31  A    between atoms: C2_65  and  O8_61 
REMARK   32  A    between atoms: C1_62  and  C2_65 
REMARK   33  A    between atoms: C4_67  and  O4_68 
REMARK   34  A    between atoms: C5_69  and  O5_70 
REMARK   35  A    between atoms: C6_71  and  C7_73 
REMARK   36  A    between atoms: C7_73  and  O7_74 
REMARK   37  A    between atoms: C7_73  and  C8_75 
REMARK   38  A    between atoms: C8_75  and  O8_76 
ROOT
ATOM      1  C2  GP1 d   1      51.010  -1.818  -3.521  0.00  0.00     0.258 C 
ATOM      2  C3  GP1 d   1      51.306  -0.496  -2.835  0.00  0.00     0.024 C 
ATOM      3  C4  GP1 d   1      52.144   0.386  -3.736  0.00  0.00     0.075 C 
ATOM      4  C5  GP1 d   1      53.405  -0.339  -4.177  0.00  0.00     0.088 C 
ATOM      5  C6  GP1 d   1      53.014  -1.644  -4.862  0.00  0.00     0.096 C 
ATOM      6  O6  GP1 d   1      52.228  -2.437  -3.975  0.00  0.00    -0.336 OA
ATOM      7  H24 GP1 d   1      51.855  -0.686  -1.901  0.00  0.00     0.045 H 
ATOM      8  H25 GP1 d   1      50.359   0.014  -2.606  0.00  0.00     0.045 H 
ATOM      9  H26 GP1 d   1      51.547   0.660  -4.619  0.00  0.00     0.087 H 
ATOM     10  H27 GP1 d   1      53.980   0.291  -4.872  0.00  0.00     0.091 H 
ATOM     11  H29 GP1 d   1      52.442  -1.426  -5.776  0.00  0.00     0.091 H 
ENDROOT
BRANCH   1  12
ATOM     12  O6  GP1 d   1      50.059  -1.568  -4.600  0.00  0.00    -0.344 OA
BRANCH  12  13
ATOM     13  C6  GP1 d   1      49.704  -2.755  -5.369  0.00  0.00     0.050 C 
ATOM     14  H22 GP1 d   1      49.217  -3.494  -4.716  0.00  0.00     0.078 H 
ATOM     15  H23 GP1 d   1      50.607  -3.198  -5.815  0.00  0.00     0.078 H 
BRANCH  13  16
ATOM     16  C5  GP1 d   1      48.744  -2.317  -6.464  0.00  0.00     0.090 C 
ATOM     17  O5  GP1 d   1      49.458  -1.423  -7.285  0.00  0.00    -0.349 OA
ATOM     18  C1  GP1 d   1      48.656  -0.943  -8.354  0.00  0.00     0.161 C 
ATOM     19  C2  GP1 d   1      48.273  -2.114  -9.297  0.00  0.00     0.173 C 
ATOM     20  H17 GP1 d   1      47.752  -0.441  -7.980  0.00  0.00     0.132 H 
ATOM     21  C3  GP1 d   1      47.516  -3.184  -8.509  0.00  0.00     0.095 C 
ATOM     22  H18 GP1 d   1      49.199  -2.562  -9.687  0.00  0.00     0.096 H 
ATOM     23  C4  GP1 d   1      48.285  -3.547  -7.249  0.00  0.00     0.105 C 
ATOM     24  H19 GP1 d   1      46.522  -2.799  -8.237  0.00  0.00     0.090 H 
ATOM     25  H20 GP1 d   1      49.153  -4.171  -7.508  0.00  0.00     0.092 H 
ATOM     26  H21 GP1 d   1      47.869  -1.812  -6.029  0.00  0.00     0.090 H 
BRANCH  18  27
ATOM     27  O5B GP1 d   1      49.499  -0.042  -9.052  0.00  0.00    -0.356 OA
BRANCH  27  28
ATOM     28  C6B GP1 d   1      49.774   1.172  -8.335  0.00  0.00     0.049 C 
ATOM     29  H6  GP1 d   1      48.934   1.421  -7.670  0.00  0.00     0.078 H 
ATOM     30  H7  GP1 d   1      50.693   1.065  -7.740  0.00  0.00     0.078 H 
BRANCH  28  31
ATOM     31  C5B GP1 d   1      49.950   2.248  -9.387  0.00  0.00     0.089 C 
ATOM     32  C4B GP1 d   1      50.477   3.572  -8.836  0.00  0.00     0.089 C 
ATOM     33  C3B GP1 d   1      50.480   4.578  -9.964  0.00  0.00     0.094 C 
ATOM     34  H4  GP1 d   1      49.830   3.920  -8.018  0.00  0.00     0.091 H 
ATOM     35  C2B GP1 d   1      49.070   4.681 -10.562  0.00  0.00     0.174 C 
ATOM     36  H3  GP1 d   1      51.179   4.244 -10.745  0.00  0.00     0.090 H 
ATOM     37  C1B GP1 d   1      48.587   3.276 -11.032  0.00  0.00     0.174 C 
ATOM     38  H2  GP1 d   1      48.390   5.019  -9.766  0.00  0.00     0.096 H 
ATOM     39  O6B GP1 d   1      48.606   2.398  -9.906  0.00  0.00    -0.348 OA
ATOM     40  H1  GP1 d   1      47.549   3.365 -11.384  0.00  0.00     0.133 H 
ATOM     41  H5  GP1 d   1      50.635   1.900 -10.174  0.00  0.00     0.090 H 
BRANCH  32  42
ATOM     42  O4B GP1 d   1      51.820   3.415  -8.357  0.00  0.00    -0.390 OA
ATOM     43  H12 GP1 d   1      51.834   2.764  -7.665  0.00  0.00     0.210 HD
ENDBRANCH  32  42
BRANCH  33  44
ATOM     44  O3B GP1 d   1      50.905   5.861  -9.471  0.00  0.00    -0.391 OA
ATOM     45  H11 GP1 d   1      51.782   5.787  -9.113  0.00  0.00     0.210 HD
ENDBRANCH  33  44
BRANCH  35  46
ATOM     46  N2B GP1 d   1      49.016   5.683 -11.645  0.00  0.00    -0.068 N 
ATOM     47  H8  GP1 d   1      48.080   5.727 -12.016  0.00  0.00     0.275 HD
ATOM     48  H9  GP1 d   1      49.656   5.420 -12.378  0.00  0.00     0.275 HD
ATOM     49  H10 GP1 d   1      49.275   6.586 -11.280  0.00  0.00     0.275 HD
ENDBRANCH  35  46
BRANCH  37  50
ATOM     50  O1B GP1 d   1      49.398   2.767 -12.155  0.00  0.00    -0.249 OA
BRANCH  50  51
ATOM     51  P4B GP1 d   1      49.194   1.283 -12.847  0.00  0.00     0.424 P 
ATOM     52  O7B GP1 d   1      47.628   0.967 -12.582  0.00  0.00    -0.617 OA
ATOM     53  O8B GP1 d   1      49.402   1.433 -14.303  0.00  0.00    -0.617 OA
ATOM     54  O9B GP1 d   1      50.027   0.308 -12.106  0.00  0.00    -0.617 OA
ENDBRANCH  50  51
ENDBRANCH  37  50
ENDBRANCH  28  31
ENDBRANCH  27  28
ENDBRANCH  18  27
BRANCH  19  55
ATOM     55  N1  GP1 d   1      47.480  -1.631 -10.446  0.00  0.00    -0.068 N 
ATOM     56  H13 GP1 d   1      48.004  -0.929 -10.944  0.00  0.00     0.275 HD
ATOM     57  H14 GP1 d   1      46.616  -1.233 -10.114  0.00  0.00     0.275 HD
ATOM     58  H15 GP1 d   1      47.279  -2.402 -11.064  0.00  0.00     0.275 HD
ENDBRANCH  19  55
BRANCH  21  59
ATOM     59  O3  GP1 d   1      47.372  -4.380  -9.311  0.00  0.00    -0.391 OA
ATOM     60  H16 GP1 d   1      46.901  -5.038  -8.814  0.00  0.00     0.210 HD
ENDBRANCH  21  59
BRANCH  23  61
ATOM     61  O4  GP1 d   1      47.402  -4.235  -6.424  0.00  0.00    -0.272 OA
BRANCH  61  62
ATOM     62  P1  GP1 d   1      47.359  -5.829  -6.356  0.00  0.00     0.422 P 
ATOM     63  O9  GP1 d   1      46.460  -6.271  -7.616  0.00  0.00    -0.617 OA
ATOM     64  O7  GP1 d   1      46.561  -6.174  -5.151  0.00  0.00    -0.617 OA
ATOM     65  O8  GP1 d   1      48.699  -6.390  -6.540  0.00  0.00    -0.617 OA
ENDBRANCH  61  62
ENDBRANCH  23  61
ENDBRANCH  13  16
ENDBRANCH  12  13
ENDBRANCH   1  12
BRANCH   1  66
ATOM     66  C1  GP1 d   1      50.366  -2.768  -2.518  0.00  0.00     0.239 C 
ATOM     67  O1A GP1 d   1      49.189  -2.497  -2.214  0.00  0.00    -0.644 OA
ATOM     68  O1B GP1 d   1      51.006  -3.776  -2.152  0.00  0.00    -0.644 OA
ENDBRANCH   1  66
BRANCH   3  69
ATOM     69  O4  GP1 d   1      52.569   1.589  -3.045  0.00  0.00    -0.338 OA
BRANCH  69  70
ATOM     70  C2  GP1 d   1      51.994   2.814  -3.514  0.00  0.00     0.259 C 
ATOM     71  C3  GP1 d   1      52.671   3.967  -2.758  0.00  0.00     0.024 C 
ATOM     72  C4  GP1 d   1      52.273   3.965  -1.246  0.00  0.00     0.068 C 
ATOM     73  H35 GP1 d   1      52.362   4.922  -3.209  0.00  0.00     0.045 H 
ATOM     74  H36 GP1 d   1      53.762   3.858  -2.841  0.00  0.00     0.045 H 
ATOM     75  C5  GP1 d   1      50.750   3.999  -1.120  0.00  0.00     0.088 C 
ATOM     76  H37 GP1 d   1      52.657   3.049  -0.774  0.00  0.00     0.087 H 
ATOM     77  C6  GP1 d   1      50.126   2.829  -1.931  0.00  0.00     0.096 C 
ATOM     78  H39 GP1 d   1      50.479   3.877  -0.061  0.00  0.00     0.091 H 
ATOM     79  O6  GP1 d   1      50.587   2.846  -3.308  0.00  0.00    -0.336 OA
ATOM     80  H41 GP1 d   1      50.441   1.891  -1.450  0.00  0.00     0.091 H 
BRANCH  70  81
ATOM     81  C1  GP1 d   1      52.226   2.982  -5.048  0.00  0.00     0.239 C 
ATOM     82  O1A GP1 d   1      51.224   3.186  -5.761  0.00  0.00    -0.644 OA
ATOM     83  O1B GP1 d   1      53.384   2.897  -5.460  0.00  0.00    -0.644 OA
ENDBRANCH  70  81
BRANCH  72  84
ATOM     84  O4  GP1 d   1      52.839   5.119  -0.573  0.00  0.00    -0.393 OA
ATOM     85  H38 GP1 d   1      53.786   5.093  -0.644  0.00  0.00     0.210 HD
ENDBRANCH  72  84
BRANCH  75  86
ATOM     86  O5  GP1 d   1      50.250   5.251  -1.576  0.00  0.00    -0.390 OA
ATOM     87  H40 GP1 d   1      50.491   5.374  -2.487  0.00  0.00     0.210 HD
ENDBRANCH  75  86
BRANCH  77  88
ATOM     88  C7  GP1 d   1      48.590   2.838  -2.028  0.00  0.00     0.083 C 
ATOM     89  H42 GP1 d   1      48.269   1.849  -2.386  0.00  0.00     0.090 H 
BRANCH  88  90
ATOM     90  O7  GP1 d   1      48.105   3.838  -2.955  0.00  0.00    -0.391 OA
ATOM     91  H43 GP1 d   1      48.454   3.662  -3.821  0.00  0.00     0.210 HD
ENDBRANCH  88  90
BRANCH  88  92
ATOM     92  C8  GP1 d   1      47.946   3.094  -0.651  0.00  0.00     0.050 C 
ATOM     93  H44 GP1 d   1      48.039   4.158  -0.387  0.00  0.00     0.078 H 
ATOM     94  H45 GP1 d   1      48.444   2.481   0.115  0.00  0.00     0.078 H 
BRANCH  92  95
ATOM     95  O8  GP1 d   1      46.571   2.735  -0.739  0.00  0.00    -0.344 OA
BRANCH  95  96
ATOM     96  C2  GP1 d   1      45.657   3.361   0.129  0.00  0.00     0.258 C 
ATOM     97  C3  GP1 d   1      44.348   2.634   0.056  0.00  0.00     0.024 C 
ATOM     98  C4  GP1 d   1      43.686   2.830  -1.307  0.00  0.00     0.068 C 
ATOM     99  H46 GP1 d   1      43.679   3.019   0.839  0.00  0.00     0.045 H 
ATOM    100  H47 GP1 d   1      44.523   1.560   0.219  0.00  0.00     0.045 H 
ATOM    101  C5  GP1 d   1      43.557   4.308  -1.661  0.00  0.00     0.088 C 
ATOM    102  H48 GP1 d   1      44.289   2.330  -2.079  0.00  0.00     0.087 H 
ATOM    103  C6  GP1 d   1      44.979   4.884  -1.667  0.00  0.00     0.096 C 
ATOM    104  H50 GP1 d   1      43.116   4.419  -2.663  0.00  0.00     0.091 H 
ATOM    105  O6  GP1 d   1      45.550   4.733  -0.335  0.00  0.00    -0.336 OA
ATOM    106  H52 GP1 d   1      45.585   4.338  -2.405  0.00  0.00     0.091 H 
BRANCH  96 107
ATOM    107  C1  GP1 d   1      46.157   3.329   1.600  0.00  0.00     0.239 C 
ATOM    108  O1A GP1 d   1      46.457   2.216   2.078  0.00  0.00    -0.644 OA
ATOM    109  O1B GP1 d   1      46.162   4.419   2.234  0.00  0.00    -0.644 OA
ENDBRANCH  96 107
BRANCH  98 110
ATOM    110  O4  GP1 d   1      42.378   2.228  -1.248  0.00  0.00    -0.393 OA
ATOM    111  H49 GP1 d   1      42.465   1.302  -1.052  0.00  0.00     0.210 HD
ENDBRANCH  98 110
BRANCH 101 112
ATOM    112  O5  GP1 d   1      42.691   4.956  -0.695  0.00  0.00    -0.390 OA
ATOM    113  H51 GP1 d   1      43.065   4.867   0.174  0.00  0.00     0.210 HD
ENDBRANCH 101 112
BRANCH 103 114
ATOM    114  C7  GP1 d   1      45.003   6.373  -1.991  0.00  0.00     0.083 C 
ATOM    115  H53 GP1 d   1      44.452   6.905  -1.201  0.00  0.00     0.090 H 
BRANCH 114 116
ATOM    116  O7  GP1 d   1      44.359   6.654  -3.246  0.00  0.00    -0.391 OA
ATOM    117  H54 GP1 d   1      44.808   6.188  -3.942  0.00  0.00     0.210 HD
ENDBRANCH 114 116
BRANCH 114 118
ATOM    118  C8  GP1 d   1      46.442   6.876  -1.994  0.00  0.00     0.043 C 
ATOM    119  H55 GP1 d   1      46.961   6.540  -1.084  0.00  0.00     0.078 H 
ATOM    120  H56 GP1 d   1      46.458   7.975  -2.040  0.00  0.00     0.078 H 
BRANCH 118 121
ATOM    121  O8  GP1 d   1      47.075   6.328  -3.150  0.00  0.00    -0.398 OA
ATOM    122  H57 GP1 d   1      47.051   5.380  -3.103  0.00  0.00     0.209 HD
ENDBRANCH 118 121
ENDBRANCH 114 118
ENDBRANCH 103 114
ENDBRANCH  95  96
ENDBRANCH  92  95
ENDBRANCH  88  92
ENDBRANCH  77  88
ENDBRANCH  69  70
ENDBRANCH   3  69
BRANCH   5 123
ATOM    123  C7  GP1 d   1      54.291  -2.439  -5.215  0.00  0.00     0.083 C 
ATOM    124  H30 GP1 d   1      54.879  -2.588  -4.298  0.00  0.00     0.090 H 
BRANCH 123 125
ATOM    125  O7  GP1 d   1      55.025  -1.656  -6.139  0.00  0.00    -0.391 OA
ATOM    126  H31 GP1 d   1      54.497  -1.506  -6.915  0.00  0.00     0.210 HD
ENDBRANCH 123 125
BRANCH 123 127
ATOM    127  C8  GP1 d   1      54.031  -3.796  -5.848  0.00  0.00     0.043 C 
ATOM    128  H32 GP1 d   1      53.616  -4.494  -5.106  0.00  0.00     0.078 H 
ATOM    129  H33 GP1 d   1      54.961  -4.212  -6.262  0.00  0.00     0.078 H 
BRANCH 127 130
ATOM    130  O8  GP1 d   1      53.084  -3.553  -6.891  0.00  0.00    -0.398 OA
ATOM    131  H34 GP1 d   1      53.454  -2.942  -7.517  0.00  0.00     0.209 HD
ENDBRANCH 127 130
ENDBRANCH 123 127
ENDBRANCH   5 123
BRANCH   4 132
ATOM    132  O5  GP1 d   1      54.189  -0.628  -3.016  0.00  0.00    -0.390 OA
ATOM    133  H28 GP1 d   1      54.416   0.184  -2.579  0.00  0.00     0.210 HD
ENDBRANCH   4 132
TORSDOF 38
