REMARK  17 active torsions:
REMARK  status: ('A' for Active; 'I' for Inactive)
REMARK    1  A    between atoms: C09_16  and  C10_1 
REMARK    2  A    between atoms: C12_18  and  C13_2 
REMARK    3  A    between atoms: C17_4  and  O19_37 
REMARK    4  A    between atoms: C20_5  and  C21_6 
REMARK    5  A    between atoms: C20_5  and  C39_33 
REMARK    6  A    between atoms: C20_5  and  C40_34 
REMARK    7  A    between atoms: O19_37  and  C20_5 
REMARK    8  A    between atoms: C24_7  and  C01_9 
REMARK       I    between atoms: N26_36  and  C24_7 
REMARK    9  A    between atoms: C27_22  and  C28_8 
REMARK   10  A    between atoms: C08_15  and  C11_17 
REMARK   11  A    between atoms: N07_35  and  C12_18 
REMARK   12  A    between atoms: C27_22  and  C34_28 
REMARK   13  A    between atoms: C27_22  and  N26_36 
REMARK   14  A    between atoms: C31_25  and  C35_29 
REMARK   15  A    between atoms: C35_29  and  C36_30 
REMARK   16  A    between atoms: C35_29  and  C37_31 
REMARK   17  A    between atoms: C35_29  and  C38_32 
ROOT
ATOM      1  C01 EKS d   1      22.182 -27.778  20.644  0.00  0.00     0.033 A 
ATOM      2  C02 EKS d   1      23.543 -27.735  20.320  0.00  0.00    -0.066 A 
ATOM      3  C03 EKS d   1      23.975 -27.096  19.149  0.00  0.00    -0.055 A 
ATOM      4  C04 EKS d   1      23.018 -26.507  18.302  0.00  0.00     0.045 A 
ATOM      5  C05 EKS d   1      21.681 -26.558  18.614  0.00  0.00    -0.000 A 
ATOM      6  C06 EKS d   1      21.240 -27.198  19.792  0.00  0.00    -0.055 A 
ATOM      7  C08 EKS d   1      22.008 -25.461  16.671  0.00  0.00     0.015 A 
ATOM      8  C09 EKS d   1      21.012 -25.883  17.565  0.00  0.00    -0.027 A 
ATOM      9  N07 EKS d   1      23.192 -25.843  17.136  0.00  0.00    -0.345 N 
ATOM     10  H5  EKS d   1      24.268 -28.199  20.979  0.00  0.00     0.085 H 
ATOM     11  H6  EKS d   1      25.029 -27.056  18.900  0.00  0.00     0.087 H 
ATOM     12  H7  EKS d   1      20.184 -27.239  20.032  0.00  0.00     0.086 H 
ENDROOT
BRANCH   1  13
ATOM     13  C24 EKS d   1      21.698 -28.506  21.950  0.00  0.00     0.252 C 
ATOM     14  N26 EKS d   1      22.641 -29.352  22.732  0.00  0.00    -0.349 N 
ATOM     15  H39 EKS d   1      23.593 -29.444  22.441  0.00  0.00     0.163 HD
ATOM     16  O25 EKS d   1      20.570 -28.399  22.307  0.00  0.00    -0.268 OA
BRANCH  14  17
ATOM     17  C27 EKS d   1      22.168 -30.048  23.929  0.00  0.00     0.034 C 
ATOM     18  H16 EKS d   1      21.080 -30.188  23.846  0.00  0.00     0.079 H 
BRANCH  17  19
ATOM     19  C28 EKS d   1      22.462 -29.286  25.216  0.00  0.00    -0.036 A 
ATOM     20  C29 EKS d   1      23.127 -28.070  25.204  0.00  0.00    -0.074 A 
ATOM     21  C30 EKS d   1      23.375 -27.410  26.407  0.00  0.00    -0.076 A 
ATOM     22  H17 EKS d   1      23.452 -27.635  24.266  0.00  0.00     0.084 H 
ATOM     23  C31 EKS d   1      22.957 -27.970  27.610  0.00  0.00    -0.051 A 
ATOM     24  H18 EKS d   1      23.895 -26.459  26.405  0.00  0.00     0.084 H 
ATOM     25  C32 EKS d   1      22.295 -29.186  27.616  0.00  0.00    -0.076 A 
ATOM     26  C33 EKS d   1      22.047 -29.843  26.423  0.00  0.00    -0.074 A 
ATOM     27  H19 EKS d   1      21.971 -29.623  28.554  0.00  0.00     0.084 H 
ATOM     28  H20 EKS d   1      21.528 -30.795  26.428  0.00  0.00     0.084 H 
BRANCH  23  29
ATOM     29  C35 EKS d   1      23.227 -27.246  28.949  0.00  0.00    -0.024 C 
BRANCH  29  30
ATOM     30  C36 EKS d   1      24.749 -27.322  29.294  0.00  0.00    -0.066 C 
ATOM     31  H24 EKS d   1      24.935 -26.805  30.247  0.00  0.00     0.028 H 
ATOM     32  H25 EKS d   1      25.331 -26.838  28.495  0.00  0.00     0.028 H 
ATOM     33  H26 EKS d   1      25.053 -28.375  29.383  0.00  0.00     0.028 H 
ENDBRANCH  29  30
BRANCH  29  34
ATOM     34  C37 EKS d   1      22.419 -27.915  30.064  0.00  0.00    -0.066 C 
ATOM     35  H27 EKS d   1      21.347 -27.862  29.822  0.00  0.00     0.028 H 
ATOM     36  H28 EKS d   1      22.606 -27.395  31.015  0.00  0.00     0.028 H 
ATOM     37  H29 EKS d   1      22.723 -28.968  30.156  0.00  0.00     0.028 H 
ENDBRANCH  29  34
BRANCH  29  38
ATOM     38  C38 EKS d   1      22.804 -25.784  28.826  0.00  0.00    -0.066 C 
ATOM     39  H30 EKS d   1      23.383 -25.301  28.025  0.00  0.00     0.028 H 
ATOM     40  H31 EKS d   1      22.992 -25.266  29.778  0.00  0.00     0.028 H 
ATOM     41  H32 EKS d   1      21.732 -25.731  28.586  0.00  0.00     0.028 H 
ENDBRANCH  29  38
ENDBRANCH  23  29
ENDBRANCH  17  19
BRANCH  17  42
ATOM     42  C34 EKS d   1      22.854 -31.415  24.000  0.00  0.00    -0.053 C 
ATOM     43  H21 EKS d   1      22.650 -31.976  23.076  0.00  0.00     0.030 H 
ATOM     44  H22 EKS d   1      22.466 -31.976  24.863  0.00  0.00     0.030 H 
ATOM     45  H23 EKS d   1      23.939 -31.275  24.112  0.00  0.00     0.030 H 
ENDBRANCH  17  42
ENDBRANCH  14  17
ENDBRANCH   1  13
BRANCH   8  46
ATOM     46  C10 EKS d   1      19.498 -25.653  17.427  0.00  0.00    -0.049 C 
ATOM     47  H1  EKS d   1      18.979 -26.102  18.287  0.00  0.00     0.033 H 
ATOM     48  H2  EKS d   1      19.139 -26.120  16.498  0.00  0.00     0.033 H 
ATOM     49  H3  EKS d   1      19.292 -24.573  17.398  0.00  0.00     0.033 H 
ENDBRANCH   8  46
BRANCH   9  50
ATOM     50  C12 EKS d   1      24.499 -25.602  16.476  0.00  0.00     0.024 C 
ATOM     51  H11 EKS d   1      25.217 -26.353  16.836  0.00  0.00     0.072 H 
ATOM     52  H12 EKS d   1      24.368 -25.712  15.389  0.00  0.00     0.072 H 
BRANCH  50  53
ATOM     53  C13 EKS d   1      25.078 -24.182  16.766  0.00  0.00    -0.037 A 
ATOM     54  C14 EKS d   1      24.373 -23.255  17.515  0.00  0.00    -0.075 A 
ATOM     55  C15 EKS d   1      24.926 -22.004  17.748  0.00  0.00    -0.080 A 
ATOM     56  H13 EKS d   1      23.397 -23.505  17.916  0.00  0.00     0.084 H 
ATOM     57  C16 EKS d   1      26.182 -21.687  17.234  0.00  0.00    -0.051 A 
ATOM     58  H4  EKS d   1      24.380 -21.271  18.331  0.00  0.00     0.083 H 
ATOM     59  C17 EKS d   1      26.898 -22.602  16.483  0.00  0.00     0.071 A 
ATOM     60  H14 EKS d   1      26.605 -20.707  17.426  0.00  0.00     0.087 H 
ATOM     61  C18 EKS d   1      26.332 -23.858  16.257  0.00  0.00    -0.043 A 
ATOM     62  H15 EKS d   1      26.878 -24.592  15.676  0.00  0.00     0.088 H 
BRANCH  59  63
ATOM     63  O19 EKS d   1      28.193 -22.201  15.989  0.00  0.00    -0.330 OA
BRANCH  63  64
ATOM     64  C20 EKS d   1      28.963 -22.961  15.035  0.00  0.00     0.148 C 
BRANCH  64  65
ATOM     65  C21 EKS d   1      29.309 -24.374  15.535  0.00  0.00     0.209 C 
ATOM     66  O22 EKS d   1      29.314 -24.624  16.769  0.00  0.00    -0.646 OA
ATOM     67  O23 EKS d   1      29.595 -25.289  14.713  0.00  0.00    -0.646 OA
ENDBRANCH  64  65
BRANCH  64  68
ATOM     68  C39 EKS d   1      30.294 -22.210  14.829  0.00  0.00    -0.038 C 
ATOM     69  H33 EKS d   1      30.088 -21.191  14.470  0.00  0.00     0.032 H 
ATOM     70  H34 EKS d   1      30.905 -22.744  14.086  0.00  0.00     0.032 H 
ATOM     71  H35 EKS d   1      30.838 -22.160  15.784  0.00  0.00     0.032 H 
ENDBRANCH  64  68
BRANCH  64  72
ATOM     72  C40 EKS d   1      28.259 -23.025  13.655  0.00  0.00    -0.038 C 
ATOM     73  H36 EKS d   1      27.301 -23.555  13.757  0.00  0.00     0.032 H 
ATOM     74  H37 EKS d   1      28.901 -23.561  12.941  0.00  0.00     0.032 H 
ATOM     75  H38 EKS d   1      28.076 -22.004  13.289  0.00  0.00     0.032 H 
ENDBRANCH  64  72
ENDBRANCH  63  64
ENDBRANCH  59  63
ENDBRANCH  50  53
ENDBRANCH   9  50
BRANCH   7  76
ATOM     76  C11 EKS d   1      21.763 -24.684  15.376  0.00  0.00    -0.037 C 
ATOM     77  H8  EKS d   1      20.684 -24.510  15.251  0.00  0.00     0.035 H 
ATOM     78  H9  EKS d   1      22.142 -25.265  14.522  0.00  0.00     0.035 H 
ATOM     79  H10 EKS d   1      22.287 -23.718  15.423  0.00  0.00     0.035 H 
ENDBRANCH   7  76
TORSDOF 17
