REMARK  13 active torsions:
REMARK  status: ('A' for Active; 'I' for Inactive)
REMARK    1  A    between atoms: C10_1  and  C05_13 
REMARK    2  A    between atoms: C10_1  and  C12_18 
REMARK    3  A    between atoms: N11_34  and  C10_1 
REMARK    4  A    between atoms: C14_19  and  C13_2 
REMARK       I    between atoms: C13_2  and  N11_34 
REMARK    5  A    between atoms: C22_5  and  C25_24 
REMARK    6  A    between atoms: C23_23  and  C24_6 
REMARK    7  A    between atoms: C26_7  and  C27_25 
REMARK    8  A    between atoms: N21_35  and  C26_7 
REMARK    9  A    between atoms: C01_9  and  C07_15 
REMARK   10  A    between atoms: C30_27  and  C33_30 
REMARK   11  A    between atoms: C33_30  and  C34_31 
REMARK   12  A    between atoms: C33_30  and  C35_32 
REMARK   13  A    between atoms: C33_30  and  C36_33 
ROOT
ATOM      1  C17 EKP d   1      21.767 -26.818  19.423  0.00  0.00    -0.055 A 
ATOM      2  C20 EKP d   1      19.327 -26.362  20.698  0.00  0.00    -0.055 A 
ATOM      3  C22 EKP d   1      19.529 -25.015  17.293  0.00  0.00     0.015 A 
ATOM      4  C14 EKP d   1      20.346 -27.049  21.370  0.00  0.00     0.033 A 
ATOM      5  C16 EKP d   1      21.564 -27.281  20.723  0.00  0.00    -0.066 A 
ATOM      6  C18 EKP d   1      20.744 -26.121  18.749  0.00  0.00     0.045 A 
ATOM      7  C19 EKP d   1      19.532 -25.893  19.385  0.00  0.00    -0.000 A 
ATOM      8  C23 EKP d   1      18.731 -25.167  18.433  0.00  0.00    -0.027 A 
ATOM      9  N21 EKP d   1      20.709 -25.571  17.517  0.00  0.00    -0.345 N 
ATOM     10  H2  EKP d   1      22.715 -26.995  18.929  0.00  0.00     0.087 H 
ATOM     11  H3  EKP d   1      18.377 -26.190  21.190  0.00  0.00     0.086 H 
ATOM     12  H22 EKP d   1      22.352 -27.822  21.233  0.00  0.00     0.085 H 
ENDROOT
BRANCH   4  13
ATOM     13  C13 EKP d   1      20.130 -27.576  22.794  0.00  0.00     0.252 C 
ATOM     14  N11 EKP d   1      21.208 -28.277  23.461  0.00  0.00    -0.349 N 
ATOM     15  H35 EKP d   1      22.071 -28.367  22.964  0.00  0.00     0.163 HD
ATOM     16  O15 EKP d   1      19.047 -27.422  23.329  0.00  0.00    -0.268 OA
BRANCH  14  17
ATOM     17  C10 EKP d   1      21.143 -28.855  24.777  0.00  0.00     0.034 C 
ATOM     18  H1  EKP d   1      22.137 -29.276  24.988  0.00  0.00     0.079 H 
BRANCH  17  19
ATOM     19  C05 EKP d   1      20.824 -27.885  25.910  0.00  0.00    -0.035 A 
ATOM     20  C04 EKP d   1      21.864 -27.260  26.595  0.00  0.00    -0.075 A 
ATOM     21  C03 EKP d   1      21.590 -26.385  27.642  0.00  0.00    -0.082 A 
ATOM     22  H12 EKP d   1      22.892 -27.456  26.311  0.00  0.00     0.084 H 
ATOM     23  C02 EKP d   1      20.274 -26.136  28.019  0.00  0.00    -0.076 A 
ATOM     24  H11 EKP d   1      22.404 -25.896  28.165  0.00  0.00     0.083 H 
ATOM     25  C01 EKP d   1      19.231 -26.767  27.346  0.00  0.00    -0.053 A 
ATOM     26  H10 EKP d   1      20.061 -25.453  28.834  0.00  0.00     0.084 H 
ATOM     27  C06 EKP d   1      19.507 -27.646  26.299  0.00  0.00    -0.068 A 
ATOM     28  H13 EKP d   1      18.694 -28.146  25.785  0.00  0.00     0.085 H 
BRANCH  25  29
ATOM     29  C07 EKP d   1      17.779 -26.495  27.762  0.00  0.00    -0.029 A 
ATOM     30  C08 EKP d   1      17.562 -25.300  28.679  0.00  0.00    -0.057 A 
ATOM     31  C09 EKP d   1      17.460 -26.713  29.234  0.00  0.00    -0.057 A 
ATOM     32  H15 EKP d   1      16.657 -24.684  28.574  0.00  0.00     0.034 H 
ATOM     33  H16 EKP d   1      18.412 -24.660  28.958  0.00  0.00     0.034 H 
ATOM     34  H17 EKP d   1      18.236 -27.094  29.914  0.00  0.00     0.034 H 
ATOM     35  H18 EKP d   1      16.481 -27.118  29.530  0.00  0.00     0.034 H 
ATOM     36  H14 EKP d   1      17.067 -26.756  26.965  0.00  0.00     0.047 H 
ENDBRANCH  25  29
ENDBRANCH  17  19
BRANCH  17  37
ATOM     37  C12 EKP d   1      20.139 -29.994  24.787  0.00  0.00    -0.053 C 
ATOM     38  H19 EKP d   1      20.370 -30.693  23.970  0.00  0.00     0.030 H 
ATOM     39  H20 EKP d   1      19.125 -29.590  24.649  0.00  0.00     0.030 H 
ATOM     40  H21 EKP d   1      20.195 -30.524  25.749  0.00  0.00     0.030 H 
ENDBRANCH  17  37
ENDBRANCH  14  17
ENDBRANCH   4  13
BRANCH   8  41
ATOM     41  C24 EKP d   1      17.298 -24.659  18.613  0.00  0.00    -0.049 C 
ATOM     42  H4  EKP d   1      16.974 -24.143  17.697  0.00  0.00     0.033 H 
ATOM     43  H5  EKP d   1      17.261 -23.959  19.461  0.00  0.00     0.033 H 
ATOM     44  H6  EKP d   1      16.629 -25.510  18.810  0.00  0.00     0.033 H 
ENDBRANCH   8  41
BRANCH   9  45
ATOM     45  C26 EKP d   1      21.769 -25.639  16.546  0.00  0.00     0.024 C 
ATOM     46  H7  EKP d   1      22.283 -26.600  16.697  0.00  0.00     0.072 H 
ATOM     47  H8  EKP d   1      21.297 -25.628  15.553  0.00  0.00     0.072 H 
BRANCH  45  48
ATOM     48  C27 EKP d   1      22.849 -24.547  16.543  0.00  0.00    -0.040 A 
ATOM     49  C28 EKP d   1      24.129 -24.951  16.179  0.00  0.00    -0.075 A 
ATOM     50  C29 EKP d   1      25.168 -24.034  16.135  0.00  0.00    -0.075 A 
ATOM     51  H9  EKP d   1      24.316 -25.989  15.928  0.00  0.00     0.084 H 
ATOM     52  C30 EKP d   1      24.920 -22.703  16.442  0.00  0.00    -0.040 A 
ATOM     53  H26 EKP d   1      26.167 -24.354  15.863  0.00  0.00     0.084 H 
ATOM     54  C31 EKP d   1      23.636 -22.287  16.803  0.00  0.00    -0.075 A 
ATOM     55  C32 EKP d   1      22.588 -23.211  16.849  0.00  0.00    -0.075 A 
ATOM     56  H27 EKP d   1      23.452 -21.247  17.048  0.00  0.00     0.084 H 
ATOM     57  H28 EKP d   1      21.587 -22.894  17.119  0.00  0.00     0.084 H 
BRANCH  52  58
ATOM     58  C33 EKP d   1      26.103 -21.714  16.382  0.00  0.00     0.068 C 
BRANCH  58  59
ATOM     59  C34 EKP d   1      27.030 -22.013  17.569  0.00  0.00    -0.056 C 
ATOM     60  H29 EKP d   1      26.480 -21.865  18.510  0.00  0.00     0.029 H 
ATOM     61  H30 EKP d   1      27.895 -21.334  17.539  0.00  0.00     0.029 H 
ATOM     62  H31 EKP d   1      27.379 -23.054  17.508  0.00  0.00     0.029 H 
ENDBRANCH  58  59
BRANCH  58  63
ATOM     63  C35 EKP d   1      25.583 -20.268  16.456  0.00  0.00    -0.056 C 
ATOM     64  H32 EKP d   1      24.922 -20.072  15.599  0.00  0.00     0.029 H 
ATOM     65  H33 EKP d   1      26.433 -19.571  16.430  0.00  0.00     0.029 H 
ATOM     66  H34 EKP d   1      25.022 -20.127  17.392  0.00  0.00     0.029 H 
ENDBRANCH  58  63
BRANCH  58  67
ATOM     67  C36 EKP d   1      26.884 -21.925  15.082  0.00  0.00     0.185 C 
ATOM     68  O37 EKP d   1      26.609 -21.243  14.054  0.00  0.00    -0.647 OA
ATOM     69  O38 EKP d   1      27.810 -22.783  15.035  0.00  0.00    -0.647 OA
ENDBRANCH  58  67
ENDBRANCH  52  58
ENDBRANCH  45  48
ENDBRANCH   9  45
BRANCH   3  70
ATOM     70  C25 EKP d   1      19.112 -24.305  16.006  0.00  0.00    -0.037 C 
ATOM     71  H23 EKP d   1      18.078 -23.943  16.105  0.00  0.00     0.035 H 
ATOM     72  H24 EKP d   1      19.175 -25.008  15.162  0.00  0.00     0.035 H 
ATOM     73  H25 EKP d   1      19.783 -23.452  15.824  0.00  0.00     0.035 H 
ENDBRANCH   3  70
TORSDOF 13
