REMARK  6 active torsions:
REMARK  status: ('A' for Active; 'I' for Inactive)
REMARK    1  A    between atoms: O5'_1  and  C5'_2 
REMARK    2  A    between atoms: C5'_2  and  C4'_3 
REMARK    3  A    between atoms: C1'_5  and  N9_6 
REMARK    4  A    between atoms: C6_10  and  N6_15 
REMARK    5  A    between atoms: C2'_16  and  O2'_17 
REMARK    6  A    between atoms: C3'_18  and  O3'_19 
ROOT
ATOM      1  C4' MOL d   1     -14.395 -21.777  11.869  0.00  0.00     0.088 C 
ATOM      2  O4' MOL d   1     -15.513 -22.026  11.002  0.00  0.00    -0.353 OA
ATOM      3  C1' MOL d   1     -15.062 -22.589   9.797  0.00  0.00     0.138 C 
ATOM      4  C2' MOL d   1     -13.640 -22.067   9.566  0.00  0.00     0.105 C 
ATOM      5  C3' MOL d   1     -13.173 -21.607  10.967  0.00  0.00     0.091 C 
ATOM      6  H4  MOL d   1     -14.225 -22.656  12.508  0.00  0.00     0.090 H 
ATOM      7  H5  MOL d   1     -15.027 -23.686   9.870  0.00  0.00     0.122 H 
ATOM      8  H10 MOL d   1     -13.660 -21.204   8.884  0.00  0.00     0.093 H 
ATOM      9  H12 MOL d   1     -12.838 -20.560  10.945  0.00  0.00     0.091 H 
ENDROOT
BRANCH   3  10
ATOM     10  N9  MOL d   1     -16.049 -22.214   8.786  0.00  0.00    -0.310 N 
ATOM     11  C8  MOL d   1     -16.221 -20.975   8.303  0.00  0.00     0.001 A 
ATOM     12  C7  MOL d   1     -17.316 -21.014   7.413  0.00  0.00     0.040 A 
ATOM     13  H6  MOL d   1     -15.625 -20.099   8.552  0.00  0.00     0.113 H 
ATOM     14  C5  MOL d   1     -17.825 -22.353   7.402  0.00  0.00     0.073 A 
ATOM     15  IAE MOL d   1     -18.070 -19.370   6.314  0.00  0.00    -0.042 I 
ATOM     16  C6  MOL d   1     -18.892 -23.047   6.734  0.00  0.00     0.138 A 
ATOM     17  C4  MOL d   1     -17.027 -23.076   8.275  0.00  0.00     0.148 A 
ATOM     18  N1  MOL d   1     -19.083 -24.343   6.976  0.00  0.00    -0.224 NA
ATOM     19  C2  MOL d   1     -18.279 -25.002   7.834  0.00  0.00     0.091 A 
ATOM     20  N3  MOL d   1     -17.274 -24.399   8.477  0.00  0.00    -0.223 NA
ATOM     21  H7  MOL d   1     -18.453 -26.058   8.009  0.00  0.00     0.146 H 
BRANCH  16  22
ATOM     22  N6  MOL d   1     -19.751 -22.339   5.809  0.00  0.00    -0.383 N 
ATOM     23  H8  MOL d   1     -20.515 -22.838   5.331  0.00  0.00     0.157 HD
ATOM     24  H9  MOL d   1     -19.598 -21.337   5.629  0.00  0.00     0.157 HD
ENDBRANCH  16  22
ENDBRANCH   3  10
BRANCH   4  25
ATOM     25  O2' MOL d   1     -12.824 -23.065   8.991  0.00  0.00    -0.388 OA
ATOM     26  H11 MOL d   1     -11.949 -22.719   8.857  0.00  0.00     0.210 HD
ENDBRANCH   4  25
BRANCH   1  27
ATOM     27  C5' MOL d   1     -14.722 -20.616  12.774  0.00  0.00     0.043 C 
ATOM     28  H2  MOL d   1     -13.880 -20.449  13.462  0.00  0.00     0.078 H 
ATOM     29  H3  MOL d   1     -14.878 -19.716  12.161  0.00  0.00     0.078 H 
BRANCH  27  30
ATOM     30  O5' MOL d   1     -15.901 -20.872  13.534  0.00  0.00    -0.398 OA
ATOM     31  H1  MOL d   1     -15.770 -21.646  14.068  0.00  0.00     0.209 HD
ENDBRANCH  27  30
ENDBRANCH   1  27
BRANCH   5  32
ATOM     32  O3' MOL d   1     -12.120 -22.451  11.441  0.00  0.00    -0.390 OA
ATOM     33  H13 MOL d   1     -11.386 -22.408  10.839  0.00  0.00     0.210 HD
ENDBRANCH   5  32
TORSDOF 6
