REMARK  6 active torsions:
REMARK  status: ('A' for Active; 'I' for Inactive)
REMARK    1  A    between atoms: C04_4  and  C02_3 
REMARK    2  A    between atoms: C06_5  and  C04_4 
REMARK    3  A    between atoms: C04_4  and  O05_13 
REMARK    4  A    between atoms: C07_6  and  C06_5 
REMARK    5  A    between atoms: C07_6  and  C09_7 
REMARK    6  A    between atoms: C12_9  and  O13_15 
ROOT
ATOM      1  C10 ENG d   1      35.031  77.402  64.235  0.00  0.00    -0.066 A 
ATOM      2  C15 ENG d   1      33.288  77.971  62.741  0.00  0.00     0.027 A 
ATOM      3  C09 ENG d   1      34.491  78.316  63.332  0.00  0.00     0.027 A 
ATOM      4  C11 ENG d   1      34.387  76.206  64.526  0.00  0.00    -0.050 A 
ATOM      5  C12 ENG d   1      33.167  75.917  63.911  0.00  0.00     0.067 A 
ATOM      6  C14 ENG d   1      32.598  76.799  63.002  0.00  0.00    -0.033 A 
ATOM      7 BR16 ENG d   1      32.462  79.188  61.477  0.00  0.00    -0.050 Br
ATOM      8  H1  ENG d   1      35.973  77.629  64.720  0.00  0.00     0.085 H 
ATOM      9  H5  ENG d   1      34.828  75.503  65.224  0.00  0.00     0.087 H 
ATOM     10  H6  ENG d   1      31.654  76.579  62.517  0.00  0.00     0.089 H 
ENDROOT
BRANCH   3  11
ATOM     11  C07 ENG d   1      35.228  79.577  63.017  0.00  0.00     0.163 C 
ATOM     12  O08 ENG d   1      35.779  79.678  61.929  0.00  0.00    -0.292 OA
BRANCH  11  13
ATOM     13  C06 ENG d   1      35.316  80.578  64.001  0.00  0.00     0.028 C 
ATOM     14  H3  ENG d   1      34.422  81.209  63.892  0.00  0.00     0.049 H 
ATOM     15  H4  ENG d   1      35.288  80.068  64.975  0.00  0.00     0.049 H 
BRANCH  13  16
ATOM     16  C04 ENG d   1      36.371  81.403  64.026  0.00  0.00     0.125 C 
ATOM     17  H2  ENG d   1      35.917  82.182  64.655  0.00  0.00     0.100 H 
BRANCH  16  18
ATOM     18  C02 ENG d   1      37.575  81.097  64.968  0.00  0.00     0.203 C 
ATOM     19  O01 ENG d   1      37.316  81.244  66.168  0.00  0.00    -0.646 OA
ATOM     20  O03 ENG d   1      38.646  80.710  64.460  0.00  0.00    -0.646 OA
ENDBRANCH  16  18
BRANCH  16  21
ATOM     21  O05 ENG d   1      36.567  82.173  62.920  0.00  0.00    -0.384 OA
ATOM     22  H7  ENG d   1      36.693  81.612  62.163  0.00  0.00     0.210 HD
ENDBRANCH  16  21
ENDBRANCH  13  16
ENDBRANCH  11  13
ENDBRANCH   3  11
BRANCH   5  23
ATOM     23  O13 ENG d   1      32.524  74.760  64.190  0.00  0.00    -0.361 OA
ATOM     24  H8  ENG d   1      33.029  74.263  64.823  0.00  0.00     0.217 HD
ENDBRANCH   5  23
TORSDOF 6
