REMARK  4 active torsions:
REMARK  status: ('A' for Active; 'I' for Inactive)
REMARK    1  A    between atoms: N10_32  and  C5_2 
REMARK    2  A    between atoms: C16_17  and  C22_10 
REMARK       I    between atoms: C22_10  and  N10_32 
REMARK    3  A    between atoms: C25_20  and  C26_11 
REMARK    4  A    between atoms: C19_21  and  C34_27 
ROOT
ATOM      1  C13 EOJ d   1       7.904   5.501   5.870  0.00  0.00     0.084 A 
ATOM      2  C15 EOJ d   1       7.988   5.721   3.471  0.00  0.00    -0.039 A 
ATOM      3  C17 EOJ d   1       9.481   7.003   4.866  0.00  0.00    -0.065 A 
ATOM      4  C20 EOJ d   1       5.897   3.698   5.677  0.00  0.00     0.183 A 
ATOM      5  C12 EOJ d   1       8.924   6.425   5.985  0.00  0.00    -0.052 A 
ATOM      6  C16 EOJ d   1       9.000   6.633   3.630  0.00  0.00     0.034 A 
ATOM      7  C14 EOJ d   1       7.455   5.163   4.609  0.00  0.00     0.072 A 
ATOM      8  C25 EOJ d   1       5.740   3.628   3.497  0.00  0.00     0.170 A 
ATOM      9  C19 EOJ d   1       6.411   4.090   6.950  0.00  0.00     0.079 A 
ATOM     10  N24 EOJ d   1       4.837   2.815   4.018  0.00  0.00    -0.128 NA
ATOM     11  N23 EOJ d   1       4.925   2.864   5.388  0.00  0.00    -0.127 NA
ATOM     12  N18 EOJ d   1       7.372   4.950   7.046  0.00  0.00    -0.248 NA
ATOM     13  N21 EOJ d   1       6.426   4.219   4.527  0.00  0.00    -0.273 N 
ATOM     14  H8  EOJ d   1       7.623   5.451   2.487  0.00  0.00     0.088 H 
ATOM     15  H9  EOJ d   1      10.279   7.731   4.956  0.00  0.00     0.085 H 
ATOM     16  H13 EOJ d   1       9.290   6.699   6.968  0.00  0.00     0.087 H 
ENDROOT
BRANCH   6  17
ATOM     17  C22 EOJ d   1       9.543   7.240   2.426  0.00  0.00     0.252 C 
ATOM     18  N10 EOJ d   1       9.671   8.589   2.638  0.00  0.00    -0.348 N 
ATOM     19  H26 EOJ d   1       9.429   8.968   3.531  0.00  0.00     0.163 HD
ATOM     20  O33 EOJ d   1       9.748   6.615   1.395  0.00  0.00    -0.268 OA
BRANCH  18  21
ATOM     21  C5  EOJ d   1      10.145   9.472   1.607  0.00  0.00     0.034 C 
ATOM     22  C4  EOJ d   1       9.029   9.664   0.603  0.00  0.00    -0.038 C 
ATOM     23  C3  EOJ d   1       9.433  10.635  -0.478  0.00  0.00    -0.051 C 
ATOM     24  H1  EOJ d   1       8.141  10.054   1.123  0.00  0.00     0.037 H 
ATOM     25  H2  EOJ d   1       8.788   8.694   0.143  0.00  0.00     0.037 H 
ATOM     26  C8  EOJ d   1       9.787  11.962   0.153  0.00  0.00    -0.058 C 
ATOM     27  C9  EOJ d   1      10.645  10.066  -1.177  0.00  0.00    -0.058 C 
ATOM     28  H22 EOJ d   1       8.610  10.770  -1.196  0.00  0.00     0.040 H 
ATOM     29  C7  EOJ d   1      10.927  11.778   1.131  0.00  0.00    -0.051 C 
ATOM     30  H6  EOJ d   1      10.090  12.670  -0.632  0.00  0.00     0.034 H 
ATOM     31  H7  EOJ d   1       8.910  12.358   0.685  0.00  0.00     0.034 H 
ATOM     32  C6  EOJ d   1      12.124  11.215   0.412  0.00  0.00    -0.058 C 
ATOM     33  C11 EOJ d   1      10.503  10.809   2.209  0.00  0.00    -0.038 C 
ATOM     34  H5  EOJ d   1      11.187  12.747   1.582  0.00  0.00     0.040 H 
ATOM     35  C2  EOJ d   1      11.779   9.879  -0.195  0.00  0.00    -0.051 C 
ATOM     36  H3  EOJ d   1      12.951  11.088   1.126  0.00  0.00     0.034 H 
ATOM     37  H4  EOJ d   1      12.430  11.909  -0.385  0.00  0.00     0.034 H 
ATOM     38  C1  EOJ d   1      11.354   8.925   0.898  0.00  0.00    -0.038 C 
ATOM     39  H21 EOJ d   1      12.657   9.472  -0.718  0.00  0.00     0.040 H 
ATOM     40  H19 EOJ d   1      11.108   7.949   0.456  0.00  0.00     0.037 H 
ATOM     41  H20 EOJ d   1      12.177   8.804   1.618  0.00  0.00     0.037 H 
ATOM     42  H17 EOJ d   1      11.330  10.675   2.921  0.00  0.00     0.037 H 
ATOM     43  H18 EOJ d   1       9.627  11.215   2.736  0.00  0.00     0.037 H 
ATOM     44  H15 EOJ d   1      10.385   9.093  -1.620  0.00  0.00     0.034 H 
ATOM     45  H16 EOJ d   1      10.963  10.757  -1.971  0.00  0.00     0.034 H 
ENDBRANCH  18  21
ENDBRANCH   6  17
BRANCH   8  46
ATOM     46  C26 EOJ d   1       5.963   3.674   2.055  0.00  0.00     0.034 A 
ATOM     47  C27 EOJ d   1       4.974   4.107   1.196  0.00  0.00    -0.068 A 
ATOM     48  C28 EOJ d   1       5.171   4.108  -0.169  0.00  0.00    -0.082 A 
ATOM     49  H12 EOJ d   1       4.029   4.451   1.600  0.00  0.00     0.085 H 
ATOM     50  C29 EOJ d   1       6.361   3.657  -0.696  0.00  0.00    -0.081 A 
ATOM     51  H10 EOJ d   1       4.388   4.464  -0.828  0.00  0.00     0.083 H 
ATOM     52  C30 EOJ d   1       7.352   3.207   0.146  0.00  0.00    -0.061 A 
ATOM     53  H11 EOJ d   1       6.516   3.657  -1.769  0.00  0.00     0.083 H 
ATOM     54  C31 EOJ d   1       7.147   3.220   1.511  0.00  0.00     0.048 A 
ATOM     55  H14 EOJ d   1       8.289   2.844  -0.261  0.00  0.00     0.086 H 
ATOM     56 CL3  EOJ d   1       8.464   2.636   2.488  0.00  0.00    -0.083 Cl
ENDBRANCH   8  46
BRANCH   9  57
ATOM     57  C34 EOJ d   1       5.806   3.467   8.171  0.00  0.00    -0.032 C 
ATOM     58  H23 EOJ d   1       6.301   3.864   9.069  0.00  0.00     0.035 H 
ATOM     59  H24 EOJ d   1       5.940   2.376   8.131  0.00  0.00     0.035 H 
ATOM     60  H25 EOJ d   1       4.732   3.703   8.210  0.00  0.00     0.035 H 
ENDBRANCH   9  57
TORSDOF 4
