REMARK  4 active torsions:
REMARK  status: ('A' for Active; 'I' for Inactive)
REMARK    1  A    between atoms: C1_14  and  C7_4 
REMARK       I    between atoms: C7_4  and  N8_23 
REMARK    2  A    between atoms: C16_15  and  C17_5 
REMARK    3  A    between atoms: N8_23  and  C24_9 
REMARK    4  A    between atoms: C11_17  and  C25_18 
ROOT
ATOM      1  C4  EOG d   1       9.375   6.410   6.872  0.00  0.00     0.084 A 
ATOM      2  C5  EOG d   1       8.994   6.068   5.593  0.00  0.00     0.072 A 
ATOM      3  C6  EOG d   1       9.632   6.573   4.485  0.00  0.00    -0.039 A 
ATOM      4  C2  EOG d   1      11.102   7.801   5.940  0.00  0.00    -0.065 A 
ATOM      5  C3  EOG d   1      10.442   7.278   7.029  0.00  0.00    -0.052 A 
ATOM      6  C1  EOG d   1      10.680   7.440   4.677  0.00  0.00     0.034 A 
ATOM      7  C16 EOG d   1       7.242   4.585   4.444  0.00  0.00     0.170 A 
ATOM      8  C12 EOG d   1       7.291   4.718   6.604  0.00  0.00     0.183 A 
ATOM      9  C11 EOG d   1       7.749   5.106   7.893  0.00  0.00     0.079 A 
ATOM     10  N15 EOG d   1       6.274   3.836   4.928  0.00  0.00    -0.128 NA
ATOM     11  N14 EOG d   1       6.293   3.920   6.292  0.00  0.00    -0.127 NA
ATOM     12  N10 EOG d   1       8.750   5.914   8.018  0.00  0.00    -0.248 NA
ATOM     13  N13 EOG d   1       7.922   5.173   5.487  0.00  0.00    -0.273 N 
ATOM     14  H1  EOG d   1       9.316   6.294   3.486  0.00  0.00     0.088 H 
ATOM     15  H9  EOG d   1      11.935   8.482   6.072  0.00  0.00     0.085 H 
ATOM     16  H10 EOG d   1      10.764   7.551   8.028  0.00  0.00     0.087 H 
ENDROOT
BRANCH   7  17
ATOM     17  C17 EOG d   1       7.522   4.591   3.029  0.00  0.00     0.034 A 
ATOM     18  C22 EOG d   1       8.686   4.034   2.532  0.00  0.00     0.048 A 
ATOM     19  C21 EOG d   1       8.935   3.991   1.181  0.00  0.00    -0.061 A 
ATOM     20 CL3  EOG d   1       9.907   3.390   3.566  0.00  0.00    -0.083 Cl
ATOM     21  C20 EOG d   1       8.001   4.495   0.308  0.00  0.00    -0.081 A 
ATOM     22  H3  EOG d   1       9.859   3.564   0.808  0.00  0.00     0.086 H 
ATOM     23  C19 EOG d   1       6.840   5.045   0.790  0.00  0.00    -0.082 A 
ATOM     24  H2  EOG d   1       8.181   4.458  -0.760  0.00  0.00     0.083 H 
ATOM     25  C18 EOG d   1       6.589   5.082   2.145  0.00  0.00    -0.068 A 
ATOM     26  H7  EOG d   1       6.113   5.455   0.098  0.00  0.00     0.083 H 
ATOM     27  H8  EOG d   1       5.658   5.497   2.514  0.00  0.00     0.085 H 
ENDBRANCH   7  17
BRANCH   9  28
ATOM     28  C25 EOG d   1       7.033   4.539   9.080  0.00  0.00    -0.032 C 
ATOM     29  H11 EOG d   1       7.492   4.923  10.003  0.00  0.00     0.035 H 
ATOM     30  H12 EOG d   1       7.107   3.442   9.063  0.00  0.00     0.035 H 
ATOM     31  H13 EOG d   1       5.974   4.836   9.046  0.00  0.00     0.035 H 
ENDBRANCH   9  28
BRANCH   6  32
ATOM     32  C7  EOG d   1      11.358   7.975   3.499  0.00  0.00     0.251 C 
ATOM     33  N8  EOG d   1      11.963   9.186   3.730  0.00  0.00    -0.361 N 
ATOM     34  H14 EOG d   1      11.916   9.612   4.633  0.00  0.00     0.162 HD
ATOM     35  O9  EOG d   1      11.326   7.369   2.439  0.00  0.00    -0.268 OA
BRANCH  33  36
ATOM     36  C24 EOG d   1      12.665   9.833   2.656  0.00  0.00    -0.018 C 
ATOM     37  H4  EOG d   1      13.085  10.785   3.013  0.00  0.00     0.056 H 
ATOM     38  H5  EOG d   1      11.968  10.028   1.827  0.00  0.00     0.056 H 
ATOM     39  H6  EOG d   1      13.479   9.182   2.305  0.00  0.00     0.056 H 
ENDBRANCH  33  36
ENDBRANCH   6  32
TORSDOF 4
