REMARK  8 active torsions:
REMARK  status: ('A' for Active; 'I' for Inactive)
REMARK    1  A    between atoms: C5_2  and  C11_18 
REMARK    2  A    between atoms: C8_4  and  C12_19 
REMARK    3  A    between atoms: C26_9  and  C28_10 
REMARK    4  A    between atoms: C26_9  and  C27_20 
REMARK    5  A    between atoms: C25_22  and  C26_9 
REMARK    6  A    between atoms: O24_29  and  C19_15 
REMARK       I    between atoms: C11_18  and  N29_27 
REMARK    7  A    between atoms: N29_27  and  C30_21 
REMARK    8  A    between atoms: C25_22  and  O24_29 
ROOT
ATOM      1  C4  EOS d   1      55.997   3.972  23.514  0.00  0.00    -0.039 A 
ATOM      2  C5  EOS d   1      57.097   4.754  23.768  0.00  0.00     0.034 A 
ATOM      3  C6  EOS d   1      57.578   4.969  25.042  0.00  0.00    -0.065 A 
ATOM      4  C8  EOS d   1      54.148   2.263  26.816  0.00  0.00     0.079 A 
ATOM      5  C17 EOS d   1      53.848   2.325  21.937  0.00  0.00     0.037 A 
ATOM      6  C20 EOS d   1      54.524   2.578  19.268  0.00  0.00    -0.049 A 
ATOM      7  C21 EOS d   1      55.335   1.854  20.098  0.00  0.00    -0.058 A 
ATOM      8  C22 EOS d   1      54.991   1.731  21.419  0.00  0.00     0.048 A 
ATOM      9  C1  EOS d   1      56.925   4.373  26.097  0.00  0.00    -0.052 A 
ATOM     10  C18 EOS d   1      53.023   3.047  21.091  0.00  0.00    -0.035 A 
ATOM     11  C2  EOS d   1      55.819   3.581  25.884  0.00  0.00     0.084 A 
ATOM     12  C3  EOS d   1      55.375   3.391  24.591  0.00  0.00     0.072 A 
ATOM     13  C19 EOS d   1      53.387   3.163  19.763  0.00  0.00     0.069 A 
ATOM     14  C16 EOS d   1      53.537   2.147  23.334  0.00  0.00     0.170 A 
ATOM     15  C9  EOS d   1      53.631   2.033  25.504  0.00  0.00     0.183 A 
ATOM     16  N15 EOS d   1      52.536   1.403  23.750  0.00  0.00    -0.128 NA
ATOM     17  N14 EOS d   1      52.586   1.335  25.113  0.00  0.00    -0.127 NA
ATOM     18  N7  EOS d   1      55.190   3.005  26.994  0.00  0.00    -0.248 NA
ATOM     19  N10 EOS d   1      54.252   2.579  24.426  0.00  0.00    -0.273 N 
ATOM     20 CL3  EOS d   1      56.069   0.793  22.370  0.00  0.00    -0.083 Cl
ATOM     21  H1  EOS d   1      55.635   3.820  22.504  0.00  0.00     0.088 H 
ATOM     22  H2  EOS d   1      58.449   5.592  25.209  0.00  0.00     0.085 H 
ATOM     23  H3  EOS d   1      54.780   2.689  18.221  0.00  0.00     0.087 H 
ATOM     24  H4  EOS d   1      56.235   1.385  19.717  0.00  0.00     0.086 H 
ATOM     25  H9  EOS d   1      57.286   4.529  27.107  0.00  0.00     0.087 H 
ATOM     26  H10 EOS d   1      52.115   3.509  21.461  0.00  0.00     0.089 H 
ENDROOT
BRANCH  13  27
ATOM     27  O24 EOS d   1      52.644   3.873  18.834  0.00  0.00    -0.351 OA
BRANCH  27  28
ATOM     28  C25 EOS d   1      51.310   3.905  19.295  0.00  0.00     0.029 C 
ATOM     29  H20 EOS d   1      50.722   3.116  18.804  0.00  0.00     0.075 H 
ATOM     30  H21 EOS d   1      51.283   3.757  20.385  0.00  0.00     0.075 H 
BRANCH  28  31
ATOM     31  C26 EOS d   1      50.755   5.259  18.943  0.00  0.00    -0.040 C 
ATOM     32  H5  EOS d   1      50.617   5.327  17.854  0.00  0.00     0.042 H 
BRANCH  31  33
ATOM     33  C28 EOS d   1      49.424   5.442  19.631  0.00  0.00    -0.071 C 
ATOM     34  H6  EOS d   1      49.013   6.430  19.378  0.00  0.00     0.028 H 
ATOM     35  H7  EOS d   1      49.561   5.370  20.720  0.00  0.00     0.028 H 
ATOM     36  H8  EOS d   1      48.728   4.659  19.297  0.00  0.00     0.028 H 
ENDBRANCH  31  33
BRANCH  31  37
ATOM     37  C27 EOS d   1      51.715   6.331  19.392  0.00  0.00    -0.071 C 
ATOM     38  H14 EOS d   1      52.682   6.192  18.887  0.00  0.00     0.028 H 
ATOM     39  H15 EOS d   1      51.857   6.264  20.481  0.00  0.00     0.028 H 
ATOM     40  H16 EOS d   1      51.307   7.320  19.136  0.00  0.00     0.028 H 
ENDBRANCH  31  37
ENDBRANCH  28  31
ENDBRANCH  27  28
ENDBRANCH  13  27
BRANCH   4  41
ATOM     41  C12 EOS d   1      53.457   1.630  27.982  0.00  0.00    -0.032 C 
ATOM     42  H11 EOS d   1      53.978   1.906  28.911  0.00  0.00     0.035 H 
ATOM     43  H12 EOS d   1      53.469   0.536  27.866  0.00  0.00     0.035 H 
ATOM     44  H13 EOS d   1      52.416   1.983  28.027  0.00  0.00     0.035 H 
ENDBRANCH   4  41
BRANCH   2  45
ATOM     45  C11 EOS d   1      57.756   5.390  22.628  0.00  0.00     0.251 C 
ATOM     46  N29 EOS d   1      58.326   6.584  22.973  0.00  0.00    -0.361 N 
ATOM     47  H22 EOS d   1      58.310   6.892  23.924  0.00  0.00     0.162 HD
ATOM     48  O13 EOS d   1      57.697   4.919  21.503  0.00  0.00    -0.268 OA
BRANCH  46  49
ATOM     49  C30 EOS d   1      58.950   7.397  21.958  0.00  0.00    -0.018 C 
ATOM     50  H17 EOS d   1      59.351   8.313  22.417  0.00  0.00     0.056 H 
ATOM     51  H18 EOS d   1      58.206   7.665  21.194  0.00  0.00     0.056 H 
ATOM     52  H19 EOS d   1      59.770   6.833  21.489  0.00  0.00     0.056 H 
ENDBRANCH  46  49
ENDBRANCH   2  45
TORSDOF 8
