REMARK  9 active torsions:
REMARK  status: ('A' for Active; 'I' for Inactive)
REMARK    1  A    between atoms: C5_2  and  C11_18 
REMARK    2  A    between atoms: C8_4  and  C12_29 
REMARK    3  A    between atoms: C17_5  and  C16_16 
REMARK    4  A    between atoms: C26_9  and  C28_10 
REMARK    5  A    between atoms: C26_9  and  C27_30 
REMARK    6  A    between atoms: C25_31  and  C26_9 
REMARK    7  A    between atoms: O24_38  and  C19_15 
REMARK       I    between atoms: C11_18  and  N29_36 
REMARK    8  A    between atoms: N29_36  and  C30_28 
REMARK    9  A    between atoms: C25_31  and  O24_38 
ROOT
ATOM      1  C4  EOY d   1       7.411   5.368   3.630  0.00  0.00    -0.039 A 
ATOM      2  C5  EOY d   1       8.482   6.192   3.876  0.00  0.00     0.034 A 
ATOM      3  C6  EOY d   1       8.879   6.547   5.145  0.00  0.00    -0.065 A 
ATOM      4  C8  EOY d   1       5.390   3.969   6.957  0.00  0.00     0.079 A 
ATOM      5  C1  EOY d   1       8.161   6.037   6.200  0.00  0.00    -0.052 A 
ATOM      6  C2  EOY d   1       7.083   5.204   5.998  0.00  0.00     0.084 A 
ATOM      7  C3  EOY d   1       6.725   4.873   4.708  0.00  0.00     0.072 A 
ATOM      8  C16 EOY d   1       4.984   3.461   3.450  0.00  0.00     0.170 A 
ATOM      9  C9  EOY d   1       4.965   3.590   5.642  0.00  0.00     0.183 A 
ATOM     10  N15 EOY d   1       3.969   2.752   3.915  0.00  0.00    -0.128 NA
ATOM     11  N14 EOY d   1       3.950   2.841   5.284  0.00  0.00    -0.127 NA
ATOM     12  N7  EOY d   1       6.411   4.736   7.129  0.00  0.00    -0.248 NA
ATOM     13  N10 EOY d   1       5.627   4.023   4.529  0.00  0.00    -0.273 N 
ATOM     14  H1  EOY d   1       7.118   5.118   2.617  0.00  0.00     0.088 H 
ATOM     15  H2  EOY d   1       9.726   7.204   5.306  0.00  0.00     0.085 H 
ATOM     16  H9  EOY d   1       8.449   6.296   7.212  0.00  0.00     0.087 H 
ENDROOT
BRANCH   2  17
ATOM     17  C11 EOY d   1       9.192   6.720   2.712  0.00  0.00     0.252 C 
ATOM     18  N29 EOY d   1       9.562   8.020   2.943  0.00  0.00    -0.348 N 
ATOM     19  H34 EOY d   1       9.340   8.443   3.822  0.00  0.00     0.163 HD
ATOM     20  O13 EOY d   1       9.316   6.077   1.677  0.00  0.00    -0.268 OA
BRANCH  18  21
ATOM     21  C30 EOY d   1      10.263   8.790   1.948  0.00  0.00     0.034 C 
ATOM     22  C39 EOY d   1       9.884  10.245   2.074  0.00  0.00    -0.038 C 
ATOM     23  C34 EOY d   1      10.616  11.072   1.048  0.00  0.00    -0.051 C 
ATOM     24  H17 EOY d   1       8.800  10.351   1.919  0.00  0.00     0.037 H 
ATOM     25  H18 EOY d   1      10.147  10.602   3.081  0.00  0.00     0.037 H 
ATOM     26  C33 EOY d   1      12.102  10.924   1.261  0.00  0.00    -0.058 C 
ATOM     27  C35 EOY d   1      10.260  10.575  -0.330  0.00  0.00    -0.058 C 
ATOM     28  H23 EOY d   1      10.329  12.129   1.148  0.00  0.00     0.040 H 
ATOM     29  C32 EOY d   1      12.498   9.475   1.128  0.00  0.00    -0.051 C 
ATOM     30  H11 EOY d   1      12.364  11.283   2.267  0.00  0.00     0.034 H 
ATOM     31  H12 EOY d   1      12.639  11.520   0.508  0.00  0.00     0.034 H 
ATOM     32  C38 EOY d   1      12.133   8.985  -0.251  0.00  0.00    -0.058 C 
ATOM     33  C31 EOY d   1      11.751   8.660   2.154  0.00  0.00    -0.038 C 
ATOM     34  H24 EOY d   1      13.582   9.370   1.286  0.00  0.00     0.040 H 
ATOM     35  C36 EOY d   1      10.647   9.125  -0.472  0.00  0.00    -0.051 C 
ATOM     36  H15 EOY d   1      12.418   7.927  -0.349  0.00  0.00     0.034 H 
ATOM     37  H16 EOY d   1      12.671   9.581  -1.003  0.00  0.00     0.034 H 
ATOM     38  C37 EOY d   1       9.912   8.310   0.563  0.00  0.00    -0.038 C 
ATOM     39  H25 EOY d   1      10.386   8.768  -1.479  0.00  0.00     0.040 H 
ATOM     40  H21 EOY d   1      10.197   7.252   0.462  0.00  0.00     0.037 H 
ATOM     41  H22 EOY d   1       8.828   8.415   0.406  0.00  0.00     0.037 H 
ATOM     42  H19 EOY d   1      12.010   9.020   3.161  0.00  0.00     0.037 H 
ATOM     43  H20 EOY d   1      12.039   7.603   2.057  0.00  0.00     0.037 H 
ATOM     44  H13 EOY d   1      10.798  11.171  -1.082  0.00  0.00     0.034 H 
ATOM     45  H14 EOY d   1       9.176  10.680  -0.486  0.00  0.00     0.034 H 
ENDBRANCH  18  21
ENDBRANCH   2  17
BRANCH   8  46
ATOM     46  C17 EOY d   1       5.315   3.450   2.024  0.00  0.00     0.037 A 
ATOM     47  C22 EOY d   1       6.474   2.848   1.560  0.00  0.00     0.048 A 
ATOM     48  C21 EOY d   1       6.773   2.803   0.216  0.00  0.00    -0.058 A 
ATOM     49 CL3  EOY d   1       7.641   2.124   2.618  0.00  0.00    -0.083 Cl
ATOM     50  C20 EOY d   1       5.910   3.348  -0.704  0.00  0.00    -0.049 A 
ATOM     51  H4  EOY d   1       7.693   2.336  -0.117  0.00  0.00     0.086 H 
ATOM     52  C19 EOY d   1       4.759   3.947  -0.255  0.00  0.00     0.069 A 
ATOM     53  H3  EOY d   1       6.134   3.306  -1.764  0.00  0.00     0.087 H 
ATOM     54  C18 EOY d   1       4.452   3.994   1.092  0.00  0.00    -0.035 A 
ATOM     55  H10 EOY d   1       3.530   4.460   1.419  0.00  0.00     0.089 H 
BRANCH  52  56
ATOM     56  O24 EOY d   1       3.915   4.472  -1.217  0.00  0.00    -0.351 OA
BRANCH  56  57
ATOM     57  C25 EOY d   1       3.487   5.737  -0.724  0.00  0.00     0.029 C 
ATOM     58  H32 EOY d   1       3.047   5.632   0.279  0.00  0.00     0.075 H 
ATOM     59  H33 EOY d   1       4.332   6.441  -0.682  0.00  0.00     0.075 H 
BRANCH  57  60
ATOM     60  C26 EOY d   1       2.449   6.214  -1.710  0.00  0.00    -0.040 C 
ATOM     61  H5  EOY d   1       2.938   6.440  -2.669  0.00  0.00     0.042 H 
BRANCH  60  62
ATOM     62  C28 EOY d   1       1.753   7.459  -1.216  0.00  0.00    -0.071 C 
ATOM     63  H6  EOY d   1       1.005   7.779  -1.956  0.00  0.00     0.028 H 
ATOM     64  H7  EOY d   1       2.493   8.260  -1.073  0.00  0.00     0.028 H 
ATOM     65  H8  EOY d   1       1.254   7.245  -0.259  0.00  0.00     0.028 H 
ENDBRANCH  60  62
BRANCH  60  66
ATOM     66  C27 EOY d   1       1.453   5.102  -1.907  0.00  0.00    -0.071 C 
ATOM     67  H29 EOY d   1       1.974   4.202  -2.267  0.00  0.00     0.028 H 
ATOM     68  H30 EOY d   1       0.701   5.411  -2.648  0.00  0.00     0.028 H 
ATOM     69  H31 EOY d   1       0.957   4.880  -0.951  0.00  0.00     0.028 H 
ENDBRANCH  60  66
ENDBRANCH  57  60
ENDBRANCH  56  57
ENDBRANCH  52  56
ENDBRANCH   8  46
BRANCH   4  70
ATOM     70  C12 EOY d   1       4.642   3.443   8.142  0.00  0.00    -0.032 C 
ATOM     71  H26 EOY d   1       5.098   3.830   9.065  0.00  0.00     0.035 H 
ATOM     72  H27 EOY d   1       4.685   2.344   8.145  0.00  0.00     0.035 H 
ATOM     73  H28 EOY d   1       3.593   3.768   8.087  0.00  0.00     0.035 H 
ENDBRANCH   4  70
TORSDOF 9
