REMARK  9 active torsions:
REMARK  status: ('A' for Active; 'I' for Inactive)
REMARK    1  A    between atoms: C11_20  and  C5_2 
REMARK    2  A    between atoms: C8_4  and  C27_21 
REMARK    3  A    between atoms: C14_18  and  C15_6 
REMARK    4  A    between atoms: C17_7  and  O25_29 
REMARK    5  A    between atoms: C24_9  and  C28_11 
REMARK    6  A    between atoms: N23_27  and  C24_9 
REMARK    7  A    between atoms: O25_29  and  C26_10 
REMARK    8  A    between atoms: C28_11  and  C29_22 
REMARK    9  A    between atoms: C28_11  and  C30_23 
REMARK       I    between atoms: C11_20  and  N23_27 
ROOT
ATOM      1  C4  EP7 d   1       8.583   5.868   4.936  0.00  0.00    -0.039 A 
ATOM      2  C5  EP7 d   1       9.634   6.740   5.075  0.00  0.00     0.034 A 
ATOM      3  C6  EP7 d   1      10.056   7.157   6.316  0.00  0.00    -0.065 A 
ATOM      4  C8  EP7 d   1       6.717   4.549   8.398  0.00  0.00     0.079 A 
ATOM      5  N12 EP7 d   1       5.269   3.308   6.807  0.00  0.00    -0.127 NA
ATOM      6  C1  EP7 d   1       9.405   6.685   7.433  0.00  0.00    -0.052 A 
ATOM      7  C2  EP7 d   1       8.349   5.808   7.335  0.00  0.00     0.084 A 
ATOM      8  C3  EP7 d   1       7.956   5.416   6.069  0.00  0.00     0.072 A 
ATOM      9  C14 EP7 d   1       6.245   3.896   4.948  0.00  0.00     0.170 A 
ATOM     10  C9  EP7 d   1       6.265   4.109   7.116  0.00  0.00     0.183 A 
ATOM     11  N13 EP7 d   1       5.269   3.170   5.445  0.00  0.00    -0.128 NA
ATOM     12  N7  EP7 d   1       7.719   5.361   8.507  0.00  0.00    -0.248 NA
ATOM     13  N10 EP7 d   1       6.891   4.524   5.985  0.00  0.00    -0.273 N 
ATOM     14  H1  EP7 d   1       8.256   5.544   3.954  0.00  0.00     0.088 H 
ATOM     15  H2  EP7 d   1      10.887   7.846   6.413  0.00  0.00     0.085 H 
ATOM     16  H9  EP7 d   1       9.732   7.012   8.414  0.00  0.00     0.087 H 
ENDROOT
BRANCH   2  17
ATOM     17  C11 EP7 d   1      10.297   7.231   3.864  0.00  0.00     0.251 C 
ATOM     18  N23 EP7 d   1      10.726   8.528   3.995  0.00  0.00    -0.357 N 
ATOM     19  H22 EP7 d   1      10.575   9.027   4.848  0.00  0.00     0.162 HD
ATOM     20  O22 EP7 d   1      10.388   6.541   2.858  0.00  0.00    -0.268 OA
BRANCH  18  21
ATOM     21  C24 EP7 d   1      11.396   9.161   2.891  0.00  0.00    -0.002 C 
ATOM     22  H3  EP7 d   1      12.388   9.507   3.216  0.00  0.00     0.064 H 
ATOM     23  H4  EP7 d   1      11.511   8.437   2.071  0.00  0.00     0.064 H 
BRANCH  21  24
ATOM     24  C28 EP7 d   1      10.588  10.340   2.408  0.00  0.00    -0.046 C 
ATOM     25  H8  EP7 d   1      10.143  10.105   1.429  0.00  0.00     0.041 H 
BRANCH  24  26
ATOM     26  C29 EP7 d   1       9.493  10.641   3.401  0.00  0.00    -0.072 C 
ATOM     27  H16 EP7 d   1       8.904  11.501   3.048  0.00  0.00     0.028 H 
ATOM     28  H17 EP7 d   1       9.939  10.878   4.378  0.00  0.00     0.028 H 
ATOM     29  H18 EP7 d   1       8.837   9.764   3.501  0.00  0.00     0.028 H 
ENDBRANCH  24  26
BRANCH  24  30
ATOM     30  C30 EP7 d   1      11.489  11.545   2.279  0.00  0.00    -0.072 C 
ATOM     31  H19 EP7 d   1      12.289  11.329   1.555  0.00  0.00     0.028 H 
ATOM     32  H20 EP7 d   1      11.933  11.777   3.258  0.00  0.00     0.028 H 
ATOM     33  H21 EP7 d   1      10.901  12.407   1.929  0.00  0.00     0.028 H 
ENDBRANCH  24  30
ENDBRANCH  21  24
ENDBRANCH  18  21
ENDBRANCH   2  17
BRANCH   9  34
ATOM     34  C15 EP7 d   1       6.598   3.836   3.542  0.00  0.00     0.037 A 
ATOM     35  C20 EP7 d   1       7.782   3.213   3.183  0.00  0.00     0.048 A 
ATOM     36  C19 EP7 d   1       8.174   3.105   1.870  0.00  0.00    -0.058 A 
ATOM     37 CL1  EP7 d   1       8.878   2.541   4.352  0.00  0.00    -0.083 Cl
ATOM     38  C18 EP7 d   1       7.358   3.610   0.893  0.00  0.00    -0.049 A 
ATOM     39  H11 EP7 d   1       9.113   2.628   1.612  0.00  0.00     0.086 H 
ATOM     40  C17 EP7 d   1       6.177   4.218   1.240  0.00  0.00     0.069 A 
ATOM     41  H10 EP7 d   1       7.643   3.530  -0.150  0.00  0.00     0.087 H 
ATOM     42  C16 EP7 d   1       5.773   4.342   2.553  0.00  0.00    -0.035 A 
ATOM     43  H12 EP7 d   1       4.834   4.823   2.803  0.00  0.00     0.089 H 
BRANCH  40  44
ATOM     44  O25 EP7 d   1       5.418   4.695   0.196  0.00  0.00    -0.356 OA
BRANCH  44  45
ATOM     45  C26 EP7 d   1       4.148   5.003   0.753  0.00  0.00     0.010 C 
ATOM     46  H5  EP7 d   1       3.487   5.393  -0.035  0.00  0.00     0.066 H 
ATOM     47  H6  EP7 d   1       4.267   5.762   1.540  0.00  0.00     0.066 H 
ATOM     48  H7  EP7 d   1       3.707   4.093   1.185  0.00  0.00     0.066 H 
ENDBRANCH  44  45
ENDBRANCH  40  44
ENDBRANCH   9  34
BRANCH   4  49
ATOM     49  C27 EP7 d   1       5.988   4.018   9.592  0.00  0.00    -0.032 C 
ATOM     50  H13 EP7 d   1       6.434   4.433  10.508  0.00  0.00     0.035 H 
ATOM     51  H14 EP7 d   1       6.065   2.921   9.611  0.00  0.00     0.035 H 
ATOM     52  H15 EP7 d   1       4.929   4.310   9.535  0.00  0.00     0.035 H 
ENDBRANCH   4  49
TORSDOF 9
