REMARK  12 active torsions:
REMARK  status: ('A' for Active; 'I' for Inactive)
REMARK    1  A    between atoms: C5_2  and  C11_18 
REMARK    2  A    between atoms: C8_4  and  C12_19 
REMARK    3  A    between atoms: C18_13  and  C17_5 
REMARK    4  A    between atoms: O29_32  and  C20_6 
REMARK    5  A    between atoms: C26_9  and  C28_10 
REMARK    6  A    between atoms: C26_9  and  C27_20 
REMARK    7  A    between atoms: C25_24  and  C26_9 
REMARK       I    between atoms: C11_18  and  N13_30 
REMARK    8  A    between atoms: C30_25  and  C31_21 
REMARK    9  A    between atoms: C30_25  and  C32_22 
REMARK   10  A    between atoms: C30_25  and  C33_23 
REMARK   11  A    between atoms: N13_30  and  C25_24 
REMARK   12  A    between atoms: C30_25  and  O29_32 
ROOT
ATOM      1  C4  EPV d   1       8.874   6.570   4.475  0.00  0.00    -0.039 A 
ATOM      2  C5  EPV d   1       9.929   7.405   4.763  0.00  0.00     0.034 A 
ATOM      3  C6  EPV d   1      10.471   7.489   6.025  0.00  0.00    -0.065 A 
ATOM      4  C8  EPV d   1       7.350   4.279   7.623  0.00  0.00     0.079 A 
ATOM      5  C17 EPV d   1       6.517   4.564   4.199  0.00  0.00     0.170 A 
ATOM      6  C1  EPV d   1       9.933   6.702   7.029  0.00  0.00    -0.052 A 
ATOM      7  C2  EPV d   1       8.868   5.855   6.779  0.00  0.00     0.084 A 
ATOM      8  C3  EPV d   1       8.356   5.801   5.492  0.00  0.00     0.072 A 
ATOM      9  C9  EPV d   1       6.788   4.178   6.321  0.00  0.00     0.183 A 
ATOM     10  N16 EPV d   1       5.638   3.672   4.595  0.00  0.00    -0.128 NA
ATOM     11  N15 EPV d   1       5.786   3.421   5.927  0.00  0.00    -0.127 NA
ATOM     12  N7  EPV d   1       8.346   5.081   7.831  0.00  0.00    -0.248 NA
ATOM     13  N10 EPV d   1       7.281   4.921   5.280  0.00  0.00    -0.273 N 
ATOM     14  H1  EPV d   1       8.462   6.519   3.474  0.00  0.00     0.088 H 
ATOM     15  H2  EPV d   1      11.301   8.156   6.229  0.00  0.00     0.085 H 
ATOM     16  H9  EPV d   1      10.353   6.750   8.027  0.00  0.00     0.087 H 
ENDROOT
BRANCH   5  17
ATOM     17  C18 EPV d   1       6.545   4.944   2.798  0.00  0.00     0.037 A 
ATOM     18  C19 EPV d   1       5.914   6.101   2.392  0.00  0.00    -0.035 A 
ATOM     19  C20 EPV d   1       5.880   6.436   1.052  0.00  0.00     0.070 A 
ATOM     20  H10 EPV d   1       5.445   6.748   3.124  0.00  0.00     0.089 H 
ATOM     21  C21 EPV d   1       6.457   5.624   0.097  0.00  0.00    -0.049 A 
ATOM     22  C22 EPV d   1       7.077   4.462   0.502  0.00  0.00    -0.058 A 
ATOM     23  H3  EPV d   1       6.423   5.895  -0.952  0.00  0.00     0.087 H 
ATOM     24  C23 EPV d   1       7.130   4.131   1.847  0.00  0.00     0.048 A 
ATOM     25  H4  EPV d   1       7.525   3.804  -0.234  0.00  0.00     0.086 H 
ATOM     26 CL4  EPV d   1       7.922   2.667   2.339  0.00  0.00    -0.083 Cl
BRANCH  19  27
ATOM     27  O29 EPV d   1       5.269   7.624   0.688  0.00  0.00    -0.341 OA
BRANCH  27  28
ATOM     28  C30 EPV d   1       3.993   7.488   0.045  0.00  0.00     0.057 C 
BRANCH  28  29
ATOM     29  C31 EPV d   1       3.376   6.128   0.226  0.00  0.00    -0.048 C 
ATOM     30  H17 EPV d   1       2.405   6.094  -0.290  0.00  0.00     0.031 H 
ATOM     31  H18 EPV d   1       3.228   5.932   1.298  0.00  0.00     0.031 H 
ATOM     32  H19 EPV d   1       4.043   5.363  -0.198  0.00  0.00     0.031 H 
ENDBRANCH  28  29
BRANCH  28  33
ATOM     33  C32 EPV d   1       3.103   8.538   0.638  0.00  0.00    -0.048 C 
ATOM     34  H20 EPV d   1       3.562   9.528   0.501  0.00  0.00     0.031 H 
ATOM     35  H21 EPV d   1       2.969   8.341   1.712  0.00  0.00     0.031 H 
ATOM     36  H22 EPV d   1       2.124   8.515   0.136  0.00  0.00     0.031 H 
ENDBRANCH  28  33
BRANCH  28  37
ATOM     37  C33 EPV d   1       4.145   7.795  -1.419  0.00  0.00    -0.048 C 
ATOM     38  H23 EPV d   1       4.795   7.040  -1.886  0.00  0.00     0.031 H 
ATOM     39  H24 EPV d   1       4.595   8.792  -1.540  0.00  0.00     0.031 H 
ATOM     40  H25 EPV d   1       3.157   7.777  -1.902  0.00  0.00     0.031 H 
ENDBRANCH  28  37
ENDBRANCH  27  28
ENDBRANCH  19  27
ENDBRANCH   5  17
BRANCH   4  41
ATOM     41  C12 EPV d   1       6.744   3.428   8.700  0.00  0.00    -0.032 C 
ATOM     42  H11 EPV d   1       7.272   3.606   9.648  0.00  0.00     0.035 H 
ATOM     43  H12 EPV d   1       6.834   2.367   8.423  0.00  0.00     0.035 H 
ATOM     44  H13 EPV d   1       5.682   3.688   8.818  0.00  0.00     0.035 H 
ENDBRANCH   4  41
BRANCH   2  45
ATOM     45  C11 EPV d   1      10.443   8.232   3.670  0.00  0.00     0.251 C 
ATOM     46  N13 EPV d   1      10.732   9.506   4.072  0.00  0.00    -0.357 N 
ATOM     47  H28 EPV d   1      10.614   9.783   5.026  0.00  0.00     0.162 HD
ATOM     48  O14 EPV d   1      10.548   7.822   2.526  0.00  0.00    -0.268 OA
BRANCH  46  49
ATOM     49  C25 EPV d   1      11.211  10.439   3.085  0.00  0.00    -0.002 C 
ATOM     50  H26 EPV d   1      10.886  10.096   2.092  0.00  0.00     0.064 H 
ATOM     51  H27 EPV d   1      10.772  11.426   3.294  0.00  0.00     0.064 H 
BRANCH  49  52
ATOM     52  C26 EPV d   1      12.719  10.574   3.079  0.00  0.00    -0.046 C 
ATOM     53  H5  EPV d   1      13.190   9.587   2.963  0.00  0.00     0.041 H 
BRANCH  52  54
ATOM     54  C28 EPV d   1      13.171  11.215   4.370  0.00  0.00    -0.072 C 
ATOM     55  H6  EPV d   1      14.267  11.313   4.367  0.00  0.00     0.028 H 
ATOM     56  H7  EPV d   1      12.862  10.587   5.219  0.00  0.00     0.028 H 
ATOM     57  H8  EPV d   1      12.714  12.211   4.465  0.00  0.00     0.028 H 
ENDBRANCH  52  54
BRANCH  52  58
ATOM     58  C27 EPV d   1      13.094  11.475   1.927  0.00  0.00    -0.072 C 
ATOM     59  H14 EPV d   1      12.769  11.016   0.982  0.00  0.00     0.028 H 
ATOM     60  H15 EPV d   1      14.185  11.614   1.911  0.00  0.00     0.028 H 
ATOM     61  H16 EPV d   1      12.602  12.451   2.049  0.00  0.00     0.028 H 
ENDBRANCH  52  58
ENDBRANCH  49  52
ENDBRANCH  46  49
ENDBRANCH   2  45
TORSDOF 12
