REMARK  10 active torsions:
REMARK  status: ('A' for Active; 'I' for Inactive)
REMARK    1  A    between atoms: C3_2  and  C2_1 
REMARK    2  A    between atoms: C4_3  and  O_26 
REMARK    3  A    between atoms: O_26  and  C5_4 
REMARK    4  A    between atoms: C11_24  and  N1_5 
REMARK    5  A    between atoms: N1_5  and  C12_27 
REMARK    6  A    between atoms: C1_6  and  C_17 
REMARK    7  A    between atoms: N3_13  and  C18_28 
REMARK    8  A    between atoms: C22_15  and  C23_14 
REMARK    9  A    between atoms: C19_21  and  C20_22 
REMARK   10  A    between atoms: C14_29  and  C15_31 
ROOT
ATOM      1  C3  EO4 d   1      -1.171   3.850  20.674  0.00  0.00     0.014 A 
ATOM      2  C4  EO4 d   1      -1.793   4.916  21.366  0.00  0.00     0.080 A 
ATOM      3  C6  EO4 d   1      -1.102   5.633  22.340  0.00  0.00    -0.037 A 
ATOM      4  C7  EO4 d   1       0.223   5.324  22.628  0.00  0.00     0.011 A 
ATOM      5  C8  EO4 d   1       0.848   4.287  21.914  0.00  0.00     0.046 A 
ATOM      6  C9  EO4 d   1       2.362   4.993  23.394  0.00  0.00     0.145 A 
ATOM      7  C21 EO4 d   1       0.165   3.553  20.967  0.00  0.00    -0.043 A 
ATOM      8  N   EO4 d   1       2.140   4.128  22.375  0.00  0.00    -0.339 N 
ATOM      9  N5  EO4 d   1       3.448   5.055  24.175  0.00  0.00    -0.215 NA
ATOM     10  C19 EO4 d   1       3.366   5.912  25.199  0.00  0.00     0.127 A 
ATOM     11  N4  EO4 d   1       2.321   6.700  25.466  0.00  0.00    -0.215 NA
ATOM     12  C11 EO4 d   1       1.234   6.665  24.686  0.00  0.00     0.146 A 
ATOM     13  C10 EO4 d   1       1.186   5.784  23.594  0.00  0.00     0.069 A 
ATOM     14  H5  EO4 d   1      -1.599   6.434  22.875  0.00  0.00     0.089 H 
ATOM     15  H12 EO4 d   1       0.665   2.743  20.448  0.00  0.00     0.088 H 
ATOM     16  H13 EO4 d   1       2.827   3.457  22.003  0.00  0.00     0.167 HD
ENDROOT
BRANCH  12  17
ATOM     17  N1  EO4 d   1       0.271   7.646  24.905  0.00  0.00    -0.325 N 
ATOM     18  H4  EO4 d   1       0.099   7.864  25.897  0.00  0.00     0.169 HD
BRANCH  17  19
ATOM     19  C12 EO4 d   1      -0.484   8.368  24.024  0.00  0.00     0.127 A 
ATOM     20  N3  EO4 d   1      -1.853   8.578  24.300  0.00  0.00    -0.258 N 
ATOM     21  N2  EO4 d   1      -2.468   9.221  23.267  0.00  0.00    -0.175 NA
ATOM     22  C14 EO4 d   1      -1.544   9.411  22.329  0.00  0.00     0.070 A 
ATOM     23  C13 EO4 d   1      -0.291   8.872  22.772  0.00  0.00    -0.013 A 
ATOM     24  H20 EO4 d   1       0.643   8.866  22.212  0.00  0.00     0.092 H 
BRANCH  20  25
ATOM     25  C18 EO4 d   1      -2.642   8.148  25.448  0.00  0.00     0.004 C 
ATOM     26  H17 EO4 d   1      -1.986   7.651  26.178  0.00  0.00     0.059 H 
ATOM     27  H18 EO4 d   1      -3.420   7.445  25.116  0.00  0.00     0.059 H 
ATOM     28  H19 EO4 d   1      -3.115   9.024  25.917  0.00  0.00     0.059 H 
ENDBRANCH  20  25
BRANCH  22  29
ATOM     29  C15 EO4 d   1      -1.724  10.071  21.006  0.00  0.00     0.022 A 
ATOM     30  C17 EO4 d   1      -2.700  11.200  20.824  0.00  0.00    -0.093 A 
ATOM     31  C16 EO4 d   1      -3.000   9.883  20.237  0.00  0.00    -0.093 A 
ATOM     32  H22 EO4 d   1      -2.981  12.238  20.999  0.00  0.00     0.078 H 
ATOM     33  H23 EO4 d   1      -3.665   9.240  19.662  0.00  0.00     0.078 H 
ATOM     34  H21 EO4 d   1      -0.759  10.092  20.478  0.00  0.00     0.062 H 
ENDBRANCH  22  29
ENDBRANCH  17  19
ENDBRANCH  12  17
BRANCH  10  35
ATOM     35  C20 EO4 d   1       4.525   5.976  26.136  0.00  0.00    -0.019 C 
ATOM     36  H14 EO4 d   1       5.308   5.281  25.799  0.00  0.00     0.037 H 
ATOM     37  H15 EO4 d   1       4.195   5.694  27.147  0.00  0.00     0.037 H 
ATOM     38  H16 EO4 d   1       4.926   7.000  26.154  0.00  0.00     0.037 H 
ENDBRANCH  10  35
BRANCH   2  39
ATOM     39  O   EO4 d   1      -3.095   5.166  21.016  0.00  0.00    -0.355 OA
BRANCH  39  40
ATOM     40  C5  EO4 d   1      -3.843   6.106  21.797  0.00  0.00     0.010 C 
ATOM     41  H1  EO4 d   1      -4.861   6.193  21.390  0.00  0.00     0.066 H 
ATOM     42  H2  EO4 d   1      -3.349   7.088  21.761  0.00  0.00     0.066 H 
ATOM     43  H3  EO4 d   1      -3.894   5.758  22.839  0.00  0.00     0.066 H 
ENDBRANCH  39  40
ENDBRANCH   2  39
BRANCH   1  44
ATOM     44  C2  EO4 d   1      -1.908   3.025  19.688  0.00  0.00     0.035 A 
ATOM     45  C1  EO4 d   1      -1.602   2.785  18.385  0.00  0.00     0.088 A 
ATOM     46  O1  EO4 d   1      -2.545   1.998  17.828  0.00  0.00    -0.217 OA
ATOM     47  N6  EO4 d   1      -3.528   1.698  18.802  0.00  0.00    -0.133 NA
ATOM     48  C22 EO4 d   1      -3.149   2.293  19.894  0.00  0.00     0.072 A 
BRANCH  45  49
ATOM     49  C   EO4 d   1      -0.498   3.212  17.492  0.00  0.00    -0.028 C 
ATOM     50  H9  EO4 d   1      -0.645   2.776  16.493  0.00  0.00     0.036 H 
ATOM     51  H10 EO4 d   1       0.462   2.868  17.905  0.00  0.00     0.036 H 
ATOM     52  H11 EO4 d   1      -0.492   4.309  17.416  0.00  0.00     0.036 H 
ENDBRANCH  45  49
BRANCH  48  53
ATOM     53  C23 EO4 d   1      -3.953   2.134  21.141  0.00  0.00    -0.033 C 
ATOM     54  H6  EO4 d   1      -4.836   1.512  20.931  0.00  0.00     0.035 H 
ATOM     55  H7  EO4 d   1      -4.277   3.123  21.497  0.00  0.00     0.035 H 
ATOM     56  H8  EO4 d   1      -3.339   1.649  21.914  0.00  0.00     0.035 H 
ENDBRANCH  48  53
ENDBRANCH   1  44
TORSDOF 10
