REMARK  8 active torsions:
REMARK  status: ('A' for Active; 'I' for Inactive)
REMARK    1  A    between atoms: C09_14  and  C10_1 
REMARK    2  A    between atoms: C10_1  and  C12_15 
REMARK    3  A    between atoms: C13_2  and  C15_3 
REMARK    4  A    between atoms: C12_15  and  C13_2 
REMARK    5  A    between atoms: C13_2  and  C14_16 
REMARK    6  A    between atoms: N19_22  and  C20_4 
REMARK    7  A    between atoms: C05_11  and  N28_23 
REMARK    8  A    between atoms: C16_17  and  N19_22 
ROOT
ATOM      1  C02 EQ7 d   1       2.610 -20.454 -12.269  0.00  0.00     0.061 A 
ATOM      2  C03 EQ7 d   1       1.836 -21.588 -12.495  0.00  0.00    -0.057 A 
ATOM      3  C04 EQ7 d   1       0.445 -21.483 -12.270  0.00  0.00    -0.048 A 
ATOM      4  C05 EQ7 d   1      -0.158 -20.295 -11.826  0.00  0.00     0.119 A 
ATOM      5  C06 EQ7 d   1       0.627 -19.144 -11.596  0.00  0.00     0.076 A 
ATOM      6  C07 EQ7 d   1       0.037 -17.820 -11.117  0.00  0.00     0.204 A 
ATOM      7  C09 EQ7 d   1       0.946 -16.672 -10.902  0.00  0.00     0.105 A 
ATOM      8  C16 EQ7 d   1       2.394 -16.871 -11.147  0.00  0.00     0.124 A 
ATOM      9  C18 EQ7 d   1       2.006 -19.284 -11.825  0.00  0.00     0.072 A 
ATOM     10  N17 EQ7 d   1       2.917 -18.125 -11.597  0.00  0.00    -0.339 N 
ATOM     11  O08 EQ7 d   1      -1.127 -17.714 -10.931  0.00  0.00    -0.286 OA
ATOM     12 CL01 EQ7 d   1       4.358 -20.480 -12.550  0.00  0.00    -0.082 Cl
ATOM     13  H7  EQ7 d   1       2.283 -22.517 -12.831  0.00  0.00     0.086 H 
ATOM     14  H8  EQ7 d   1      -0.179 -22.351 -12.447  0.00  0.00     0.087 H 
ATOM     15  H15 EQ7 d   1       3.928 -18.228 -11.764  0.00  0.00     0.167 HD
ENDROOT
BRANCH   7  16
ATOM     16  C10 EQ7 d   1       0.486 -15.308 -10.386  0.00  0.00     0.167 C 
ATOM     17  O11 EQ7 d   1       1.251 -14.402 -10.347  0.00  0.00    -0.292 OA
BRANCH  16  18
ATOM     18  C12 EQ7 d   1      -0.909 -15.075  -9.819  0.00  0.00    -0.002 C 
ATOM     19  H9  EQ7 d   1      -1.657 -15.482 -10.515  0.00  0.00     0.045 H 
ATOM     20  H10 EQ7 d   1      -1.075 -13.995  -9.693  0.00  0.00     0.045 H 
BRANCH  18  21
ATOM     21  C13 EQ7 d   1      -1.050 -15.769  -8.463  0.00  0.00    -0.054 C 
ATOM     22  H1  EQ7 d   1      -0.866 -16.847  -8.584  0.00  0.00     0.039 H 
BRANCH  21  23
ATOM     23  C15 EQ7 d   1      -0.050 -15.196  -7.457  0.00  0.00    -0.073 C 
ATOM     24  H2  EQ7 d   1      -0.168 -15.708  -6.491  0.00  0.00     0.028 H 
ATOM     25  H3  EQ7 d   1      -0.236 -14.120  -7.327  0.00  0.00     0.028 H 
ATOM     26  H4  EQ7 d   1       0.974 -15.348  -7.830  0.00  0.00     0.028 H 
ENDBRANCH  21  23
BRANCH  21  27
ATOM     27  C14 EQ7 d   1      -2.469 -15.544  -7.946  0.00  0.00    -0.073 C 
ATOM     28  H11 EQ7 d   1      -2.586 -16.038  -6.970  0.00  0.00     0.028 H 
ATOM     29  H12 EQ7 d   1      -3.191 -15.967  -8.660  0.00  0.00     0.028 H 
ATOM     30  H13 EQ7 d   1      -2.652 -14.465  -7.835  0.00  0.00     0.028 H 
ENDBRANCH  21  27
ENDBRANCH  18  21
ENDBRANCH  16  18
ENDBRANCH   7  16
BRANCH   8  31
ATOM     31  N19 EQ7 d   1       3.305 -15.779 -10.930  0.00  0.00    -0.340 N 
ATOM     32  H16 EQ7 d   1       2.933 -14.905 -10.533  0.00  0.00     0.167 HD
BRANCH  31  33
ATOM     33  C20 EQ7 d   1       4.714 -15.844 -11.240  0.00  0.00     0.055 A 
ATOM     34  C21 EQ7 d   1       5.489 -16.974 -11.439  0.00  0.00    -0.054 A 
ATOM     35  C22 EQ7 d   1       6.827 -16.870 -11.800  0.00  0.00    -0.060 A 
ATOM     36  H5  EQ7 d   1       5.045 -17.955 -11.311  0.00  0.00     0.087 H 
ATOM     37  C23 EQ7 d   1       7.353 -15.604 -11.992  0.00  0.00     0.035 A 
ATOM     38  H6  EQ7 d   1       7.441 -17.754 -11.928  0.00  0.00     0.086 H 
ATOM     39  C25 EQ7 d   1       6.590 -14.481 -11.840  0.00  0.00    -0.039 A 
ATOM     40 CL24 EQ7 d   1       9.041 -15.379 -12.470  0.00  0.00    -0.084 Cl
ATOM     41  C26 EQ7 d   1       5.268 -14.601 -11.482  0.00  0.00     0.062 A 
ATOM     42  H14 EQ7 d   1       7.024 -13.501 -12.001  0.00  0.00     0.088 H 
ATOM     43 CL27 EQ7 d   1       4.292 -13.147 -11.296  0.00  0.00    -0.082 Cl
ENDBRANCH  31  33
ENDBRANCH   8  31
BRANCH   4  44
ATOM     44  N28 EQ7 d   1      -1.592 -20.297 -11.619  0.00  0.00    -0.115 N 
ATOM     45  O29 EQ7 d   1      -2.031 -20.768 -10.641  0.00  0.00    -0.532 OA
ATOM     46  O30 EQ7 d   1      -2.306 -19.843 -12.439  0.00  0.00    -0.532 OA
ENDBRANCH   4  44
TORSDOF 8
