REMARK  18 active torsions:
REMARK  status: ('A' for Active; 'I' for Inactive)
REMARK    1  A    between atoms: C22_23  and  B01_1 
REMARK    2  A    between atoms: B01_1  and  O08_38 
REMARK    3  A    between atoms: B01_1  and  O09_39 
REMARK    4  A    between atoms: C01_2  and  C25_26 
REMARK    5  A    between atoms: N01_29  and  C01_2 
REMARK    6  A    between atoms: C02_3  and  C03_4 
REMARK    7  A    between atoms: N01_29  and  C02_3 
REMARK    8  A    between atoms: C03_4  and  C04_5 
REMARK    9  A    between atoms: C03_4  and  O05_35 
REMARK   10  A    between atoms: C04_5  and  C12_13 
REMARK   11  A    between atoms: C04_5  and  N02_30 
REMARK       I    between atoms: N02_30  and  C05_6 
REMARK   12  A    between atoms: C05_6  and  O02_32 
REMARK   13  A    between atoms: O02_32  and  C06_7 
REMARK   14  A    between atoms: C12_13  and  C13_14 
REMARK   15  A    between atoms: S01_40  and  C19_20 
REMARK   16  A    between atoms: C25_26  and  C26_27 
REMARK   17  A    between atoms: C25_26  and  C27_28 
REMARK   18  A    between atoms: N01_29  and  S01_40 
ROOT
ATOM      1  C03 BVR d   1     -15.550  19.041  -4.863  0.00  0.00     0.071 C 
ATOM      2  H5  BVR d   1     -15.838  19.485  -3.899  0.00  0.00     0.088 H 
ENDROOT
BRANCH   1   3
ATOM      3  C02 BVR d   1     -16.714  18.203  -5.375  0.00  0.00     0.031 C 
ATOM      4  H3  BVR d   1     -16.812  17.326  -4.718  0.00  0.00     0.069 H 
ATOM      5  H4  BVR d   1     -16.467  17.872  -6.394  0.00  0.00     0.069 H 
BRANCH   3   6
ATOM      6  N01 BVR d   1     -17.978  18.852  -5.424  0.00  0.00    -0.304 N 
BRANCH   6   7
ATOM      7  C01 BVR d   1     -18.860  18.567  -4.331  0.00  0.00     0.008 C 
ATOM      8  H1  BVR d   1     -19.872  18.856  -4.651  0.00  0.00     0.066 H 
ATOM      9  H2  BVR d   1     -18.825  17.480  -4.164  0.00  0.00     0.066 H 
BRANCH   7  10
ATOM     10  C25 BVR d   1     -18.612  19.231  -2.986  0.00  0.00    -0.045 C 
ATOM     11  H28 BVR d   1     -17.623  18.925  -2.616  0.00  0.00     0.041 H 
BRANCH  10  12
ATOM     12  C26 BVR d   1     -18.645  20.744  -3.114  0.00  0.00    -0.072 C 
ATOM     13  H29 BVR d   1     -18.463  21.199  -2.129  0.00  0.00     0.028 H 
ATOM     14  H30 BVR d   1     -19.631  21.059  -3.487  0.00  0.00     0.028 H 
ATOM     15  H31 BVR d   1     -17.865  21.070  -3.818  0.00  0.00     0.028 H 
ENDBRANCH  10  12
BRANCH  10  16
ATOM     16  C27 BVR d   1     -19.668  18.797  -1.999  0.00  0.00    -0.072 C 
ATOM     17  H32 BVR d   1     -19.650  17.701  -1.901  0.00  0.00     0.028 H 
ATOM     18  H33 BVR d   1     -20.658  19.117  -2.357  0.00  0.00     0.028 H 
ATOM     19  H34 BVR d   1     -19.466  19.256  -1.020  0.00  0.00     0.028 H 
ENDBRANCH  10  16
ENDBRANCH   7  10
ENDBRANCH   6   7
BRANCH   6  20
ATOM     20  S01 BVR d   1     -18.664  19.267  -6.873  0.00  0.00     0.260 S 
ATOM     21  O06 BVR d   1     -17.637  19.354  -7.843  0.00  0.00    -0.200 OA
ATOM     22  O07 BVR d   1     -19.493  20.387  -6.657  0.00  0.00    -0.200 OA
BRANCH  20  23
ATOM     23  C19 BVR d   1     -19.702  17.928  -7.330  0.00  0.00     0.079 A 
ATOM     24  C20 BVR d   1     -21.057  17.960  -7.026  0.00  0.00    -0.061 A 
ATOM     25  C21 BVR d   1     -21.920  16.948  -7.317  0.00  0.00    -0.081 A 
ATOM     26  H23 BVR d   1     -21.449  18.840  -6.529  0.00  0.00     0.085 H 
ATOM     27  C22 BVR d   1     -21.510  15.793  -7.935  0.00  0.00    -0.032 A 
ATOM     28  H24 BVR d   1     -22.965  17.058  -7.052  0.00  0.00     0.083 H 
ATOM     29  C23 BVR d   1     -20.123  15.695  -8.250  0.00  0.00    -0.081 A 
ATOM     30  C24 BVR d   1     -19.268  16.747  -7.948  0.00  0.00    -0.061 A 
ATOM     31  H26 BVR d   1     -19.736  14.800  -8.725  0.00  0.00     0.083 H 
ATOM     32  H27 BVR d   1     -18.218  16.651  -8.201  0.00  0.00     0.085 H 
BRANCH  27  33
ATOM     33  B01 BVR d   1     -22.522  14.695  -8.216  0.00  0.00     0.529 B 
BRANCH  33  34
ATOM     34  O08 BVR d   1     -23.842  14.769  -7.883  0.00  0.00    -0.433 OA
ATOM     35  H38 BVR d   1     -24.024  15.620  -7.503  0.00  0.00     0.185 HD
ENDBRANCH  33  34
BRANCH  33  36
ATOM     36  O09 BVR d   1     -22.045  13.588  -8.765  0.00  0.00    -0.433 OA
ATOM     37  H40 BVR d   1     -22.176  12.859  -8.170  0.00  0.00     0.185 HD
ENDBRANCH  33  36
ENDBRANCH  27  33
ENDBRANCH  20  23
ENDBRANCH   6  20
ENDBRANCH   3   6
ENDBRANCH   1   3
BRANCH   1  38
ATOM     38  C04 BVR d   1     -15.170  20.210  -5.850  0.00  0.00     0.044 C 
ATOM     39  H6  BVR d   1     -16.090  20.743  -6.133  0.00  0.00     0.077 H 
BRANCH  38  40
ATOM     40  C12 BVR d   1     -14.487  19.718  -7.150  0.00  0.00    -0.020 C 
ATOM     41  H16 BVR d   1     -15.189  19.076  -7.702  0.00  0.00     0.043 H 
ATOM     42  H17 BVR d   1     -13.591  19.138  -6.886  0.00  0.00     0.043 H 
BRANCH  40  43
ATOM     43  C13 BVR d   1     -14.093  20.840  -8.006  0.00  0.00    -0.056 A 
ATOM     44  C14 BVR d   1     -15.087  21.571  -8.683  0.00  0.00    -0.077 A 
ATOM     45  C15 BVR d   1     -14.752  22.672  -9.466  0.00  0.00    -0.082 A 
ATOM     46  H18 BVR d   1     -16.125  21.273  -8.594  0.00  0.00     0.084 H 
ATOM     47  C16 BVR d   1     -13.423  23.081  -9.604  0.00  0.00    -0.083 A 
ATOM     48  H19 BVR d   1     -15.535  23.221  -9.977  0.00  0.00     0.083 H 
ATOM     49  C17 BVR d   1     -12.420  22.371  -8.930  0.00  0.00    -0.082 A 
ATOM     50  H20 BVR d   1     -13.171  23.935 -10.223  0.00  0.00     0.083 H 
ATOM     51  C18 BVR d   1     -12.760  21.264  -8.141  0.00  0.00    -0.077 A 
ATOM     52  H21 BVR d   1     -11.384  22.677  -9.019  0.00  0.00     0.083 H 
ATOM     53  H22 BVR d   1     -11.977  20.722  -7.623  0.00  0.00     0.084 H 
ENDBRANCH  40  43
ENDBRANCH  38  40
BRANCH  38  54
ATOM     54  N02 BVR d   1     -14.332  21.083  -5.148  0.00  0.00    -0.329 N 
ATOM     55  C05 BVR d   1     -14.655  22.317  -4.730  0.00  0.00     0.361 C 
ATOM     56  O01 BVR d   1     -15.747  22.873  -4.843  0.00  0.00    -0.238 OA
ATOM     57  H35 BVR d   1     -13.409  20.759  -4.939  0.00  0.00     0.165 HD
BRANCH  55  58
ATOM     58  O02 BVR d   1     -13.617  22.985  -4.095  0.00  0.00    -0.296 OA
BRANCH  58  59
ATOM     59  C06 BVR d   1     -13.713  24.355  -3.765  0.00  0.00     0.078 C 
ATOM     60  C07 BVR d   1     -13.064  24.652  -2.419  0.00  0.00     0.048 C 
ATOM     61  O03 BVR d   1     -11.641  24.608  -2.658  0.00  0.00    -0.358 OA
ATOM     62  H8  BVR d   1     -13.353  23.893  -1.677  0.00  0.00     0.078 H 
ATOM     63  H9  BVR d   1     -13.363  25.648  -2.060  0.00  0.00     0.078 H 
ATOM     64  C08 BVR d   1     -11.397  25.143  -3.962  0.00  0.00     0.137 C 
ATOM     65  C09 BVR d   1     -12.765  25.150  -4.693  0.00  0.00     0.023 C 
ATOM     66  O04 BVR d   1     -10.519  24.255  -4.645  0.00  0.00    -0.361 OA
ATOM     67  H10 BVR d   1     -10.968  26.155  -3.907  0.00  0.00     0.129 H 
ATOM     68  C10 BVR d   1     -12.432  24.506  -6.034  0.00  0.00    -0.035 C 
ATOM     69  H11 BVR d   1     -13.158  26.166  -4.846  0.00  0.00     0.051 H 
ATOM     70  C11 BVR d   1     -11.188  23.656  -5.765  0.00  0.00     0.023 C 
ATOM     71  H12 BVR d   1     -12.219  25.276  -6.790  0.00  0.00     0.037 H 
ATOM     72  H13 BVR d   1     -13.265  23.875  -6.378  0.00  0.00     0.037 H 
ATOM     73  H14 BVR d   1     -10.529  23.657  -6.646  0.00  0.00     0.074 H 
ATOM     74  H15 BVR d   1     -11.479  22.622  -5.526  0.00  0.00     0.074 H 
ATOM     75  H7  BVR d   1     -14.757  24.698  -3.815  0.00  0.00     0.088 H 
ENDBRANCH  58  59
ENDBRANCH  55  58
ENDBRANCH  38  54
ENDBRANCH   1  38
BRANCH   1  76
ATOM     76  O05 BVR d   1     -14.435  18.197  -4.665  0.00  0.00    -0.392 OA
ATOM     77  H36 BVR d   1     -14.166  17.829  -5.498  0.00  0.00     0.210 HD
ENDBRANCH   1  76
TORSDOF 18
