REMARK  4 active torsions:
REMARK  status: ('A' for Active; 'I' for Inactive)
REMARK    1  A    between atoms: C5_18  and  C4_5 
REMARK    2  A    between atoms: C6_6  and  C7_7 
REMARK    3  A    between atoms: C7_7  and  C8_19 
REMARK    4  A    between atoms: C9_8  and  C10_13 
ROOT
ATOM      1  N1  ER7 d   1      20.473  12.065  22.995  0.00  0.00    -0.053 NA
ATOM      2  N2  ER7 d   1      19.821  10.478  21.635  0.00  0.00    -0.149 NA
ATOM      3  N3  ER7 d   1      18.702  11.011  22.286  0.00  0.00    -0.086 N 
ATOM      4  C6  ER7 d   1      16.365  11.441  22.992  0.00  0.00     0.068 A 
ATOM      5  C9  ER7 d   1      16.943  12.511  23.882  0.00  0.00     0.041 A 
ATOM      6  N   ER7 d   1      18.278  12.709  23.880  0.00  0.00    -0.070 NA
ATOM      7  C11 ER7 d   1      19.128  11.991  23.108  0.00  0.00     0.747 A 
ATOM      8  C12 ER7 d   1      20.899  11.144  22.099  0.00  0.00     0.125 A 
ATOM      9  C5  ER7 d   1      17.293  10.700  22.154  0.00  0.00     0.093 A 
ATOM     10  H2  ER7 d   1      16.473  10.713  23.810  0.00  0.00     0.065 H 
ATOM     11  H7  ER7 d   1      21.933  10.971  21.804  0.00  0.00     0.150 H 
ATOM     12  H10 ER7 d   1      17.157   9.629  22.366  0.00  0.00     0.086 H 
ENDROOT
BRANCH   9  13
ATOM     13  C4  ER7 d   1      16.935  10.998  20.699  0.00  0.00    -0.029 A 
ATOM     14  C13 ER7 d   1      16.586   9.979  19.798  0.00  0.00    -0.037 A 
ATOM     15  C   ER7 d   1      16.269  10.292  18.462  0.00  0.00     0.117 A 
ATOM     16  H8  ER7 d   1      16.561   8.948  20.132  0.00  0.00     0.089 H 
ATOM     17  C1  ER7 d   1      16.302  11.608  18.018  0.00  0.00    -0.046 A 
ATOM     18  F   ER7 d   1      15.937   9.317  17.606  0.00  0.00    -0.206 F 
ATOM     19  C2  ER7 d   1      16.649  12.627  18.904  0.00  0.00    -0.080 A 
ATOM     20  H3  ER7 d   1      16.059  11.841  16.988  0.00  0.00     0.088 H 
ATOM     21  C3  ER7 d   1      16.965  12.324  20.241  0.00  0.00    -0.075 A 
ATOM     22  H1  ER7 d   1      16.675  13.655  18.562  0.00  0.00     0.083 H 
ATOM     23  H9  ER7 d   1      17.234  13.122  20.924  0.00  0.00     0.084 H 
ENDBRANCH   9  13
BRANCH   4  24
ATOM     24  C7  ER7 d   1      14.895  11.071  22.866  0.00  0.00     0.135 C 
ATOM     25  O   ER7 d   1      14.650  10.030  22.275  0.00  0.00    -0.298 OA
BRANCH  24  26
ATOM     26  C8  ER7 d   1      13.779  11.910  23.430  0.00  0.00    -0.020 C 
ATOM     27  H11 ER7 d   1      12.813  11.432  23.209  0.00  0.00     0.037 H 
ATOM     28  H12 ER7 d   1      13.806  12.911  22.974  0.00  0.00     0.037 H 
ATOM     29  H13 ER7 d   1      13.902  12.000  24.519  0.00  0.00     0.037 H 
ENDBRANCH  24  26
ENDBRANCH   4  24
BRANCH   5  30
ATOM     30  C10 ER7 d   1      16.107  13.382  24.799  0.00  0.00    -0.037 C 
ATOM     31  H4  ER7 d   1      16.763  14.081  25.339  0.00  0.00     0.035 H 
ATOM     32  H5  ER7 d   1      15.573  12.747  25.521  0.00  0.00     0.035 H 
ATOM     33  H6  ER7 d   1      15.379  13.950  24.202  0.00  0.00     0.035 H 
ENDBRANCH   5  30
TORSDOF 4
