REMARK  5 active torsions:
REMARK  status: ('A' for Active; 'I' for Inactive)
REMARK    1  A    between atoms: C13_2  and  C14_12 
REMARK    2  A    between atoms: O02_26  and  C01_7 
REMARK    3  A    between atoms: C05_9  and  C03_8 
REMARK    4  A    between atoms: C03_8  and  O02_26 
REMARK    5  A    between atoms: C06_10  and  C22_18 
ROOT
ATOM      1  C10 EQY d   1      -8.155 -11.833 161.776  0.00  0.00     0.125 A 
ATOM      2  C13 EQY d   1      -4.537 -11.612 161.702  0.00  0.00     0.111 C 
ATOM      3  C05 EQY d   1      -3.743 -12.442 162.688  0.00  0.00     0.075 C 
ATOM      4  C06 EQY d   1      -4.314 -13.464 163.408  0.00  0.00     0.075 C 
ATOM      5  C08 EQY d   1      -6.496 -12.789 162.727  0.00  0.00     0.725 A 
ATOM      6  N07 EQY d   1      -5.689 -13.587 163.502  0.00  0.00    -0.187 N 
ATOM      7  N09 EQY d   1      -7.799 -12.769 162.651  0.00  0.00    -0.054 NA
ATOM      8  N11 EQY d   1      -7.074 -11.277 161.277  0.00  0.00    -0.149 NA
ATOM      9  N12 EQY d   1      -5.975 -11.857 161.891  0.00  0.00    -0.084 N 
ATOM     10  H1  EQY d   1      -9.179 -11.569 161.515  0.00  0.00     0.150 H 
ATOM     11  H2  EQY d   1      -4.316 -10.548 161.871  0.00  0.00     0.092 H 
ATOM     12  H13 EQY d   1      -6.105 -14.272 164.149  0.00  0.00     0.184 HD
ENDROOT
BRANCH   2  13
ATOM     13  C14 EQY d   1      -4.191 -11.981 160.255  0.00  0.00    -0.022 A 
ATOM     14  C15 EQY d   1      -4.270 -13.298 159.828  0.00  0.00    -0.037 A 
ATOM     15  C16 EQY d   1      -3.969 -13.622 158.501  0.00  0.00     0.119 A 
ATOM     16  H10 EQY d   1      -4.565 -14.076 160.523  0.00  0.00     0.089 H 
ATOM     17  C18 EQY d   1      -3.591 -12.634 157.614  0.00  0.00    -0.009 A 
ATOM     18  F17 EQY d   1      -4.033 -14.896 158.051  0.00  0.00    -0.206 F 
ATOM     19  C19 EQY d   1      -3.513 -11.328 158.034  0.00  0.00     0.119 A 
ATOM     20  H11 EQY d   1      -3.356 -12.888 156.587  0.00  0.00     0.092 H 
ATOM     21  C21 EQY d   1      -3.811 -11.003 159.357  0.00  0.00    -0.037 A 
ATOM     22  F20 EQY d   1      -3.137 -10.375 157.157  0.00  0.00    -0.206 F 
ATOM     23  H12 EQY d   1      -3.744  -9.972 159.684  0.00  0.00     0.089 H 
ENDBRANCH   2  13
BRANCH   3  24
ATOM     24  C03 EQY d   1      -2.348 -12.180 162.717  0.00  0.00     0.293 C 
ATOM     25  O04 EQY d   1      -1.932 -11.167 162.178  0.00  0.00    -0.259 OA
BRANCH  24  26
ATOM     26  O02 EQY d   1      -1.475 -13.025 163.294  0.00  0.00    -0.323 OA
BRANCH  26  27
ATOM     27  C01 EQY d   1      -0.078 -12.695 163.341  0.00  0.00     0.013 C 
ATOM     28  H7  EQY d   1       0.472 -13.502 163.847  0.00  0.00     0.067 H 
ATOM     29  H8  EQY d   1       0.058 -11.754 163.895  0.00  0.00     0.067 H 
ATOM     30  H9  EQY d   1       0.305 -12.576 162.317  0.00  0.00     0.067 H 
ENDBRANCH  26  27
ENDBRANCH  24  26
ENDBRANCH   3  24
BRANCH   4  31
ATOM     31  C22 EQY d   1      -3.631 -14.223 164.477  0.00  0.00     0.009 A 
ATOM     32  C23 EQY d   1      -3.598 -13.700 165.791  0.00  0.00    -0.068 A 
ATOM     33  C24 EQY d   1      -2.968 -14.445 166.774  0.00  0.00    -0.065 A 
ATOM     34  H3  EQY d   1      -4.053 -12.743 166.022  0.00  0.00     0.085 H 
ATOM     35  C25 EQY d   1      -2.411 -15.674 166.453  0.00  0.00     0.002 A 
ATOM     36  H6  EQY d   1      -2.910 -14.069 167.789  0.00  0.00     0.085 H 
ATOM     37  N26 EQY d   1      -2.472 -16.157 165.215  0.00  0.00    -0.272 NA
ATOM     38  H5  EQY d   1      -1.917 -16.252 167.226  0.00  0.00     0.114 H 
ATOM     39  C27 EQY d   1      -3.061 -15.484 164.238  0.00  0.00     0.014 A 
ATOM     40  H4  EQY d   1      -3.103 -15.911 163.243  0.00  0.00     0.116 H 
ENDBRANCH   4  31
TORSDOF 5
