REMARK  7 active torsions:
REMARK  status: ('A' for Active; 'I' for Inactive)
REMARK    1  A    between atoms: C6_6  and  N6_7 
REMARK    2  A    between atoms: C7_8  and  C10_12 
REMARK    3  A    between atoms: N9_10  and  C1'_11 
REMARK       I    between atoms: C10_12  and  N11_13 
REMARK    4  A    between atoms: C2'_15  and  O2'_16 
REMARK    5  A    between atoms: C3'_17  and  O3'_18 
REMARK    6  A    between atoms: C4'_19  and  C5'_21 
REMARK    7  A    between atoms: C5'_21  and  O5'_22 
ROOT
ATOM      1  N1  SGV d   1       5.082   0.301   6.762  0.00  0.00    -0.224 NA
ATOM      2  C2  SGV d   1       5.914  -0.345   7.587  0.00  0.00     0.091 A 
ATOM      3  N3  SGV d   1       6.941   0.254   8.187  0.00  0.00    -0.223 NA
ATOM      4  C4  SGV d   1       7.179   1.585   7.908  0.00  0.00     0.148 A 
ATOM      5  C5  SGV d   1       6.359   2.276   7.047  0.00  0.00     0.073 A 
ATOM      6  C6  SGV d   1       5.291   1.568   6.444  0.00  0.00     0.137 A 
ATOM      7  C7  SGV d   1       6.867   3.581   7.014  0.00  0.00     0.065 A 
ATOM      8  C8  SGV d   1       7.967   3.651   7.835  0.00  0.00     0.000 A 
ATOM      9  N9  SGV d   1       8.172   2.451   8.351  0.00  0.00    -0.310 N 
ATOM     10  H1  SGV d   1       5.745  -1.399   7.775  0.00  0.00     0.146 H 
ATOM     11  H4  SGV d   1       8.566   4.540   8.027  0.00  0.00     0.113 H 
ENDROOT
BRANCH   9  12
ATOM     12  C1' SGV d   1       9.150   2.106   9.391  0.00  0.00     0.138 C 
ATOM     13  C2' SGV d   1      10.585   2.587   9.191  0.00  0.00     0.105 C 
ATOM     14  C3' SGV d   1      10.992   3.140  10.603  0.00  0.00     0.091 C 
ATOM     15  H8  SGV d   1      10.624   3.396   8.447  0.00  0.00     0.093 H 
ATOM     16  C4' SGV d   1       9.780   2.889  11.482  0.00  0.00     0.088 C 
ATOM     17  H10 SGV d   1      11.232   4.212  10.548  0.00  0.00     0.091 H 
ATOM     18  O4' SGV d   1       8.683   2.745  10.571  0.00  0.00    -0.353 OA
ATOM     19  H12 SGV d   1       9.929   1.955  12.043  0.00  0.00     0.090 H 
ATOM     20  H5  SGV d   1       9.162   1.013   9.514  0.00  0.00     0.122 H 
BRANCH  13  21
ATOM     21  O2' SGV d   1      11.386   1.527   8.743  0.00  0.00    -0.388 OA
ATOM     22  H9  SGV d   1      12.277   1.834   8.621  0.00  0.00     0.210 HD
ENDBRANCH  13  21
BRANCH  14  23
ATOM     23  O3' SGV d   1      12.104   2.413  11.147  0.00  0.00    -0.390 OA
ATOM     24  H11 SGV d   1      12.850   2.494  10.564  0.00  0.00     0.210 HD
ENDBRANCH  14  23
BRANCH  16  25
ATOM     25  C5' SGV d   1       9.487   4.001  12.481  0.00  0.00     0.043 C 
ATOM     26  H13 SGV d   1       9.318   4.940  11.934  0.00  0.00     0.078 H 
ATOM     27  H14 SGV d   1      10.351   4.118  13.152  0.00  0.00     0.078 H 
BRANCH  25  28
ATOM     28  O5' SGV d   1       8.338   3.702  13.254  0.00  0.00    -0.398 OA
ATOM     29  H15 SGV d   1       8.481   2.893  13.732  0.00  0.00     0.209 HD
ENDBRANCH  25  28
ENDBRANCH  16  25
ENDBRANCH   9  12
BRANCH   7  30
ATOM     30  C10 SGV d   1       6.324   4.781   6.264  0.00  0.00     0.251 C 
ATOM     31  N11 SGV d   1       6.665   6.056   6.862  0.00  0.00    -0.366 N 
ATOM     32  H6  SGV d   1       6.352   6.906   6.439  0.00  0.00     0.159 HD
ATOM     33  H7  SGV d   1       7.214   6.086   7.697  0.00  0.00     0.159 HD
ATOM     34  O12 SGV d   1       5.592   4.717   5.347  0.00  0.00    -0.268 OA
ENDBRANCH   7  30
BRANCH   6  35
ATOM     35  N6  SGV d   1       4.414   2.228   5.512  0.00  0.00    -0.383 N 
ATOM     36  H2  SGV d   1       4.575   3.214   5.263  0.00  0.00     0.157 HD
ATOM     37  H3  SGV d   1       3.626   1.714   5.094  0.00  0.00     0.157 HD
ENDBRANCH   6  35
TORSDOF 7
