REMARK  7 active torsions:
REMARK  status: ('A' for Active; 'I' for Inactive)
REMARK    1  A    between atoms: O5'_1  and  C5'_2 
REMARK    2  A    between atoms: C5'_2  and  C4'_3 
REMARK    3  A    between atoms: C1'_5  and  N9_6 
REMARK    4  A    between atoms: C6_10  and  S6_11 
REMARK    5  A    between atoms: S6_11  and  CS_12 
REMARK    6  A    between atoms: C2'_17  and  O2'_18 
REMARK    7  A    between atoms: C3'_19  and  O3'_20 
ROOT
ATOM      1  C4' MTP d   1      16.226  20.809  -6.229  0.00  0.00     0.088 C 
ATOM      2  O4' MTP d   1      17.315  21.032  -7.142  0.00  0.00    -0.353 OA
ATOM      3  C1' MTP d   1      16.816  21.538  -8.357  0.00  0.00     0.139 C 
ATOM      4  C2' MTP d   1      15.378  21.019  -8.505  0.00  0.00     0.105 C 
ATOM      5  C3' MTP d   1      14.987  20.557  -7.086  0.00  0.00     0.091 C 
ATOM      6  H4  MTP d   1      16.053  21.719  -5.635  0.00  0.00     0.090 H 
ATOM      7  H5  MTP d   1      16.797  22.638  -8.332  0.00  0.00     0.122 H 
ATOM      8  H11 MTP d   1      15.363  20.154  -9.184  0.00  0.00     0.093 H 
ATOM      9  H13 MTP d   1      14.708  19.493  -7.078  0.00  0.00     0.091 H 
ENDROOT
BRANCH   3  10
ATOM     10  N9  MTP d   1      17.723  21.105  -9.422  0.00  0.00    -0.294 N 
ATOM     11  C8  MTP d   1      17.750  19.889  -9.980  0.00  0.00     0.070 A 
ATOM     12  N7  MTP d   1      18.730  19.865 -10.905  0.00  0.00    -0.237 NA
ATOM     13  H6  MTP d   1      17.091  19.059  -9.729  0.00  0.00     0.144 H 
ATOM     14  C5  MTP d   1      19.339  21.090 -10.925  0.00  0.00     0.139 A 
ATOM     15  C6  MTP d   1      20.413  21.681 -11.666  0.00  0.00     0.127 A 
ATOM     16  C4  MTP d   1      18.707  21.860  -9.990  0.00  0.00     0.166 A 
ATOM     17  N1  MTP d   1      20.768  22.941 -11.432  0.00  0.00    -0.233 NA
ATOM     18  C2  MTP d   1      20.133  23.664 -10.514  0.00  0.00     0.090 A 
ATOM     19  N3  MTP d   1      19.132  23.148  -9.810  0.00  0.00    -0.222 NA
ATOM     20  H10 MTP d   1      20.437  24.689 -10.338  0.00  0.00     0.146 H 
BRANCH  15  21
ATOM     21  S6  MTP d   1      21.300  20.708 -12.929  0.00  0.00    -0.112 SA
BRANCH  21  22
ATOM     22  CS  MTP d   1      22.322  21.850 -13.921  0.00  0.00    -0.029 C 
ATOM     23  H7  MTP d   1      22.866  21.282 -14.690  0.00  0.00     0.042 H 
ATOM     24  H8  MTP d   1      23.042  22.361 -13.265  0.00  0.00     0.042 H 
ATOM     25  H9  MTP d   1      21.674  22.595 -14.406  0.00  0.00     0.042 H 
ENDBRANCH  21  22
ENDBRANCH  15  21
ENDBRANCH   3  10
BRANCH   4  26
ATOM     26  O2' MTP d   1      14.525  22.006  -9.043  0.00  0.00    -0.388 OA
ATOM     27  H12 MTP d   1      13.646  21.655  -9.122  0.00  0.00     0.210 HD
ENDBRANCH   4  26
BRANCH   1  28
ATOM     28  C5' MTP d   1      16.596  19.701  -5.271  0.00  0.00     0.043 C 
ATOM     29  H2  MTP d   1      15.762  19.539  -4.572  0.00  0.00     0.078 H 
ATOM     30  H3  MTP d   1      16.780  18.779  -5.843  0.00  0.00     0.078 H 
BRANCH  28  31
ATOM     31  O5' MTP d   1      17.767  20.028  -4.529  0.00  0.00    -0.398 OA
ATOM     32  H1  MTP d   1      17.613  20.821  -4.029  0.00  0.00     0.209 HD
ENDBRANCH  28  31
ENDBRANCH   1  28
BRANCH   5  33
ATOM     33  O3' MTP d   1      13.907  21.356  -6.603  0.00  0.00    -0.390 OA
ATOM     34  H14 MTP d   1      13.161  21.262  -7.183  0.00  0.00     0.210 HD
ENDBRANCH   5  33
TORSDOF 7
