REMARK  6 active torsions:
REMARK  status: ('A' for Active; 'I' for Inactive)
REMARK    1  A    between atoms: O2'_1  and  C2'_2 
REMARK    2  A    between atoms: C3'_3  and  O3'_4 
REMARK    3  A    between atoms: C4'_5  and  C5'_6 
REMARK    4  A    between atoms: C5'_6  and  N5'_7 
REMARK    5  A    between atoms: C1'_9  and  N9_10 
REMARK    6  A    between atoms: C6_18  and  N6_19 
ROOT
ATOM      1  C2' MOL d   1     -14.927  19.747   6.644  0.00  0.00     0.105 C 
ATOM      2  C3' MOL d   1     -13.903  20.031   5.622  0.00  0.00     0.091 C 
ATOM      3  C4' MOL d   1     -13.916  18.814   4.676  0.00  0.00     0.091 C 
ATOM      4  O4' MOL d   1     -14.540  17.768   5.417  0.00  0.00    -0.354 OA
ATOM      5  C1' MOL d   1     -15.542  18.395   6.257  0.00  0.00     0.139 C 
ATOM      6  H2  MOL d   1     -14.444  19.678   7.630  0.00  0.00     0.093 H 
ATOM      7  H3  MOL d   1     -12.917  20.130   6.100  0.00  0.00     0.091 H 
ATOM      8  H5  MOL d   1     -14.499  19.055   3.775  0.00  0.00     0.090 H 
ATOM      9  H11 MOL d   1     -16.489  18.575   5.727  0.00  0.00     0.122 H 
ENDROOT
BRANCH   5  10
ATOM     10  N9  MOL d   1     -15.742  17.374   7.263  0.00  0.00    -0.294 N 
ATOM     11  C8  MOL d   1     -14.821  17.008   8.146  0.00  0.00     0.071 A 
ATOM     12  N7  MOL d   1     -15.338  16.069   8.972  0.00  0.00    -0.236 NA
ATOM     13  H12 MOL d   1     -13.807  17.402   8.198  0.00  0.00     0.144 H 
ATOM     14  C5  MOL d   1     -16.635  15.845   8.577  0.00  0.00     0.149 A 
ATOM     15  C4  MOL d   1     -16.905  16.659   7.517  0.00  0.00     0.167 A 
ATOM     16  C6  MOL d   1     -17.679  14.956   9.028  0.00  0.00     0.155 A 
ATOM     17  N3  MOL d   1     -18.147  16.623   6.920  0.00  0.00    -0.222 NA
ATOM     18  C2  MOL d   1     -19.061  15.789   7.400  0.00  0.00     0.091 A 
ATOM     19  N1  MOL d   1     -18.867  14.984   8.415  0.00  0.00    -0.222 NA
ATOM     20  H13 MOL d   1     -20.033  15.773   6.920  0.00  0.00     0.146 H 
BRANCH  16  21
ATOM     21  N6  MOL d   1     -17.469  14.073  10.111  0.00  0.00    -0.382 N 
ATOM     22  H14 MOL d   1     -18.226  13.446  10.418  0.00  0.00     0.157 HD
ATOM     23  H15 MOL d   1     -16.559  14.056  10.593  0.00  0.00     0.157 HD
ENDBRANCH  16  21
ENDBRANCH   5  10
BRANCH   1  24
ATOM     24  O2' MOL d   1     -15.948  20.701   6.713  0.00  0.00    -0.388 OA
ATOM     25  H1  MOL d   1     -15.574  21.549   6.920  0.00  0.00     0.210 HD
ENDBRANCH   1  24
BRANCH   2  26
ATOM     26  O3' MOL d   1     -14.188  21.239   4.887  0.00  0.00    -0.390 OA
ATOM     27  H4  MOL d   1     -14.218  21.974   5.488  0.00  0.00     0.210 HD
ENDBRANCH   2  26
BRANCH   3  28
ATOM     28  C5' MOL d   1     -12.520  18.336   4.254  0.00  0.00     0.106 C 
ATOM     29  H6  MOL d   1     -11.913  18.157   5.154  0.00  0.00     0.079 H 
ATOM     30  H7  MOL d   1     -12.043  19.113   3.639  0.00  0.00     0.079 H 
BRANCH  28  31
ATOM     31  N5' MOL d   1     -12.607  17.092   3.476  0.00  0.00    -0.077 N 
ATOM     32  H8  MOL d   1     -11.681  16.797   3.210  0.00  0.00     0.274 HD
ATOM     33  H9  MOL d   1     -13.160  17.251   2.648  0.00  0.00     0.274 HD
ATOM     34  H10 MOL d   1     -13.040  16.375   4.036  0.00  0.00     0.274 HD
ENDBRANCH  28  31
ENDBRANCH   3  28
TORSDOF 6
