REMARK  6 active torsions:
REMARK  status: ('A' for Active; 'I' for Inactive)
REMARK    1  A    between atoms: C6_5  and  C19_10 
REMARK    2  A    between atoms: C1'_9  and  N9_18 
REMARK    3  A    between atoms: C2'_12  and  O2'_19 
REMARK    4  A    between atoms: C3'_14  and  O3'_20 
REMARK    5  A    between atoms: C4'_15  and  C5'_16 
REMARK    6  A    between atoms: C5'_16  and  O5'_22 
ROOT
ATOM      1  N1  ERJ d   1     -11.636  15.628  17.950  0.00  0.00    -0.239 NA
ATOM      2  N3  ERJ d   1     -11.279  14.216  16.164  0.00  0.00    -0.222 NA
ATOM      3  C4  ERJ d   1     -12.598  13.968  16.049  0.00  0.00     0.165 A 
ATOM      4  C5  ERJ d   1     -13.487  14.573  16.905  0.00  0.00     0.134 A 
ATOM      5  C6  ERJ d   1     -12.947  15.437  17.912  0.00  0.00     0.101 A 
ATOM      6  C8  ERJ d   1     -14.625  13.322  15.539  0.00  0.00     0.070 A 
ATOM      7  C2  ERJ d   1     -10.818  15.023  17.111  0.00  0.00     0.089 A 
ATOM      8  N7  ERJ d   1     -14.736  14.147  16.554  0.00  0.00    -0.237 NA
ATOM      9  N9  ERJ d   1     -13.335  13.200  15.217  0.00  0.00    -0.294 N 
ATOM     10  H1  ERJ d   1     -15.452  12.818  15.040  0.00  0.00     0.144 H 
ATOM     11  H5  ERJ d   1      -9.750  15.188  17.197  0.00  0.00     0.146 H 
ENDROOT
BRANCH   9  12
ATOM     12  C1' ERJ d   1     -12.806  12.419  14.103  0.00  0.00     0.139 C 
ATOM     13  C2' ERJ d   1     -13.453  11.037  13.912  0.00  0.00     0.105 C 
ATOM     14  C3' ERJ d   1     -13.667  10.935  12.377  0.00  0.00     0.091 C 
ATOM     15  H6  ERJ d   1     -14.425  11.001  14.427  0.00  0.00     0.093 H 
ATOM     16  C4' ERJ d   1     -13.091  12.228  11.819  0.00  0.00     0.088 C 
ATOM     17  H8  ERJ d   1     -14.735  10.833  12.133  0.00  0.00     0.091 H 
ATOM     18  O4' ERJ d   1     -13.097  13.148  12.926  0.00  0.00    -0.353 OA
ATOM     19  H9  ERJ d   1     -12.060  12.045  11.483  0.00  0.00     0.090 H 
ATOM     20  H4  ERJ d   1     -11.720  12.296  14.232  0.00  0.00     0.122 H 
BRANCH  13  21
ATOM     21  O2' ERJ d   1     -12.643  10.002  14.426  0.00  0.00    -0.388 OA
ATOM     22  H12 ERJ d   1     -13.051   9.163  14.246  0.00  0.00     0.210 HD
ENDBRANCH  13  21
BRANCH  14  23
ATOM     23  O3' ERJ d   1     -12.929   9.833  11.841  0.00  0.00    -0.390 OA
ATOM     24  H13 ERJ d   1     -13.282   9.020  12.184  0.00  0.00     0.210 HD
ENDBRANCH  14  23
BRANCH  16  25
ATOM     25  C5' ERJ d   1     -13.865  12.831  10.664  0.00  0.00     0.043 C 
ATOM     26  H10 ERJ d   1     -14.925  12.917  10.943  0.00  0.00     0.078 H 
ATOM     27  H11 ERJ d   1     -13.769  12.179   9.783  0.00  0.00     0.078 H 
BRANCH  25  28
ATOM     28  O5' ERJ d   1     -13.356  14.122  10.350  0.00  0.00    -0.398 OA
ATOM     29  H14 ERJ d   1     -13.439  14.687  11.109  0.00  0.00     0.209 HD
ENDBRANCH  25  28
ENDBRANCH  16  25
ENDBRANCH   9  12
BRANCH   5  30
ATOM     30  C19 ERJ d   1     -13.754  16.072  18.851  0.00  0.00     0.002 A 
ATOM     31  C20 ERJ d   1     -13.203  16.945  19.780  0.00  0.00    -0.033 A 
ATOM     32  S21 ERJ d   1     -14.580  17.494  20.726  0.00  0.00    -0.113 SA
ATOM     33  H2  ERJ d   1     -12.157  17.226  19.896  0.00  0.00     0.096 H 
ATOM     34  C22 ERJ d   1     -15.798  16.581  20.027  0.00  0.00    -0.044 A 
ATOM     35  C23 ERJ d   1     -15.149  15.871  18.978  0.00  0.00    -0.064 A 
ATOM     36  H3  ERJ d   1     -16.849  16.540  20.311  0.00  0.00     0.095 H 
ATOM     37  H7  ERJ d   1     -15.697  15.209  18.309  0.00  0.00     0.085 H 
ENDBRANCH   5  30
TORSDOF 6
