REMARK  4 active torsions:
REMARK  status: ('A' for Active; 'I' for Inactive)
REMARK    1  A    between atoms: C04_8  and  C02_7 
REMARK    2  A    between atoms: C06_10  and  C07_11 
REMARK    3  A    between atoms: O15_25  and  C14_15 
REMARK    4  A    between atoms: C16_16  and  O15_25 
ROOT
ATOM      1  C13 EV7 d   1     104.600  15.596   6.637  0.00  0.00    -0.048 A 
ATOM      2  C04 EV7 d   1     105.697  13.676   7.544  0.00  0.00     0.075 A 
ATOM      3  C05 EV7 d   1     104.494  13.016   7.656  0.00  0.00    -0.053 A 
ATOM      4  C06 EV7 d   1     103.330  13.654   7.266  0.00  0.00    -0.022 A 
ATOM      5  C12 EV7 d   1     103.382  14.940   6.749  0.00  0.00    -0.069 A 
ATOM      6  C14 EV7 d   1     105.764  14.972   7.047  0.00  0.00     0.093 A 
ATOM      7  H1  EV7 d   1     104.639  16.599   6.228  0.00  0.00     0.087 H 
ATOM      8  H6  EV7 d   1     104.459  12.005   8.046  0.00  0.00     0.086 H 
ATOM      9  H9  EV7 d   1     102.470  15.433   6.432  0.00  0.00     0.085 H 
ENDROOT
BRANCH   6  10
ATOM     10  O15 EV7 d   1     107.024  15.591   6.910  0.00  0.00    -0.310 OA
BRANCH  10  11
ATOM     11  C16 EV7 d   1     107.563  15.024   5.735  0.00  0.00     0.076 A 
ATOM     12  C17 EV7 d   1     106.958  15.351   4.547  0.00  0.00    -0.049 A 
ATOM     13  C18 EV7 d   1     107.394  14.848   3.340  0.00  0.00    -0.070 A 
ATOM     14  H2  EV7 d   1     106.110  16.026   4.558  0.00  0.00     0.087 H 
ATOM     15  C19 EV7 d   1     108.460  13.978   3.301  0.00  0.00    -0.026 A 
ATOM     16  H10 EV7 d   1     106.897  15.138   2.421  0.00  0.00     0.085 H 
ATOM     17  C20 EV7 d   1     108.882  13.461   2.052  0.00  0.00    -0.072 A 
ATOM     18  C24 EV7 d   1     109.095  13.631   4.458  0.00  0.00    -0.023 A 
ATOM     19  C21 EV7 d   1     109.966  12.591   1.970  0.00  0.00    -0.082 A 
ATOM     20  H3  EV7 d   1     108.355  13.746   1.149  0.00  0.00     0.084 H 
ATOM     21  C22 EV7 d   1     110.611  12.232   3.151  0.00  0.00    -0.082 A 
ATOM     22  H4  EV7 d   1     110.299  12.204   1.014  0.00  0.00     0.083 H 
ATOM     23  C23 EV7 d   1     110.190  12.746   4.371  0.00  0.00    -0.072 A 
ATOM     24  H5  EV7 d   1     111.449  11.545   3.118  0.00  0.00     0.083 H 
ATOM     25  H11 EV7 d   1     110.714  12.461   5.276  0.00  0.00     0.084 H 
ATOM     26  C25 EV7 d   1     108.647  14.146   5.702  0.00  0.00    -0.040 A 
ATOM     27  H12 EV7 d   1     109.144  13.859   6.622  0.00  0.00     0.089 H 
ENDBRANCH  10  11
ENDBRANCH   6  10
BRANCH   2  28
ATOM     28  C02 EV7 d   1     106.982  13.012   8.032  0.00  0.00     0.212 C 
ATOM     29  O01 EV7 d   1     107.716  13.697   8.795  0.00  0.00    -0.644 OA
ATOM     30  O03 EV7 d   1     107.297  11.836   7.740  0.00  0.00    -0.644 OA
ENDBRANCH   2  28
BRANCH   4  31
ATOM     31  C07 EV7 d   1     102.131  12.991   7.358  0.00  0.00     0.010 A 
ATOM     32  C08 EV7 d   1     101.960  11.620   7.330  0.00  0.00     0.034 A 
ATOM     33  N09 EV7 d   1     100.665  11.372   7.383  0.00  0.00    -0.187 NA
ATOM     34  H7  EV7 d   1     102.753  10.876   7.274  0.00  0.00     0.118 H 
ATOM     35  N10 EV7 d   1      99.989  12.559   7.424  0.00  0.00    -0.289 N 
ATOM     36  C11 EV7 d   1     100.877  13.548   7.409  0.00  0.00     0.008 A 
ATOM     37  H13 EV7 d   1      98.966  12.669   7.460  0.00  0.00     0.188 HD
ATOM     38  H8  EV7 d   1     100.650  14.613   7.433  0.00  0.00     0.115 H 
ENDBRANCH   4  31
TORSDOF 4
