REMARK  4 active torsions:
REMARK  status: ('A' for Active; 'I' for Inactive)
REMARK    1  A    between atoms: C14_5  and  C20_11 
REMARK    2  A    between atoms: O28_19  and  C17_8 
REMARK    3  A    between atoms: C18_9  and  C25_16 
REMARK    4  A    between atoms: C29_20  and  O28_19 
ROOT
ATOM      1  C14 EWJ d   1     -34.842  13.473  -7.189  0.00  0.00    -0.019 A 
ATOM      2  C15 EWJ d   1     -34.921  14.727  -6.594  0.00  0.00    -0.069 A 
ATOM      3  C16 EWJ d   1     -36.158  15.359  -6.460  0.00  0.00    -0.048 A 
ATOM      4  C17 EWJ d   1     -37.316  14.743  -6.932  0.00  0.00     0.093 A 
ATOM      5  C18 EWJ d   1     -37.220  13.467  -7.499  0.00  0.00     0.075 A 
ATOM      6  C19 EWJ d   1     -35.999  12.843  -7.631  0.00  0.00    -0.053 A 
ATOM      7  H5  EWJ d   1     -34.022  15.214  -6.234  0.00  0.00     0.085 H 
ATOM      8  H6  EWJ d   1     -36.219  16.332  -5.987  0.00  0.00     0.087 H 
ATOM      9  H7  EWJ d   1     -35.941  11.858  -8.081  0.00  0.00     0.086 H 
ENDROOT
BRANCH   4  10
ATOM     10  O28 EWJ d   1     -38.548  15.336  -6.719  0.00  0.00    -0.310 OA
BRANCH  10  11
ATOM     11  C29 EWJ d   1     -39.138  14.781  -5.582  0.00  0.00     0.076 A 
ATOM     12  C30 EWJ d   1     -40.278  13.953  -5.640  0.00  0.00    -0.040 A 
ATOM     13  C31 EWJ d   1     -40.815  13.380  -4.473  0.00  0.00    -0.023 A 
ATOM     14  H10 EWJ d   1     -40.747  13.755  -6.597  0.00  0.00     0.089 H 
ATOM     15  C5  EWJ d   1     -41.956  12.574  -4.521  0.00  0.00    -0.072 A 
ATOM     16  C32 EWJ d   1     -40.206  13.605  -3.239  0.00  0.00    -0.026 A 
ATOM     17  C4  EWJ d   1     -42.471  12.011  -3.350  0.00  0.00    -0.082 A 
ATOM     18  H4  EWJ d   1     -42.444  12.385  -5.471  0.00  0.00     0.084 H 
ATOM     19  C3  EWJ d   1     -41.850  12.247  -2.118  0.00  0.00    -0.082 A 
ATOM     20  H3  EWJ d   1     -43.357  11.388  -3.396  0.00  0.00     0.083 H 
ATOM     21  C2  EWJ d   1     -40.714  13.046  -2.063  0.00  0.00    -0.072 A 
ATOM     22  H2  EWJ d   1     -42.253  11.809  -1.212  0.00  0.00     0.083 H 
ATOM     23  H1  EWJ d   1     -40.225  13.234  -1.114  0.00  0.00     0.084 H 
ATOM     24  C33 EWJ d   1     -39.082  14.398  -3.181  0.00  0.00    -0.070 A 
ATOM     25  C34 EWJ d   1     -38.548  14.976  -4.329  0.00  0.00    -0.049 A 
ATOM     26  H11 EWJ d   1     -38.604  14.575  -2.224  0.00  0.00     0.085 H 
ATOM     27  H12 EWJ d   1     -37.658  15.589  -4.250  0.00  0.00     0.087 H 
ENDBRANCH  10  11
ENDBRANCH   4  10
BRANCH   5  28
ATOM     28  C25 EWJ d   1     -38.429  12.754  -8.024  0.00  0.00     0.212 C 
ATOM     29  O26 EWJ d   1     -38.699  11.614  -7.621  0.00  0.00    -0.644 OA
ATOM     30  O27 EWJ d   1     -39.127  13.343  -8.869  0.00  0.00    -0.644 OA
ENDBRANCH   5  28
BRANCH   1  31
ATOM     31  C20 EWJ d   1     -33.530  12.806  -7.316  0.00  0.00     0.051 A 
ATOM     32  C21 EWJ d   1     -32.268  13.374  -7.366  0.00  0.00     0.037 A 
ATOM     33  N22 EWJ d   1     -31.316  12.404  -7.448  0.00  0.00    -0.184 NA
ATOM     34  H8  EWJ d   1     -32.066  14.444  -7.343  0.00  0.00     0.118 H 
ATOM     35  N23 EWJ d   1     -31.954  11.163  -7.425  0.00  0.00    -0.253 N 
ATOM     36  C24 EWJ d   1     -33.245  11.368  -7.335  0.00  0.00     0.217 A 
ATOM     37  H9  EWJ d   1     -31.490  10.245  -7.471  0.00  0.00     0.191 HD
ATOM     38  F1  EWJ d   1     -34.182  10.345  -7.294  0.00  0.00    -0.184 F 
ENDBRANCH   1  31
TORSDOF 4
