REMARK  4 active torsions:
REMARK  status: ('A' for Active; 'I' for Inactive)
REMARK    1  A    between atoms: NAA_21  and  CAC_1 
REMARK    2  A    between atoms: CAH_5  and  CAI_6 
REMARK    3  A    between atoms: CAI_6  and  CAJ_7 
REMARK       I    between atoms: CAZ_20  and  NAA_21 
REMARK    4  A    between atoms: CAZ_20  and  CBA_25 
ROOT
ATOM      1  CAC EWS d   1      28.869  -3.146 -11.547  0.00  0.00     0.016 C 
ATOM      2  CAD EWS d   1      30.067  -3.779 -10.824  0.00  0.00    -0.019 C 
ATOM      3  CAE EWS d   1      27.588  -3.944 -11.301  0.00  0.00    -0.024 C 
ATOM      4  CAF EWS d   1      27.292  -3.964  -9.785  0.00  0.00     0.084 C 
ATOM      5  CAH EWS d   1      29.672  -4.530  -9.545  0.00  0.00     0.107 C 
ATOM      6  NAG EWS d   1      28.482  -3.904  -8.919  0.00  0.00    -0.070 N 
ATOM      7  H1  EWS d   1      28.717  -2.137 -11.136  0.00  0.00     0.072 H 
ATOM      8  H2  EWS d   1      30.776  -2.981 -10.556  0.00  0.00     0.039 H 
ATOM      9  H3  EWS d   1      30.555  -4.488 -11.509  0.00  0.00     0.039 H 
ATOM     10  H4  EWS d   1      27.719  -4.974 -11.665  0.00  0.00     0.038 H 
ATOM     11  H5  EWS d   1      26.750  -3.471 -11.834  0.00  0.00     0.038 H 
ATOM     12  H6  EWS d   1      26.749  -4.893  -9.555  0.00  0.00     0.075 H 
ATOM     13  H7  EWS d   1      26.655  -3.099  -9.550  0.00  0.00     0.075 H 
ATOM     14  H8  EWS d   1      29.396  -5.558  -9.822  0.00  0.00     0.084 H 
ATOM     15  H20 EWS d   1      28.279  -4.386  -8.057  0.00  0.00     0.277 HD
ATOM     16  H21 EWS d   1      28.691  -2.938  -8.723  0.00  0.00     0.277 HD
ENDROOT
BRANCH   1  17
ATOM     17  NAA EWS d   1      29.168  -3.009 -12.987  0.00  0.00    -0.352 N 
ATOM     18  CAZ EWS d   1      28.388  -2.306 -13.836  0.00  0.00     0.254 C 
ATOM     19  OAB EWS d   1      27.334  -1.770 -13.490  0.00  0.00    -0.268 OA
ATOM     20  H19 EWS d   1      29.985  -3.457 -13.350  0.00  0.00     0.163 HD
BRANCH  18  21
ATOM     21  CBA EWS d   1      28.796  -2.275 -15.115  0.00  0.00     0.059 A 
ATOM     22  CAV EWS d   1      29.101  -3.307 -15.909  0.00  0.00     0.009 A 
ATOM     23  CAQ EWS d   1      29.027  -4.656 -15.738  0.00  0.00    -0.053 A 
ATOM     24  CAU EWS d   1      29.576  -2.777 -17.069  0.00  0.00     0.043 A 
ATOM     25  CAR EWS d   1      29.443  -5.501 -16.789  0.00  0.00     0.011 A 
ATOM     26  H15 EWS d   1      28.655  -5.074 -14.810  0.00  0.00     0.087 H 
ATOM     27  CAS EWS d   1      29.931  -4.942 -17.993  0.00  0.00    -0.064 A 
ATOM     28 BRA  EWS d   1      29.383  -7.358 -16.572  0.00  0.00    -0.051 Br
ATOM     29  CAT EWS d   1      29.981  -3.542 -18.106  0.00  0.00    -0.055 A 
ATOM     30  H16 EWS d   1      30.258  -5.577 -18.808  0.00  0.00     0.085 H 
ATOM     31  H17 EWS d   1      30.342  -3.080 -19.018  0.00  0.00     0.087 H 
ATOM     32  NAW EWS d   1      29.526  -1.450 -16.957  0.00  0.00    -0.364 N 
ATOM     33  CAX EWS d   1      29.051  -1.135 -15.757  0.00  0.00    -0.006 A 
ATOM     34  H22 EWS d   1      29.810  -0.777 -17.683  0.00  0.00     0.165 HD
ATOM     35  H18 EWS d   1      28.898  -0.129 -15.369  0.00  0.00     0.112 H 
ENDBRANCH  18  21
ENDBRANCH   1  17
BRANCH   5  36
ATOM     36  CAI EWS d   1      30.890  -4.610  -8.600  0.00  0.00    -0.014 C 
ATOM     37  H9  EWS d   1      31.171  -3.589  -8.303  0.00  0.00     0.043 H 
ATOM     38  H10 EWS d   1      31.725  -5.077  -9.143  0.00  0.00     0.043 H 
BRANCH  36  39
ATOM     39  CAJ EWS d   1      30.638  -5.352  -7.451  0.00  0.00    -0.056 A 
ATOM     40  CAK EWS d   1      30.719  -6.767  -7.496  0.00  0.00    -0.075 A 
ATOM     41  CAO EWS d   1      30.457  -7.512  -6.334  0.00  0.00    -0.061 A 
ATOM     42  H11 EWS d   1      30.981  -7.270  -8.420  0.00  0.00     0.084 H 
ATOM     43  CAN EWS d   1      30.117  -6.825  -5.141  0.00  0.00     0.034 A 
ATOM     44  H14 EWS d   1      30.514  -8.594  -6.349  0.00  0.00     0.086 H 
ATOM     45  CAM EWS d   1      30.028  -5.420  -5.089  0.00  0.00    -0.061 A 
ATOM     46 CLA  EWS d   1      29.781  -7.749  -3.713  0.00  0.00    -0.084 Cl
ATOM     47  CAL EWS d   1      30.291  -4.676  -6.251  0.00  0.00    -0.075 A 
ATOM     48  H13 EWS d   1      29.760  -4.920  -4.165  0.00  0.00     0.086 H 
ATOM     49  H12 EWS d   1      30.230  -3.594  -6.232  0.00  0.00     0.084 H 
ENDBRANCH  36  39
ENDBRANCH   5  36
TORSDOF 4
