REMARK  2 active torsions:
REMARK  status: ('A' for Active; 'I' for Inactive)
REMARK    1  A    between atoms: C_13  and  C1_1 
REMARK    2  A    between atoms: N_12  and  C_13 
ROOT
ATOM      1  C   EXG d   1      25.224  -9.934  30.863  0.00  0.00     0.025 C 
ATOM      2  H7  EXG d   1      24.398  -9.230  30.684  0.00  0.00     0.072 H 
ATOM      3  H8  EXG d   1      25.454 -10.475  29.933  0.00  0.00     0.072 H 
ENDROOT
BRANCH   1   4
ATOM      4  C1  EXG d   1      24.806 -10.926  31.919  0.00  0.00    -0.040 A 
ATOM      5  C2  EXG d   1      23.838 -10.593  32.858  0.00  0.00    -0.075 A 
ATOM      6  C3  EXG d   1      23.477 -11.491  33.854  0.00  0.00    -0.082 A 
ATOM      7  H1  EXG d   1      23.359  -9.622  32.813  0.00  0.00     0.084 H 
ATOM      8  C4  EXG d   1      24.084 -12.731  33.926  0.00  0.00    -0.083 A 
ATOM      9  H2  EXG d   1      22.717 -11.219  34.577  0.00  0.00     0.083 H 
ATOM     10  C5  EXG d   1      25.053 -13.073  33.000  0.00  0.00    -0.082 A 
ATOM     11  H11 EXG d   1      23.802 -13.431  34.704  0.00  0.00     0.083 H 
ATOM     12  C6  EXG d   1      25.411 -12.176  32.003  0.00  0.00    -0.075 A 
ATOM     13  H10 EXG d   1      25.534 -14.043  33.053  0.00  0.00     0.083 H 
ATOM     14  H9  EXG d   1      26.171 -12.453  31.281  0.00  0.00     0.084 H 
ENDBRANCH   1   4
BRANCH   1  15
ATOM     15  N   EXG d   1      26.408  -9.184  31.285  0.00  0.00    -0.334 N 
ATOM     16  C12 EXG d   1      27.715  -9.639  31.273  0.00  0.00     0.084 A 
ATOM     17  C11 EXG d   1      28.317 -10.790  30.775  0.00  0.00    -0.052 A 
ATOM     18  C8  EXG d   1      28.441  -8.656  31.903  0.00  0.00     0.177 A 
ATOM     19  C10 EXG d   1      29.692 -10.882  30.934  0.00  0.00    -0.064 A 
ATOM     20  H3  EXG d   1      27.744 -11.572  30.290  0.00  0.00     0.087 H 
ATOM     21  C9  EXG d   1      30.366  -9.862  31.600  0.00  0.00     0.005 A 
ATOM     22  H4  EXG d   1      30.234 -11.736  30.545  0.00  0.00     0.085 H 
ATOM     23  N2  EXG d   1      29.770  -8.757  32.087  0.00  0.00    -0.239 NA
ATOM     24  H5  EXG d   1      31.437  -9.964  31.735  0.00  0.00     0.114 H 
ATOM     25  N1  EXG d   1      27.637  -7.606  32.290  0.00  0.00    -0.222 NA
ATOM     26  C7  EXG d   1      26.439  -7.969  31.901  0.00  0.00     0.069 A 
ATOM     27  H6  EXG d   1      25.552  -7.357  32.056  0.00  0.00     0.143 H 
ENDBRANCH   1  15
TORSDOF 2
