REMARK  4 active torsions:
REMARK  status: ('A' for Active; 'I' for Inactive)
REMARK    1  A    between atoms: C12_2  and  C15_5 
REMARK    2  A    between atoms: N10_18  and  C12_2 
REMARK    3  A    between atoms: C9_17  and  C17_6 
REMARK    4  A    between atoms: C6_14  and  N10_18 
ROOT
ATOM      1  C2  EXP d   1     170.696 171.650  56.761  0.00  0.00     0.747 A 
ATOM      2  N1  EXP d   1     171.599 172.347  56.046  0.00  0.00    -0.007 N 
ATOM      3  N3  EXP d   1     170.216 172.316  57.722  0.00  0.00     0.132 NA
ATOM      4  N4  EXP d   1     171.629 173.621  56.742  0.00  0.00     0.044 NA
ATOM      5  C5  EXP d   1     172.224 171.852  54.960  0.00  0.00     0.287 A 
ATOM      6  C6  EXP d   1     170.841 173.605  57.759  0.00  0.00     0.756 A 
ATOM      7  C7  EXP d   1     171.866 170.457  54.617  0.00  0.00     0.007 A 
ATOM      8  N8  EXP d   1     170.406 170.415  56.439  0.00  0.00    -0.191 N 
ATOM      9  C9  EXP d   1     170.956 169.823  55.393  0.00  0.00     0.028 A 
ATOM     10  O11 EXP d   1     172.989 172.516  54.283  0.00  0.00    -0.266 OA
ATOM     11  H10 EXP d   1     172.322 169.955  53.765  0.00  0.00     0.095 H 
ATOM     12  H11 EXP d   1     169.732 169.891  57.015  0.00  0.00     0.184 HD
ENDROOT
BRANCH   6  13
ATOM     13  N10 EXP d   1     170.627 174.572  58.606  0.00  0.00    -0.216 N 
ATOM     14  H12 EXP d   1     170.085 174.381  59.461  0.00  0.00     0.178 HD
BRANCH  13  15
ATOM     15  C12 EXP d   1     171.140 175.927  58.371  0.00  0.00     0.033 C 
ATOM     16  H1  EXP d   1     170.927 176.548  59.254  0.00  0.00     0.072 H 
ATOM     17  H2  EXP d   1     172.227 175.875  58.213  0.00  0.00     0.072 H 
BRANCH  15  18
ATOM     18  C15 EXP d   1     170.485 176.571  57.137  0.00  0.00    -0.039 A 
ATOM     19  C13 EXP d   1     169.193 176.181  56.738  0.00  0.00    -0.059 A 
ATOM     20  C14 EXP d   1     168.601 176.755  55.605  0.00  0.00     0.011 A 
ATOM     21  H3  EXP d   1     168.654 175.434  57.309  0.00  0.00     0.086 H 
ATOM     22  C19 EXP d   1     169.291 177.724  54.854  0.00  0.00    -0.066 A 
ATOM     23 BR   EXP d   1     166.902 176.202  55.129  0.00  0.00    -0.051 Br
ATOM     24  C18 EXP d   1     170.590 178.110  55.241  0.00  0.00    -0.081 A 
ATOM     25  H8  EXP d   1     168.826 178.171  53.983  0.00  0.00     0.085 H 
ATOM     26  C20 EXP d   1     171.185 177.534  56.379  0.00  0.00    -0.075 A 
ATOM     27  H7  EXP d   1     171.131 178.850  54.662  0.00  0.00     0.083 H 
ATOM     28  H9  EXP d   1     172.185 177.831  56.674  0.00  0.00     0.084 H 
ENDBRANCH  15  18
ENDBRANCH  13  15
ENDBRANCH   6  13
BRANCH   9  29
ATOM     29  C17 EXP d   1     170.541 168.390  55.136  0.00  0.00    -0.037 C 
ATOM     30  H4  EXP d   1     171.063 168.011  54.245  0.00  0.00     0.035 H 
ATOM     31  H5  EXP d   1     169.454 168.347  54.970  0.00  0.00     0.035 H 
ATOM     32  H6  EXP d   1     170.804 167.770  56.006  0.00  0.00     0.035 H 
ENDBRANCH   9  29
TORSDOF 4
