REMARK  11 active torsions:
REMARK  status: ('A' for Active; 'I' for Inactive)
REMARK    1  A    between atoms: C1_1  and  C2_2 
REMARK    2  A    between atoms: C2_2  and  C3_3 
REMARK    3  A    between atoms: C3_3  and  N4_10 
REMARK    4  A    between atoms: C14_4  and  C16_5 
REMARK       I    between atoms: N4_10  and  C14_4 
REMARK    5  A    between atoms: C16_5  and  C18_6 
REMARK    6  A    between atoms: C16_5  and  O17_21 
REMARK    7  A    between atoms: C18_6  and  C19_7 
REMARK    8  A    between atoms: C18_6  and  C20_8 
REMARK    9  A    between atoms: C18_6  and  C21_9 
REMARK   10  A    between atoms: C20_8  and  O22_22 
REMARK   11  A    between atoms: C10_16  and  O13_19 
ROOT
ATOM      1  C14 EXS d   1      25.850 -10.502  33.019  0.00  0.00     0.247 C 
ATOM      2  N4  EXS d   1      25.095  -9.610  32.318  0.00  0.00    -0.358 N 
ATOM      3  O15 EXS d   1      26.731 -10.160  33.799  0.00  0.00    -0.271 OA
ATOM      4  H14 EXS d   1      24.391  -9.967  31.704  0.00  0.00     0.162 HD
ENDROOT
BRANCH   2   5
ATOM      5  C3  EXS d   1      25.259  -8.146  32.414  0.00  0.00     0.002 C 
ATOM      6  H3  EXS d   1      24.269  -7.674  32.334  0.00  0.00     0.064 H 
ATOM      7  H4  EXS d   1      25.703  -7.904  33.391  0.00  0.00     0.064 H 
BRANCH   5   8
ATOM      8  C2  EXS d   1      26.173  -7.579  31.298  0.00  0.00     0.005 C 
ATOM      9  H1  EXS d   1      25.752  -7.831  30.313  0.00  0.00     0.047 H 
ATOM     10  H2  EXS d   1      26.243  -6.486  31.398  0.00  0.00     0.047 H 
BRANCH   8  11
ATOM     11  C1  EXS d   1      27.552  -8.190  31.432  0.00  0.00     0.106 A 
ATOM     12  N11 EXS d   1      28.457  -7.750  32.209  0.00  0.00    -0.230 NA
ATOM     13  C9  EXS d   1      29.528  -8.577  32.179  0.00  0.00     0.118 A 
ATOM     14  C8  EXS d   1      29.214  -9.543  31.238  0.00  0.00     0.065 A 
ATOM     15  C10 EXS d   1      30.768  -8.545  32.823  0.00  0.00     0.096 A 
ATOM     16  C7  EXS d   1      30.115 -10.590  30.933  0.00  0.00    -0.055 A 
ATOM     17  N12 EXS d   1      27.939  -9.290  30.819  0.00  0.00    -0.342 N 
ATOM     18  C6  EXS d   1      31.362 -10.601  31.605  0.00  0.00    -0.078 A 
ATOM     19  H17 EXS d   1      29.860 -11.357  30.210  0.00  0.00     0.087 H 
ATOM     20  C5  EXS d   1      31.687  -9.586  32.537  0.00  0.00    -0.049 A 
ATOM     21  H16 EXS d   1      32.074 -11.393  31.404  0.00  0.00     0.083 H 
ATOM     22  H15 EXS d   1      32.648  -9.605  33.037  0.00  0.00     0.087 H 
ATOM     23  H18 EXS d   1      27.387  -9.850  30.153  0.00  0.00     0.167 HD
BRANCH  15  24
ATOM     24  O13 EXS d   1      31.037  -7.553  33.758  0.00  0.00    -0.358 OA
ATOM     25  H19 EXS d   1      31.915  -7.672  34.100  0.00  0.00     0.217 HD
ENDBRANCH  15  24
ENDBRANCH   8  11
ENDBRANCH   5   8
ENDBRANCH   2   5
BRANCH   1  26
ATOM     26  C16 EXS d   1      25.590 -12.004  32.888  0.00  0.00     0.120 C 
ATOM     27  H5  EXS d   1      26.569 -12.502  32.956  0.00  0.00     0.099 H 
BRANCH  26  28
ATOM     28  C18 EXS d   1      24.710 -12.598  34.047  0.00  0.00     0.008 C 
BRANCH  28  29
ATOM     29  C19 EXS d   1      23.359 -11.827  34.193  0.00  0.00    -0.065 C 
ATOM     30  H6  EXS d   1      22.771 -12.269  35.011  0.00  0.00     0.028 H 
ATOM     31  H7  EXS d   1      22.792 -11.900  33.253  0.00  0.00     0.028 H 
ATOM     32  H8  EXS d   1      23.563 -10.770  34.418  0.00  0.00     0.028 H 
ENDBRANCH  28  29
BRANCH  28  33
ATOM     33  C20 EXS d   1      24.326 -14.080  33.744  0.00  0.00     0.026 C 
ATOM     34  H9  EXS d   1      23.818 -14.125  32.769  0.00  0.00     0.075 H 
ATOM     35  H10 EXS d   1      23.646 -14.441  34.529  0.00  0.00     0.075 H 
BRANCH  33  36
ATOM     36  O22 EXS d   1      25.478 -14.922  33.706  0.00  0.00    -0.400 OA
ATOM     37  H21 EXS d   1      25.211 -15.814  33.520  0.00  0.00     0.209 HD
ENDBRANCH  33  36
ENDBRANCH  28  33
BRANCH  28  38
ATOM     38  C21 EXS d   1      25.468 -12.546  35.423  0.00  0.00    -0.065 C 
ATOM     39  H11 EXS d   1      25.745 -11.506  35.650  0.00  0.00     0.028 H 
ATOM     40  H12 EXS d   1      26.377 -13.163  35.365  0.00  0.00     0.028 H 
ATOM     41  H13 EXS d   1      24.813 -12.932  36.218  0.00  0.00     0.028 H 
ENDBRANCH  28  38
ENDBRANCH  26  28
BRANCH  26  42
ATOM     42  O17 EXS d   1      25.052 -12.308  31.583  0.00  0.00    -0.385 OA
ATOM     43  H20 EXS d   1      25.613 -11.931  30.915  0.00  0.00     0.210 HD
ENDBRANCH  26  42
ENDBRANCH   1  26
TORSDOF 11
