REMARK  4 active torsions:
REMARK  status: ('A' for Active; 'I' for Inactive)
REMARK    1  A    between atoms: C1_1  and  C_14 
REMARK    2  A    between atoms: C17_12  and  O2_5 
REMARK    3  A    between atoms: C11_6  and  C12_7 
REMARK    4  A    between atoms: C5_17  and  C7_19 
ROOT
ATOM      1  C11 EXV d   1     -35.001 -38.338  57.178  0.00  0.00     0.011 C 
ATOM      2  C7  EXV d   1     -35.118 -39.460  56.104  0.00  0.00    -0.018 C 
ATOM      3  C10 EXV d   1     -36.241 -38.517  58.083  0.00  0.00    -0.054 C 
ATOM      4  C9  EXV d   1     -36.634 -39.997  57.942  0.00  0.00    -0.064 C 
ATOM      5  C8  EXV d   1     -35.655 -40.636  56.944  0.00  0.00    -0.057 C 
ATOM      6  H4  EXV d   1     -34.087 -38.487  57.772  0.00  0.00     0.053 H 
ATOM      7  H10 EXV d   1     -35.867 -39.177  55.350  0.00  0.00     0.048 H 
ATOM      8  H11 EXV d   1     -37.062 -37.867  57.746  0.00  0.00     0.034 H 
ATOM      9  H12 EXV d   1     -35.992 -38.282  59.129  0.00  0.00     0.034 H 
ATOM     10  H13 EXV d   1     -37.664 -40.079  57.564  0.00  0.00     0.033 H 
ATOM     11  H14 EXV d   1     -36.560 -40.501  58.917  0.00  0.00     0.033 H 
ATOM     12  H15 EXV d   1     -34.834 -41.138  57.476  0.00  0.00     0.034 H 
ATOM     13  H16 EXV d   1     -36.176 -41.363  56.303  0.00  0.00     0.034 H 
ENDROOT
BRANCH   1  14
ATOM     14  C12 EXV d   1     -34.938 -36.980  56.553  0.00  0.00     0.110 A 
ATOM     15  N1  EXV d   1     -34.069 -36.080  56.986  0.00  0.00    -0.340 N 
ATOM     16  C18 EXV d   1     -34.386 -34.946  56.251  0.00  0.00     0.096 A 
ATOM     17  H17 EXV d   1     -33.334 -36.194  57.698  0.00  0.00     0.167 HD
ATOM     18  C13 EXV d   1     -35.440 -35.212  55.372  0.00  0.00     0.088 A 
ATOM     19  C17 EXV d   1     -33.849 -33.641  56.273  0.00  0.00     0.094 A 
ATOM     20  C14 EXV d   1     -35.951 -34.243  54.505  0.00  0.00    -0.053 A 
ATOM     21  N   EXV d   1     -35.779 -36.538  55.589  0.00  0.00    -0.233 NA
ATOM     22  C15 EXV d   1     -35.395 -32.964  54.533  0.00  0.00    -0.078 A 
ATOM     23  H5  EXV d   1     -36.762 -34.480  53.825  0.00  0.00     0.087 H 
ATOM     24  C16 EXV d   1     -34.361 -32.659  55.420  0.00  0.00    -0.049 A 
ATOM     25  H6  EXV d   1     -35.769 -32.200  53.860  0.00  0.00     0.083 H 
ATOM     26  H7  EXV d   1     -33.953 -31.655  55.447  0.00  0.00     0.087 H 
BRANCH  19  27
ATOM     27  O2  EXV d   1     -32.856 -33.342  57.154  0.00  0.00    -0.358 OA
ATOM     28  H3  EXV d   1     -32.093 -33.037  56.678  0.00  0.00     0.217 HD
ENDBRANCH  19  27
ENDBRANCH   1  14
BRANCH   2  29
ATOM     29  C5  EXV d   1     -33.820 -39.731  55.365  0.00  0.00    -0.052 A 
ATOM     30  C6  EXV d   1     -33.742 -39.507  53.987  0.00  0.00    -0.060 A 
ATOM     31  C1  EXV d   1     -32.574 -39.783  53.278  0.00  0.00     0.041 A 
ATOM     32  H8  EXV d   1     -34.604 -39.112  53.461  0.00  0.00     0.086 H 
ATOM     33  C2  EXV d   1     -31.480 -40.319  53.956  0.00  0.00    -0.066 A 
ATOM     34  C3  EXV d   1     -31.545 -40.544  55.326  0.00  0.00    -0.081 A 
ATOM     35  H1  EXV d   1     -30.574 -40.561  53.412  0.00  0.00     0.085 H 
ATOM     36  C4  EXV d   1     -32.707 -40.246  56.026  0.00  0.00    -0.076 A 
ATOM     37  H2  EXV d   1     -30.688 -40.953  55.849  0.00  0.00     0.083 H 
ATOM     38  H9  EXV d   1     -32.748 -40.416  57.096  0.00  0.00     0.084 H 
BRANCH  31  39
ATOM     39  C   EXV d   1     -32.469 -39.462  51.816  0.00  0.00     0.209 C 
ATOM     40  O1  EXV d   1     -31.430 -39.684  51.183  0.00  0.00    -0.644 OA
ATOM     41  O   EXV d   1     -33.542 -38.952  51.260  0.00  0.00    -0.644 OA
ENDBRANCH  31  39
ENDBRANCH   2  29
TORSDOF 4
