REMARK  4 active torsions:
REMARK  status: ('A' for Active; 'I' for Inactive)
REMARK    1  A    between atoms: C7_12  and  C8_9 
REMARK    2  A    between atoms: C6_13  and  C7_12 
REMARK    3  A    between atoms: C5_14  and  C6_13 
REMARK    4  A    between atoms: C_18  and  O_19 
ROOT
ATOM      1  C6  EX7 d   1      26.132  -7.603  30.947  0.00  0.00    -0.006 C 
ATOM      2  H10 EX7 d   1      26.311  -6.541  30.723  0.00  0.00     0.045 H 
ATOM      3  H11 EX7 d   1      25.797  -8.118  30.035  0.00  0.00     0.045 H 
ENDROOT
BRANCH   1   4
ATOM      4  C7  EX7 d   1      25.033  -7.696  31.980  0.00  0.00    -0.035 C 
ATOM      5  H8  EX7 d   1      25.426  -7.314  32.934  0.00  0.00     0.040 H 
ATOM      6  H9  EX7 d   1      24.196  -7.064  31.649  0.00  0.00     0.040 H 
BRANCH   4   7
ATOM      7  C8  EX7 d   1      24.506  -9.090  32.212  0.00  0.00    -0.056 A 
ATOM      8  C13 EX7 d   1      24.511  -9.626  33.497  0.00  0.00    -0.056 A 
ATOM      9  C12 EX7 d   1      23.982 -10.882  33.716  0.00  0.00     0.034 A 
ATOM     10  H5  EX7 d   1      24.928  -9.060  34.322  0.00  0.00     0.086 H 
ATOM     11  C11 EX7 d   1      23.445 -11.637  32.691  0.00  0.00    -0.062 A 
ATOM     12 CL   EX7 d   1      23.970 -11.515  35.338  0.00  0.00    -0.084 Cl
ATOM     13  C10 EX7 d   1      23.441 -11.107  31.409  0.00  0.00    -0.081 A 
ATOM     14  H4  EX7 d   1      23.036 -12.622  32.884  0.00  0.00     0.086 H 
ATOM     15  C9  EX7 d   1      23.953  -9.838  31.174  0.00  0.00    -0.077 A 
ATOM     16  H7  EX7 d   1      23.036 -11.686  30.587  0.00  0.00     0.083 H 
ATOM     17  H6  EX7 d   1      23.922  -9.425  30.172  0.00  0.00     0.084 H 
ENDBRANCH   4   7
ENDBRANCH   1   4
BRANCH   1  18
ATOM     18  C5  EX7 d   1      27.414  -8.213  31.388  0.00  0.00     0.105 A 
ATOM     19  N1  EX7 d   1      28.158  -7.766  32.379  0.00  0.00    -0.340 N 
ATOM     20  C14 EX7 d   1      29.250  -8.626  32.409  0.00  0.00     0.096 A 
ATOM     21  H12 EX7 d   1      27.972  -6.960  32.993  0.00  0.00     0.167 HD
ATOM     22  C4  EX7 d   1      29.143  -9.575  31.423  0.00  0.00     0.088 A 
ATOM     23  C   EX7 d   1      30.446  -8.549  33.164  0.00  0.00     0.094 A 
ATOM     24  C3  EX7 d   1      30.162 -10.483  31.151  0.00  0.00    -0.053 A 
ATOM     25  N   EX7 d   1      27.961  -9.280  30.765  0.00  0.00    -0.233 NA
ATOM     26  C2  EX7 d   1      31.316 -10.431  31.918  0.00  0.00    -0.078 A 
ATOM     27  H3  EX7 d   1      30.056 -11.214  30.358  0.00  0.00     0.087 H 
ATOM     28  C1  EX7 d   1      31.471  -9.465  32.904  0.00  0.00    -0.049 A 
ATOM     29  H2  EX7 d   1      32.106 -11.153  31.746  0.00  0.00     0.083 H 
ATOM     30  H1  EX7 d   1      32.391  -9.421  33.475  0.00  0.00     0.087 H 
BRANCH  23  31
ATOM     31  O   EX7 d   1      30.618  -7.627  34.151  0.00  0.00    -0.358 OA
ATOM     32  H13 EX7 d   1      31.479  -7.735  34.537  0.00  0.00     0.217 HD
ENDBRANCH  23  31
ENDBRANCH   1  18
TORSDOF 4
