REMARK  2 active torsions:
REMARK  status: ('A' for Active; 'I' for Inactive)
REMARK    1  A    between atoms: C5_8  and  C7_5 
REMARK    2  A    between atoms: C_13  and  O_14 
ROOT
ATOM      1  C1  EXD d   1      31.575  -9.628  32.791  0.00  0.00    -0.049 A 
ATOM      2  C2  EXD d   1      31.388 -10.574  31.791  0.00  0.00    -0.078 A 
ATOM      3  C3  EXD d   1      30.188 -10.632  31.096  0.00  0.00    -0.053 A 
ATOM      4  C5  EXD d   1      27.330  -8.551  31.680  0.00  0.00     0.213 A 
ATOM      5  N1  EXD d   1      28.146  -8.003  32.542  0.00  0.00    -0.333 N 
ATOM      6  C6  EXD d   1      29.320  -8.734  32.428  0.00  0.00     0.096 A 
ATOM      7  C4  EXD d   1      29.176  -9.726  31.427  0.00  0.00     0.088 A 
ATOM      8  N   EXD d   1      27.882  -9.593  30.949  0.00  0.00    -0.225 NA
ATOM      9  C   EXD d   1      30.557  -8.722  33.104  0.00  0.00     0.094 A 
ATOM     10  H1  EXD d   1      32.514  -9.592  33.331  0.00  0.00     0.087 H 
ATOM     11  H2  EXD d   1      32.184 -11.271  31.552  0.00  0.00     0.083 H 
ATOM     12  H3  EXD d   1      30.038 -11.365  30.312  0.00  0.00     0.087 H 
ATOM     13  H4  EXD d   1      27.959  -7.206  33.167  0.00  0.00     0.167 HD
ENDROOT
BRANCH   4  14
ATOM     14  C7  EXD d   1      25.881  -8.157  31.573  0.00  0.00     0.451 C 
ATOM     15  F1  EXD d   1      25.195  -8.589  32.629  0.00  0.00    -0.163 F 
ATOM     16  F2  EXD d   1      25.711  -6.849  31.512  0.00  0.00    -0.163 F 
ATOM     17  F   EXD d   1      25.327  -8.668  30.481  0.00  0.00    -0.163 F 
ENDBRANCH   4  14
BRANCH   9  18
ATOM     18  O   EXD d   1      30.709  -7.812  34.101  0.00  0.00    -0.358 OA
ATOM     19  H5  EXD d   1      31.576  -7.899  34.478  0.00  0.00     0.217 HD
ENDBRANCH   9  18
TORSDOF 2
