REMARK  8 active torsions:
REMARK  status: ('A' for Active; 'I' for Inactive)
REMARK    1  A    between atoms: C6_2  and  C14_31 
REMARK    2  A    between atoms: C4_6  and  C5_5 
REMARK    3  A    between atoms: C25_17  and  C26_18 
REMARK    4  A    between atoms: C21_20  and  N_21 
REMARK    5  A    between atoms: N2_23  and  C8_24 
REMARK    6  A    between atoms: C8_24  and  C9_25 
REMARK    7  A    between atoms: C9_25  and  N3_26 
REMARK    8  A    between atoms: C16_36  and  C20_38 
ROOT
ATOM      1  C7  EX4 d   1      -8.640  19.377 -32.176  0.00  0.00     0.010 A 
ATOM      2  C6  EX4 d   1      -8.175  18.066 -32.213  0.00  0.00     0.084 A 
ATOM      3  N1  EX4 d   1      -9.235  17.172 -32.323  0.00  0.00    -0.233 NA
ATOM      4  C5  EX4 d   1     -10.356  17.911 -32.373  0.00  0.00     0.111 A 
ATOM      5  N2  EX4 d   1     -10.038  19.286 -32.259  0.00  0.00    -0.341 N 
ATOM      6  H1  EX4 d   1      -8.043  20.285 -32.099  0.00  0.00     0.115 H 
ENDROOT
BRANCH   4   7
ATOM      7  C4  EX4 d   1     -11.736  17.346 -32.600  0.00  0.00     0.006 C 
ATOM      8  C3  EX4 d   1     -11.895  15.914 -32.037  0.00  0.00    -0.044 C 
ATOM      9  C2  EX4 d   1     -13.277  15.325 -32.342  0.00  0.00    -0.014 C 
ATOM     10  H5  EX4 d   1     -11.755  15.944 -30.946  0.00  0.00     0.035 H 
ATOM     11  H6  EX4 d   1     -11.127  15.268 -32.488  0.00  0.00     0.035 H 
ATOM     12  N   EX4 d   1     -13.465  15.346 -33.868  0.00  0.00    -0.267 NA
ATOM     13  H7  EX4 d   1     -14.058  15.931 -31.860  0.00  0.00     0.056 H 
ATOM     14  H8  EX4 d   1     -13.334  14.291 -31.971  0.00  0.00     0.056 H 
ATOM     15  C1  EX4 d   1     -13.522  16.780 -34.369  0.00  0.00    -0.014 C 
ATOM     16  C   EX4 d   1     -12.131  17.431 -34.095  0.00  0.00    -0.044 C 
ATOM     17  H2  EX4 d   1     -14.307  17.334 -33.833  0.00  0.00     0.056 H 
ATOM     18  H3  EX4 d   1     -13.736  16.792 -35.448  0.00  0.00     0.056 H 
ATOM     19  H17 EX4 d   1     -12.169  18.489 -34.393  0.00  0.00     0.035 H 
ATOM     20  H18 EX4 d   1     -11.370  16.909 -34.694  0.00  0.00     0.035 H 
ATOM     21  H4  EX4 d   1     -12.439  17.984 -32.044  0.00  0.00     0.052 H 
BRANCH  12  22
ATOM     22  C21 EX4 d   1     -14.443  14.435 -34.441  0.00  0.00     0.117 A 
ATOM     23  N4  EX4 d   1     -15.469  15.012 -35.158  0.00  0.00    -0.229 NA
ATOM     24  C22 EX4 d   1     -16.465  14.208 -35.557  0.00  0.00     0.090 A 
ATOM     25  N5  EX4 d   1     -16.553  12.879 -35.332  0.00  0.00    -0.224 NA
ATOM     26  H10 EX4 d   1     -17.275  14.667 -36.112  0.00  0.00     0.146 H 
ATOM     27  C23 EX4 d   1     -15.541  12.292 -34.660  0.00  0.00     0.141 A 
ATOM     28  N6  EX4 d   1     -15.770  10.933 -34.313  0.00  0.00    -0.311 N 
ATOM     29  C24 EX4 d   1     -14.402  13.002 -34.183  0.00  0.00     0.033 A 
ATOM     30  C28 EX4 d   1     -14.917  10.259 -33.371  0.00  0.00     0.223 C 
ATOM     31  H9  EX4 d   1     -16.534  10.439 -34.729  0.00  0.00     0.170 HD
ATOM     32  O   EX4 d   1     -15.039   9.064 -33.236  0.00  0.00    -0.273 OA
ATOM     33  C27 EX4 d   1     -13.842  11.071 -32.648  0.00  0.00     0.017 C 
ATOM     34  C25 EX4 d   1     -13.274  12.206 -33.520  0.00  0.00    -0.017 C 
ATOM     35  H11 EX4 d   1     -13.020  10.397 -32.367  0.00  0.00     0.048 H 
ATOM     36  H12 EX4 d   1     -14.282  11.510 -31.741  0.00  0.00     0.048 H 
ATOM     37  H13 EX4 d   1     -12.669  12.879 -32.895  0.00  0.00     0.048 H 
BRANCH  34  38
ATOM     38  C26 EX4 d   1     -12.392  11.584 -34.631  0.00  0.00    -0.068 C 
ATOM     39  H14 EX4 d   1     -11.979  12.384 -35.263  0.00  0.00     0.028 H 
ATOM     40  H15 EX4 d   1     -13.002  10.908 -35.248  0.00  0.00     0.028 H 
ATOM     41  H16 EX4 d   1     -11.568  11.018 -34.172  0.00  0.00     0.028 H 
ENDBRANCH  34  38
ENDBRANCH  12  22
ENDBRANCH   4   7
BRANCH   5  42
ATOM     42  C8  EX4 d   1     -10.908  20.434 -32.131  0.00  0.00     0.023 C 
ATOM     43  H19 EX4 d   1     -11.952  20.091 -32.092  0.00  0.00     0.067 H 
ATOM     44  H20 EX4 d   1     -10.770  21.089 -33.004  0.00  0.00     0.067 H 
BRANCH  42  45
ATOM     45  C9  EX4 d   1     -10.591  21.228 -30.851  0.00  0.00     0.098 C 
ATOM     46  H21 EX4 d   1     -11.031  22.233 -30.937  0.00  0.00     0.078 H 
ATOM     47  H22 EX4 d   1      -9.499  21.313 -30.746  0.00  0.00     0.078 H 
BRANCH  45  48
ATOM     48  N3  EX4 d   1     -11.143  20.561 -29.635  0.00  0.00    -0.070 N 
ATOM     49  C13 EX4 d   1     -10.344  19.405 -29.090  0.00  0.00     0.084 C 
ATOM     50  C12 EX4 d   1     -10.525  19.421 -27.566  0.00  0.00    -0.041 C 
ATOM     51  H24 EX4 d   1      -9.281  19.525 -29.346  0.00  0.00     0.076 H 
ATOM     52  H25 EX4 d   1     -10.717  18.457 -29.506  0.00  0.00     0.076 H 
ATOM     53  C11 EX4 d   1     -10.687  20.909 -27.239  0.00  0.00    -0.041 C 
ATOM     54  H26 EX4 d   1      -9.642  19.002 -27.061  0.00  0.00     0.035 H 
ATOM     55  H27 EX4 d   1     -11.420  18.854 -27.271  0.00  0.00     0.035 H 
ATOM     56  C10 EX4 d   1     -11.261  21.559 -28.524  0.00  0.00     0.084 C 
ATOM     57  H28 EX4 d   1      -9.714  21.355 -26.985  0.00  0.00     0.035 H 
ATOM     58  H29 EX4 d   1     -11.382  21.044 -26.397  0.00  0.00     0.035 H 
ATOM     59  H30 EX4 d   1     -12.318  21.823 -28.369  0.00  0.00     0.076 H 
ATOM     60  H31 EX4 d   1     -10.689  22.465 -28.773  0.00  0.00     0.076 H 
ATOM     61  H23 EX4 d   1     -12.061  20.218 -29.872  0.00  0.00     0.279 HD
ENDBRANCH  45  48
ENDBRANCH  42  45
ENDBRANCH   5  42
BRANCH   2  62
ATOM     62  C14 EX4 d   1      -6.813  17.594 -32.168  0.00  0.00    -0.005 A 
ATOM     63  C19 EX4 d   1      -5.826  18.258 -31.398  0.00  0.00    -0.068 A 
ATOM     64  C18 EX4 d   1      -4.542  17.713 -31.299  0.00  0.00    -0.044 A 
ATOM     65  H32 EX4 d   1      -6.065  19.184 -30.888  0.00  0.00     0.085 H 
ATOM     66  C17 EX4 d   1      -4.257  16.505 -31.973  0.00  0.00     0.131 A 
ATOM     67  H33 EX4 d   1      -3.777  18.210 -30.714  0.00  0.00     0.088 H 
ATOM     68  F   EX4 d   1      -3.048  15.980 -31.881  0.00  0.00    -0.205 F 
ATOM     69  C16 EX4 d   1      -5.244  15.848 -32.739  0.00  0.00     0.087 A 
ATOM     70  C15 EX4 d   1      -6.514  16.415 -32.848  0.00  0.00    -0.053 A 
ATOM     71  H34 EX4 d   1      -7.269  15.938 -33.462  0.00  0.00     0.086 H 
BRANCH  69  72
ATOM     72  C20 EX4 d   1      -4.984  14.503 -33.374  0.00  0.00     0.420 C 
ATOM     73  F1  EX4 d   1      -3.728  14.314 -33.762  0.00  0.00    -0.166 F 
ATOM     74  F2  EX4 d   1      -5.260  13.473 -32.535  0.00  0.00    -0.166 F 
ATOM     75  F3  EX4 d   1      -5.705  14.263 -34.475  0.00  0.00    -0.166 F 
ENDBRANCH  69  72
ENDBRANCH   2  62
TORSDOF 8
