REMARK  11 active torsions:
REMARK  status: ('A' for Active; 'I' for Inactive)
REMARK    1  A    between atoms: N7_42  and  C_1 
REMARK    2  A    between atoms: C14_4  and  N5_40 
REMARK    3  A    between atoms: N1_5  and  C28_29 
REMARK    4  A    between atoms: N5_40  and  C17_8 
REMARK    5  A    between atoms: N2_14  and  C29_30 
REMARK    6  A    between atoms: C13_17  and  O2_15 
REMARK    7  A    between atoms: O2_15  and  C5_19 
REMARK    8  A    between atoms: C6_20  and  C11_22 
REMARK       I    between atoms: N6_41  and  C6_20 
REMARK    9  A    between atoms: C29_30  and  C31_32 
REMARK   10  A    between atoms: C29_30  and  C32_33 
REMARK   11  A    between atoms: N8_43  and  C37_37 
ROOT
ATOM      1  C14 EX1 d   1      16.982  -7.745  -6.031  0.00  0.00     0.082 A 
ATOM      2  C15 EX1 d   1      17.265  -8.451  -4.867  0.00  0.00    -0.053 A 
ATOM      3  C16 EX1 d   1      17.722  -7.767  -3.737  0.00  0.00    -0.065 A 
ATOM      4  C13 EX1 d   1      17.145  -6.278  -6.022  0.00  0.00     0.096 A 
ATOM      5  C11 EX1 d   1      17.884  -6.379  -3.737  0.00  0.00     0.035 A 
ATOM      6  C12 EX1 d   1      17.603  -5.638  -4.880  0.00  0.00    -0.033 A 
ATOM      7  H6  EX1 d   1      17.132  -9.526  -4.836  0.00  0.00     0.087 H 
ATOM      8  H7  EX1 d   1      17.956  -8.327  -2.839  0.00  0.00     0.085 H 
ATOM      9  H17 EX1 d   1      17.742  -4.563  -4.878  0.00  0.00     0.089 H 
ENDROOT
BRANCH   1  10
ATOM     10  N5  EX1 d   1      16.488  -8.272  -7.175  0.00  0.00    -0.185 N 
ATOM     11  H42 EX1 d   1      16.559  -7.706  -8.033  0.00  0.00     0.184 HD
BRANCH  10  12
ATOM     12  C17 EX1 d   1      15.910  -9.484  -7.271  0.00  0.00     0.729 A 
ATOM     13  N3  EX1 d   1      16.011 -10.406  -6.297  0.00  0.00    -0.042 NA
ATOM     14  C20 EX1 d   1      15.366 -11.582  -6.409  0.00  0.00     0.178 A 
ATOM     15  C19 EX1 d   1      14.570 -11.861  -7.630  0.00  0.00     0.102 A 
ATOM     16  N2  EX1 d   1      15.555 -12.509  -5.396  0.00  0.00    -0.324 N 
ATOM     17  N1  EX1 d   1      13.831 -13.030  -7.874  0.00  0.00    -0.314 N 
ATOM     18  C18 EX1 d   1      14.496 -10.847  -8.569  0.00  0.00     0.051 A 
ATOM     19  C27 EX1 d   1      14.210 -14.257  -7.529  0.00  0.00     0.260 C 
ATOM     20  O1  EX1 d   1      13.472 -15.193  -7.790  0.00  0.00    -0.267 OA
ATOM     21  C26 EX1 d   1      15.503 -14.577  -6.841  0.00  0.00     0.059 A 
ATOM     22  C21 EX1 d   1      16.110 -13.724  -5.790  0.00  0.00     0.052 A 
ATOM     23  C25 EX1 d   1      16.142 -15.760  -7.183  0.00  0.00    -0.065 A 
ATOM     24  C22 EX1 d   1      17.314 -14.112  -5.225  0.00  0.00    -0.056 A 
ATOM     25  C23 EX1 d   1      17.918 -15.301  -5.608  0.00  0.00    -0.081 A 
ATOM     26  H9  EX1 d   1      17.787 -13.483  -4.479  0.00  0.00     0.087 H 
ATOM     27  C24 EX1 d   1      17.339 -16.115  -6.575  0.00  0.00    -0.082 A 
ATOM     28  H18 EX1 d   1      18.853 -15.599  -5.147  0.00  0.00     0.083 H 
ATOM     29  H19 EX1 d   1      17.829 -17.040  -6.858  0.00  0.00     0.083 H 
ATOM     30  H20 EX1 d   1      15.704 -16.412  -7.930  0.00  0.00     0.085 H 
ATOM     31  N4  EX1 d   1      15.156  -9.704  -8.370  0.00  0.00    -0.073 NA
ATOM     32  H8  EX1 d   1      13.902 -10.981  -9.466  0.00  0.00     0.119 H 
BRANCH  17  33
ATOM     33  C28 EX1 d   1      12.556 -12.799  -8.539  0.00  0.00    -0.011 C 
ATOM     34  H21 EX1 d   1      12.435 -11.724  -8.736  0.00  0.00     0.057 H 
ATOM     35  H22 EX1 d   1      11.737 -13.148  -7.893  0.00  0.00     0.057 H 
ATOM     36  H23 EX1 d   1      12.533 -13.351  -9.490  0.00  0.00     0.057 H 
ENDBRANCH  17  33
BRANCH  16  37
ATOM     37  C29 EX1 d   1      15.342 -12.163  -3.995  0.00  0.00     0.012 C 
ATOM     38  H24 EX1 d   1      16.289 -11.769  -3.598  0.00  0.00     0.072 H 
BRANCH  37  39
ATOM     39  C31 EX1 d   1      14.294 -11.066  -3.859  0.00  0.00    -0.057 C 
ATOM     40  H27 EX1 d   1      14.152 -10.824  -2.795  0.00  0.00     0.030 H 
ATOM     41  H28 EX1 d   1      13.342 -11.414  -4.286  0.00  0.00     0.030 H 
ATOM     42  H29 EX1 d   1      14.631 -10.168  -4.397  0.00  0.00     0.030 H 
ENDBRANCH  37  39
BRANCH  37  43
ATOM     43  C32 EX1 d   1      14.980 -13.398  -3.182  0.00  0.00    -0.057 C 
ATOM     44  H30 EX1 d   1      14.825 -13.113  -2.131  0.00  0.00     0.030 H 
ATOM     45  H31 EX1 d   1      15.797 -14.131  -3.246  0.00  0.00     0.030 H 
ATOM     46  H32 EX1 d   1      14.057 -13.842  -3.582  0.00  0.00     0.030 H 
ENDBRANCH  37  43
ENDBRANCH  16  37
ENDBRANCH  10  12
ENDBRANCH   1  10
BRANCH   4  47
ATOM     47  O2  EX1 d   1      16.849  -5.586  -7.163  0.00  0.00    -0.354 OA
BRANCH  47  48
ATOM     48  C5  EX1 d   1      16.339  -4.258  -7.091  0.00  0.00     0.010 C 
ATOM     49  H14 EX1 d   1      16.166  -3.876  -8.108  0.00  0.00     0.066 H 
ATOM     50  H15 EX1 d   1      17.067  -3.613  -6.576  0.00  0.00     0.066 H 
ATOM     51  H16 EX1 d   1      15.391  -4.259  -6.533  0.00  0.00     0.066 H 
ENDBRANCH  47  48
ENDBRANCH   4  47
BRANCH   5  52
ATOM     52  C6  EX1 d   1      18.377  -5.688  -2.493  0.00  0.00     0.253 C 
ATOM     53  N6  EX1 d   1      17.626  -4.768  -1.881  0.00  0.00    -0.348 N 
ATOM     54  C2  EX1 d   1      18.099  -4.062  -0.700  0.00  0.00    -0.000 C 
ATOM     55  C3  EX1 d   1      16.284  -4.380  -2.295  0.00  0.00    -0.000 C 
ATOM     56  C1  EX1 d   1      17.215  -4.524   0.453  0.00  0.00    -0.023 C 
ATOM     57  H4  EX1 d   1      19.151  -4.315  -0.500  0.00  0.00     0.064 H 
ATOM     58  H5  EX1 d   1      18.004  -2.975  -0.842  0.00  0.00     0.064 H 
ATOM     59  C   EX1 d   1      15.739  -4.255   0.179  0.00  0.00     0.107 C 
ATOM     60  H2  EX1 d   1      17.358  -5.605   0.601  0.00  0.00     0.038 H 
ATOM     61  H3  EX1 d   1      17.511  -3.987   1.366  0.00  0.00     0.038 H 
ATOM     62  C4  EX1 d   1      15.347  -4.828  -1.179  0.00  0.00    -0.023 C 
ATOM     63  H1  EX1 d   1      15.565  -3.169   0.180  0.00  0.00     0.084 H 
ATOM     64  H12 EX1 d   1      14.327  -4.496  -1.421  0.00  0.00     0.038 H 
ATOM     65  H13 EX1 d   1      15.370  -5.926  -1.119  0.00  0.00     0.038 H 
ATOM     66  H10 EX1 d   1      16.226  -3.289  -2.426  0.00  0.00     0.064 H 
ATOM     67  H11 EX1 d   1      16.018  -4.878  -3.239  0.00  0.00     0.064 H 
ATOM     68  O3  EX1 d   1      19.471  -5.993  -2.048  0.00  0.00    -0.267 OA
BRANCH  59  69
ATOM     69  N7  EX1 d   1      14.907  -4.882   1.218  0.00  0.00    -0.064 N 
ATOM     70  C30 EX1 d   1      15.271  -4.394   2.554  0.00  0.00     0.106 C 
ATOM     71  C33 EX1 d   1      14.435  -5.125   3.600  0.00  0.00     0.105 C 
ATOM     72  H25 EX1 d   1      16.339  -4.585   2.737  0.00  0.00     0.078 H 
ATOM     73  H26 EX1 d   1      15.076  -3.313   2.617  0.00  0.00     0.078 H 
ATOM     74  N8  EX1 d   1      13.005  -4.877   3.365  0.00  0.00    -0.072 N 
ATOM     75  H33 EX1 d   1      14.707  -4.763   4.602  0.00  0.00     0.078 H 
ATOM     76  H34 EX1 d   1      14.633  -6.205   3.534  0.00  0.00     0.078 H 
ATOM     77  C35 EX1 d   1      12.636  -5.314   2.011  0.00  0.00     0.105 C 
ATOM     78  H44 EX1 d   1      12.819  -3.891   3.459  0.00  0.00     0.279 HD
ATOM     79  C36 EX1 d   1      13.489  -4.590   0.976  0.00  0.00     0.106 C 
ATOM     80  H35 EX1 d   1      12.798  -6.398   1.922  0.00  0.00     0.078 H 
ATOM     81  H36 EX1 d   1      11.575  -5.086   1.832  0.00  0.00     0.078 H 
ATOM     82  H37 EX1 d   1      13.319  -3.506   1.055  0.00  0.00     0.078 H 
ATOM     83  H38 EX1 d   1      13.211  -4.932  -0.032  0.00  0.00     0.078 H 
ATOM     84  H43 EX1 d   1      15.048  -5.880   1.185  0.00  0.00     0.280 HD
BRANCH  74  85
ATOM     85  C37 EX1 d   1      12.208  -5.619   4.349  0.00  0.00     0.066 C 
ATOM     86  H39 EX1 d   1      12.482  -5.294   5.363  0.00  0.00     0.068 H 
ATOM     87  H40 EX1 d   1      12.405  -6.696   4.244  0.00  0.00     0.068 H 
ATOM     88  H41 EX1 d   1      11.139  -5.423   4.178  0.00  0.00     0.068 H 
ENDBRANCH  74  85
ENDBRANCH  59  69
ENDBRANCH   5  52
TORSDOF 11
