REMARK  9 active torsions:
REMARK  status: ('A' for Active; 'I' for Inactive)
REMARK    1  A    between atoms: CBO_5  and  NBT_6 
REMARK    2  A    between atoms: NBS_15  and  CAC_16 
REMARK    3  A    between atoms: C2_22  and  NBB_23 
REMARK    4  A    between atoms: NBB_23  and  CBF_24 
REMARK    5  A    between atoms: CBH_25  and  OBC_27 
REMARK    6  A    between atoms: OBC_27  and  CAA_28 
REMARK    7  A    between atoms: CBE_31  and  CBD_32 
REMARK       I    between atoms: CBD_32  and  NBQ_34 
REMARK    8  A    between atoms: CBN_39  and  NBR_40 
REMARK    9  A    between atoms: NBP_43  and  CAB_44 
ROOT
ATOM      1  CBF R4L d   1       3.060   9.744  -4.974  0.00  0.00     0.082 A 
ATOM      2  CBH R4L d   1       1.953   9.956  -5.930  0.00  0.00     0.096 A 
ATOM      3  CAM R4L d   1       0.673  10.224  -5.459  0.00  0.00    -0.033 A 
ATOM      4  CAI R4L d   1       2.790   9.834  -3.613  0.00  0.00    -0.053 A 
ATOM      5  CAH R4L d   1       1.487  10.106  -3.185  0.00  0.00    -0.065 A 
ATOM      6  CBE R4L d   1       0.437  10.297  -4.088  0.00  0.00     0.035 A 
ATOM      7  H19 R4L d   1      -0.141  10.376  -6.158  0.00  0.00     0.089 H 
ATOM      8  H23 R4L d   1       3.584   9.694  -2.889  0.00  0.00     0.087 H 
ATOM      9  H24 R4L d   1       1.285  10.171  -2.122  0.00  0.00     0.085 H 
ENDROOT
BRANCH   1  10
ATOM     10  NBB R4L d   1       4.286   9.494  -5.491  0.00  0.00    -0.185 N 
ATOM     11  H18 R4L d   1       4.503   9.908  -6.409  0.00  0.00     0.184 HD
BRANCH  10  12
ATOM     12  C2  R4L d   1       5.248   8.749  -4.906  0.00  0.00     0.729 A 
ATOM     13  N1  R4L d   1       6.070   8.010  -5.685  0.00  0.00    -0.073 NA
ATOM     14  C6  R4L d   1       7.051   7.258  -5.175  0.00  0.00     0.051 A 
ATOM     15  C5  R4L d   1       7.270   7.228  -3.805  0.00  0.00     0.102 A 
ATOM     16  H17 R4L d   1       7.678   6.669  -5.835  0.00  0.00     0.119 H 
ATOM     17  NBS R4L d   1       8.302   6.415  -3.317  0.00  0.00    -0.314 N 
ATOM     18  C4  R4L d   1       6.344   8.031  -2.969  0.00  0.00     0.178 A 
ATOM     19  CBI R4L d   1       9.128   6.773  -2.332  0.00  0.00     0.260 C 
ATOM     20  CBJ R4L d   1       8.963   7.992  -1.472  0.00  0.00     0.059 A 
ATOM     21  OAE R4L d   1      10.103   6.079  -2.094  0.00  0.00    -0.267 OA
ATOM     22  CBK R4L d   1       7.658   8.600  -1.103  0.00  0.00     0.052 A 
ATOM     23  CAJ R4L d   1      10.117   8.558  -0.948  0.00  0.00    -0.065 A 
ATOM     24  NBT R4L d   1       6.440   8.140  -1.589  0.00  0.00    -0.324 N 
ATOM     25  CAK R4L d   1       7.644   9.731  -0.303  0.00  0.00    -0.056 A 
ATOM     26  CAG R4L d   1       8.830  10.258   0.186  0.00  0.00    -0.081 A 
ATOM     27  H10 R4L d   1       6.701  10.207  -0.058  0.00  0.00     0.087 H 
ATOM     28  CAF R4L d   1      10.051   9.680  -0.133  0.00  0.00    -0.082 A 
ATOM     29  H11 R4L d   1       8.803  11.133   0.826  0.00  0.00     0.083 H 
ATOM     30  H12 R4L d   1      10.965  10.110   0.260  0.00  0.00     0.083 H 
ATOM     31  H13 R4L d   1      11.081   8.119  -1.178  0.00  0.00     0.085 H 
ATOM     32  N3  R4L d   1       5.396   8.770  -3.570  0.00  0.00    -0.042 NA
BRANCH  17  33
ATOM     33  CAC R4L d   1       8.435   5.130  -3.986  0.00  0.00    -0.011 C 
ATOM     34  H14 R4L d   1       9.266   4.567  -3.536  0.00  0.00     0.057 H 
ATOM     35  H15 R4L d   1       8.638   5.292  -5.055  0.00  0.00     0.057 H 
ATOM     36  H16 R4L d   1       7.502   4.559  -3.873  0.00  0.00     0.057 H 
ENDBRANCH  17  33
BRANCH  24  37
ATOM     37  CBO R4L d   1       5.273   7.989  -0.729  0.00  0.00     0.019 C 
ATOM     38  CAP R4L d   1       5.675   7.477   0.644  0.00  0.00    -0.046 C 
ATOM     39  CAN R4L d   1       4.502   6.622   1.114  0.00  0.00    -0.063 C 
ATOM     40  H1  R4L d   1       6.591   6.871   0.576  0.00  0.00     0.036 H 
ATOM     41  H2  R4L d   1       5.841   8.317   1.335  0.00  0.00     0.036 H 
ATOM     42  CAO R4L d   1       3.634   6.323  -0.107  0.00  0.00    -0.063 C 
ATOM     43  H3  R4L d   1       3.916   7.170   1.867  0.00  0.00     0.033 H 
ATOM     44  H4  R4L d   1       4.873   5.683   1.550  0.00  0.00     0.033 H 
ATOM     45  CAQ R4L d   1       4.314   6.963  -1.311  0.00  0.00    -0.046 C 
ATOM     46  H5  R4L d   1       2.630   6.751   0.030  0.00  0.00     0.033 H 
ATOM     47  H6  R4L d   1       3.552   5.236  -0.254  0.00  0.00     0.033 H 
ATOM     48  H7  R4L d   1       3.571   7.453  -1.958  0.00  0.00     0.036 H 
ATOM     49  H8  R4L d   1       4.864   6.207  -1.891  0.00  0.00     0.036 H 
ATOM     50  H9  R4L d   1       4.769   8.962  -0.632  0.00  0.00     0.073 H 
ENDBRANCH  24  37
ENDBRANCH  10  12
ENDBRANCH   1  10
BRANCH   2  51
ATOM     51  OBC R4L d   1       2.224   9.875  -7.268  0.00  0.00    -0.354 OA
BRANCH  51  52
ATOM     52  CAA R4L d   1       1.196  10.095  -8.229  0.00  0.00     0.010 C 
ATOM     53  H20 R4L d   1       1.611   9.986  -9.242  0.00  0.00     0.066 H 
ATOM     54  H21 R4L d   1       0.791  11.110  -8.106  0.00  0.00     0.066 H 
ATOM     55  H22 R4L d   1       0.392   9.359  -8.081  0.00  0.00     0.066 H 
ENDBRANCH  51  52
ENDBRANCH   2  51
BRANCH   6  56
ATOM     56  CBD R4L d   1      -0.958  10.590  -3.596  0.00  0.00     0.253 C 
ATOM     57  OAD R4L d   1      -1.118  11.449  -2.746  0.00  0.00    -0.267 OA
ATOM     58  NBQ R4L d   1      -1.993   9.920  -4.108  0.00  0.00    -0.348 N 
ATOM     59  CAU R4L d   1      -3.374  10.253  -3.774  0.00  0.00    -0.000 C 
ATOM     60  CAT R4L d   1      -1.822   8.832  -5.063  0.00  0.00    -0.000 C 
ATOM     61  CAS R4L d   1      -4.018   9.005  -3.180  0.00  0.00    -0.023 C 
ATOM     62  H25 R4L d   1      -3.916  10.559  -4.681  0.00  0.00     0.064 H 
ATOM     63  H26 R4L d   1      -3.396  11.072  -3.040  0.00  0.00     0.064 H 
ATOM     64  CBN R4L d   1      -3.950   7.832  -4.148  0.00  0.00     0.107 C 
ATOM     65  H27 R4L d   1      -5.072   9.220  -2.952  0.00  0.00     0.038 H 
ATOM     66  H28 R4L d   1      -3.490   8.736  -2.253  0.00  0.00     0.038 H 
ATOM     67  CAR R4L d   1      -2.481   7.589  -4.473  0.00  0.00    -0.023 C 
ATOM     68  H33 R4L d   1      -4.505   8.069  -5.068  0.00  0.00     0.084 H 
ATOM     69  H31 R4L d   1      -1.953   7.309  -3.550  0.00  0.00     0.038 H 
ATOM     70  H32 R4L d   1      -2.408   6.767  -5.200  0.00  0.00     0.038 H 
ATOM     71  H29 R4L d   1      -0.751   8.645  -5.230  0.00  0.00     0.064 H 
ATOM     72  H30 R4L d   1      -2.302   9.093  -6.018  0.00  0.00     0.064 H 
BRANCH  64  73
ATOM     73  NBR R4L d   1      -4.530   6.634  -3.518  0.00  0.00    -0.064 N 
ATOM     74  CAX R4L d   1      -4.211   5.437  -4.307  0.00  0.00     0.106 C 
ATOM     75  CAV R4L d   1      -4.788   4.202  -3.625  0.00  0.00     0.105 C 
ATOM     76  H35 R4L d   1      -3.119   5.333  -4.388  0.00  0.00     0.078 H 
ATOM     77  H36 R4L d   1      -4.646   5.536  -5.313  0.00  0.00     0.078 H 
ATOM     78  NBP R4L d   1      -6.247   4.329  -3.509  0.00  0.00    -0.072 N 
ATOM     79  H37 R4L d   1      -4.350   4.102  -2.621  0.00  0.00     0.078 H 
ATOM     80  H38 R4L d   1      -4.546   3.310  -4.221  0.00  0.00     0.078 H 
ATOM     81  CAW R4L d   1      -6.582   5.543  -2.749  0.00  0.00     0.105 C 
ATOM     82  H39 R4L d   1      -6.651   4.389  -4.430  0.00  0.00     0.279 HD
ATOM     83  CAY R4L d   1      -5.991   6.772  -3.433  0.00  0.00     0.106 C 
ATOM     84  H43 R4L d   1      -6.171   5.460  -1.732  0.00  0.00     0.078 H 
ATOM     85  H44 R4L d   1      -7.676   5.648  -2.695  0.00  0.00     0.078 H 
ATOM     86  H45 R4L d   1      -6.410   6.864  -4.446  0.00  0.00     0.078 H 
ATOM     87  H46 R4L d   1      -6.241   7.671  -2.850  0.00  0.00     0.078 H 
ATOM     88  H34 R4L d   1      -4.149   6.532  -2.590  0.00  0.00     0.280 HD
BRANCH  78  89
ATOM     89  CAB R4L d   1      -6.789   3.155  -2.812  0.00  0.00     0.066 C 
ATOM     90  H40 R4L d   1      -7.881   3.252  -2.726  0.00  0.00     0.068 H 
ATOM     91  H41 R4L d   1      -6.347   3.088  -1.807  0.00  0.00     0.068 H 
ATOM     92  H42 R4L d   1      -6.545   2.246  -3.381  0.00  0.00     0.068 H 
ENDBRANCH  78  89
ENDBRANCH  64  73
ENDBRANCH   6  56
TORSDOF 9
