REMARK  21 active torsions:
REMARK  status: ('A' for Active; 'I' for Inactive)
REMARK    1  A    between atoms: N_1  and  CA_2 
REMARK    2  A    between atoms: CA_2  and  C_3 
REMARK    3  A    between atoms: CA_2  and  CB_5 
REMARK       I    between atoms: C_3  and  N_6 
REMARK    4  A    between atoms: N_6  and  CA_7 
REMARK    5  A    between atoms: CA_7  and  C_8 
REMARK    6  A    between atoms: CA_7  and  CB_10 
REMARK       I    between atoms: C_8  and  N_13 
REMARK    7  A    between atoms: CB_10  and  CG1_11 
REMARK    8  A    between atoms: CB_10  and  CG2_12 
REMARK    9  A    between atoms: N_13  and  CA_14 
REMARK   10  A    between atoms: CA_14  and  C_15 
REMARK       I    between atoms: C_15  and  N_17 
REMARK   11  A    between atoms: N_17  and  CA_18 
REMARK   12  A    between atoms: CA_18  and  C_19 
REMARK   13  A    between atoms: CA_18  and  CB_21 
REMARK       I    between atoms: C_19  and  N_25 
REMARK   14  A    between atoms: CB_21  and  CG1_22 
REMARK   15  A    between atoms: CB_21  and  CG2_23 
REMARK   16  A    between atoms: CG1_22  and  CD1_24 
REMARK   17  A    between atoms: N_25  and  CA_26 
REMARK   18  A    between atoms: CA_26  and  C_27 
REMARK       I    between atoms: C_27  and  N_29 
REMARK   19  A    between atoms: N_29  and  CA_30 
REMARK   20  A    between atoms: CA_30  and  C_31 
REMARK   21  A    between atoms: CA_30  and  CB_33 
ROOT
ATOM      1  C   GLY d   1      36.912 -46.376 131.497  0.00  0.00     0.236 C 
ATOM      2  O   GLY d   1      37.927 -45.973 130.919  0.00  0.00    -0.272 OA
ATOM      3  N   ILE d   1      36.476 -45.846 132.642  0.00  0.00    -0.346 N 
ATOM      4  H20 ILE d   1      35.673 -46.237 133.092  0.00  0.00     0.163 HD
ENDROOT
BRANCH   3   5
ATOM      5  CA  ILE d   1      37.153 -44.705 133.246  0.00  0.00     0.092 C 
ATOM      6  H21 ILE d   1      37.310 -43.953 132.459  0.00  0.00     0.088 H 
BRANCH   5   7
ATOM      7  C   ILE d   1      38.524 -45.078 133.807  0.00  0.00     0.241 C 
ATOM      8  O   ILE d   1      39.340 -44.187 134.078  0.00  0.00    -0.271 OA
ATOM      9  N   GLY d   1      38.802 -46.367 133.998  0.00  0.00    -0.351 N 
ATOM     10  H31 GLY d   1      38.117 -47.060 133.775  0.00  0.00     0.163 HD
BRANCH   9  11
ATOM     11  CA  GLY d   1      40.084 -46.772 134.524  0.00  0.00     0.069 C 
ATOM     12  H32 GLY d   1      39.950 -47.744 135.022  0.00  0.00     0.078 H 
ATOM     13  H33 GLY d   1      40.395 -46.020 135.264  0.00  0.00     0.078 H 
BRANCH  11  14
ATOM     14  C   GLY d   1      41.205 -46.920 133.518  0.00  0.00     0.236 C 
ATOM     15  O   GLY d   1      42.349 -47.166 133.913  0.00  0.00    -0.272 OA
ATOM     16  N   ALA d   1      40.936 -46.766 132.228  0.00  0.00    -0.346 N 
ATOM     17  H34 ALA d   1      40.015 -46.516 131.930  0.00  0.00     0.163 HD
BRANCH  16  18
ATOM     18  CA  ALA d   1      41.998 -46.966 131.251  0.00  0.00     0.093 C 
ATOM     19  H35 ALA d   1      42.583 -47.846 131.558  0.00  0.00     0.089 H 
BRANCH  18  20
ATOM     20  C   ALA d   1      42.939 -45.764 131.208  0.00  0.00     0.196 C 
ATOM     21  O   ALA d   1      42.508 -44.621 131.374  0.00  0.00    -0.646 OA
ATOM     22  OXT ALA d   1      44.146 -45.916 131.007  0.00  0.00    -0.646 OA
ENDBRANCH  18  20
BRANCH  18  23
ATOM     23  CB  ALA d   1      41.419 -47.240 129.892  0.00  0.00    -0.048 C 
ATOM     24  H36 ALA d   1      42.235 -47.388 129.169  0.00  0.00     0.030 H 
ATOM     25  H37 ALA d   1      40.801 -46.386 129.578  0.00  0.00     0.030 H 
ATOM     26  H38 ALA d   1      40.797 -48.147 129.934  0.00  0.00     0.030 H 
ENDBRANCH  18  23
ENDBRANCH  16  18
ENDBRANCH  11  14
ENDBRANCH   9  11
ENDBRANCH   5   7
BRANCH   5  27
ATOM     27  CB  ILE d   1      36.259 -44.075 134.333  0.00  0.00    -0.030 C 
ATOM     28  H22 ILE d   1      36.703 -43.114 134.632  0.00  0.00     0.043 H 
BRANCH  27  29
ATOM     29  CG1 ILE d   1      36.193 -44.977 135.568  0.00  0.00    -0.063 C 
ATOM     30  H23 ILE d   1      37.196 -45.392 135.745  0.00  0.00     0.033 H 
ATOM     31  H24 ILE d   1      35.489 -45.796 135.359  0.00  0.00     0.033 H 
BRANCH  29  32
ATOM     32  CD1 ILE d   1      35.740 -44.273 136.835  0.00  0.00    -0.076 C 
ATOM     33  H28 ILE d   1      35.722 -44.992 137.667  0.00  0.00     0.027 H 
ATOM     34  H29 ILE d   1      34.731 -43.861 136.685  0.00  0.00     0.027 H 
ATOM     35  H30 ILE d   1      36.439 -43.457 137.071  0.00  0.00     0.027 H 
ENDBRANCH  29  32
ENDBRANCH  27  29
BRANCH  27  36
ATOM     36  CG2 ILE d   1      34.866 -43.808 133.782  0.00  0.00    -0.071 C 
ATOM     37  H25 ILE d   1      34.940 -43.159 132.897  0.00  0.00     0.028 H 
ATOM     38  H26 ILE d   1      34.257 -43.311 134.551  0.00  0.00     0.028 H 
ATOM     39  H27 ILE d   1      34.395 -44.761 133.500  0.00  0.00     0.028 H 
ENDBRANCH  27  36
ENDBRANCH   5  27
ENDBRANCH   3   5
BRANCH   1  40
ATOM     40  CA  GLY d   1      36.095 -47.533 130.948  0.00  0.00     0.069 C 
ATOM     41  H18 GLY d   1      36.554 -48.482 131.263  0.00  0.00     0.078 H 
ATOM     42  H19 GLY d   1      35.070 -47.472 131.344  0.00  0.00     0.078 H 
BRANCH  40  43
ATOM     43  N   GLY d   1      36.051 -47.481 129.496  0.00  0.00    -0.351 N 
ATOM     44  C   VAL d   1      36.698 -48.317 128.699  0.00  0.00     0.241 C 
ATOM     45  O   VAL d   1      37.305 -49.303 129.135  0.00  0.00    -0.271 OA
ATOM     46  H17 GLY d   1      35.495 -46.767 129.071  0.00  0.00     0.163 HD
BRANCH  44  47
ATOM     47  CA  VAL d   1      36.631 -48.032 127.202  0.00  0.00     0.092 C 
ATOM     48  H9  VAL d   1      36.990 -48.922 126.664  0.00  0.00     0.088 H 
BRANCH  47  49
ATOM     49  N   VAL d   1      35.256 -47.769 126.794  0.00  0.00    -0.346 N 
ATOM     50  C   ALA d   1      34.322 -48.719 126.870  0.00  0.00     0.248 C 
ATOM     51  O   ALA d   1      34.572 -49.888 127.170  0.00  0.00    -0.271 OA
ATOM     52  H8  VAL d   1      35.009 -46.862 126.452  0.00  0.00     0.163 HD
BRANCH  50  53
ATOM     53  CA  ALA d   1      32.894 -48.263 126.542  0.00  0.00     0.172 C 
ATOM     54  H4  ALA d   1      32.945 -47.613 125.656  0.00  0.00     0.098 H 
BRANCH  53  55
ATOM     55  N   ALA d   1      31.998 -49.374 126.224  0.00  0.00    -0.067 N 
ATOM     56  H1  ALA d   1      31.079 -49.016 126.018  0.00  0.00     0.275 HD
ATOM     57  H2  ALA d   1      31.946 -50.000 127.012  0.00  0.00     0.275 HD
ATOM     58  H3  ALA d   1      32.352 -49.872 125.422  0.00  0.00     0.275 HD
ENDBRANCH  53  55
BRANCH  53  59
ATOM     59  CB  ALA d   1      32.333 -47.444 127.706  0.00  0.00    -0.042 C 
ATOM     60  H5  ALA d   1      33.017 -46.613 127.933  0.00  0.00     0.030 H 
ATOM     61  H6  ALA d   1      32.231 -48.088 128.592  0.00  0.00     0.030 H 
ATOM     62  H7  ALA d   1      31.347 -47.042 127.430  0.00  0.00     0.030 H 
ENDBRANCH  53  59
ENDBRANCH  50  53
ENDBRANCH  47  49
BRANCH  47  63
ATOM     63  CB  VAL d   1      37.532 -46.841 126.826  0.00  0.00    -0.033 C 
ATOM     64  H10 VAL d   1      37.111 -45.933 127.283  0.00  0.00     0.042 H 
BRANCH  63  65
ATOM     65  CG1 VAL d   1      38.930 -47.042 127.375  0.00  0.00    -0.071 C 
ATOM     66  H11 VAL d   1      39.560 -46.184 127.098  0.00  0.00     0.028 H 
ATOM     67  H12 VAL d   1      39.360 -47.963 126.955  0.00  0.00     0.028 H 
ATOM     68  H13 VAL d   1      38.885 -47.125 128.471  0.00  0.00     0.028 H 
ENDBRANCH  63  65
BRANCH  63  69
ATOM     69  CG2 VAL d   1      37.558 -46.644 125.324  0.00  0.00    -0.071 C 
ATOM     70  H14 VAL d   1      36.532 -46.501 124.955  0.00  0.00     0.028 H 
ATOM     71  H15 VAL d   1      37.999 -47.531 124.846  0.00  0.00     0.028 H 
ATOM     72  H16 VAL d   1      38.162 -45.757 125.081  0.00  0.00     0.028 H 
ENDBRANCH  63  69
ENDBRANCH  47  63
ENDBRANCH  44  47
ENDBRANCH  40  43
ENDBRANCH   1  40
TORSDOF 21
