REMARK  18 active torsions:
REMARK  status: ('A' for Active; 'I' for Inactive)
REMARK    1  A    between atoms: S31_2  and  C22_5 
REMARK    2  A    between atoms: C11_7  and  S17_8 
REMARK    3  A    between atoms: C15_14  and  S21_15 
REMARK    4  A    between atoms: C3_22  and  N1_23 
REMARK       I    between atoms: N1_23  and  C2_24 
REMARK    5  A    between atoms: C2_24  and  C5_26 
REMARK    6  A    between atoms: C20_30  and  C27_31 
REMARK    7  A    between atoms: C13_32  and  N19_33 
REMARK       I    between atoms: N19_33  and  C26_34 
REMARK    8  A    between atoms: C26_34  and  C33_36 
REMARK    9  A    between atoms: C39_41  and  N41_42 
REMARK       I    between atoms: N41_42  and  C43_43 
REMARK       I    between atoms: C43_43  and  N44_45 
REMARK   10  A    between atoms: N44_45  and  C46_46 
REMARK   11  A    between atoms: C49_51  and  C51_52 
REMARK       I    between atoms: C51_52  and  N53_54 
REMARK   12  A    between atoms: N53_54  and  C55_55 
REMARK   13  A    between atoms: C57_57  and  C59_58 
REMARK   14  A    between atoms: C58_61  and  C61_62 
REMARK       I    between atoms: C61_62  and  N63_64 
REMARK   15  A    between atoms: N63_64  and  C65_65 
REMARK   16  A    between atoms: C71_68  and  S75_69 
REMARK   17  A    between atoms: C69_76  and  S73_77 
REMARK   18  A    between atoms: C76_82  and  S83_83 
ROOT
ATOM      1  N41 SVR d   1       5.523   3.673  16.685  0.00  0.00    -0.309 N 
ATOM      2  C43 SVR d   1       4.452   3.387  15.747  0.00  0.00     0.325 C 
ATOM      3  O45 SVR d   1       4.067   2.291  15.556  0.00  0.00    -0.247 OA
ATOM      4  N44 SVR d   1       3.857   4.580  15.041  0.00  0.00    -0.309 N 
ATOM      5  H17 SVR d   1       5.806   4.623  16.816  0.00  0.00     0.170 HD
ATOM      6  H18 SVR d   1       4.232   5.480  15.265  0.00  0.00     0.170 HD
ENDROOT
BRANCH   1   7
ATOM      7  C39 SVR d   1       6.218   2.606  17.460  0.00  0.00     0.037 A 
ATOM      8  C37 SVR d   1       7.549   2.351  17.153  0.00  0.00    -0.042 A 
ATOM      9  C33 SVR d   1       8.246   1.378  17.843  0.00  0.00     0.034 A 
ATOM     10  H13 SVR d   1       8.041   2.917  16.370  0.00  0.00     0.088 H 
ATOM     11  C38 SVR d   1       7.630   0.651  18.838  0.00  0.00    -0.068 A 
ATOM     12  C40 SVR d   1       6.290   0.910  19.147  0.00  0.00    -0.080 A 
ATOM     13  H14 SVR d   1       8.178  -0.114  19.376  0.00  0.00     0.085 H 
ATOM     14  C42 SVR d   1       5.584   1.884  18.463  0.00  0.00    -0.057 A 
ATOM     15  H15 SVR d   1       5.800   0.342  19.930  0.00  0.00     0.083 H 
ATOM     16  H16 SVR d   1       4.547   2.082  18.707  0.00  0.00     0.086 H 
BRANCH   9  17
ATOM     17  C26 SVR d   1       9.727   1.175  17.415  0.00  0.00     0.256 C 
ATOM     18  N19 SVR d   1      10.504   2.401  17.210  0.00  0.00    -0.322 N 
ATOM     19  H12 SVR d   1      10.068   3.285  17.376  0.00  0.00     0.169 HD
ATOM     20  O32 SVR d   1      10.205   0.107  17.248  0.00  0.00    -0.267 OA
BRANCH  18  21
ATOM     21  C13 SVR d   1      11.966   2.367  16.748  0.00  0.00     0.042 A 
ATOM     22  C8  SVR d   1      12.193   2.862  15.484  0.00  0.00    -0.041 A 
ATOM     23  C5  SVR d   1      13.475   2.884  14.957  0.00  0.00     0.034 A 
ATOM     24  H6  SVR d   1      11.363   3.237  14.896  0.00  0.00     0.088 H 
ATOM     25  C9  SVR d   1      14.535   2.413  15.694  0.00  0.00    -0.067 A 
ATOM     26  C14 SVR d   1      14.309   1.903  16.987  0.00  0.00    -0.074 A 
ATOM     27  H7  SVR d   1      15.538   2.434  15.283  0.00  0.00     0.085 H 
ATOM     28  C20 SVR d   1      13.025   1.878  17.515  0.00  0.00    -0.035 A 
ATOM     29  H8  SVR d   1      15.141   1.528  17.573  0.00  0.00     0.084 H 
BRANCH  23  30
ATOM     30  C2  SVR d   1      13.642   3.467  13.532  0.00  0.00     0.256 C 
ATOM     31  N1  SVR d   1      14.901   4.013  13.129  0.00  0.00    -0.322 N 
ATOM     32  H5  SVR d   1      15.677   4.011  13.760  0.00  0.00     0.169 HD
ATOM     33  O4  SVR d   1      12.703   3.480  12.804  0.00  0.00    -0.267 OA
BRANCH  31  34
ATOM     34  C3  SVR d   1      15.039   4.555  11.832  0.00  0.00     0.047 A 
ATOM     35  C7  SVR d   1      14.782   3.763  10.757  0.00  0.00    -0.055 A 
ATOM     36  C12 SVR d   1      14.902   4.260   9.473  0.00  0.00    -0.056 A 
ATOM     37  H4  SVR d   1      14.480   2.733  10.908  0.00  0.00     0.087 H 
ATOM     38  C15 SVR d   1      15.301   5.595   9.287  0.00  0.00     0.091 A 
ATOM     39  H3  SVR d   1      14.691   3.627   8.619  0.00  0.00     0.086 H 
ATOM     40  C10 SVR d   1      15.562   6.387  10.353  0.00  0.00     0.004 A 
ATOM     41  C16 SVR d   1      15.967   7.742  10.126  0.00  0.00    -0.047 A 
ATOM     42  C6  SVR d   1      15.439   5.895  11.652  0.00  0.00     0.027 A 
ATOM     43  C22 SVR d   1      16.235   8.557  11.192  0.00  0.00     0.083 A 
ATOM     44  H2  SVR d   1      16.061   8.120   9.114  0.00  0.00     0.087 H 
ATOM     45  C18 SVR d   1      16.113   8.063  12.530  0.00  0.00    -0.035 A 
ATOM     46  C11 SVR d   1      15.727   6.767  12.761  0.00  0.00     0.095 A 
ATOM     47  H1  SVR d   1      16.327   8.718  13.367  0.00  0.00     0.088 H 
BRANCH  38  48
ATOM     48  S21 SVR d   1      15.469   6.272   7.573  0.00  0.00     0.138 S 
ATOM     49  O28 SVR d   1      15.130   5.228   6.542  0.00  0.00    -0.591 OA
ATOM     50  O29 SVR d   1      16.920   6.571   7.235  0.00  0.00    -0.591 OA
ATOM     51  O30 SVR d   1      14.600   7.500   7.412  0.00  0.00    -0.591 OA
ENDBRANCH  38  48
BRANCH  43  52
ATOM     52  S31 SVR d   1      16.756  10.289  10.946  0.00  0.00     0.137 S 
ATOM     53  O35 SVR d   1      15.536  11.197  10.667  0.00  0.00    -0.591 OA
ATOM     54  O36 SVR d   1      17.551  10.436   9.679  0.00  0.00    -0.591 OA
ATOM     55  O34 SVR d   1      17.537  10.769  12.161  0.00  0.00    -0.591 OA
ENDBRANCH  43  52
BRANCH  46  56
ATOM     56  S17 SVR d   1      15.612   6.274  14.537  0.00  0.00     0.138 S 
ATOM     57  O23 SVR d   1      16.302   4.964  14.805  0.00  0.00    -0.591 OA
ATOM     58  O24 SVR d   1      14.183   5.985  14.948  0.00  0.00    -0.591 OA
ATOM     59  O25 SVR d   1      16.182   7.364  15.380  0.00  0.00    -0.591 OA
ENDBRANCH  46  56
ENDBRANCH  31  34
ENDBRANCH  23  30
BRANCH  28  60
ATOM     60  C27 SVR d   1      12.786   1.331  18.905  0.00  0.00    -0.049 C 
ATOM     61  H9  SVR d   1      13.741   0.999  19.338  0.00  0.00     0.033 H 
ATOM     62  H10 SVR d   1      12.093   0.479  18.849  0.00  0.00     0.033 H 
ATOM     63  H11 SVR d   1      12.350   2.118  19.539  0.00  0.00     0.033 H 
ENDBRANCH  28  60
ENDBRANCH  18  21
ENDBRANCH   9  17
ENDBRANCH   1   7
BRANCH   4  64
ATOM     64  C46 SVR d   1       2.716   4.527  14.000  0.00  0.00     0.037 A 
ATOM     65  C47 SVR d   1       3.052   4.632  12.668  0.00  0.00    -0.042 A 
ATOM     66  C49 SVR d   1       2.065   4.605  11.691  0.00  0.00     0.034 A 
ATOM     67  H19 SVR d   1       4.092   4.736  12.381  0.00  0.00     0.088 H 
ATOM     68  C52 SVR d   1       0.734   4.477  12.049  0.00  0.00    -0.068 A 
ATOM     69  C50 SVR d   1       0.396   4.377  13.395  0.00  0.00    -0.080 A 
ATOM     70  H22 SVR d   1      -0.038   4.455  11.288  0.00  0.00     0.085 H 
ATOM     71  C48 SVR d   1       1.379   4.406  14.376  0.00  0.00    -0.057 A 
ATOM     72  H21 SVR d   1      -0.645   4.276  13.681  0.00  0.00     0.083 H 
ATOM     73  H20 SVR d   1       1.109   4.335  15.424  0.00  0.00     0.086 H 
BRANCH  66  74
ATOM     74  C51 SVR d   1       2.542   4.718  10.250  0.00  0.00     0.256 C 
ATOM     75  O54 SVR d   1       1.811   4.458   9.303  0.00  0.00    -0.267 OA
ATOM     76  N53 SVR d   1       3.931   5.157  10.082  0.00  0.00    -0.322 N 
ATOM     77  H23 SVR d   1       4.463   5.367  10.903  0.00  0.00     0.169 HD
BRANCH  76  78
ATOM     78  C55 SVR d   1       4.598   5.309   8.748  0.00  0.00     0.042 A 
ATOM     79  C56 SVR d   1       4.645   4.212   7.899  0.00  0.00    -0.041 A 
ATOM     80  C58 SVR d   1       5.289   4.315   6.654  0.00  0.00     0.034 A 
ATOM     81  H24 SVR d   1       4.185   3.276   8.196  0.00  0.00     0.088 H 
ATOM     82  C62 SVR d   1       5.871   5.512   6.259  0.00  0.00    -0.067 A 
ATOM     83  C60 SVR d   1       5.824   6.624   7.126  0.00  0.00    -0.074 A 
ATOM     84  H29 SVR d   1       6.357   5.591   5.293  0.00  0.00     0.085 H 
ATOM     85  C57 SVR d   1       5.201   6.522   8.367  0.00  0.00    -0.035 A 
ATOM     86  H28 SVR d   1       6.275   7.562   6.824  0.00  0.00     0.084 H 
BRANCH  80  87
ATOM     87  C61 SVR d   1       5.285   3.070   5.714  0.00  0.00     0.256 C 
ATOM     88  O64 SVR d   1       4.447   2.220   5.906  0.00  0.00    -0.267 OA
ATOM     89  N63 SVR d   1       6.248   2.867   4.577  0.00  0.00    -0.322 N 
ATOM     90  H30 SVR d   1       6.991   3.492   4.340  0.00  0.00     0.169 HD
BRANCH  89  91
ATOM     91  C65 SVR d   1       5.941   1.618   3.864  0.00  0.00     0.047 A 
ATOM     92  C67 SVR d   1       5.003   1.746   2.844  0.00  0.00    -0.055 A 
ATOM     93  C70 SVR d   1       4.590   0.641   2.098  0.00  0.00    -0.056 A 
ATOM     94  H31 SVR d   1       4.585   2.722   2.625  0.00  0.00     0.087 H 
ATOM     95  C71 SVR d   1       5.120  -0.606   2.402  0.00  0.00     0.091 A 
ATOM     96  H32 SVR d   1       3.869   0.754   1.296  0.00  0.00     0.086 H 
ATOM     97  C68 SVR d   1       6.053  -0.752   3.439  0.00  0.00     0.004 A 
ATOM     98  C66 SVR d   1       6.474   0.351   4.195  0.00  0.00     0.027 A 
ATOM     99  C72 SVR d   1       6.557  -2.053   3.700  0.00  0.00    -0.047 A 
ATOM    100  C69 SVR d   1       7.424   0.146   5.238  0.00  0.00     0.095 A 
ATOM    101  C74 SVR d   1       7.916  -1.144   5.489  0.00  0.00    -0.035 A 
ATOM    102  C76 SVR d   1       7.487  -2.243   4.722  0.00  0.00     0.083 A 
ATOM    103  H34 SVR d   1       8.636  -1.296   6.285  0.00  0.00     0.088 H 
ATOM    104  H33 SVR d   1       6.220  -2.896   3.107  0.00  0.00     0.087 H 
BRANCH  95 105
ATOM    105  S75 SVR d   1       4.588  -2.100   1.426  0.00  0.00     0.138 S 
ATOM    106  O80 SVR d   1       3.762  -3.042   2.296  0.00  0.00    -0.591 OA
ATOM    107  O81 SVR d   1       5.790  -2.803   0.849  0.00  0.00    -0.591 OA
ATOM    108  O82 SVR d   1       3.584  -1.728   0.341  0.00  0.00    -0.591 OA
ENDBRANCH  95 105
BRANCH 100 109
ATOM    109  S73 SVR d   1       8.064   1.418   6.277  0.00  0.00     0.138 S 
ATOM    110  O77 SVR d   1       9.433   1.039   6.744  0.00  0.00    -0.591 OA
ATOM    111  O78 SVR d   1       8.367   2.670   5.522  0.00  0.00    -0.591 OA
ATOM    112  O79 SVR d   1       7.148   1.666   7.455  0.00  0.00    -0.591 OA
ENDBRANCH 100 109
BRANCH 102 113
ATOM    113  S83 SVR d   1       8.170  -3.950   5.096  0.00  0.00     0.137 S 
ATOM    114  O85 SVR d   1       7.274  -4.684   6.063  0.00  0.00    -0.591 OA
ATOM    115  O86 SVR d   1       9.581  -3.835   5.639  0.00  0.00    -0.591 OA
ATOM    116  O84 SVR d   1       8.098  -4.851   3.892  0.00  0.00    -0.591 OA
ENDBRANCH 102 113
ENDBRANCH  89  91
ENDBRANCH  80  87
BRANCH  85 117
ATOM    117  C59 SVR d   1       5.159   7.769   9.327  0.00  0.00    -0.049 C 
ATOM    118  H25 SVR d   1       5.681   8.614   8.854  0.00  0.00     0.033 H 
ATOM    119  H26 SVR d   1       5.654   7.518  10.277  0.00  0.00     0.033 H 
ATOM    120  H27 SVR d   1       4.113   8.047   9.522  0.00  0.00     0.033 H 
ENDBRANCH  85 117
ENDBRANCH  76  78
ENDBRANCH  66  74
ENDBRANCH   4  64
TORSDOF 18
