REMARK  2 active torsions:
REMARK  status: ('A' for Active; 'I' for Inactive)
REMARK    1  A    between atoms: C2_2  and  C1_1 
REMARK    2  A    between atoms: C1_1  and  C_10 
ROOT
ATOM      1  C2  EYV d   1       1.005   2.347   7.813  0.00  0.00     0.086 A 
ATOM      2  C3  EYV d   1      -0.942   3.201   7.224  0.00  0.00     0.074 A 
ATOM      3  C4  EYV d   1      -1.849   4.103   6.659  0.00  0.00    -0.054 A 
ATOM      4  C5  EYV d   1      -3.199   3.999   6.975  0.00  0.00    -0.081 A 
ATOM      5  C6  EYV d   1      -3.653   2.989   7.810  0.00  0.00    -0.082 A 
ATOM      6  C7  EYV d   1      -2.764   2.088   8.381  0.00  0.00    -0.064 A 
ATOM      7  C8  EYV d   1      -1.412   2.203   8.085  0.00  0.00     0.035 A 
ATOM      8  S   EYV d   1      -0.069   1.322   8.739  0.00  0.00    -0.072 SA
ATOM      9  N   EYV d   1       0.441   3.251   7.080  0.00  0.00    -0.244 NA
ATOM     10  H3  EYV d   1      -1.503   4.875   5.982  0.00  0.00     0.087 H 
ATOM     11  H4  EYV d   1      -3.903   4.714   6.565  0.00  0.00     0.083 H 
ATOM     12  H5  EYV d   1      -4.713   2.902   8.019  0.00  0.00     0.083 H 
ATOM     13  H6  EYV d   1      -3.119   1.309   9.046  0.00  0.00     0.085 H 
ENDROOT
BRANCH   1  14
ATOM     14  C1  EYV d   1       2.498   2.195   7.912  0.00  0.00     0.062 C 
ATOM     15  H1  EYV d   1       2.888   1.908   6.924  0.00  0.00     0.059 H 
ATOM     16  H2  EYV d   1       2.722   1.401   8.640  0.00  0.00     0.059 H 
BRANCH  14  17
ATOM     17  C   EYV d   1       3.192   3.465   8.354  0.00  0.00     0.178 C 
ATOM     18  O1  EYV d   1       2.895   4.053   9.393  0.00  0.00    -0.648 OA
ATOM     19  O   EYV d   1       4.126   3.877   7.546  0.00  0.00    -0.648 OA
ENDBRANCH  14  17
ENDBRANCH   1  14
TORSDOF 2
