REMARK  3 active torsions:
REMARK  status: ('A' for Active; 'I' for Inactive)
REMARK    1  A    between atoms: C1_1  and  C2_3 
REMARK    2  A    between atoms: C1_1  and  C_13 
REMARK    3  A    between atoms: C2_3  and  C3_4 
ROOT
ATOM      1  C3  EYY d   1       0.838   2.094   7.493  0.00  0.00     0.035 A 
ATOM      2  C4  EYY d   1       0.116   1.338   8.429  0.00  0.00    -0.058 A 
ATOM      3  C5  EYY d   1      -1.214   1.586   8.595  0.00  0.00    -0.069 A 
ATOM      4  C6  EYY d   1      -1.856   2.590   7.831  0.00  0.00    -0.007 A 
ATOM      5  C7  EYY d   1      -3.212   2.966   7.986  0.00  0.00    -0.071 A 
ATOM      6  C8  EYY d   1      -3.745   3.994   7.249  0.00  0.00    -0.082 A 
ATOM      7  C9  EYY d   1      -2.980   4.665   6.324  0.00  0.00    -0.081 A 
ATOM      8  C10 EYY d   1      -1.657   4.343   6.149  0.00  0.00    -0.054 A 
ATOM      9  C11 EYY d   1      -1.064   3.308   6.914  0.00  0.00     0.067 A 
ATOM     10  N   EYY d   1       0.286   3.071   6.762  0.00  0.00    -0.253 NA
ATOM     11  H5  EYY d   1       0.609   0.568   9.012  0.00  0.00     0.086 H 
ATOM     12  H6  EYY d   1      -1.783   1.011   9.316  0.00  0.00     0.085 H 
ATOM     13  H7  EYY d   1      -3.837   2.436   8.695  0.00  0.00     0.084 H 
ATOM     14  H8  EYY d   1      -4.780   4.280   7.398  0.00  0.00     0.083 H 
ATOM     15  H9  EYY d   1      -3.425   5.454   5.729  0.00  0.00     0.083 H 
ATOM     16  H10 EYY d   1      -1.062   4.884   5.421  0.00  0.00     0.087 H 
ENDROOT
BRANCH   1  17
ATOM     17  C2  EYY d   1       2.282   1.821   7.152  0.00  0.00    -0.016 C 
ATOM     18  H3  EYY d   1       2.393   0.739   6.991  0.00  0.00     0.043 H 
ATOM     19  H4  EYY d   1       2.517   2.357   6.220  0.00  0.00     0.043 H 
BRANCH  17  20
ATOM     20  C1  EYY d   1       3.279   2.238   8.188  0.00  0.00     0.021 C 
ATOM     21  H1  EYY d   1       4.229   1.724   7.977  0.00  0.00     0.049 H 
ATOM     22  H2  EYY d   1       2.903   1.924   9.173  0.00  0.00     0.049 H 
BRANCH  20  23
ATOM     23  C   EYY d   1       3.547   3.724   8.237  0.00  0.00     0.172 C 
ATOM     24  O1  EYY d   1       3.070   4.414   9.151  0.00  0.00    -0.648 OA
ATOM     25  O   EYY d   1       4.245   4.181   7.265  0.00  0.00    -0.648 OA
ENDBRANCH  20  23
ENDBRANCH  17  20
ENDBRANCH   1  17
TORSDOF 3
