REMARK  5 active torsions:
REMARK  status: ('A' for Active; 'I' for Inactive)
REMARK    1  A    between atoms: C3_3  and  C4_8 
REMARK    2  A    between atoms: C2_9  and  C3_3 
REMARK    3  A    between atoms: C4_8  and  C5_4 
REMARK    4  A    between atoms: C1_15  and  O_16 
REMARK    5  A    between atoms: O_16  and  C_17 
ROOT
ATOM      1  C7  EY7 d   1       0.793   5.285   4.911  0.00  0.00    -0.053 A 
ATOM      2  C8  EY7 d   1      -0.042   6.078   4.171  0.00  0.00    -0.081 A 
ATOM      3  C9  EY7 d   1      -1.421   6.040   4.370  0.00  0.00    -0.081 A 
ATOM      4  C2  EY7 d   1       0.588   2.802   7.500  0.00  0.00     0.088 A 
ATOM      5  N   EY7 d   1       1.111   3.608   6.602  0.00  0.00    -0.247 NA
ATOM      6  C6  EY7 d   1       0.262   4.401   5.877  0.00  0.00     0.086 A 
ATOM      7  C11 EY7 d   1      -1.143   4.354   6.077  0.00  0.00     0.088 A 
ATOM      8  C10 EY7 d   1      -1.974   5.199   5.300  0.00  0.00    -0.053 A 
ATOM      9  N1  EY7 d   1      -1.706   3.502   6.996  0.00  0.00    -0.221 NA
ATOM     10  C1  EY7 d   1      -0.879   2.755   7.668  0.00  0.00     0.190 A 
ATOM     11  H3  EY7 d   1       1.865   5.335   4.755  0.00  0.00     0.087 H 
ATOM     12  H4  EY7 d   1       0.374   6.743   3.422  0.00  0.00     0.083 H 
ATOM     13  H5  EY7 d   1      -2.064   6.684   3.781  0.00  0.00     0.083 H 
ATOM     14  H8  EY7 d   1      -3.049   5.180   5.441  0.00  0.00     0.087 H 
ENDROOT
BRANCH   4  15
ATOM     15  C3  EY7 d   1       1.504   1.925   8.314  0.00  0.00    -0.011 C 
ATOM     16  H1  EY7 d   1       1.313   2.132   9.377  0.00  0.00     0.043 H 
ATOM     17  H2  EY7 d   1       1.252   0.877   8.094  0.00  0.00     0.043 H 
BRANCH  15  18
ATOM     18  C4  EY7 d   1       2.986   2.109   8.064  0.00  0.00     0.021 C 
ATOM     19  H6  EY7 d   1       3.188   1.841   7.016  0.00  0.00     0.049 H 
ATOM     20  H7  EY7 d   1       3.529   1.422   8.730  0.00  0.00     0.049 H 
BRANCH  18  21
ATOM     21  C5  EY7 d   1       3.519   3.492   8.296  0.00  0.00     0.172 C 
ATOM     22  O1  EY7 d   1       2.976   4.135   9.342  0.00  0.00    -0.648 OA
ATOM     23  O2  EY7 d   1       4.371   3.935   7.585  0.00  0.00    -0.648 OA
ENDBRANCH  18  21
ENDBRANCH  15  18
ENDBRANCH   4  15
BRANCH  10  24
ATOM     24  O   EY7 d   1      -1.254   1.828   8.580  0.00  0.00    -0.338 OA
BRANCH  24  25
ATOM     25  C   EY7 d   1      -2.629   1.826   9.000  0.00  0.00     0.012 C 
ATOM     26  H9  EY7 d   1      -2.786   1.025   9.737  0.00  0.00     0.067 H 
ATOM     27  H10 EY7 d   1      -3.278   1.655   8.129  0.00  0.00     0.067 H 
ATOM     28  H11 EY7 d   1      -2.875   2.797   9.455  0.00  0.00     0.067 H 
ENDBRANCH  24  25
ENDBRANCH  10  24
TORSDOF 5
