REMARK  4 active torsions:
REMARK  status: ('A' for Active; 'I' for Inactive)
REMARK    1  A    between atoms: C4_6  and  C5_2 
REMARK    2  A    between atoms: C3_9  and  C2_5 
REMARK    3  A    between atoms: C4_6  and  C3_9 
REMARK    4  A    between atoms: N_13  and  C_14 
ROOT
ATOM      1  C8  EYM d   1      -1.133   5.447   4.478  0.00  0.00    -0.081 A 
ATOM      2  C6  EYM d   1      -0.375   3.949   6.203  0.00  0.00     0.084 A 
ATOM      3  N1  EYM d   1       0.687   3.290   6.813  0.00  0.00    -0.246 NA
ATOM      4  C2  EYM d   1       0.441   2.475   7.787  0.00  0.00     0.103 A 
ATOM      5  O2  EYM d   1      -1.108   1.420   9.254  0.00  0.00    -0.266 OA
ATOM      6  C1  EYM d   1      -0.935   2.181   8.312  0.00  0.00     0.272 A 
ATOM      7  C11 EYM d   1      -1.707   3.760   6.614  0.00  0.00     0.066 A 
ATOM      8  N   EYM d   1      -1.948   2.869   7.689  0.00  0.00    -0.315 N 
ATOM      9  C10 EYM d   1      -2.738   4.419   5.943  0.00  0.00    -0.055 A 
ATOM     10  C9  EYM d   1      -2.440   5.257   4.880  0.00  0.00    -0.081 A 
ATOM     11  C7  EYM d   1      -0.098   4.803   5.135  0.00  0.00    -0.053 A 
ATOM     12  H1  EYM d   1      -0.916   6.104   3.643  0.00  0.00     0.083 H 
ATOM     13  H9  EYM d   1      -3.767   4.276   6.252  0.00  0.00     0.087 H 
ATOM     14  H10 EYM d   1      -3.241   5.768   4.359  0.00  0.00     0.083 H 
ATOM     15  H11 EYM d   1       0.927   4.962   4.820  0.00  0.00     0.087 H 
ENDROOT
BRANCH   4  16
ATOM     16  C3  EYM d   1       1.580   1.820   8.499  0.00  0.00    -0.010 C 
ATOM     17  H4  EYM d   1       1.441   0.731   8.425  0.00  0.00     0.043 H 
ATOM     18  H5  EYM d   1       1.536   2.124   9.555  0.00  0.00     0.043 H 
BRANCH  16  19
ATOM     19  C4  EYM d   1       2.943   2.141   7.990  0.00  0.00     0.021 C 
ATOM     20  H2  EYM d   1       3.645   1.421   8.436  0.00  0.00     0.049 H 
ATOM     21  H3  EYM d   1       2.931   2.013   6.897  0.00  0.00     0.049 H 
BRANCH  19  22
ATOM     22  C5  EYM d   1       3.456   3.523   8.284  0.00  0.00     0.172 C 
ATOM     23  O1  EYM d   1       2.985   4.117   9.366  0.00  0.00    -0.648 OA
ATOM     24  O   EYM d   1       4.290   3.987   7.561  0.00  0.00    -0.648 OA
ENDBRANCH  19  22
ENDBRANCH  16  19
ENDBRANCH   4  16
BRANCH   8  25
ATOM     25  C   EYM d   1      -3.293   2.729   8.254  0.00  0.00    -0.011 C 
ATOM     26  H6  EYM d   1      -3.272   1.995   9.073  0.00  0.00     0.057 H 
ATOM     27  H7  EYM d   1      -3.986   2.385   7.471  0.00  0.00     0.057 H 
ATOM     28  H8  EYM d   1      -3.631   3.701   8.642  0.00  0.00     0.057 H 
ENDBRANCH   8  25
TORSDOF 4
