REMARK  3 active torsions:
REMARK  status: ('A' for Active; 'I' for Inactive)
REMARK    1  A    between atoms: C2_2  and  C1_1 
REMARK    2  A    between atoms: C1_1  and  C_7 
REMARK    3  A    between atoms: C3_3  and  C2_2 
ROOT
ATOM      1  C3  EYJ d   1       0.985   2.156   7.507  0.00  0.00     0.077 A 
ATOM      2  C6  EYJ d   1      -2.932   4.475   6.745  0.00  0.00    -0.081 A 
ATOM      3  C4  EYJ d   1      -0.799   3.383   7.027  0.00  0.00     0.074 A 
ATOM      4  S   EYJ d   1      -0.214   1.334   8.481  0.00  0.00    -0.073 SA
ATOM      5  C9  EYJ d   1      -1.405   2.478   7.906  0.00  0.00     0.035 A 
ATOM      6  N   EYJ d   1       0.577   3.183   6.826  0.00  0.00    -0.245 NA
ATOM      7  C8  EYJ d   1      -2.757   2.577   8.223  0.00  0.00    -0.064 A 
ATOM      8  C7  EYJ d   1      -3.512   3.578   7.632  0.00  0.00    -0.082 A 
ATOM      9  C5  EYJ d   1      -1.575   4.383   6.430  0.00  0.00    -0.054 A 
ATOM     10  H5  EYJ d   1      -3.537   5.253   6.294  0.00  0.00     0.083 H 
ATOM     11  H6  EYJ d   1      -3.212   1.883   8.920  0.00  0.00     0.085 H 
ATOM     12  H7  EYJ d   1      -4.567   3.662   7.865  0.00  0.00     0.083 H 
ATOM     13  H8  EYJ d   1      -1.127   5.079   5.730  0.00  0.00     0.087 H 
ENDROOT
BRANCH   1  14
ATOM     14  C2  EYJ d   1       2.360   1.583   7.379  0.00  0.00    -0.009 C 
ATOM     15  H3  EYJ d   1       2.304   0.504   7.584  0.00  0.00     0.043 H 
ATOM     16  H4  EYJ d   1       2.706   1.743   6.347  0.00  0.00     0.043 H 
BRANCH  14  17
ATOM     17  C1  EYJ d   1       3.351   2.177   8.296  0.00  0.00     0.021 C 
ATOM     18  H1  EYJ d   1       4.326   1.726   8.060  0.00  0.00     0.049 H 
ATOM     19  H2  EYJ d   1       3.057   1.899   9.319  0.00  0.00     0.049 H 
BRANCH  17  20
ATOM     20  C   EYJ d   1       3.532   3.668   8.273  0.00  0.00     0.172 C 
ATOM     21  O1  EYJ d   1       3.093   4.332   9.218  0.00  0.00    -0.648 OA
ATOM     22  O   EYJ d   1       4.243   4.157   7.275  0.00  0.00    -0.648 OA
ENDBRANCH  17  20
ENDBRANCH  14  17
ENDBRANCH   1  14
TORSDOF 3
