REMARK  5 active torsions:
REMARK  status: ('A' for Active; 'I' for Inactive)
REMARK    1  A    between atoms: C8_5  and  S9_13 
REMARK    2  A    between atoms: SE4_14  and  C5_6 
REMARK    3  A    between atoms: C3_9  and  C2_8 
REMARK    4  A    between atoms: C3_9  and  SE4_14 
REMARK    5  A    between atoms: S9_13  and  N11_10 
ROOT
ATOM      1  C7  EZ1 d   1      -3.058   4.561  85.667  0.00  0.00    -0.059 A 
ATOM      2  C13 EZ1 d   1      -0.907   3.505  85.644  0.00  0.00    -0.059 A 
ATOM      3  C6  EZ1 d   1      -2.600   5.572  84.888  0.00  0.00    -0.071 A 
ATOM      4  C14 EZ1 d   1      -0.462   4.534  84.838  0.00  0.00    -0.071 A 
ATOM      5  C8  EZ1 d   1      -2.237   3.492  86.037  0.00  0.00     0.079 A 
ATOM      6  C5  EZ1 d   1      -1.307   5.560  84.445  0.00  0.00    -0.026 A 
ATOM      7  H1  EZ1 d   1      -4.086   4.582  86.011  0.00  0.00     0.085 H 
ATOM      8  H2  EZ1 d   1      -0.229   2.722  85.964  0.00  0.00     0.085 H 
ATOM      9  H3  EZ1 d   1      -3.259   6.389  84.617  0.00  0.00     0.084 H 
ATOM     10  H4  EZ1 d   1       0.570   4.540  84.506  0.00  0.00     0.084 H 
ENDROOT
BRANCH   6  11
ATOM     11 SE4  EZ1 d   1      -0.730   6.966  83.270  0.00  0.00     0.000 Se
BRANCH  11  12
ATOM     12  C3  EZ1 d   1       1.005   7.349  84.061  0.00  0.00    -0.048 C 
ATOM     13  H8  EZ1 d   1       1.351   6.453  84.597  0.00  0.00     0.039 H 
ATOM     14  H9  EZ1 d   1       1.712   7.590  83.254  0.00  0.00     0.039 H 
BRANCH  12  15
ATOM     15  C2  EZ1 d   1       0.970   8.518  85.041  0.00  0.00    -0.112 C 
ATOM     16  C1  EZ1 d   1       1.735   9.607  84.864  0.00  0.00    -0.125 C 
ATOM     17  H5  EZ1 d   1       1.690  10.427  85.580  0.00  0.00     0.066 H 
ATOM     18  H6  EZ1 d   1       2.401   9.671  84.005  0.00  0.00     0.066 H 
ATOM     19  H7  EZ1 d   1       0.309   8.468  85.905  0.00  0.00     0.075 H 
ENDBRANCH  12  15
ENDBRANCH  11  12
ENDBRANCH   6  11
BRANCH   5  20
ATOM     20  S9  EZ1 d   1      -2.860   2.185  87.072  0.00  0.00     0.256 S 
ATOM     21  O10 EZ1 d   1      -2.265   2.389  88.361  0.00  0.00    -0.201 OA
ATOM     22  O12 EZ1 d   1      -4.305   2.318  86.960  0.00  0.00    -0.201 OA
BRANCH  20  23
ATOM     23  N11 EZ1 d   1      -2.323   0.810  86.389  0.00  0.00    -0.324 N 
ATOM     24  H10 EZ1 d   1      -2.549  -0.073  86.799  0.00  0.00     0.169 HD
ATOM     25  H11 EZ1 d   1      -1.767   0.848  85.559  0.00  0.00     0.169 HD
ENDBRANCH  20  23
ENDBRANCH   5  20
TORSDOF 5
