REMARK  26 active torsions:
REMARK  status: ('A' for Active; 'I' for Inactive)
REMARK    1  A    between atoms: C_1  and  CH3_3 
REMARK       I    between atoms: C_1  and  N_4 
REMARK    2  A    between atoms: N_4  and  CA_5 
REMARK    3  A    between atoms: CA_5  and  C_6 
REMARK       I    between atoms: C_6  and  N_8 
REMARK    4  A    between atoms: N_8  and  CA_9 
REMARK    5  A    between atoms: CA_9  and  C_10 
REMARK    6  A    between atoms: CA_9  and  CB_12 
REMARK       I    between atoms: C_10  and  N_15 
REMARK    7  A    between atoms: CB_12  and  CG1_13 
REMARK    8  A    between atoms: CB_12  and  CG2_14 
REMARK    9  A    between atoms: N_15  and  CA_16 
REMARK   10  A    between atoms: CA_16  and  C_17 
REMARK   11  A    between atoms: CA_16  and  CB_19 
REMARK       I    between atoms: C_17  and  N_23 
REMARK   12  A    between atoms: CB_19  and  CG_20 
REMARK   13  A    between atoms: CG_20  and  CD_21 
REMARK   14  A    between atoms: CD_21  and  CE_22 
REMARK   15  A    between atoms: N_23  and  CA_24 
REMARK   16  A    between atoms: CA_24  and  C_25 
REMARK   17  A    between atoms: CA_24  and  CB_27 
REMARK       I    between atoms: C_25  and  N_34 
REMARK   18  A    between atoms: CB_27  and  CG_28 
REMARK   19  A    between atoms: CG_28  and  CD_29 
REMARK   20  A    between atoms: CD_29  and  NE_30 
REMARK       I    between atoms: NE_30  and  CZ_31 
REMARK       I    between atoms: CZ_31  and  NH1_32 
REMARK   21  A    between atoms: N_34  and  CA_35 
REMARK   22  A    between atoms: CA_35  and  C_36 
REMARK   23  A    between atoms: CA_35  and  CB_38 
REMARK       I    between atoms: C_36  and  N_42 
REMARK   24  A    between atoms: CB_38  and  CG1_39 
REMARK   25  A    between atoms: CB_38  and  CG2_40 
REMARK   26  A    between atoms: CG1_39  and  CD1_41 
ROOT
ATOM      1  C   NLE d   1      34.482  19.686  39.959  0.00  0.00     0.241 C 
ATOM      2  O   NLE d   1      35.226  20.168  39.109  0.00  0.00    -0.271 OA
ATOM      3  N   ARG d   1      34.037  18.445  39.902  0.00  0.00    -0.346 N 
ATOM      4  H27 ARG d   1      33.487  18.095  40.660  0.00  0.00     0.163 HD
ENDROOT
BRANCH   1   5
ATOM      5  CA  NLE d   1      34.015  20.486  41.145  0.00  0.00     0.089 C 
ATOM      6  H17 NLE d   1      33.868  19.815  42.004  0.00  0.00     0.087 H 
BRANCH   5   7
ATOM      7  N   NLE d   1      35.019  21.456  41.479  0.00  0.00    -0.346 N 
ATOM      8  C   VAL d   1      36.167  21.116  42.072  0.00  0.00     0.241 C 
ATOM      9  O   VAL d   1      36.447  19.945  42.376  0.00  0.00    -0.271 OA
ATOM     10  H16 NLE d   1      34.854  22.418  41.261  0.00  0.00     0.163 HD
BRANCH   8  11
ATOM     11  CA  VAL d   1      37.144  22.265  42.356  0.00  0.00     0.092 C 
ATOM     12  H8  VAL d   1      36.584  23.210  42.306  0.00  0.00     0.088 H 
BRANCH  11  13
ATOM     13  N   VAL d   1      37.743  22.159  43.714  0.00  0.00    -0.346 N 
ATOM     14  C   GLY d   1      37.551  23.059  44.702  0.00  0.00     0.236 C 
ATOM     15  O   GLY d   1      36.827  23.990  44.457  0.00  0.00    -0.272 OA
ATOM     16  H7  VAL d   1      38.326  21.370  43.907  0.00  0.00     0.163 HD
BRANCH  14  17
ATOM     17  CA  GLY d   1      38.363  22.639  45.801  0.00  0.00     0.069 C 
ATOM     18  H5  GLY d   1      38.049  21.691  46.262  0.00  0.00     0.078 H 
ATOM     19  H6  GLY d   1      39.440  22.601  45.582  0.00  0.00     0.078 H 
BRANCH  17  20
ATOM     20  N   GLY d   1      37.935  23.833  46.524  0.00  0.00    -0.353 N 
ATOM     21  C   ACE d   1      38.719  24.476  47.371  0.00  0.00     0.213 C 
ATOM     22  O   ACE d   1      38.268  25.176  48.274  0.00  0.00    -0.274 OA
ATOM     23  H4  GLY d   1      37.009  24.179  46.372  0.00  0.00     0.162 HD
BRANCH  21  24
ATOM     24  CH3 ACE d   1      40.224  24.300  47.199  0.00  0.00    -0.003 C 
ATOM     25  H1  ACE d   1      40.420  23.641  46.340  0.00  0.00     0.040 H 
ATOM     26  H2  ACE d   1      40.647  23.851  48.110  0.00  0.00     0.040 H 
ATOM     27  H3  ACE d   1      40.690  25.281  47.023  0.00  0.00     0.040 H 
ENDBRANCH  21  24
ENDBRANCH  17  20
ENDBRANCH  14  17
ENDBRANCH  11  13
BRANCH  11  28
ATOM     28  CB  VAL d   1      38.249  22.296  41.273  0.00  0.00    -0.033 C 
ATOM     29  H9  VAL d   1      38.758  21.321  41.265  0.00  0.00     0.042 H 
BRANCH  28  30
ATOM     30  CG1 VAL d   1      37.685  22.561  39.889  0.00  0.00    -0.071 C 
ATOM     31  H10 VAL d   1      38.505  22.574  39.155  0.00  0.00     0.028 H 
ATOM     32  H11 VAL d   1      37.172  23.534  39.882  0.00  0.00     0.028 H 
ATOM     33  H12 VAL d   1      36.970  21.767  39.626  0.00  0.00     0.028 H 
ENDBRANCH  28  30
BRANCH  28  34
ATOM     34  CG2 VAL d   1      39.262  23.389  41.608  0.00  0.00    -0.071 C 
ATOM     35  H13 VAL d   1      39.679  23.208  42.610  0.00  0.00     0.028 H 
ATOM     36  H14 VAL d   1      38.763  24.369  41.590  0.00  0.00     0.028 H 
ATOM     37  H15 VAL d   1      40.074  23.377  40.866  0.00  0.00     0.028 H 
ENDBRANCH  28  34
ENDBRANCH  11  28
ENDBRANCH   8  11
ENDBRANCH   5   7
BRANCH   5  38
ATOM     38  CB  NLE d   1      32.678  21.151  40.800  0.00  0.00    -0.038 C 
ATOM     39  H18 NLE d   1      31.931  20.356  40.658  0.00  0.00     0.036 H 
ATOM     40  H19 NLE d   1      32.808  21.705  39.858  0.00  0.00     0.036 H 
BRANCH  38  41
ATOM     41  CG  NLE d   1      32.132  22.133  41.857  0.00  0.00    -0.063 C 
ATOM     42  H20 NLE d   1      32.931  22.824  42.163  0.00  0.00     0.033 H 
ATOM     43  H21 NLE d   1      31.778  21.570  42.733  0.00  0.00     0.033 H 
BRANCH  41  44
ATOM     44  CD  NLE d   1      30.964  22.933  41.255  0.00  0.00    -0.068 C 
ATOM     45  H22 NLE d   1      30.156  22.235  40.991  0.00  0.00     0.032 H 
ATOM     46  H23 NLE d   1      31.316  23.447  40.348  0.00  0.00     0.032 H 
BRANCH  44  47
ATOM     47  CE  NLE d   1      30.423  23.962  42.218  0.00  0.00    -0.077 C 
ATOM     48  H24 NLE d   1      29.593  24.506  41.745  0.00  0.00     0.027 H 
ATOM     49  H25 NLE d   1      31.221  24.670  42.484  0.00  0.00     0.027 H 
ATOM     50  H26 NLE d   1      30.061  23.459  43.127  0.00  0.00     0.027 H 
ENDBRANCH  44  47
ENDBRANCH  41  44
ENDBRANCH  38  41
ENDBRANCH   5  38
ENDBRANCH   1   5
BRANCH   3  51
ATOM     51  CA  ARG d   1      34.316  17.578  38.787  0.00  0.00     0.089 C 
ATOM     52  H28 ARG d   1      34.820  18.150  37.995  0.00  0.00     0.087 H 
BRANCH  51  53
ATOM     53  C   ARG d   1      33.009  17.022  38.241  0.00  0.00     0.241 C 
ATOM     54  O   ARG d   1      32.036  16.859  38.974  0.00  0.00    -0.271 OA
ATOM     55  N   ILE d   1      33.012  16.720  36.953  0.00  0.00    -0.346 N 
ATOM     56  H40 ILE d   1      33.862  16.828  36.438  0.00  0.00     0.163 HD
BRANCH  55  57
ATOM     57  CA  ILE d   1      31.828  16.236  36.251  0.00  0.00     0.092 C 
ATOM     58  H41 ILE d   1      30.991  16.898  36.519  0.00  0.00     0.088 H 
BRANCH  57  59
ATOM     59  C   ILE d   1      31.451  14.827  36.697  0.00  0.00     0.238 C 
ATOM     60  O   ILE d   1      32.330  13.992  36.954  0.00  0.00    -0.271 OA
ATOM     61  N   NH2 d   1      30.187  14.735  36.904  0.00  0.00    -0.368 N 
ATOM     62  H51 NH2 d   1      29.791  13.867  37.202  0.00  0.00     0.159 HD
ATOM     63  H52 NH2 d   1      29.599  15.532  36.767  0.00  0.00     0.159 HD
ENDBRANCH  57  59
BRANCH  57  64
ATOM     64  CB  ILE d   1      32.020  16.332  34.723  0.00  0.00    -0.030 C 
ATOM     65  H42 ILE d   1      32.975  15.854  34.458  0.00  0.00     0.043 H 
BRANCH  64  66
ATOM     66  CG1 ILE d   1      32.067  17.813  34.310  0.00  0.00    -0.063 C 
ATOM     67  H43 ILE d   1      32.336  18.407  35.196  0.00  0.00     0.033 H 
ATOM     68  H44 ILE d   1      31.064  18.104  33.965  0.00  0.00     0.033 H 
BRANCH  66  69
ATOM     69  CD1 ILE d   1      33.054  18.134  33.211  0.00  0.00    -0.076 C 
ATOM     70  H48 ILE d   1      33.015  19.210  32.986  0.00  0.00     0.027 H 
ATOM     71  H49 ILE d   1      32.796  17.561  32.308  0.00  0.00     0.027 H 
ATOM     72  H50 ILE d   1      34.069  17.864  33.539  0.00  0.00     0.027 H 
ENDBRANCH  66  69
ENDBRANCH  64  66
BRANCH  64  73
ATOM     73  CG2 ILE d   1      30.892  15.625  33.961  0.00  0.00    -0.071 C 
ATOM     74  H45 ILE d   1      30.858  14.566  34.256  0.00  0.00     0.028 H 
ATOM     75  H46 ILE d   1      31.078  15.698  32.879  0.00  0.00     0.028 H 
ATOM     76  H47 ILE d   1      29.931  16.104  34.201  0.00  0.00     0.028 H 
ENDBRANCH  64  73
ENDBRANCH  57  64
ENDBRANCH  55  57
ENDBRANCH  51  53
BRANCH  51  77
ATOM     77  CB  ARG d   1      35.241  16.453  39.259  0.00  0.00    -0.036 C 
ATOM     78  H29 ARG d   1      35.360  15.726  38.442  0.00  0.00     0.036 H 
ATOM     79  H30 ARG d   1      34.782  15.958  40.127  0.00  0.00     0.036 H 
BRANCH  77  80
ATOM     80  CG  ARG d   1      36.621  16.971  39.661  0.00  0.00    -0.048 C 
ATOM     81  H31 ARG d   1      36.493  17.762  40.414  0.00  0.00     0.035 H 
ATOM     82  H32 ARG d   1      37.112  17.389  38.770  0.00  0.00     0.035 H 
BRANCH  80  83
ATOM     83  CD  ARG d   1      37.514  15.887  40.243  0.00  0.00     0.009 C 
ATOM     84  H33 ARG d   1      38.511  16.312  40.430  0.00  0.00     0.064 H 
ATOM     85  H34 ARG d   1      37.596  15.067  39.515  0.00  0.00     0.064 H 
BRANCH  83  86
ATOM     86  NE  ARG d   1      36.987  15.350  41.501  0.00  0.00    -0.227 N 
ATOM     87  CZ  ARG d   1      37.606  14.449  42.271  0.00  0.00     0.665 C 
ATOM     88  NH1 ARG d   1      38.805  13.961  41.930  0.00  0.00    -0.235 N 
ATOM     89  NH2 ARG d   1      37.024  14.035  43.396  0.00  0.00    -0.235 N 
ATOM     90  H36 ARG d   1      39.269  13.267  42.533  0.00  0.00     0.174 HD
ATOM     91  H37 ARG d   1      39.263  14.279  41.064  0.00  0.00     0.174 HD
ATOM     92  H38 ARG d   1      36.102  14.406  43.665  0.00  0.00     0.174 HD
ATOM     93  H39 ARG d   1      37.497  13.344  43.996  0.00  0.00     0.174 HD
ATOM     94  H35 ARG d   1      36.069  15.693  41.816  0.00  0.00     0.177 HD
ENDBRANCH  83  86
ENDBRANCH  80  83
ENDBRANCH  77  80
ENDBRANCH  51  77
ENDBRANCH   3  51
TORSDOF 26
