REMARK  11 active torsions:
REMARK  status: ('A' for Active; 'I' for Inactive)
REMARK    1  A    between atoms: C2'_2  and  C2A_3 
REMARK    2  A    between atoms: C4'_5  and  N4'_6 
REMARK    3  A    between atoms: C5'_7  and  C35_9 
REMARK    4  A    between atoms: C35_9  and  N3_10 
REMARK    5  A    between atoms: C5_13  and  C5A_16 
REMARK    6  A    between atoms: C4_14  and  C4A_15 
REMARK    7  A    between atoms: C5A_16  and  C5B_17 
REMARK    8  A    between atoms: C5B_17  and  O5G_18 
REMARK    9  A    between atoms: O5G_18  and  P1_19 
REMARK   10  A    between atoms: P1_19  and  O11_20 
REMARK   11  A    between atoms: O11_20  and  P2_23 
ROOT
ATOM      1  N3  TDP d   1     -24.660  12.132  32.031  0.00  0.00    -0.349 N 
ATOM      2  C2  TDP d   1     -24.728  10.871  31.555  0.00  0.00     0.018 A 
ATOM      3  S1  TDP d   1     -24.889  10.737  29.821  0.00  0.00    -0.087 SA
ATOM      4  C5  TDP d   1     -24.862  12.466  29.739  0.00  0.00     0.008 A 
ATOM      5  C4  TDP d   1     -24.727  13.083  31.081  0.00  0.00     0.021 A 
ATOM      6  H9  TDP d   1     -24.686   9.999  32.206  0.00  0.00     0.123 H 
ENDROOT
BRANCH   1   7
ATOM      7  C35 TDP d   1     -24.524  12.439  33.454  0.00  0.00     0.028 C 
ATOM      8  H7  TDP d   1     -24.863  13.469  33.641  0.00  0.00     0.072 H 
ATOM      9  H8  TDP d   1     -25.137  11.739  34.040  0.00  0.00     0.072 H 
BRANCH   7  10
ATOM     10  C5' TDP d   1     -23.075  12.304  33.862  0.00  0.00     0.023 A 
ATOM     11  C4' TDP d   1     -22.400  10.986  33.851  0.00  0.00     0.132 A 
ATOM     12  N3' TDP d   1     -21.106  10.925  34.225  0.00  0.00    -0.216 NA
ATOM     13  C2' TDP d   1     -20.448  12.047  34.599  0.00  0.00     0.124 A 
ATOM     14  N1' TDP d   1     -21.058  13.258  34.612  0.00  0.00    -0.245 NA
ATOM     15  C6' TDP d   1     -22.340  13.412  34.257  0.00  0.00     0.015 A 
ATOM     16  H6  TDP d   1     -22.799  14.394  34.278  0.00  0.00     0.116 H 
BRANCH  11  17
ATOM     17  N4' TDP d   1     -23.066   9.868  33.475  0.00  0.00    -0.383 N 
ATOM     18  H4  TDP d   1     -24.054   9.928  33.191  0.00  0.00     0.157 HD
ATOM     19  H5  TDP d   1     -22.584   8.958  33.473  0.00  0.00     0.157 HD
ENDBRANCH  11  17
BRANCH  13  20
ATOM     20  C2A TDP d   1     -19.003  11.949  35.011  0.00  0.00    -0.019 C 
ATOM     21  H1  TDP d   1     -18.630  12.948  35.281  0.00  0.00     0.037 H 
ATOM     22  H2  TDP d   1     -18.410  11.550  34.175  0.00  0.00     0.037 H 
ATOM     23  H3  TDP d   1     -18.914  11.278  35.878  0.00  0.00     0.037 H 
ENDBRANCH  13  20
ENDBRANCH   7  10
ENDBRANCH   1   7
BRANCH   5  24
ATOM     24  C4A TDP d   1     -24.674  14.565  31.344  0.00  0.00    -0.036 C 
ATOM     25  H10 TDP d   1     -24.749  15.109  30.391  0.00  0.00     0.035 H 
ATOM     26  H11 TDP d   1     -23.723  14.816  31.836  0.00  0.00     0.035 H 
ATOM     27  H12 TDP d   1     -25.511  14.852  31.997  0.00  0.00     0.035 H 
ENDBRANCH   5  24
BRANCH   4  28
ATOM     28  C5A TDP d   1     -24.977  13.042  28.348  0.00  0.00    -0.013 C 
ATOM     29  H13 TDP d   1     -24.492  12.365  27.630  0.00  0.00     0.044 H 
ATOM     30  H14 TDP d   1     -24.484  14.025  28.316  0.00  0.00     0.044 H 
BRANCH  28  31
ATOM     31  C5B TDP d   1     -26.449  13.200  27.983  0.00  0.00     0.036 C 
ATOM     32  H15 TDP d   1     -26.550  13.948  27.183  0.00  0.00     0.075 H 
ATOM     33  H16 TDP d   1     -27.013  13.531  28.868  0.00  0.00     0.075 H 
BRANCH  31  34
ATOM     34  O5G TDP d   1     -26.963  11.949  27.532  0.00  0.00    -0.289 OA
BRANCH  34  35
ATOM     35  P1  TDP d   1     -27.227  11.691  25.964  0.00  0.00     0.418 P 
ATOM     36  O12 TDP d   1     -28.581  12.260  25.613  0.00  0.00    -0.624 OA
ATOM     37  O13 TDP d   1     -26.917  10.244  25.665  0.00  0.00    -0.624 OA
BRANCH  35  38
ATOM     38  O11 TDP d   1     -26.100  12.603  25.263  0.00  0.00    -0.173 OA
BRANCH  38  39
ATOM     39  P2  TDP d   1     -24.670  11.976  24.872  0.00  0.00     0.431 P 
ATOM     40  O21 TDP d   1     -24.879  11.431  23.480  0.00  0.00    -0.616 OA
ATOM     41  O22 TDP d   1     -23.725  13.152  24.946  0.00  0.00    -0.616 OA
ATOM     42  O23 TDP d   1     -24.435  10.920  25.926  0.00  0.00    -0.616 OA
ENDBRANCH  38  39
ENDBRANCH  35  38
ENDBRANCH  34  35
ENDBRANCH  31  34
ENDBRANCH  28  31
ENDBRANCH   4  28
TORSDOF 11
