REMARK  4 active torsions:
REMARK  status: ('A' for Active; 'I' for Inactive)
REMARK    1  A    between atoms: C1'_3  and  N_5 
REMARK    2  A    between atoms: N_5  and  C1_6 
REMARK    3  A    between atoms: C1_6  and  C2_7 
REMARK    4  A    between atoms: C2_7  and  S_8 
ROOT
ATOM      1  C3' NHE d   1     -33.882  -0.415 -55.707  0.00  0.00    -0.063 C 
ATOM      2  C2' NHE d   1     -34.794  -1.031 -56.739  0.00  0.00    -0.038 C 
ATOM      3  C1' NHE d   1     -34.423  -2.444 -57.075  0.00  0.00     0.102 C 
ATOM      4  C6' NHE d   1     -34.334  -3.073 -55.875  0.00  0.00    -0.038 C 
ATOM      5  C5' NHE d   1     -33.279  -2.491 -55.162  0.00  0.00    -0.063 C 
ATOM      6  C4' NHE d   1     -33.781  -1.295 -54.612  0.00  0.00    -0.065 C 
ATOM      7  H1  NHE d   1     -34.298   0.547 -55.372  0.00  0.00     0.033 H 
ATOM      8  H2  NHE d   1     -32.886  -0.251 -56.144  0.00  0.00     0.033 H 
ATOM      9  H3  NHE d   1     -34.744  -0.427 -57.657  0.00  0.00     0.036 H 
ATOM     10  H4  NHE d   1     -35.823  -1.021 -56.349  0.00  0.00     0.036 H 
ATOM     11  H5  NHE d   1     -33.472  -2.482 -57.627  0.00  0.00     0.084 H 
ATOM     12  H6  NHE d   1     -34.136  -4.144 -56.028  0.00  0.00     0.036 H 
ATOM     13  H7  NHE d   1     -35.274  -2.950 -55.318  0.00  0.00     0.036 H 
ATOM     14  H14 NHE d   1     -32.437  -2.275 -55.837  0.00  0.00     0.033 H 
ATOM     15  H15 NHE d   1     -32.943  -3.166 -54.361  0.00  0.00     0.033 H 
ATOM     16  H16 NHE d   1     -34.768  -1.462 -54.156  0.00  0.00     0.033 H 
ATOM     17  H17 NHE d   1     -33.090  -0.895 -53.855  0.00  0.00     0.033 H 
ENDROOT
BRANCH   3  18
ATOM     18  N   NHE d   1     -35.484  -3.095 -57.840  0.00  0.00    -0.070 N 
ATOM     19  H8  NHE d   1     -35.793  -2.445 -58.545  0.00  0.00     0.277 HD
ATOM     20  H9  NHE d   1     -36.242  -3.287 -57.205  0.00  0.00     0.277 HD
BRANCH  18  21
ATOM     21  C1  NHE d   1     -35.144  -4.353 -58.517  0.00  0.00     0.097 C 
ATOM     22  H10 NHE d   1     -34.495  -4.951 -57.860  0.00  0.00     0.077 H 
ATOM     23  H11 NHE d   1     -34.610  -4.125 -59.452  0.00  0.00     0.077 H 
BRANCH  21  24
ATOM     24  C2  NHE d   1     -36.408  -5.162 -58.845  0.00  0.00     0.068 C 
ATOM     25  H12 NHE d   1     -37.102  -4.529 -59.418  0.00  0.00     0.062 H 
ATOM     26  H13 NHE d   1     -36.888  -5.476 -57.906  0.00  0.00     0.062 H 
BRANCH  24  27
ATOM     27  S   NHE d   1     -36.004  -6.624 -59.818  0.00  0.00     0.103 S 
ATOM     28  O1  NHE d   1     -35.817  -6.265 -61.228  0.00  0.00    -0.595 OA
ATOM     29  O2  NHE d   1     -37.058  -7.600 -59.995  0.00  0.00    -0.595 OA
ATOM     30  O3  NHE d   1     -34.785  -7.215 -59.236  0.00  0.00    -0.595 OA
ENDBRANCH  24  27
ENDBRANCH  21  24
ENDBRANCH  18  21
ENDBRANCH   3  18
TORSDOF 4
