REMARK WARNING: 32 MAX_TORS EXCEEDED!!!
REMARK  45 active torsions:
REMARK  status: ('A' for Active; 'I' for Inactive)
REMARK    1  A    between atoms: N_1  and  CA_2 
REMARK    2  A    between atoms: CA_2  and  C_3 
REMARK    3  A    between atoms: CA_2  and  CB_5 
REMARK       I    between atoms: C_3  and  N_6 
REMARK    4  A    between atoms: N_6  and  CA_7 
REMARK    5  A    between atoms: CA_7  and  C_8 
REMARK    6  A    between atoms: CA_7  and  CB_10 
REMARK       I    between atoms: C_8  and  N_11 
REMARK    7  A    between atoms: N_11  and  CA_12 
REMARK    8  A    between atoms: CA_12  and  C_13 
REMARK    9  A    between atoms: CA_12  and  CB_15 
REMARK       I    between atoms: C_13  and  N_22 
REMARK   10  A    between atoms: CB_15  and  CG_16 
REMARK   11  A    between atoms: CG_16  and  CD_17 
REMARK   12  A    between atoms: CD_17  and  NE_18 
REMARK       I    between atoms: NE_18  and  CZ_19 
REMARK       I    between atoms: CZ_19  and  NH1_20 
REMARK   13  A    between atoms: N_22  and  CA_23 
REMARK   14  A    between atoms: CA_23  and  C_24 
REMARK   15  A    between atoms: CA_23  and  CB_26 
REMARK       I    between atoms: C_24  and  N_31 
REMARK   16  A    between atoms: CB_26  and  CG_27 
REMARK   17  A    between atoms: CG_27  and  CD_28 
REMARK   18  A    between atoms: N_31  and  CA_32 
REMARK   19  A    between atoms: CA_32  and  C_33 
REMARK   20  A    between atoms: CA_32  and  CB_35 
REMARK       I    between atoms: C_33  and  N_37 
REMARK   21  A    between atoms: CB_35  and  OG_36 
REMARK   22  A    between atoms: N_37  and  CA_38 
REMARK   23  A    between atoms: CA_38  and  C_39 
REMARK   24  A    between atoms: CA_38  and  CB_41 
REMARK       I    between atoms: C_39  and  N_43 
REMARK   25  A    between atoms: CB_41  and  OG_42 
REMARK   26  A    between atoms: N_43  and  CA_44 
REMARK   27  A    between atoms: CA_44  and  C_45 
REMARK   28  A    between atoms: CA_44  and  CB_47 
REMARK       I    between atoms: C_45  and  N_48 
REMARK   29  A    between atoms: N_48  and  CA_49 
REMARK   30  A    between atoms: CA_49  and  C_50 
REMARK   31  A    between atoms: CA_49  and  CB_52 
REMARK       I    between atoms: C_50  and  N_56 
REMARK   32  A    between atoms: CB_52  and  CG_53 
REMARK   33  A    between atoms: N_56  and  CA_57 
REMARK   34  A    between atoms: CA_57  and  C_58 
REMARK       I    between atoms: C_58  and  N_60 
REMARK   35  A    between atoms: N_60  and  CA_61 
REMARK   36  A    between atoms: CA_61  and  C_62 
REMARK   37  A    between atoms: CA_61  and  CB_64 
REMARK       I    between atoms: C_62  and  N_65 
REMARK   38  A    between atoms: N_65  and  CA_66 
REMARK   39  A    between atoms: CA_66  and  C_67 
REMARK   40  A    between atoms: CA_66  and  CB_69 
REMARK       I    between atoms: C_67  and  N_73 
REMARK   41  A    between atoms: CB_69  and  CG_70 
REMARK   42  A    between atoms: N_73  and  CA_74 
REMARK   43  A    between atoms: CA_74  and  C_75 
REMARK   44  A    between atoms: CA_74  and  CB_77 
REMARK   45  A    between atoms: CB_77  and  OG_78 
ROOT
ATOM      1  C   SER d   1      73.079  65.773 -13.444  0.00  0.00     0.243 C 
ATOM      2  O   SER d   1      73.517  64.967 -14.274  0.00  0.00    -0.271 OA
ATOM      3  N   SER d   1      73.859  66.361 -12.528  0.00  0.00    -0.344 N 
ATOM      4  H37 SER d   1      73.451  67.039 -11.917  0.00  0.00     0.163 HD
ENDROOT
BRANCH   3   5
ATOM      5  CA  SER d   1      75.282  66.055 -12.382  0.00  0.00     0.109 C 
ATOM      6  H38 SER d   1      75.511  65.172 -12.996  0.00  0.00     0.090 H 
BRANCH   5   7
ATOM      7  C   SER d   1      75.652  65.739 -10.923  0.00  0.00     0.243 C 
ATOM      8  O   SER d   1      75.527  66.591 -10.039  0.00  0.00    -0.271 OA
ATOM      9  N   ALA d   1      76.095  64.505 -10.685  0.00  0.00    -0.346 N 
ATOM     10  H42 ALA d   1      75.981  63.808 -11.393  0.00  0.00     0.163 HD
BRANCH   9  11
ATOM     11  CA  ALA d   1      76.741  64.131  -9.428  0.00  0.00     0.086 C 
ATOM     12  H43 ALA d   1      76.214  64.614  -8.592  0.00  0.00     0.086 H 
BRANCH  11  13
ATOM     13  C   ALA d   1      78.192  64.613  -9.455  0.00  0.00     0.240 C 
ATOM     14  O   ALA d   1      78.715  64.953 -10.523  0.00  0.00    -0.271 OA
ATOM     15  N   ASP d   1      78.844  64.638  -8.292  0.00  0.00    -0.346 N 
ATOM     16  H47 ASP d   1      78.347  64.443  -7.446  0.00  0.00     0.163 HD
BRANCH  15  17
ATOM     17  CA  ASP d   1      80.281  64.947  -8.232  0.00  0.00     0.098 C 
ATOM     18  H48 ASP d   1      80.463  65.855  -8.826  0.00  0.00     0.088 H 
BRANCH  17  19
ATOM     19  C   ASP d   1      81.076  63.793  -8.847  0.00  0.00     0.241 C 
ATOM     20  O   ASP d   1      80.858  62.630  -8.501  0.00  0.00    -0.271 OA
ATOM     21  N   GLY d   1      81.978  64.136  -9.771  0.00  0.00    -0.351 N 
ATOM     22  H51 GLY d   1      82.118  65.109  -9.957  0.00  0.00     0.163 HD
BRANCH  21  23
ATOM     23  CA  GLY d   1      82.774  63.165 -10.527  0.00  0.00     0.069 C 
ATOM     24  H52 GLY d   1      82.230  62.210 -10.560  0.00  0.00     0.078 H 
ATOM     25  H53 GLY d   1      83.737  63.021 -10.015  0.00  0.00     0.078 H 
BRANCH  23  26
ATOM     26  C   GLY d   1      83.041  63.625 -11.949  0.00  0.00     0.236 C 
ATOM     27  O   GLY d   1      82.692  64.745 -12.323  0.00  0.00    -0.272 OA
ATOM     28  N   ALA d   1      83.658  62.747 -12.735  0.00  0.00    -0.347 N 
ATOM     29  H54 ALA d   1      83.894  61.851 -12.359  0.00  0.00     0.163 HD
BRANCH  28  30
ATOM     30  CA  ALA d   1      84.007  63.036 -14.128  0.00  0.00     0.086 C 
ATOM     31  H55 ALA d   1      83.136  63.499 -14.614  0.00  0.00     0.086 H 
BRANCH  30  32
ATOM     32  C   ALA d   1      84.359  61.756 -14.885  0.00  0.00     0.240 C 
ATOM     33  O   ALA d   1      84.734  60.751 -14.277  0.00  0.00    -0.271 OA
ATOM     34  N   ASP d   1      84.245  61.827 -16.211  0.00  0.00    -0.346 N 
ATOM     35  H59 ASP d   1      83.939  62.692 -16.609  0.00  0.00     0.163 HD
BRANCH  34  36
ATOM     36  CA  ASP d   1      84.541  60.712 -17.129  0.00  0.00     0.098 C 
ATOM     37  H60 ASP d   1      83.983  59.827 -16.790  0.00  0.00     0.088 H 
BRANCH  36  38
ATOM     38  C   ASP d   1      86.039  60.370 -17.168  0.00  0.00     0.241 C 
ATOM     39  O   ASP d   1      86.875  61.275 -17.254  0.00  0.00    -0.271 OA
ATOM     40  N   SER d   1      86.353  59.068 -17.112  0.00  0.00    -0.343 N 
ATOM     41  H63 SER d   1      85.609  58.414 -16.971  0.00  0.00     0.163 HD
BRANCH  40  42
ATOM     42  CA  SER d   1      87.723  58.535 -17.244  0.00  0.00     0.116 C 
ATOM     43  H64 SER d   1      88.403  59.362 -17.497  0.00  0.00     0.093 H 
BRANCH  42  44
ATOM     44  C   SER d   1      87.752  57.495 -18.361  0.00  0.00     0.198 C 
ATOM     45  O   SER d   1      87.996  57.819 -19.526  0.00  0.00    -0.646 OA
ATOM     46  OXT SER d   1      87.532  56.304 -18.127  0.00  0.00    -0.646 OA
ENDBRANCH  42  44
BRANCH  42  47
ATOM     47  CB  SER d   1      88.201  57.877 -15.942  0.00  0.00     0.045 C 
ATOM     48  H65 SER d   1      89.036  57.200 -16.175  0.00  0.00     0.077 H 
ATOM     49  H66 SER d   1      87.369  57.299 -15.513  0.00  0.00     0.077 H 
BRANCH  47  50
ATOM     50  OG  SER d   1      88.640  58.826 -14.980  0.00  0.00    -0.398 OA
ATOM     51  H67 SER d   1      88.924  58.372 -14.196  0.00  0.00     0.209 HD
ENDBRANCH  47  50
ENDBRANCH  42  47
ENDBRANCH  40  42
ENDBRANCH  36  38
BRANCH  36  52
ATOM     52  CB  ASP d   1      84.108  61.067 -18.563  0.00  0.00     0.043 C 
ATOM     53  H61 ASP d   1      84.303  60.200 -19.212  0.00  0.00     0.052 H 
ATOM     54  H62 ASP d   1      84.706  61.924 -18.907  0.00  0.00     0.052 H 
BRANCH  52  55
ATOM     55  CG  ASP d   1      82.633  61.431 -18.672  0.00  0.00     0.175 C 
ATOM     56  OD1 ASP d   1      81.799  60.741 -18.066  0.00  0.00    -0.648 OA
ATOM     57  OD2 ASP d   1      82.303  62.405 -19.378  0.00  0.00    -0.648 OA
ENDBRANCH  52  55
ENDBRANCH  36  52
ENDBRANCH  34  36
ENDBRANCH  30  32
BRANCH  30  58
ATOM     58  CB  ALA d   1      85.173  64.012 -14.188  0.00  0.00    -0.049 C 
ATOM     59  H56 ALA d   1      85.424  64.219 -15.239  0.00  0.00     0.030 H 
ATOM     60  H57 ALA d   1      86.046  63.572 -13.683  0.00  0.00     0.030 H 
ATOM     61  H58 ALA d   1      84.892  64.950 -13.686  0.00  0.00     0.030 H 
ENDBRANCH  30  58
ENDBRANCH  28  30
ENDBRANCH  23  26
ENDBRANCH  21  23
ENDBRANCH  17  19
BRANCH  17  62
ATOM     62  CB  ASP d   1      80.758  65.214  -6.792  0.00  0.00     0.043 C 
ATOM     63  H49 ASP d   1      81.858  65.204  -6.780  0.00  0.00     0.052 H 
ATOM     64  H50 ASP d   1      80.377  64.412  -6.143  0.00  0.00     0.052 H 
BRANCH  62  65
ATOM     65  CG  ASP d   1      80.278  66.554  -6.240  0.00  0.00     0.175 C 
ATOM     66  OD1 ASP d   1      79.873  67.441  -7.015  0.00  0.00    -0.648 OA
ATOM     67  OD2 ASP d   1      80.318  66.731  -5.005  0.00  0.00    -0.648 OA
ENDBRANCH  62  65
ENDBRANCH  17  62
ENDBRANCH  15  17
ENDBRANCH  11  13
BRANCH  11  68
ATOM     68  CB  ALA d   1      76.691  62.624  -9.240  0.00  0.00    -0.049 C 
ATOM     69  H44 ALA d   1      77.180  62.356  -8.292  0.00  0.00     0.030 H 
ATOM     70  H45 ALA d   1      77.214  62.133 -10.074  0.00  0.00     0.030 H 
ATOM     71  H46 ALA d   1      75.643  62.292  -9.219  0.00  0.00     0.030 H 
ENDBRANCH  11  68
ENDBRANCH   9  11
ENDBRANCH   5   7
BRANCH   5  72
ATOM     72  CB  SER d   1      76.115  67.232 -12.885  0.00  0.00     0.044 C 
ATOM     73  H39 SER d   1      75.943  68.101 -12.233  0.00  0.00     0.077 H 
ATOM     74  H40 SER d   1      75.810  67.478 -13.913  0.00  0.00     0.077 H 
BRANCH  72  75
ATOM     75  OG  SER d   1      77.492  66.908 -12.874  0.00  0.00    -0.398 OA
ATOM     76  H41 SER d   1      77.760  66.698 -11.987  0.00  0.00     0.209 HD
ENDBRANCH  72  75
ENDBRANCH   5  72
ENDBRANCH   3   5
BRANCH   1  77
ATOM     77  CA  SER d   1      71.573  66.121 -13.437  0.00  0.00     0.109 C 
ATOM     78  H33 SER d   1      71.052  65.280 -12.957  0.00  0.00     0.090 H 
BRANCH  77  79
ATOM     79  N   SER d   1      71.213  67.338 -12.686  0.00  0.00    -0.344 N 
ATOM     80  C   GLU d   1      71.024  67.334 -11.369  0.00  0.00     0.241 C 
ATOM     81  O   GLU d   1      71.285  66.367 -10.664  0.00  0.00    -0.271 OA
ATOM     82  H32 SER d   1      71.107  68.198 -13.185  0.00  0.00     0.163 HD
BRANCH  80  83
ATOM     83  CA  GLU d   1      70.486  68.608 -10.742  0.00  0.00     0.090 C 
ATOM     84  H27 GLU d   1      70.301  69.364 -11.519  0.00  0.00     0.087 H 
BRANCH  83  85
ATOM     85  N   GLU d   1      69.225  68.261 -10.086  0.00  0.00    -0.346 N 
ATOM     86  C   ARG d   1      68.109  68.057 -10.785  0.00  0.00     0.241 C 
ATOM     87  O   ARG d   1      68.018  68.291 -11.989  0.00  0.00    -0.271 OA
ATOM     88  H26 GLU d   1      69.200  68.175  -9.090  0.00  0.00     0.163 HD
BRANCH  86  89
ATOM     89  CA  ARG d   1      66.901  67.520 -10.027  0.00  0.00     0.089 C 
ATOM     90  H14 ARG d   1      67.128  67.503  -8.951  0.00  0.00     0.087 H 
BRANCH  89  91
ATOM     91  N   ARG d   1      65.734  68.376 -10.257  0.00  0.00    -0.346 N 
ATOM     92  C   ALA d   1      65.683  69.652  -9.876  0.00  0.00     0.240 C 
ATOM     93  O   ALA d   1      66.613  70.218  -9.300  0.00  0.00    -0.271 OA
ATOM     94  H13 ARG d   1      64.939  67.985 -10.721  0.00  0.00     0.163 HD
BRANCH  92  95
ATOM     95  CA  ALA d   1      64.392  70.412 -10.214  0.00  0.00     0.086 C 
ATOM     96  H9  ALA d   1      63.636  69.676 -10.525  0.00  0.00     0.086 H 
BRANCH  95  97
ATOM     97  N   ALA d   1      63.860  71.145  -9.055  0.00  0.00    -0.346 N 
ATOM     98  C   LEU d   1      63.086  70.573  -8.128  0.00  0.00     0.248 C 
ATOM     99  O   LEU d   1      62.772  69.379  -8.150  0.00  0.00    -0.271 OA
ATOM    100  H8  ALA d   1      64.088  72.114  -8.957  0.00  0.00     0.163 HD
BRANCH  98 101
ATOM    101  CA  LEU d   1      62.571  71.485  -7.002  0.00  0.00     0.172 C 
ATOM    102  H4  LEU d   1      62.180  70.839  -6.202  0.00  0.00     0.098 H 
BRANCH 101 103
ATOM    103  N   LEU d   1      63.653  72.336  -6.406  0.00  0.00    -0.067 N 
ATOM    104  H1  LEU d   1      63.264  72.912  -5.676  0.00  0.00     0.275 HD
ATOM    105  H2  LEU d   1      64.051  72.924  -7.122  0.00  0.00     0.275 HD
ATOM    106  H3  LEU d   1      64.371  71.744  -6.019  0.00  0.00     0.275 HD
ENDBRANCH 101 103
BRANCH 101 107
ATOM    107  CB  LEU d   1      61.414  72.357  -7.519  0.00  0.00    -0.042 C 
ATOM    108  H5  LEU d   1      60.634  71.713  -7.951  0.00  0.00     0.030 H 
ATOM    109  H6  LEU d   1      61.790  73.045  -8.291  0.00  0.00     0.030 H 
ATOM    110  H7  LEU d   1      60.991  72.937  -6.685  0.00  0.00     0.030 H 
ENDBRANCH 101 107
ENDBRANCH  98 101
ENDBRANCH  95  97
BRANCH  95 111
ATOM    111  CB  ALA d   1      64.638  71.365 -11.372  0.00  0.00    -0.049 C 
ATOM    112  H10 ALA d   1      65.035  70.804 -12.231  0.00  0.00     0.030 H 
ATOM    113  H11 ALA d   1      65.365  72.132 -11.067  0.00  0.00     0.030 H 
ATOM    114  H12 ALA d   1      63.692  71.849 -11.656  0.00  0.00     0.030 H 
ENDBRANCH  95 111
ENDBRANCH  92  95
ENDBRANCH  89  91
BRANCH  89 115
ATOM    115  CB  ARG d   1      66.597  66.091 -10.504  0.00  0.00    -0.036 C 
ATOM    116  H15 ARG d   1      66.445  66.120 -11.593  0.00  0.00     0.036 H 
ATOM    117  H16 ARG d   1      65.670  65.758 -10.014  0.00  0.00     0.036 H 
BRANCH 115 118
ATOM    118  CG  ARG d   1      67.682  65.066 -10.207  0.00  0.00    -0.048 C 
ATOM    119  H17 ARG d   1      67.844  65.020  -9.120  0.00  0.00     0.035 H 
ATOM    120  H18 ARG d   1      68.613  65.376 -10.704  0.00  0.00     0.035 H 
BRANCH 118 121
ATOM    121  CD  ARG d   1      67.289  63.688 -10.707  0.00  0.00     0.009 C 
ATOM    122  H19 ARG d   1      67.326  63.679 -11.806  0.00  0.00     0.064 H 
ATOM    123  H20 ARG d   1      66.266  63.461 -10.372  0.00  0.00     0.064 H 
BRANCH 121 124
ATOM    124  NE  ARG d   1      68.201  62.671 -10.188  0.00  0.00    -0.227 N 
ATOM    125  CZ  ARG d   1      69.297  62.206 -10.795  0.00  0.00     0.665 C 
ATOM    126  NH1 ARG d   1      70.030  61.277 -10.183  0.00  0.00    -0.235 N 
ATOM    127  NH2 ARG d   1      69.668  62.630 -12.003  0.00  0.00    -0.235 N 
ATOM    128  H22 ARG d   1      70.878  60.908 -10.637  0.00  0.00     0.174 HD
ATOM    129  H23 ARG d   1      69.749  60.928  -9.256  0.00  0.00     0.174 HD
ATOM    130  H24 ARG d   1      69.112  63.348 -12.490  0.00  0.00     0.174 HD
ATOM    131  H25 ARG d   1      70.510  62.240 -12.450  0.00  0.00     0.174 HD
ATOM    132  H21 ARG d   1      67.977  62.274  -9.264  0.00  0.00     0.177 HD
ENDBRANCH 121 124
ENDBRANCH 118 121
ENDBRANCH 115 118
ENDBRANCH  89 115
ENDBRANCH  86  89
ENDBRANCH  83  85
BRANCH  83 133
ATOM    133  CB  GLU d   1      71.516  69.149  -9.751  0.00  0.00    -0.029 C 
ATOM    134  H28 GLU d   1      72.448  69.339 -10.303  0.00  0.00     0.037 H 
ATOM    135  H29 GLU d   1      71.692  68.374  -8.990  0.00  0.00     0.037 H 
BRANCH 133 136
ATOM    136  CG  GLU d   1      71.130  70.432  -9.030  0.00  0.00     0.018 C 
ATOM    137  H30 GLU d   1      70.111  70.319  -8.631  0.00  0.00     0.049 H 
ATOM    138  H31 GLU d   1      71.151  71.262  -9.752  0.00  0.00     0.049 H 
BRANCH 136 139
ATOM    139  CD  GLU d   1      72.071  70.764  -7.877  0.00  0.00     0.172 C 
ATOM    140  OE1 GLU d   1      71.629  71.462  -6.940  0.00  0.00    -0.648 OA
ATOM    141  OE2 GLU d   1      73.247  70.330  -7.895  0.00  0.00    -0.648 OA
ENDBRANCH 136 139
ENDBRANCH 133 136
ENDBRANCH  83 133
ENDBRANCH  80  83
ENDBRANCH  77  79
BRANCH  77 142
ATOM    142  CB  SER d   1      71.057  66.242 -14.875  0.00  0.00     0.044 C 
ATOM    143  H34 SER d   1      69.969  66.406 -14.858  0.00  0.00     0.077 H 
ATOM    144  H35 SER d   1      71.279  65.313 -15.420  0.00  0.00     0.077 H 
BRANCH 142 145
ATOM    145  OG  SER d   1      71.682  67.329 -15.532  0.00  0.00    -0.398 OA
ATOM    146  H36 SER d   1      71.353  67.392 -16.421  0.00  0.00     0.209 HD
ENDBRANCH 142 145
ENDBRANCH  77 142
ENDBRANCH   1  77
TORSDOF 45
