REMARK  8 active torsions:
REMARK  status: ('A' for Active; 'I' for Inactive)
REMARK    1  A    between atoms: C3_2  and  N7_12 
REMARK    2  A    between atoms: C19_8  and  C23_20 
REMARK    3  A    between atoms: C58_10  and  C60_9 
REMARK       I    between atoms: N7_12  and  C58_10 
REMARK    4  A    between atoms: C9_16  and  C17_17 
REMARK       I    between atoms: C23_20  and  N27_22 
REMARK    5  A    between atoms: N30_27  and  C40_28 
REMARK    6  A    between atoms: C40_28  and  C52_29 
REMARK    7  A    between atoms: C40_28  and  C44_35 
REMARK    8  A    between atoms: N55_33  and  C57_34 
ROOT
ATOM      1  C23 EZ7 d   1      16.211  45.664  26.485  0.00  0.00     0.272 C 
ATOM      2  O24 EZ7 d   1      15.454  44.980  27.169  0.00  0.00    -0.266 OA
ATOM      3  N27 EZ7 d   1      16.452  46.961  26.792  0.00  0.00    -0.344 N 
ATOM      4  C28 EZ7 d   1      15.756  47.594  27.932  0.00  0.00     0.021 C 
ATOM      5  C29 EZ7 d   1      16.725  48.460  28.743  0.00  0.00     0.099 C 
ATOM      6  C26 EZ7 d   1      17.364  47.828  26.007  0.00  0.00     0.021 C 
ATOM      7  C25 EZ7 d   1      18.213  48.727  26.909  0.00  0.00     0.099 C 
ATOM      8  N30 EZ7 d   1      17.421  49.459  27.912  0.00  0.00    -0.053 N 
ATOM      9  H11 EZ7 d   1      15.341  46.810  28.582  0.00  0.00     0.067 H 
ATOM     10  H12 EZ7 d   1      14.939  48.225  27.552  0.00  0.00     0.067 H 
ATOM     11  H13 EZ7 d   1      17.476  47.806  29.211  0.00  0.00     0.078 H 
ATOM     12  H14 EZ7 d   1      16.158  48.986  29.525  0.00  0.00     0.078 H 
ATOM     13  H15 EZ7 d   1      16.764  48.461  25.337  0.00  0.00     0.067 H 
ATOM     14  H16 EZ7 d   1      18.032  47.192  25.409  0.00  0.00     0.067 H 
ATOM     15  H17 EZ7 d   1      18.739  49.458  26.278  0.00  0.00     0.078 H 
ATOM     16  H18 EZ7 d   1      18.948  48.100  27.434  0.00  0.00     0.078 H 
ATOM     17  H19 EZ7 d   1      16.749  50.056  27.456  0.00  0.00     0.281 HD
ENDROOT
BRANCH   1  18
ATOM     18  C19 EZ7 d   1      16.896  45.022  25.446  0.00  0.00     0.125 A 
ATOM     19  C18 EZ7 d   1      16.217  44.382  24.402  0.00  0.00    -0.035 A 
ATOM     20  C17 EZ7 d   1      16.934  43.730  23.399  0.00  0.00     0.021 A 
ATOM     21  H4  EZ7 d   1      15.133  44.393  24.373  0.00  0.00     0.088 H 
ATOM     22  C16 EZ7 d   1      18.321  43.708  23.451  0.00  0.00    -0.052 A 
ATOM     23  C15 EZ7 d   1      18.977  44.332  24.502  0.00  0.00     0.004 A 
ATOM     24  H3  EZ7 d   1      18.888  43.206  22.675  0.00  0.00     0.087 H 
ATOM     25  N14 EZ7 d   1      18.238  44.971  25.495  0.00  0.00    -0.255 NA
ATOM     26  H10 EZ7 d   1      20.060  44.322  24.550  0.00  0.00     0.114 H 
BRANCH  20  27
ATOM     27  C9  EZ7 d   1      16.353  43.120  22.370  0.00  0.00     0.181 A 
ATOM     28  O13 EZ7 d   1      17.019  42.696  21.364  0.00  0.00    -0.289 OA
ATOM     29  C12 EZ7 d   1      16.168  42.144  20.521  0.00  0.00     0.106 A 
ATOM     30  C11 EZ7 d   1      14.940  42.233  21.038  0.00  0.00     0.095 A 
ATOM     31  C1  EZ7 d   1      16.387  41.574  19.345  0.00  0.00    -0.046 A 
ATOM     32  C4  EZ7 d   1      13.884  41.748  20.380  0.00  0.00    -0.027 A 
ATOM     33  N10 EZ7 d   1      15.060  42.854  22.213  0.00  0.00    -0.221 NA
ATOM     34  C3  EZ7 d   1      14.049  41.132  19.140  0.00  0.00     0.037 A 
ATOM     35  H2  EZ7 d   1      12.893  41.834  20.812  0.00  0.00     0.090 H 
ATOM     36  C2  EZ7 d   1      15.330  41.053  18.622  0.00  0.00    -0.054 A 
ATOM     37  H1  EZ7 d   1      15.503  40.587  17.659  0.00  0.00     0.087 H 
ATOM     38  H9  EZ7 d   1      17.395  41.516  18.950  0.00  0.00     0.087 H 
BRANCH  34  39
ATOM     39  N7  EZ7 d   1      13.075  40.608  18.380  0.00  0.00    -0.327 N 
ATOM     40  C58 EZ7 d   1      11.818  40.384  18.811  0.00  0.00     0.218 C 
ATOM     41  O59 EZ7 d   1      11.371  40.622  19.932  0.00  0.00    -0.274 OA
ATOM     42  H8  EZ7 d   1      13.296  40.369  17.434  0.00  0.00     0.169 HD
BRANCH  40  43
ATOM     43  C60 EZ7 d   1      10.918  39.769  17.742  0.00  0.00    -0.003 C 
ATOM     44  H5  EZ7 d   1      11.492  39.632  16.814  0.00  0.00     0.040 H 
ATOM     45  H6  EZ7 d   1      10.066  40.438  17.550  0.00  0.00     0.040 H 
ATOM     46  H7  EZ7 d   1      10.547  38.794  18.091  0.00  0.00     0.040 H 
ENDBRANCH  40  43
ENDBRANCH  34  39
ENDBRANCH  20  27
ENDBRANCH   1  18
BRANCH   8  47
ATOM     47  C40 EZ7 d   1      18.329  50.279  28.750  0.00  0.00     0.191 C 
ATOM     48  H20 EZ7 d   1      19.137  49.615  29.090  0.00  0.00     0.105 H 
BRANCH  47  49
ATOM     49  C52 EZ7 d   1      18.966  51.433  27.980  0.00  0.00     0.207 A 
ATOM     50  N56 EZ7 d   1      18.497  52.023  26.906  0.00  0.00    -0.134 NA
ATOM     51  N55 EZ7 d   1      19.283  52.825  26.673  0.00  0.00    -0.173 N 
ATOM     52  N54 EZ7 d   1      20.236  52.815  27.514  0.00  0.00    -0.047 NA
ATOM     53  N53 EZ7 d   1      20.096  52.031  28.288  0.00  0.00    -0.111 NA
BRANCH  51  54
ATOM     54  C57 EZ7 d   1      19.246  53.773  25.555  0.00  0.00     0.021 C 
ATOM     55  H21 EZ7 d   1      18.337  53.602  24.959  0.00  0.00     0.062 H 
ATOM     56  H22 EZ7 d   1      20.133  53.627  24.921  0.00  0.00     0.062 H 
ATOM     57  H23 EZ7 d   1      19.240  54.801  25.946  0.00  0.00     0.062 H 
ENDBRANCH  51  54
ENDBRANCH  47  49
BRANCH  47  58
ATOM     58  C44 EZ7 d   1      17.703  50.800  29.881  0.00  0.00    -0.020 A 
ATOM     59  C43 EZ7 d   1      18.176  50.432  31.134  0.00  0.00    -0.074 A 
ATOM     60  C42 EZ7 d   1      17.569  50.933  32.276  0.00  0.00    -0.082 A 
ATOM     61  H24 EZ7 d   1      19.018  49.755  31.219  0.00  0.00     0.084 H 
ATOM     62  C41 EZ7 d   1      16.495  51.809  32.168  0.00  0.00    -0.083 A 
ATOM     63  H25 EZ7 d   1      17.933  50.641  33.255  0.00  0.00     0.083 H 
ATOM     64  C46 EZ7 d   1      16.023  52.187  30.916  0.00  0.00    -0.082 A 
ATOM     65  H26 EZ7 d   1      16.024  52.199  33.063  0.00  0.00     0.083 H 
ATOM     66  C45 EZ7 d   1      16.631  51.685  29.770  0.00  0.00    -0.074 A 
ATOM     67  H27 EZ7 d   1      15.185  52.870  30.833  0.00  0.00     0.083 H 
ATOM     68  H28 EZ7 d   1      16.272  51.982  28.791  0.00  0.00     0.084 H 
ENDBRANCH  47  58
ENDBRANCH   8  47
TORSDOF 8
