REMARK  12 active torsions:
REMARK  status: ('A' for Active; 'I' for Inactive)
REMARK    1  A    between atoms: C8_1  and  N1_5 
REMARK    2  A    between atoms: C8_1  and  C9_13 
REMARK    3  A    between atoms: C16_22  and  C8_1 
REMARK    4  A    between atoms: C5_2  and  C4_8 
REMARK    5  A    between atoms: C7_11  and  C6_3 
REMARK       I    between atoms: N1_5  and  C7_11 
REMARK    6  A    between atoms: C2_6  and  C1_9 
REMARK    7  A    between atoms: C3_10  and  C2_6 
REMARK    8  A    between atoms: C4_8  and  C3_10 
REMARK    9  A    between atoms: C9_13  and  C10_14 
REMARK       I    between atoms: N2_24  and  C16_22 
REMARK   10  A    between atoms: C17_25  and  N2_24 
REMARK   11  A    between atoms: C22_32  and  C23_33 
REMARK   12  A    between atoms: C26_37  and  C27_38 
ROOT
ATOM      1  N6  EZA d   1      -1.826 105.436   7.232  0.00  0.00    -0.337 N 
ATOM      2  N3  EZA d   1       2.775 103.606   2.485  0.00  0.00    -0.336 N 
ATOM      3  C17 EZA d   1      -1.110 104.521   4.962  0.00  0.00     0.110 C 
ATOM      4  C18 EZA d   1      -0.720 105.629   4.008  0.00  0.00     0.056 C 
ATOM      5  O3  EZA d   1       0.475 105.293   3.284  0.00  0.00    -0.317 OA
ATOM      6  C19 EZA d   1       1.807 105.337   3.886  0.00  0.00     0.282 C 
ATOM      7  O4  EZA d   1       2.022 105.724   5.013  0.00  0.00    -0.263 OA
ATOM      8  C20 EZA d   1       2.751 104.925   2.989  0.00  0.00     0.099 C 
ATOM      9  C21 EZA d   1       3.031 105.869   1.946  0.00  0.00    -0.033 C 
ATOM     10  C22 EZA d   1       2.235 105.191   0.855  0.00  0.00    -0.040 C 
ATOM     11  C24 EZA d   1       2.443 103.747   1.037  0.00  0.00     0.002 C 
ATOM     12  C25 EZA d   1       2.997 102.355   3.188  0.00  0.00     0.243 C 
ATOM     13  O5  EZA d   1       2.954 101.305   2.567  0.00  0.00    -0.271 OA
ATOM     14  C26 EZA d   1       3.353 102.348   4.644  0.00  0.00     0.086 C 
ATOM     15  N4  EZA d   1       2.631 103.000   5.719  0.00  0.00    -0.346 N 
ATOM     16  C28 EZA d   1       3.306 103.748   6.802  0.00  0.00     0.241 C 
ATOM     17  O6  EZA d   1       4.512 103.883   6.782  0.00  0.00    -0.271 OA
ATOM     18  C29 EZA d   1       2.491 104.384   7.918  0.00  0.00     0.091 C 
ATOM     19  C30 EZA d   1       3.380 104.506   9.127  0.00  0.00    -0.038 C 
ATOM     20  C31 EZA d   1       3.261 103.378  10.120  0.00  0.00    -0.061 C 
ATOM     21  C32 EZA d   1       2.900 102.120   9.477  0.00  0.00    -0.050 C 
ATOM     22  C33 EZA d   1       1.573 102.245   8.766  0.00  0.00    -0.001 C 
ATOM     23  N5  EZA d   1       1.363 103.617   8.277  0.00  0.00    -0.337 N 
ATOM     24  C34 EZA d   1      -0.070 104.072   8.197  0.00  0.00     0.243 C 
ATOM     25  O7  EZA d   1      -0.921 103.252   8.521  0.00  0.00    -0.271 OA
ATOM     26  C35 EZA d   1      -0.465 105.424   7.751  0.00  0.00     0.092 C 
ATOM     27  C36 EZA d   1      -0.547 106.339   8.930  0.00  0.00    -0.036 C 
ATOM     28  C37 EZA d   1      -1.906 106.945   8.911  0.00  0.00    -0.048 C 
ATOM     29  C38 EZA d   1      -2.767 105.974   8.218  0.00  0.00    -0.001 C 
ATOM     30  C39 EZA d   1      -2.217 105.015   5.880  0.00  0.00     0.245 C 
ATOM     31  O8  EZA d   1      -3.394 105.077   5.510  0.00  0.00    -0.271 OA
ATOM     32  H20 EZA d   1      -0.233 104.261   5.572  0.00  0.00     0.091 H 
ATOM     33  H21 EZA d   1      -0.545 106.551   4.581  0.00  0.00     0.079 H 
ATOM     34  H22 EZA d   1      -1.540 105.792   3.292  0.00  0.00     0.079 H 
ATOM     35  H23 EZA d   1       3.660 104.950   3.607  0.00  0.00     0.088 H 
ATOM     36  H24 EZA d   1       4.104 105.927   1.709  0.00  0.00     0.037 H 
ATOM     37  H25 EZA d   1       2.652 106.875   2.178  0.00  0.00     0.037 H 
ATOM     38  H26 EZA d   1       1.169 105.412   1.014  0.00  0.00     0.042 H 
ATOM     39  H30 EZA d   1       1.529 103.187   0.790  0.00  0.00     0.065 H 
ATOM     40  H31 EZA d   1       3.273 103.390   0.410  0.00  0.00     0.065 H 
ATOM     41  H32 EZA d   1       2.731 101.454   4.797  0.00  0.00     0.086 H 
ATOM     42  H36 EZA d   1       1.633 102.942   5.729  0.00  0.00     0.163 HD
ATOM     43  H37 EZA d   1       2.157 105.381   7.595  0.00  0.00     0.087 H 
ATOM     44  H38 EZA d   1       3.127 105.444   9.643  0.00  0.00     0.036 H 
ATOM     45  H39 EZA d   1       4.423 104.548   8.781  0.00  0.00     0.036 H 
ATOM     46  H40 EZA d   1       2.487 103.635  10.858  0.00  0.00     0.033 H 
ATOM     47  H41 EZA d   1       4.227 103.251  10.631  0.00  0.00     0.033 H 
ATOM     48  H42 EZA d   1       2.827 101.332  10.241  0.00  0.00     0.035 H 
ATOM     49  H43 EZA d   1       3.677 101.852   8.746  0.00  0.00     0.035 H 
ATOM     50  H44 EZA d   1       0.765 101.985   9.465  0.00  0.00     0.064 H 
ATOM     51  H45 EZA d   1       1.556 101.552   7.912  0.00  0.00     0.064 H 
ATOM     52  H46 EZA d   1       0.250 105.794   7.001  0.00  0.00     0.087 H 
ATOM     53  H47 EZA d   1       0.219 107.125   8.853  0.00  0.00     0.036 H 
ATOM     54  H48 EZA d   1      -0.399 105.772   9.861  0.00  0.00     0.036 H 
ATOM     55  H49 EZA d   1      -1.892 107.901   8.367  0.00  0.00     0.035 H 
ATOM     56  H50 EZA d   1      -2.265 107.112   9.937  0.00  0.00     0.035 H 
ATOM     57  H51 EZA d   1      -3.129 105.192   8.902  0.00  0.00     0.064 H 
ATOM     58  H52 EZA d   1      -3.625 106.465   7.735  0.00  0.00     0.064 H 
ENDROOT
BRANCH   3  59
ATOM     59  N2  EZA d   1      -1.534 103.353   4.266  0.00  0.00    -0.344 N 
ATOM     60  C16 EZA d   1      -0.684 102.141   4.275  0.00  0.00     0.241 C 
ATOM     61  O2  EZA d   1       0.387 102.125   4.868  0.00  0.00    -0.271 OA
ATOM     62  H19 EZA d   1      -2.404 103.352   3.772  0.00  0.00     0.163 HD
BRANCH  60  63
ATOM     63  C8  EZA d   1      -1.174 100.915   3.527  0.00  0.00     0.093 C 
ATOM     64  H1  EZA d   1      -2.252 100.771   3.691  0.00  0.00     0.088 H 
BRANCH  63  65
ATOM     65  N1  EZA d   1      -0.944 101.211   2.174  0.00  0.00    -0.344 N 
ATOM     66  C7  EZA d   1      -1.882 102.112   1.456  0.00  0.00     0.241 C 
ATOM     67  O1  EZA d   1      -2.875 102.589   1.985  0.00  0.00    -0.269 OA
ATOM     68  H4  EZA d   1      -0.157 100.819   1.698  0.00  0.00     0.163 HD
BRANCH  66  69
ATOM     69  C6  EZA d   1      -1.579 102.413  -0.012  0.00  0.00    -0.021 C 
ATOM     70  C5  EZA d   1      -2.461 103.193  -0.674  0.00  0.00    -0.098 C 
ATOM     71  H2  EZA d   1      -3.336 103.578  -0.153  0.00  0.00     0.077 H 
ATOM     72  H3  EZA d   1      -0.691 102.016  -0.502  0.00  0.00     0.091 H 
BRANCH  70  73
ATOM     73  C4  EZA d   1      -2.249 103.533  -2.111  0.00  0.00    -0.050 C 
ATOM     74  H7  EZA d   1      -3.145 103.269  -2.692  0.00  0.00     0.038 H 
ATOM     75  H8  EZA d   1      -1.382 102.979  -2.501  0.00  0.00     0.038 H 
BRANCH  73  76
ATOM     76  C3  EZA d   1      -1.988 105.056  -2.214  0.00  0.00    -0.062 C 
ATOM     77  H12 EZA d   1      -2.764 105.590  -1.646  0.00  0.00     0.033 H 
ATOM     78  H13 EZA d   1      -1.001 105.278  -1.783  0.00  0.00     0.033 H 
BRANCH  76  79
ATOM     79  C2  EZA d   1      -2.015 105.539  -3.665  0.00  0.00    -0.068 C 
ATOM     80  H5  EZA d   1      -1.861 106.628  -3.657  0.00  0.00     0.032 H 
ATOM     81  H6  EZA d   1      -1.181 105.055  -4.194  0.00  0.00     0.032 H 
BRANCH  79  82
ATOM     82  C1  EZA d   1      -3.291 105.256  -4.454  0.00  0.00    -0.077 C 
ATOM     83  H9  EZA d   1      -3.185 105.650  -5.476  0.00  0.00     0.027 H 
ATOM     84  H10 EZA d   1      -4.144 105.744  -3.959  0.00  0.00     0.027 H 
ATOM     85  H11 EZA d   1      -3.463 104.170  -4.496  0.00  0.00     0.027 H 
ENDBRANCH  79  82
ENDBRANCH  76  79
ENDBRANCH  73  76
ENDBRANCH  70  73
ENDBRANCH  66  69
ENDBRANCH  63  65
BRANCH  63  86
ATOM     86  C9  EZA d   1      -0.434  99.671   4.041  0.00  0.00    -0.014 C 
ATOM     87  H14 EZA d   1      -0.414  99.681   5.141  0.00  0.00     0.043 H 
ATOM     88  H15 EZA d   1       0.596  99.669   3.656  0.00  0.00     0.043 H 
BRANCH  86  89
ATOM     89  C10 EZA d   1      -1.155  98.443   3.561  0.00  0.00    -0.050 A 
ATOM     90  C11 EZA d   1      -2.280  97.945   4.212  0.00  0.00    -0.039 A 
ATOM     91  C12 EZA d   1      -2.945  96.822   3.709  0.00  0.00     0.119 A 
ATOM     92  H16 EZA d   1      -2.642  98.429   5.112  0.00  0.00     0.089 H 
ATOM     93  F1  EZA d   1      -4.036  96.317   4.291  0.00  0.00    -0.206 F 
ATOM     94  C13 EZA d   1      -2.495  96.172   2.576  0.00  0.00    -0.009 A 
ATOM     95  C14 EZA d   1      -1.372  96.686   1.955  0.00  0.00     0.119 A 
ATOM     96  H17 EZA d   1      -3.002  95.295   2.190  0.00  0.00     0.092 H 
ATOM     97  F2  EZA d   1      -0.955  96.088   0.882  0.00  0.00    -0.206 F 
ATOM     98  C15 EZA d   1      -0.690  97.809   2.401  0.00  0.00    -0.039 A 
ATOM     99  H18 EZA d   1       0.176  98.184   1.868  0.00  0.00     0.089 H 
ENDBRANCH  86  89
ENDBRANCH  63  86
ENDBRANCH  60  63
ENDBRANCH   3  59
BRANCH  10 100
ATOM    100  C23 EZA d   1       2.599 105.692  -0.597  0.00  0.00    -0.071 C 
ATOM    101  H27 EZA d   1       1.983 105.157  -1.335  0.00  0.00     0.028 H 
ATOM    102  H28 EZA d   1       3.663 105.496  -0.797  0.00  0.00     0.028 H 
ATOM    103  H29 EZA d   1       2.405 106.772  -0.672  0.00  0.00     0.028 H 
ENDBRANCH  10 100
BRANCH  14 104
ATOM    104  C27 EZA d   1       4.584 101.596   4.934  0.00  0.00    -0.049 C 
ATOM    105  H33 EZA d   1       4.788 101.630   6.014  0.00  0.00     0.030 H 
ATOM    106  H34 EZA d   1       5.426 102.046   4.388  0.00  0.00     0.030 H 
ATOM    107  H35 EZA d   1       4.458 100.550   4.617  0.00  0.00     0.030 H 
ENDBRANCH  14 104
TORSDOF 12
