REMARK  7 active torsions:
REMARK  status: ('A' for Active; 'I' for Inactive)
REMARK    1  A    between atoms: C10_1  and  C13_2 
REMARK       I    between atoms: C13_2  and  N15_19 
REMARK    2  A    between atoms: C02_7  and  C01_6 
REMARK    3  A    between atoms: C03_8  and  C02_7 
REMARK    4  A    between atoms: C04_9  and  C03_8 
REMARK    5  A    between atoms: N06_18  and  C05_10 
REMARK    6  A    between atoms: C07_11  and  N06_18 
REMARK    7  A    between atoms: N15_19  and  O16_23 
ROOT
ATOM      1  C20 F1Y d   1     -17.673  23.054  27.660  0.00  0.00    -0.078 A 
ATOM      2  C21 F1Y d   1     -17.369  23.477  26.389  0.00  0.00    -0.038 A 
ATOM      3  C22 F1Y d   1     -18.430  23.534  25.408  0.00  0.00     0.135 A 
ATOM      4  C04 F1Y d   1     -19.696  23.779  23.600  0.00  0.00     0.081 A 
ATOM      5  C05 F1Y d   1     -20.542  23.321  24.633  0.00  0.00     0.139 A 
ATOM      6  C18 F1Y d   1     -20.015  22.729  27.083  0.00  0.00    -0.012 A 
ATOM      7  C19 F1Y d   1     -18.989  22.681  28.007  0.00  0.00    -0.067 A 
ATOM      8  N17 F1Y d   1     -19.714  23.163  25.775  0.00  0.00    -0.291 N 
ATOM      9  N23 F1Y d   1     -18.386  23.920  24.084  0.00  0.00    -0.231 NA
ATOM     10  H1  F1Y d   1     -16.886  23.006  28.412  0.00  0.00     0.083 H 
ATOM     11  H2  F1Y d   1     -16.352  23.763  26.126  0.00  0.00     0.089 H 
ATOM     12  H14 F1Y d   1     -21.029  22.440  27.357  0.00  0.00     0.112 H 
ATOM     13  H15 F1Y d   1     -19.200  22.349  29.023  0.00  0.00     0.085 H 
ENDROOT
BRANCH   5  14
ATOM     14  N06 F1Y d   1     -21.922  23.031  24.617  0.00  0.00    -0.340 N 
ATOM     15  H16 F1Y d   1     -22.592  23.785  24.825  0.00  0.00     0.167 HD
BRANCH  14  16
ATOM     16  C07 F1Y d   1     -22.415  21.744  24.326  0.00  0.00     0.033 A 
ATOM     17  C08 F1Y d   1     -23.784  21.467  24.458  0.00  0.00    -0.056 A 
ATOM     18  C09 F1Y d   1     -24.294  20.189  24.173  0.00  0.00    -0.066 A 
ATOM     19  H10 F1Y d   1     -24.458  22.250  24.785  0.00  0.00     0.086 H 
ATOM     20  C10 F1Y d   1     -23.489  19.130  23.749  0.00  0.00     0.034 A 
ATOM     21  H11 F1Y d   1     -25.358  20.018  24.287  0.00  0.00     0.085 H 
ATOM     22  C11 F1Y d   1     -22.123  19.432  23.624  0.00  0.00    -0.066 A 
ATOM     23  C12 F1Y d   1     -21.599  20.694  23.901  0.00  0.00    -0.056 A 
ATOM     24  H12 F1Y d   1     -21.447  18.650  23.298  0.00  0.00     0.085 H 
ATOM     25  H13 F1Y d   1     -20.535  20.864  23.784  0.00  0.00     0.086 H 
BRANCH  20  26
ATOM     26  C13 F1Y d   1     -24.063  17.786  23.456  0.00  0.00     0.275 C 
ATOM     27  N15 F1Y d   1     -23.330  16.740  22.832  0.00  0.00    -0.233 N 
ATOM     28  H17 F1Y d   1     -22.376  16.866  22.559  0.00  0.00     0.197 HD
ATOM     29  O14 F1Y d   1     -25.250  17.532  23.761  0.00  0.00    -0.265 OA
BRANCH  27  30
ATOM     30  O16 F1Y d   1     -23.981  15.552  22.618  0.00  0.00    -0.287 OA
ATOM     31  H18 F1Y d   1     -24.270  15.196  23.450  0.00  0.00     0.244 HD
ENDBRANCH  27  30
ENDBRANCH  20  26
ENDBRANCH  14  16
ENDBRANCH   5  14
BRANCH   4  32
ATOM     32  C03 F1Y d   1     -20.105  24.111  22.155  0.00  0.00    -0.021 C 
ATOM     33  H8  F1Y d   1     -21.190  23.942  22.091  0.00  0.00     0.042 H 
ATOM     34  H9  F1Y d   1     -19.892  25.180  22.008  0.00  0.00     0.042 H 
BRANCH  32  35
ATOM     35  C02 F1Y d   1     -19.468  23.362  20.944  0.00  0.00    -0.063 C 
ATOM     36  H6  F1Y d   1     -20.293  22.987  20.320  0.00  0.00     0.033 H 
ATOM     37  H7  F1Y d   1     -18.883  24.099  20.374  0.00  0.00     0.033 H 
BRANCH  35  38
ATOM     38  C01 F1Y d   1     -18.539  22.170  21.240  0.00  0.00    -0.076 C 
ATOM     39  H3  F1Y d   1     -18.170  21.748  20.293  0.00  0.00     0.027 H 
ATOM     40  H4  F1Y d   1     -19.096  21.399  21.792  0.00  0.00     0.027 H 
ATOM     41  H5  F1Y d   1     -17.687  22.511  21.846  0.00  0.00     0.027 H 
ENDBRANCH  35  38
ENDBRANCH  32  35
ENDBRANCH   4  32
TORSDOF 7
