REMARK WARNING: 32 MAX_TORS EXCEEDED!!!
REMARK  34 active torsions:
REMARK  status: ('A' for Active; 'I' for Inactive)
REMARK    1  A    between atoms: C1_1  and  O1_7 
REMARK    2  A    between atoms: C2_2  and  O2_8 
REMARK    3  A    between atoms: C3_3  and  O3_9 
REMARK    4  A    between atoms: C4_4  and  O4_10 
REMARK    5  A    between atoms: C5_5  and  C6_6 
REMARK    6  A    between atoms: C6_6  and  O6_12 
REMARK    7  A    between atoms: O4_10  and  C1_13 
REMARK    8  A    between atoms: C2_14  and  O2_19 
REMARK    9  A    between atoms: C3_15  and  O3_20 
REMARK   10  A    between atoms: C4_16  and  N4_21 
REMARK   11  A    between atoms: C5_17  and  C6_18 
REMARK   12  A    between atoms: N4_21  and  C1_23 
REMARK   13  A    between atoms: C2_24  and  O2_25 
REMARK   14  A    between atoms: C3_26  and  O3_27 
REMARK   15  A    between atoms: C4_28  and  O4_29 
REMARK   16  A    between atoms: O4_29  and  C1_35 
REMARK   17  A    between atoms: C5_30  and  C7_32 
REMARK   18  A    between atoms: C7_32  and  O7_34 
REMARK   19  A    between atoms: C2_36  and  O2_41 
REMARK   20  A    between atoms: C3_37  and  O3_42 
REMARK   21  A    between atoms: C4_38  and  O4_43 
REMARK   22  A    between atoms: C5_39  and  C6_40 
REMARK   23  A    between atoms: C6_40  and  O6_45 
REMARK   24  A    between atoms: O4_43  and  C1_46 
REMARK   25  A    between atoms: C2_47  and  O2_52 
REMARK   26  A    between atoms: C3_48  and  O3_53 
REMARK   27  A    between atoms: C4_49  and  N4_54 
REMARK   28  A    between atoms: C5_50  and  C6_51 
REMARK   29  A    between atoms: N4_54  and  C1_56 
REMARK   30  A    between atoms: C2_57  and  O2_58 
REMARK   31  A    between atoms: C3_59  and  O3_60 
REMARK   32  A    between atoms: C4_61  and  O4_62 
REMARK   33  A    between atoms: C5_63  and  C7_65 
REMARK   34  A    between atoms: C7_65  and  O7_67 
ROOT
ATOM      1  O4  OPG d   1      13.064  11.260  14.605  0.00  0.00    -0.347 OA
ENDROOT
BRANCH   1   2
ATOM      2  C4  OPG d   1      13.485  12.405  15.399  0.00  0.00     0.103 C 
ATOM      3  C3  OPG d   1      14.863  12.931  14.874  0.00  0.00     0.090 C 
ATOM      4  C2  OPG d   1      15.222  14.266  15.496  0.00  0.00     0.092 C 
ATOM      5  H27 GLC d   1      14.811  13.040  13.781  0.00  0.00     0.091 H 
ATOM      6  C1  OPG d   1      14.314  15.370  14.964  0.00  0.00     0.157 C 
ATOM      7  H25 GLC d   1      15.082  14.195  16.585  0.00  0.00     0.090 H 
ATOM      8  C6  OPG d   1      12.839  14.936  15.151  0.00  0.00     0.104 A 
ATOM      9  H24 GLC d   1      14.482  16.288  15.546  0.00  0.00     0.092 H 
ATOM     10  C5  OPG d   1      12.357  13.504  15.348  0.00  0.00     0.139 A 
ATOM     11  O8  OPG d   1      12.081  14.217  14.150  0.00  0.00    -0.362 OA
ATOM     12  H32 GLC d   1      12.339  15.734  15.720  0.00  0.00     0.091 H 
ATOM     13  H29 GLC d   1      13.613  12.088  16.444  0.00  0.00     0.092 H 
BRANCH   3  14
ATOM     14  O3  OPG d   1      15.893  12.003  15.218  0.00  0.00    -0.390 OA
ATOM     15  H28 GLC d   1      16.724  12.314  14.879  0.00  0.00     0.210 HD
ENDBRANCH   3  14
BRANCH   4  16
ATOM     16  O2  OPG d   1      16.592  14.565  15.232  0.00  0.00    -0.391 OA
ATOM     17  H26 GLC d   1      16.723  14.644  14.294  0.00  0.00     0.210 HD
ENDBRANCH   4  16
BRANCH   6  18
ATOM     18  N4  DAG d   1      14.665  15.649  13.532  0.00  0.00    -0.057 N 
ATOM     19  H22 GLC d   1      15.392  16.347  13.554  0.00  0.00     0.278 HD
ATOM     20  H23 GLC d   1      15.037  14.788  13.163  0.00  0.00     0.278 HD
BRANCH  18  21
ATOM     21  C4  DAG d   1      13.686  16.116  12.556  0.00  0.00     0.154 C 
ATOM     22  C3  DAG d   1      13.656  17.612  12.504  0.00  0.00     0.094 C 
ATOM     23  C2  DAG d   1      12.674  18.106  11.423  0.00  0.00     0.110 C 
ATOM     24  H14 GLC d   1      14.664  17.989  12.278  0.00  0.00     0.090 H 
ATOM     25  C1  DAG d   1      12.879  17.447  10.088  0.00  0.00     0.159 C 
ATOM     26  H13 GLC d   1      11.647  17.915  11.767  0.00  0.00     0.094 H 
ATOM     27  O5  DAG d   1      13.054  15.988  10.200  0.00  0.00    -0.351 OA
ATOM     28  H12 GLC d   1      11.980  17.633   9.482  0.00  0.00     0.133 H 
ATOM     29  C5  DAG d   1      14.047  15.579  11.185  0.00  0.00     0.068 C 
ATOM     30  H16 GLC d   1      15.034  15.974  10.902  0.00  0.00     0.086 H 
ATOM     31  H15 GLC d   1      12.690  15.746  12.842  0.00  0.00     0.092 H 
BRANCH  22  32
ATOM     32  O3  DAG d   1      13.236  18.097  13.761  0.00  0.00    -0.391 OA
ATOM     33  H21 GLC d   1      13.845  17.808  14.430  0.00  0.00     0.210 HD
ENDBRANCH  22  32
BRANCH  23  34
ATOM     34  O2  DAG d   1      12.865  19.472  11.222  0.00  0.00    -0.388 OA
ATOM     35  H20 GLC d   1      12.705  19.936  12.035  0.00  0.00     0.210 HD
ENDBRANCH  23  34
BRANCH  25  36
ATOM     36  O4  GLC d   1      13.977  18.004   9.424  0.00  0.00    -0.348 OA
BRANCH  36  37
ATOM     37  C4  GLC d   1      13.768  18.412   8.050  0.00  0.00     0.096 C 
ATOM     38  C3  GLC d   1      13.803  19.907   7.933  0.00  0.00     0.092 C 
ATOM     39  C2  GLC d   1      13.567  20.315   6.447  0.00  0.00     0.110 C 
ATOM     40  H3  GLC d   1      14.788  20.273   8.259  0.00  0.00     0.091 H 
ATOM     41  C1  GLC d   1      14.473  19.497   5.414  0.00  0.00     0.156 C 
ATOM     42  H2  GLC d   1      12.511  20.132   6.200  0.00  0.00     0.094 H 
ATOM     43  O5  GLC d   1      14.465  18.093   5.792  0.00  0.00    -0.349 OA
ATOM     44  H1  GLC d   1      14.121  19.643   4.382  0.00  0.00     0.133 H 
ATOM     45  C5  GLC d   1      14.849  17.880   7.149  0.00  0.00     0.089 C 
ATOM     46  H5  GLC d   1      15.763  18.455   7.357  0.00  0.00     0.090 H 
ATOM     47  H4  GLC d   1      12.790  18.036   7.713  0.00  0.00     0.091 H 
BRANCH  38  48
ATOM     48  O3  GLC d   1      12.799  20.484   8.749  0.00  0.00    -0.390 OA
ATOM     49  H10 GLC d   1      12.948  20.238   9.654  0.00  0.00     0.210 HD
ENDBRANCH  38  48
BRANCH  39  50
ATOM     50  O2  GLC d   1      13.846  21.698   6.315  0.00  0.00    -0.388 OA
ATOM     51  H9  GLC d   1      14.749  21.862   6.559  0.00  0.00     0.210 HD
ENDBRANCH  39  50
BRANCH  41  52
ATOM     52  O1  GLC d   1      15.792  19.894   5.567  0.00  0.00    -0.369 OA
ATOM     53  H8  GLC d   1      16.056  19.770   6.471  0.00  0.00     0.212 HD
ENDBRANCH  41  52
BRANCH  45  54
ATOM     54  C6  GLC d   1      15.180  16.433   7.309  0.00  0.00     0.043 C 
ATOM     55  H6  GLC d   1      15.413  16.232   8.365  0.00  0.00     0.078 H 
ATOM     56  H7  GLC d   1      16.056  16.194   6.688  0.00  0.00     0.078 H 
BRANCH  54  57
ATOM     57  O6  GLC d   1      14.112  15.631   6.918  0.00  0.00    -0.398 OA
ATOM     58  H11 GLC d   1      13.909  15.799   6.005  0.00  0.00     0.209 HD
ENDBRANCH  54  57
ENDBRANCH  45  54
ENDBRANCH  36  37
ENDBRANCH  25  36
BRANCH  29  59
ATOM     59  C6  DAG d   1      14.086  14.061  11.156  0.00  0.00    -0.050 C 
ATOM     60  H17 GLC d   1      14.351  13.720  10.144  0.00  0.00     0.031 H 
ATOM     61  H18 GLC d   1      13.097  13.664  11.429  0.00  0.00     0.031 H 
ATOM     62  H19 GLC d   1      14.838  13.700  11.873  0.00  0.00     0.031 H 
ENDBRANCH  29  59
ENDBRANCH  18  21
ENDBRANCH   6  18
BRANCH  10  63
ATOM     63  C7  OPG d   1      11.287  13.332  16.407  0.00  0.00     0.050 C 
ATOM     64  H30 GLC d   1      10.499  12.674  16.013  0.00  0.00     0.078 H 
ATOM     65  H31 GLC d   1      10.858  14.317  16.643  0.00  0.00     0.078 H 
BRANCH  63  66
ATOM     66  O7  OPG d   1      11.806  12.765  17.590  0.00  0.00    -0.398 OA
ATOM     67  H33 GLC d   1      12.484  13.331  17.940  0.00  0.00     0.209 HD
ENDBRANCH  63  66
ENDBRANCH  10  63
ENDBRANCH   1   2
BRANCH   1  68
ATOM     68  C1  GLC d   1      12.524  10.146  15.252  0.00  0.00     0.159 C 
ATOM     69  C2  GLC d   1      13.329   8.956  14.915  0.00  0.00     0.110 C 
ATOM     70  C3  GLC d   1      13.313   8.718  13.412  0.00  0.00     0.092 C 
ATOM     71  H35 GLC d   1      12.907   8.076  15.423  0.00  0.00     0.094 H 
ATOM     72  C4  GLC d   1      11.884   8.514  12.937  0.00  0.00     0.096 C 
ATOM     73  H36 GLC d   1      13.739   9.596  12.904  0.00  0.00     0.091 H 
ATOM     74  C5  GLC d   1      11.043   9.753  13.390  0.00  0.00     0.089 C 
ATOM     75  H37 GLC d   1      11.466   7.595  13.374  0.00  0.00     0.091 H 
ATOM     76  O5  GLC d   1      11.156   9.962  14.821  0.00  0.00    -0.348 OA
ATOM     77  H38 GLC d   1      11.449  10.633  12.869  0.00  0.00     0.090 H 
ATOM     78  H34 GLC d   1      12.545  10.305  16.340  0.00  0.00     0.133 H 
BRANCH  69  79
ATOM     79  O2  GLC d   1      14.653   9.159  15.354  0.00  0.00    -0.388 OA
ATOM     80  H41 GLC d   1      15.019   9.916  14.912  0.00  0.00     0.210 HD
ENDBRANCH  69  79
BRANCH  70  81
ATOM     81  O3  GLC d   1      14.082   7.591  13.101  0.00  0.00    -0.390 OA
ATOM     82  H42 GLC d   1      14.079   7.457  12.161  0.00  0.00     0.210 HD
ENDBRANCH  70  81
BRANCH  72  83
ATOM     83  O4  GLC d   1      11.876   8.418  11.476  0.00  0.00    -0.348 OA
BRANCH  83  84
ATOM     84  C1  DAG d   1      12.110   7.190  10.873  0.00  0.00     0.159 C 
ATOM     85  C2  DAG d   1      12.254   7.390   9.334  0.00  0.00     0.110 C 
ATOM     86  C3  DAG d   1      10.924   7.886   8.741  0.00  0.00     0.094 C 
ATOM     87  H45 GLC d   1      12.517   6.428   8.870  0.00  0.00     0.094 H 
ATOM     88  C4  DAG d   1       9.762   6.992   9.210  0.00  0.00     0.154 C 
ATOM     89  H46 GLC d   1      10.742   8.919   9.073  0.00  0.00     0.090 H 
ATOM     90  C5  DAG d   1       9.760   6.847  10.717  0.00  0.00     0.068 C 
ATOM     91  H47 GLC d   1       9.857   5.997   8.750  0.00  0.00     0.092 H 
ATOM     92  O5  DAG d   1      11.034   6.306  11.158  0.00  0.00    -0.351 OA
ATOM     93  H48 GLC d   1       9.614   7.844  11.158  0.00  0.00     0.086 H 
ATOM     94  H44 GLC d   1      13.042   6.762  11.270  0.00  0.00     0.133 H 
BRANCH  85  95
ATOM     95  O2  DAG d   1      13.287   8.336   9.063  0.00  0.00    -0.388 OA
ATOM     96  H52 GLC d   1      14.105   8.024   9.431  0.00  0.00     0.210 HD
ENDBRANCH  85  95
BRANCH  86  97
ATOM     97  O3  DAG d   1      11.003   7.852   7.311  0.00  0.00    -0.391 OA
ATOM     98  H53 GLC d   1      10.188   8.171   6.942  0.00  0.00     0.210 HD
ENDBRANCH  86  97
BRANCH  88  99
ATOM     99  N4  DAG d   1       8.523   7.607   8.796  0.00  0.00    -0.057 N 
ATOM    100  H54 GLC d   1       8.774   8.341   8.153  0.00  0.00     0.278 HD
ATOM    101  H55 GLC d   1       8.118   8.011   9.626  0.00  0.00     0.278 HD
BRANCH  99 102
ATOM    102  C1  OPG d   1       7.452   6.844   8.148  0.00  0.00     0.157 C 
ATOM    103  C2  OPG d   1       7.542   6.998   6.616  0.00  0.00     0.092 C 
ATOM    104  C3  OPG d   1       7.448   8.512   6.289  0.00  0.00     0.090 C 
ATOM    105  H57 GLC d   1       6.693   6.474   6.153  0.00  0.00     0.090 H 
ATOM    106  C4  OPG d   1       5.960   9.050   6.559  0.00  0.00     0.097 C 
ATOM    107  H59 GLC d   1       8.142   9.060   6.944  0.00  0.00     0.091 H 
ATOM    108  C5  OPG d   1       5.323   8.559   7.931  0.00  0.00     0.139 A 
ATOM    109  H61 GLC d   1       5.321   8.693   5.738  0.00  0.00     0.092 H 
ATOM    110  O8  OPG d   1       5.970   8.776   9.232  0.00  0.00    -0.362 OA
ATOM    111  C6  OPG d   1       6.101   7.432   8.639  0.00  0.00     0.104 A 
ATOM    112  H65 GLC d   1       5.528   6.603   9.080  0.00  0.00     0.091 H 
ATOM    113  H56 GLC d   1       7.527   5.781   8.420  0.00  0.00     0.092 H 
BRANCH 103 114
ATOM    114  O2  OPG d   1       8.763   6.439   6.092  0.00  0.00    -0.391 OA
ATOM    115  H58 GLC d   1       9.507   6.885   6.481  0.00  0.00     0.210 HD
ENDBRANCH 103 114
BRANCH 104 116
ATOM    116  O3  OPG d   1       7.832   8.735   4.920  0.00  0.00    -0.390 OA
ATOM    117  H60 GLC d   1       8.725   8.438   4.790  0.00  0.00     0.210 HD
ENDBRANCH 104 116
BRANCH 106 118
ATOM    118  O4  OPG d   1       5.956  10.478   6.565  0.00  0.00    -0.390 OA
ATOM    119  H62 GLC d   1       5.073  10.790   6.725  0.00  0.00     0.210 HD
ENDBRANCH 106 118
BRANCH 108 120
ATOM    120  C7  OPG d   1       3.803   8.280   7.799  0.00  0.00     0.050 C 
ATOM    121  H63 GLC d   1       3.273   9.236   7.676  0.00  0.00     0.078 H 
ATOM    122  H64 GLC d   1       3.450   7.780   8.713  0.00  0.00     0.078 H 
BRANCH 120 123
ATOM    123  O7  OPG d   1       3.523   7.446   6.676  0.00  0.00    -0.398 OA
ATOM    124  H66 GLC d   1       3.975   6.617   6.779  0.00  0.00     0.209 HD
ENDBRANCH 120 123
ENDBRANCH 108 120
ENDBRANCH  99 102
ENDBRANCH  88  99
BRANCH  90 125
ATOM    125  C6  DAG d   1       8.681   5.933  11.227  0.00  0.00    -0.050 C 
ATOM    126  H49 GLC d   1       8.738   5.875  12.324  0.00  0.00     0.031 H 
ATOM    127  H50 GLC d   1       8.818   4.929  10.799  0.00  0.00     0.031 H 
ATOM    128  H51 GLC d   1       7.697   6.327  10.932  0.00  0.00     0.031 H 
ENDBRANCH  90 125
ENDBRANCH  83  84
ENDBRANCH  72  83
BRANCH  74 129
ATOM    129  C6  GLC d   1       9.552   9.659  13.073  0.00  0.00     0.043 C 
ATOM    130  H39 GLC d   1       9.427   9.563  11.984  0.00  0.00     0.078 H 
ATOM    131  H40 GLC d   1       9.058  10.579  13.419  0.00  0.00     0.078 H 
BRANCH 129 132
ATOM    132  O6  GLC d   1       8.929   8.535  13.709  0.00  0.00    -0.398 OA
ATOM    133  H43 GLC d   1       9.025   8.612  14.651  0.00  0.00     0.209 HD
ENDBRANCH 129 132
ENDBRANCH  74 129
ENDBRANCH   1  68
TORSDOF 34
