REMARK  5 active torsions:
REMARK  status: ('A' for Active; 'I' for Inactive)
REMARK    1  A    between atoms: B_1  and  O1_2 
REMARK    2  A    between atoms: B_1  and  O2_3 
REMARK    3  A    between atoms: B_1  and  CA_4 
REMARK    4  A    between atoms: CA_4  and  CB_5 
REMARK    5  A    between atoms: CB_5  and  CG_6 
ROOT
ATOM      1  CG  PBA d   1      25.417  18.183  24.205  0.00  0.00    -0.059 A 
ATOM      2  CD1 PBA d   1      25.060  17.610  25.427  0.00  0.00    -0.077 A 
ATOM      3  CD2 PBA d   1      24.860  17.719  22.969  0.00  0.00    -0.077 A 
ATOM      4  CE1 PBA d   1      24.182  16.539  25.453  0.00  0.00    -0.082 A 
ATOM      5  CE2 PBA d   1      23.920  16.659  23.023  0.00  0.00    -0.082 A 
ATOM      6  CZ  PBA d   1      23.619  16.066  24.272  0.00  0.00    -0.083 A 
ATOM      7  H7  PBA d   1      25.468  18.002  26.352  0.00  0.00     0.084 H 
ATOM      8  H8  PBA d   1      25.148  18.164  22.023  0.00  0.00     0.084 H 
ATOM      9  H9  PBA d   1      23.933  16.068  26.397  0.00  0.00     0.083 H 
ATOM     10  H10 PBA d   1      23.438  16.307  22.118  0.00  0.00     0.083 H 
ATOM     11  H11 PBA d   1      22.935  15.226  24.309  0.00  0.00     0.083 H 
ENDROOT
BRANCH   1  12
ATOM     12  CB  PBA d   1      26.387  19.419  24.119  0.00  0.00    -0.044 C 
ATOM     13  H5  PBA d   1      27.175  19.211  23.380  0.00  0.00     0.039 H 
ATOM     14  H6  PBA d   1      25.817  20.306  23.806  0.00  0.00     0.039 H 
BRANCH  12  15
ATOM     15  CA  PBA d   1      27.029  19.687  25.475  0.00  0.00    -0.031 C 
ATOM     16  H3  PBA d   1      26.289  20.162  26.136  0.00  0.00     0.028 H 
ATOM     17  H4  PBA d   1      27.353  18.732  25.914  0.00  0.00     0.028 H 
BRANCH  15  18
ATOM     18  B   PBA d   1      28.353  20.696  25.324  0.00  0.00     0.491 B 
BRANCH  18  19
ATOM     19  O1  PBA d   1      29.578  20.110  25.565  0.00  0.00    -0.438 OA
ATOM     20  H1  PBA d   1      30.267  20.745  25.410  0.00  0.00     0.184 HD
ENDBRANCH  18  19
BRANCH  18  21
ATOM     21  O2  PBA d   1      28.403  21.721  26.257  0.00  0.00    -0.438 OA
ATOM     22  H2  PBA d   1      29.147  22.282  26.070  0.00  0.00     0.184 HD
ENDBRANCH  18  21
ENDBRANCH  15  18
ENDBRANCH  12  15
ENDBRANCH   1  12
TORSDOF 5
