REMARK  16 active torsions:
REMARK  status: ('A' for Active; 'I' for Inactive)
REMARK    1  A    between atoms: C12_10  and  C14_2 
REMARK       I    between atoms: C14_2  and  N16_31 
REMARK    2  A    between atoms: C6_4  and  N6_32 
REMARK    3  A    between atoms: C3_13  and  C7_6 
REMARK    4  A    between atoms: CE_22  and  C3_13 
REMARK    5  A    between atoms: CA_16  and  N_15 
REMARK    6  A    between atoms: CA_16  and  C_17 
REMARK    7  A    between atoms: CB_19  and  CA_16 
REMARK    8  A    between atoms: C1_24  and  CB_19 
REMARK    9  A    between atoms: ND_21  and  CG_20 
REMARK   10  A    between atoms: CG_20  and  C1_24 
REMARK   11  A    between atoms: ND_21  and  CE_22 
REMARK   12  A    between atoms: C5'_30  and  ND_21 
REMARK   13  A    between atoms: C1'_25  and  N9_34 
REMARK   14  A    between atoms: C2'_27  and  O2'_36 
REMARK   15  A    between atoms: C3'_28  and  O3'_37 
REMARK   16  A    between atoms: C4'_29  and  C5'_30 
ROOT
ATOM      1  ND  F0P d   1      -3.682   1.936  -6.900  0.00  0.00    -0.068 N 
ATOM      2  H16 F0P d   1      -4.100   2.835  -7.083  0.00  0.00     0.280 HD
ENDROOT
BRANCH   1   3
ATOM      3  CG  F0P d   1      -3.044   1.986  -5.557  0.00  0.00     0.084 C 
ATOM      4  H14 F0P d   1      -2.053   2.446  -5.680  0.00  0.00     0.076 H 
ATOM      5  H15 F0P d   1      -2.926   0.949  -5.209  0.00  0.00     0.076 H 
BRANCH   3   6
ATOM      6  C1  F0P d   1      -3.775   2.758  -4.458  0.00  0.00    -0.040 C 
ATOM      7  H19 F0P d   1      -4.436   3.500  -4.930  0.00  0.00     0.035 H 
ATOM      8  H20 F0P d   1      -4.379   2.049  -3.872  0.00  0.00     0.035 H 
BRANCH   6   9
ATOM      9  CB  F0P d   1      -2.822   3.485  -3.512  0.00  0.00    -0.027 C 
ATOM     10  H12 F0P d   1      -1.803   3.233  -3.841  0.00  0.00     0.036 H 
ATOM     11  H13 F0P d   1      -2.999   4.561  -3.656  0.00  0.00     0.036 H 
BRANCH   9  12
ATOM     12  CA  F0P d   1      -2.866   3.234  -1.991  0.00  0.00     0.182 C 
ATOM     13  H11 F0P d   1      -2.808   4.211  -1.489  0.00  0.00     0.101 H 
BRANCH  12  14
ATOM     14  N   F0P d   1      -1.653   2.452  -1.642  0.00  0.00    -0.065 N 
ATOM     15  H8  F0P d   1      -0.835   2.928  -1.990  0.00  0.00     0.275 HD
ATOM     16  H9  F0P d   1      -1.712   1.536  -2.059  0.00  0.00     0.275 HD
ATOM     17  H10 F0P d   1      -1.588   2.361  -0.640  0.00  0.00     0.275 HD
ENDBRANCH  12  14
BRANCH  12  18
ATOM     18  C   F0P d   1      -4.131   2.545  -1.480  0.00  0.00     0.204 C 
ATOM     19  O   F0P d   1      -4.015   1.576  -0.698  0.00  0.00    -0.646 OA
ATOM     20  OXT F0P d   1      -5.276   2.959  -1.777  0.00  0.00    -0.646 OA
ENDBRANCH  12  18
ENDBRANCH   9  12
ENDBRANCH   6   9
ENDBRANCH   3   6
ENDBRANCH   1   3
BRANCH   1  21
ATOM     21  CE  F0P d   1      -4.703   0.874  -7.116  0.00  0.00     0.087 C 
ATOM     22  H17 F0P d   1      -5.123   1.004  -8.124  0.00  0.00     0.076 H 
ATOM     23  H18 F0P d   1      -4.199  -0.102  -7.052  0.00  0.00     0.076 H 
BRANCH  21  24
ATOM     24  C3  F0P d   1      -5.859   0.878  -6.116  0.00  0.00    -0.018 C 
ATOM     25  H6  F0P d   1      -5.436   0.815  -5.102  0.00  0.00     0.042 H 
ATOM     26  H7  F0P d   1      -6.406   1.826  -6.227  0.00  0.00     0.042 H 
BRANCH  24  27
ATOM     27  C7  F0P d   1      -6.846  -0.261  -6.290  0.00  0.00    -0.056 A 
ATOM     28  C9  F0P d   1      -8.080  -0.118  -5.653  0.00  0.00    -0.077 A 
ATOM     29  C10 F0P d   1      -9.058  -1.107  -5.763  0.00  0.00    -0.082 A 
ATOM     30  H3  F0P d   1      -8.281   0.771  -5.066  0.00  0.00     0.084 H 
ATOM     31  C11 F0P d   1      -8.794  -2.251  -6.512  0.00  0.00    -0.068 A 
ATOM     32  H4  F0P d   1     -10.015  -0.986  -5.269  0.00  0.00     0.083 H 
ATOM     33  C12 F0P d   1      -7.566  -2.398  -7.146  0.00  0.00     0.032 A 
ATOM     34  H1  F0P d   1      -9.546  -3.027  -6.601  0.00  0.00     0.085 H 
ATOM     35  C13 F0P d   1      -6.579  -1.408  -7.052  0.00  0.00    -0.062 A 
ATOM     36  H5  F0P d   1      -5.628  -1.526  -7.558  0.00  0.00     0.085 H 
BRANCH  33  37
ATOM     37  C14 F0P d   1      -7.359  -3.660  -7.948  0.00  0.00     0.249 C 
ATOM     38  N16 F0P d   1      -6.077  -4.253  -8.064  0.00  0.00    -0.366 N 
ATOM     39  H28 F0P d   1      -5.960  -5.089  -8.600  0.00  0.00     0.159 HD
ATOM     40  H29 F0P d   1      -5.290  -3.835  -7.610  0.00  0.00     0.159 HD
ATOM     41  O15 F0P d   1      -8.324  -4.156  -8.495  0.00  0.00    -0.268 OA
ENDBRANCH  33  37
ENDBRANCH  24  27
ENDBRANCH  21  24
ENDBRANCH   1  21
BRANCH   1  42
ATOM     42  C5' F0P d   1      -2.635   1.635  -7.895  0.00  0.00     0.110 C 
ATOM     43  H26 F0P d   1      -2.998   1.919  -8.894  0.00  0.00     0.080 H 
ATOM     44  H27 F0P d   1      -2.422   0.556  -7.875  0.00  0.00     0.080 H 
BRANCH  42  45
ATOM     45  C4' F0P d   1      -1.355   2.398  -7.598  0.00  0.00     0.091 C 
ATOM     46  C3' F0P d   1      -1.344   3.827  -8.143  0.00  0.00     0.091 C 
ATOM     47  C2' F0P d   1      -0.252   3.817  -9.201  0.00  0.00     0.105 C 
ATOM     48  H24 F0P d   1      -2.316   4.130  -8.559  0.00  0.00     0.091 H 
ATOM     49  C1' F0P d   1       0.666   2.726  -8.690  0.00  0.00     0.139 C 
ATOM     50  H23 F0P d   1      -0.646   3.612 -10.207  0.00  0.00     0.093 H 
ATOM     51  O4' F0P d   1      -0.246   1.739  -8.203  0.00  0.00    -0.354 OA
ATOM     52  H21 F0P d   1       1.293   3.114  -7.874  0.00  0.00     0.122 H 
ATOM     53  H25 F0P d   1      -1.219   2.430  -6.507  0.00  0.00     0.090 H 
BRANCH  46  54
ATOM     54  O3' F0P d   1      -0.956   4.662  -7.057  0.00  0.00    -0.390 OA
ATOM     55  H33 F0P d   1      -0.093   4.404  -6.753  0.00  0.00     0.210 HD
ENDBRANCH  46  54
BRANCH  47  56
ATOM     56  O2' F0P d   1       0.470   5.022  -9.172  0.00  0.00    -0.388 OA
ATOM     57  H32 F0P d   1       0.869   5.130  -8.316  0.00  0.00     0.210 HD
ENDBRANCH  47  56
BRANCH  49  58
ATOM     58  N9  F0P d   1       1.548   2.143  -9.725  0.00  0.00    -0.294 N 
ATOM     59  C4  F0P d   1       2.848   1.864  -9.584  0.00  0.00     0.167 A 
ATOM     60  C5  F0P d   1       3.298   1.319 -10.780  0.00  0.00     0.149 A 
ATOM     61  N3  F0P d   1       3.712   2.025  -8.561  0.00  0.00    -0.222 NA
ATOM     62  C6  F0P d   1       4.625   0.942 -10.892  0.00  0.00     0.155 A 
ATOM     63  N7  F0P d   1       2.246   1.264 -11.620  0.00  0.00    -0.236 NA
ATOM     64  N1  F0P d   1       5.450   1.116  -9.838  0.00  0.00    -0.222 NA
ATOM     65  C2  F0P d   1       4.995   1.652  -8.691  0.00  0.00     0.091 A 
ATOM     66  H22 F0P d   1       5.676   1.785  -7.858  0.00  0.00     0.146 H 
ATOM     67  C8  F0P d   1       1.173   1.773 -10.962  0.00  0.00     0.071 A 
ATOM     68  H2  F0P d   1       0.168   1.867 -11.371  0.00  0.00     0.144 H 
BRANCH  62  69
ATOM     69  N6  F0P d   1       5.090   0.399 -12.041  0.00  0.00    -0.382 N 
ATOM     70  H30 F0P d   1       6.079   0.121 -12.116  0.00  0.00     0.157 HD
ATOM     71  H31 F0P d   1       4.455   0.264 -12.841  0.00  0.00     0.157 HD
ENDBRANCH  62  69
ENDBRANCH  49  58
ENDBRANCH  42  45
ENDBRANCH   1  42
TORSDOF 16
