REMARK  5 active torsions:
REMARK  status: ('A' for Active; 'I' for Inactive)
REMARK    1  A    between atoms: C1_1  and  C10_19 
REMARK    2  A    between atoms: C13_4  and  C14_5 
REMARK    3  A    between atoms: C13_4  and  C16_7 
REMARK    4  A    between atoms: N12_21  and  C13_4 
REMARK    5  A    between atoms: C8_17  and  N12_21 
ROOT
ATOM      1  C14 EXJ d   1     169.383 175.783  59.737  0.00  0.00     0.038 C 
ATOM      2  C15 EXJ d   1     169.945 177.127  59.844  0.00  0.00     0.061 C 
ATOM      3  N23 EXJ d   1     170.373 178.167  59.970  0.00  0.00    -0.197 NA
ATOM      4  H3  EXJ d   1     169.671 175.214  60.633  0.00  0.00     0.058 H 
ATOM      5  H4  EXJ d   1     168.287 175.867  59.693  0.00  0.00     0.058 H 
ENDROOT
BRANCH   1   6
ATOM      6  C13 EXJ d   1     169.863 175.009  58.492  0.00  0.00     0.064 C 
ATOM      7  H2  EXJ d   1     170.963 174.994  58.511  0.00  0.00     0.082 H 
BRANCH   6   8
ATOM      8  C16 EXJ d   1     169.445 175.678  57.194  0.00  0.00    -0.032 A 
ATOM      9  C17 EXJ d   1     168.181 175.442  56.662  0.00  0.00    -0.054 A 
ATOM     10  C18 EXJ d   1     167.822 176.031  55.465  0.00  0.00     0.034 A 
ATOM     11  H5  EXJ d   1     167.482 174.799  57.184  0.00  0.00     0.087 H 
ATOM     12  C19 EXJ d   1     168.682 176.868  54.779  0.00  0.00    -0.062 A 
ATOM     13 CL   EXJ d   1     166.257 175.679  54.791  0.00  0.00    -0.084 Cl
ATOM     14  C20 EXJ d   1     169.941 177.109  55.312  0.00  0.00    -0.081 A 
ATOM     15  H6  EXJ d   1     168.380 177.327  53.844  0.00  0.00     0.086 H 
ATOM     16  C21 EXJ d   1     170.321 176.514  56.507  0.00  0.00    -0.075 A 
ATOM     17  H7  EXJ d   1     170.630 177.765  54.793  0.00  0.00     0.083 H 
ATOM     18  H8  EXJ d   1     171.310 176.702  56.909  0.00  0.00     0.084 H 
ENDBRANCH   6   8
BRANCH   6  19
ATOM     19  N12 EXJ d   1     169.396 173.626  58.570  0.00  0.00    -0.211 N 
ATOM     20  H13 EXJ d   1     168.805 173.357  59.369  0.00  0.00     0.178 HD
BRANCH  19  21
ATOM     21  C8  EXJ d   1     169.710 172.640  57.612  0.00  0.00     0.756 A 
ATOM     22  N7  EXJ d   1     170.619 172.736  56.655  0.00  0.00     0.044 NA
ATOM     23  N4  EXJ d   1     170.544 171.486  56.097  0.00  0.00    -0.007 N 
ATOM     24  C3  EXJ d   1     171.331 171.014  55.027  0.00  0.00     0.287 A 
ATOM     25  C5  EXJ d   1     169.619 170.754  56.753  0.00  0.00     0.747 A 
ATOM     26  C2  EXJ d   1     171.080 169.628  54.727  0.00  0.00     0.007 A 
ATOM     27  O11 EXJ d   1     172.076 171.779  54.418  0.00  0.00    -0.266 OA
ATOM     28  C1  EXJ d   1     170.153 168.884  55.399  0.00  0.00     0.028 A 
ATOM     29  H1  EXJ d   1     171.653 169.154  53.932  0.00  0.00     0.095 H 
ATOM     30  N6  EXJ d   1     169.418 169.458  56.406  0.00  0.00    -0.191 N 
ATOM     31  H9  EXJ d   1     168.708 168.900  56.902  0.00  0.00     0.184 HD
ATOM     32  N9  EXJ d   1     169.049 171.452  57.717  0.00  0.00     0.132 NA
BRANCH  28  33
ATOM     33  C10 EXJ d   1     169.866 167.444  55.110  0.00  0.00    -0.037 C 
ATOM     34  H10 EXJ d   1     170.512 167.099  54.290  0.00  0.00     0.035 H 
ATOM     35  H11 EXJ d   1     168.811 167.332  54.818  0.00  0.00     0.035 H 
ATOM     36  H12 EXJ d   1     170.063 166.843  56.010  0.00  0.00     0.035 H 
ENDBRANCH  28  33
ENDBRANCH  19  21
ENDBRANCH   6  19
ENDBRANCH   1   6
TORSDOF 5
