REMARK  9 active torsions:
REMARK  status: ('A' for Active; 'I' for Inactive)
REMARK       I    between atoms: N_31  and  C1_1 
REMARK    1  A    between atoms: C1_1  and  O_32 
REMARK    2  A    between atoms: C7_27  and  O2_5 
REMARK    3  A    between atoms: O2_5  and  C4_28 
REMARK    4  A    between atoms: C13_9  and  C11_7 
REMARK    5  A    between atoms: C13_9  and  C14_10 
REMARK    6  A    between atoms: N2_22  and  C13_9 
REMARK    7  A    between atoms: C16_12  and  N2_22 
REMARK    8  A    between atoms: C19_15  and  C20_16 
REMARK    9  A    between atoms: O_32  and  C_33 
ROOT
ATOM      1  C14 F1D d   1     141.003  23.319  31.547  0.00  0.00     0.038 C 
ATOM      2  C15 F1D d   1     141.040  22.054  30.819  0.00  0.00     0.061 C 
ATOM      3  N1  F1D d   1     141.099  21.094  30.233  0.00  0.00    -0.197 NA
ATOM      4  H7  F1D d   1     139.999  23.758  31.455  0.00  0.00     0.058 H 
ATOM      5  H8  F1D d   1     141.225  23.131  32.608  0.00  0.00     0.058 H 
ENDROOT
BRANCH   1   6
ATOM      6  C13 F1D d   1     142.042  24.311  30.981  0.00  0.00     0.064 C 
ATOM      7  H6  F1D d   1     141.870  24.394  29.898  0.00  0.00     0.082 H 
BRANCH   6   8
ATOM      8  C11 F1D d   1     143.459  23.783  31.165  0.00  0.00    -0.031 A 
ATOM      9  C12 F1D d   1     144.185  24.076  32.315  0.00  0.00    -0.043 A 
ATOM     10  C7  F1D d   1     145.486  23.612  32.461  0.00  0.00     0.069 A 
ATOM     11  H5  F1D d   1     143.733  24.670  33.101  0.00  0.00     0.088 H 
ATOM     12  C8  F1D d   1     146.071  22.819  31.479  0.00  0.00    -0.051 A 
ATOM     13  C9  F1D d   1     145.348  22.527  30.334  0.00  0.00    -0.080 A 
ATOM     14  H17 F1D d   1     147.077  22.436  31.608  0.00  0.00     0.087 H 
ATOM     15  C10 F1D d   1     144.057  23.009  30.174  0.00  0.00    -0.075 A 
ATOM     16  H16 F1D d   1     145.794  21.917  29.557  0.00  0.00     0.083 H 
ATOM     17  H15 F1D d   1     143.508  22.781  29.268  0.00  0.00     0.084 H 
BRANCH  10  18
ATOM     18  O2  F1D d   1     146.163  24.028  33.588  0.00  0.00    -0.346 OA
BRANCH  18  19
ATOM     19  C4  F1D d   1     147.300  24.947  33.433  0.00  0.00     0.048 C 
ATOM     20  C3  F1D d   1     146.827  26.297  32.919  0.00  0.00    -0.025 C 
ATOM     21  C2  F1D d   1     146.005  27.029  33.988  0.00  0.00     0.002 C 
ATOM     22  H3  F1D d   1     147.702  26.909  32.655  0.00  0.00     0.039 H 
ATOM     23  H4  F1D d   1     146.203  26.145  32.026  0.00  0.00     0.039 H 
ATOM     24  N   F1D d   1     146.756  27.131  35.246  0.00  0.00    -0.328 N 
ATOM     25  H1  F1D d   1     145.073  26.474  34.169  0.00  0.00     0.064 H 
ATOM     26  H2  F1D d   1     145.765  28.041  33.628  0.00  0.00     0.064 H 
ATOM     27  C1  F1D d   1     147.039  28.306  35.848  0.00  0.00     0.362 C 
ATOM     28  C6  F1D d   1     147.167  25.817  35.772  0.00  0.00     0.002 C 
ATOM     29  O1  F1D d   1     146.679  29.388  35.442  0.00  0.00    -0.238 OA
ATOM     30  C5  F1D d   1     148.030  25.071  34.755  0.00  0.00    -0.025 C 
ATOM     31  H21 F1D d   1     147.745  25.963  36.697  0.00  0.00     0.064 H 
ATOM     32  H22 F1D d   1     146.270  25.220  35.991  0.00  0.00     0.064 H 
ATOM     33  H19 F1D d   1     148.968  25.624  34.601  0.00  0.00     0.039 H 
ATOM     34  H20 F1D d   1     148.256  24.066  35.140  0.00  0.00     0.039 H 
ATOM     35  H18 F1D d   1     147.995  24.524  32.693  0.00  0.00     0.084 H 
BRANCH  27  36
ATOM     36  O   F1D d   1     147.759  28.117  36.961  0.00  0.00    -0.309 OA
BRANCH  36  37
ATOM     37  C   F1D d   1     148.316  29.310  37.557  0.00  0.00     0.015 C 
ATOM     38  H23 F1D d   1     148.884  29.038  38.459  0.00  0.00     0.067 H 
ATOM     39  H24 F1D d   1     147.502  29.998  37.829  0.00  0.00     0.067 H 
ATOM     40  H25 F1D d   1     148.986  29.802  36.836  0.00  0.00     0.067 H 
ENDBRANCH  36  37
ENDBRANCH  27  36
ENDBRANCH  18  19
ENDBRANCH  10  18
ENDBRANCH   6   8
BRANCH   6  41
ATOM     41  N2  F1D d   1     141.822  25.641  31.557  0.00  0.00    -0.211 N 
ATOM     42  H14 F1D d   1     141.002  25.769  32.167  0.00  0.00     0.178 HD
BRANCH  41  43
ATOM     43  C16 F1D d   1     142.659  26.765  31.333  0.00  0.00     0.756 A 
ATOM     44  N3  F1D d   1     143.684  26.798  30.496  0.00  0.00     0.044 NA
ATOM     45  N4  F1D d   1     144.197  28.042  30.756  0.00  0.00    -0.007 N 
ATOM     46  C17 F1D d   1     145.360  28.590  30.177  0.00  0.00     0.287 A 
ATOM     47  C21 F1D d   1     143.447  28.655  31.699  0.00  0.00     0.747 A 
ATOM     48  O3  F1D d   1     145.997  27.958  29.337  0.00  0.00    -0.266 OA
ATOM     49  C18 F1D d   1     145.678  29.880  30.698  0.00  0.00     0.007 A 
ATOM     50  C19 F1D d   1     144.934  30.501  31.654  0.00  0.00     0.028 A 
ATOM     51  H9  F1D d   1     146.558  30.392  30.312  0.00  0.00     0.095 H 
ATOM     52  N5  F1D d   1     143.802  29.889  32.144  0.00  0.00    -0.191 N 
ATOM     53  H13 F1D d   1     143.223  30.367  32.849  0.00  0.00     0.184 HD
ATOM     54  N6  F1D d   1     142.455  27.883  32.098  0.00  0.00     0.132 NA
BRANCH  50  55
ATOM     55  C20 F1D d   1     145.308  31.814  32.277  0.00  0.00    -0.037 C 
ATOM     56  H10 F1D d   1     144.546  32.099  33.017  0.00  0.00     0.035 H 
ATOM     57  H11 F1D d   1     145.367  32.587  31.496  0.00  0.00     0.035 H 
ATOM     58  H12 F1D d   1     146.285  31.719  32.774  0.00  0.00     0.035 H 
ENDBRANCH  50  55
ENDBRANCH  41  43
ENDBRANCH   6  41
ENDBRANCH   1   6
TORSDOF 9
