REMARK  9 active torsions:
REMARK  status: ('A' for Active; 'I' for Inactive)
REMARK    1  A    between atoms: C1_1  and  O_28 
REMARK    2  A    between atoms: C7_24  and  O1_4 
REMARK    3  A    between atoms: O1_4  and  C4_25 
REMARK    4  A    between atoms: C13_8  and  C11_6 
REMARK    5  A    between atoms: C13_8  and  C14_9 
REMARK    6  A    between atoms: N_20  and  C13_8 
REMARK    7  A    between atoms: C15_10  and  N_20 
REMARK    8  A    between atoms: C18_13  and  C19_14 
REMARK    9  A    between atoms: O_28  and  C_29 
ROOT
ATOM      1  C11 F14 d   1     143.414 157.862  31.416  0.00  0.00    -0.033 A 
ATOM      2  C12 F14 d   1     143.757 158.280  32.701  0.00  0.00    -0.042 A 
ATOM      3  C10 F14 d   1     144.307 157.066  30.708  0.00  0.00    -0.075 A 
ATOM      4  C9  F14 d   1     145.515 156.672  31.284  0.00  0.00    -0.080 A 
ATOM      5  C8  F14 d   1     145.842 157.068  32.576  0.00  0.00    -0.050 A 
ATOM      6  C7  F14 d   1     144.960 157.886  33.270  0.00  0.00     0.076 A 
ATOM      7  H3  F14 d   1     143.080 158.917  33.259  0.00  0.00     0.088 H 
ATOM      8  H14 F14 d   1     144.063 156.749  29.701  0.00  0.00     0.084 H 
ATOM      9  H15 F14 d   1     146.203 156.053  30.720  0.00  0.00     0.083 H 
ATOM     10  H16 F14 d   1     146.770 156.744  33.034  0.00  0.00     0.087 H 
ENDROOT
BRANCH   1  11
ATOM     11  C13 F14 d   1     142.076 158.261  30.814  0.00  0.00     0.049 C 
ATOM     12  H4  F14 d   1     142.195 158.259  29.721  0.00  0.00     0.080 H 
BRANCH  11  13
ATOM     13  C14 F14 d   1     140.967 157.272  31.167  0.00  0.00    -0.053 C 
ATOM     14  H5  F14 d   1     140.022 157.602  30.711  0.00  0.00     0.030 H 
ATOM     15  H6  F14 d   1     140.850 157.227  32.260  0.00  0.00     0.030 H 
ATOM     16  H7  F14 d   1     141.230 156.275  30.785  0.00  0.00     0.030 H 
ENDBRANCH  11  13
BRANCH  11  17
ATOM     17  N   F14 d   1     141.665 159.611  31.221  0.00  0.00    -0.212 N 
ATOM     18  H13 F14 d   1     140.719 159.734  31.609  0.00  0.00     0.178 HD
BRANCH  17  19
ATOM     19  C15 F14 d   1     142.487 160.743  31.112  0.00  0.00     0.756 A 
ATOM     20  N1  F14 d   1     143.514 160.755  30.277  0.00  0.00     0.044 NA
ATOM     21  N2  F14 d   1     144.045 161.992  30.559  0.00  0.00    -0.007 N 
ATOM     22  C16 F14 d   1     145.182 162.552  29.945  0.00  0.00     0.287 A 
ATOM     23  C20 F14 d   1     143.299 162.588  31.524  0.00  0.00     0.747 A 
ATOM     24  O2  F14 d   1     145.755 161.949  29.033  0.00  0.00    -0.266 OA
ATOM     25  C17 F14 d   1     145.505 163.851  30.481  0.00  0.00     0.007 A 
ATOM     26  C18 F14 d   1     144.775 164.452  31.465  0.00  0.00     0.028 A 
ATOM     27  H8  F14 d   1     146.371 164.377  30.082  0.00  0.00     0.095 H 
ATOM     28  N3  F14 d   1     143.662 163.819  31.971  0.00  0.00    -0.191 N 
ATOM     29  H12 F14 d   1     143.098 164.284  32.697  0.00  0.00     0.184 HD
ATOM     30  N4  F14 d   1     142.289 161.833  31.910  0.00  0.00     0.132 NA
BRANCH  26  31
ATOM     31  C19 F14 d   1     145.125 165.776  32.077  0.00  0.00    -0.037 C 
ATOM     32  H9  F14 d   1     144.379 166.034  32.843  0.00  0.00     0.035 H 
ATOM     33  H10 F14 d   1     145.132 166.551  31.296  0.00  0.00     0.035 H 
ATOM     34  H11 F14 d   1     146.121 165.714  32.541  0.00  0.00     0.035 H 
ENDBRANCH  26  31
ENDBRANCH  17  19
ENDBRANCH  11  17
ENDBRANCH   1  11
BRANCH   6  35
ATOM     35  O1  F14 d   1     145.240 158.334  34.564  0.00  0.00    -0.311 OA
BRANCH  35  36
ATOM     36  C4  F14 d   1     145.819 159.586  34.773  0.00  0.00     0.076 A 
ATOM     37  C3  F14 d   1     146.736 159.696  35.806  0.00  0.00    -0.048 A 
ATOM     38  C2  F14 d   1     147.301 160.927  36.094  0.00  0.00    -0.048 A 
ATOM     39  H2  F14 d   1     147.010 158.822  36.386  0.00  0.00     0.087 H 
ATOM     40  C1  F14 d   1     146.944 162.045  35.348  0.00  0.00     0.068 A 
ATOM     41  H1  F14 d   1     148.020 161.019  36.900  0.00  0.00     0.087 H 
ATOM     42  C6  F14 d   1     146.043 161.933  34.301  0.00  0.00    -0.048 A 
ATOM     43  C5  F14 d   1     145.473 160.701  34.015  0.00  0.00    -0.048 A 
ATOM     44  H18 F14 d   1     145.785 162.803  33.709  0.00  0.00     0.087 H 
ATOM     45  H17 F14 d   1     144.760 160.607  33.204  0.00  0.00     0.087 H 
BRANCH  40  46
ATOM     46  O   F14 d   1     147.474 163.295  35.548  0.00  0.00    -0.356 OA
BRANCH  46  47
ATOM     47  C   F14 d   1     148.507 163.440  36.528  0.00  0.00     0.010 C 
ATOM     48  H19 F14 d   1     148.826 164.492  36.571  0.00  0.00     0.066 H 
ATOM     49  H20 F14 d   1     149.364 162.808  36.254  0.00  0.00     0.066 H 
ATOM     50  H21 F14 d   1     148.125 163.132  37.512  0.00  0.00     0.066 H 
ENDBRANCH  46  47
ENDBRANCH  40  46
ENDBRANCH  35  36
ENDBRANCH   6  35
TORSDOF 9
