REMARK  6 active torsions:
REMARK  status: ('A' for Active; 'I' for Inactive)
REMARK    1  A    between atoms: C1_1  and  C_15 
REMARK    2  A    between atoms: C12_5  and  C13_6 
REMARK    3  A    between atoms: C13_6  and  C14_7 
REMARK    4  A    between atoms: N_18  and  C4_17 
REMARK    5  A    between atoms: C7_19  and  N_18 
REMARK    6  A    between atoms: C9_22  and  C10_23 
ROOT
ATOM      1  C11 F0V d   1      34.597 169.912  55.669  0.00  0.00     0.753 A 
ATOM      2  C12 F0V d   1      34.649 171.979  56.142  0.00  0.00     0.170 A 
ATOM      3  C7  F0V d   1      36.139 169.906  53.824  0.00  0.00     0.150 A 
ATOM      4  N4  F0V d   1      35.436 170.572  54.798  0.00  0.00    -0.042 N 
ATOM      5  N1  F0V d   1      34.400 168.588  55.624  0.00  0.00    -0.066 NA
ATOM      6  C9  F0V d   1      35.086 167.915  54.709  0.00  0.00     0.053 A 
ATOM      7  C8  F0V d   1      35.975 168.532  53.815  0.00  0.00    -0.014 A 
ATOM      8  N3  F0V d   1      35.469 171.915  55.101  0.00  0.00    -0.134 NA
ATOM      9  N2  F0V d   1      34.093 170.793  56.535  0.00  0.00    -0.043 NA
ATOM     10  H18 F0V d   1      36.540 167.925  53.109  0.00  0.00     0.092 H 
ENDROOT
BRANCH   3  11
ATOM     11  N   F0V d   1      36.861 170.627  52.874  0.00  0.00    -0.340 N 
ATOM     12  H14 F0V d   1      37.004 171.628  53.068  0.00  0.00     0.167 HD
BRANCH  11  13
ATOM     13  C4  F0V d   1      37.420 170.130  51.669  0.00  0.00     0.035 A 
ATOM     14  C3  F0V d   1      38.796 170.167  51.472  0.00  0.00    -0.057 A 
ATOM     15  C2  F0V d   1      39.352 169.612  50.331  0.00  0.00    -0.073 A 
ATOM     16  H2  F0V d   1      39.436 170.632  52.214  0.00  0.00     0.086 H 
ATOM     17  C1  F0V d   1      38.570 168.996  49.353  0.00  0.00    -0.040 A 
ATOM     18  H1  F0V d   1      40.426 169.658  50.194  0.00  0.00     0.084 H 
ATOM     19  C6  F0V d   1      37.188 168.953  49.592  0.00  0.00     0.042 A 
ATOM     20 CL   F0V d   1      36.169 168.032  48.532  0.00  0.00    -0.084 Cl
ATOM     21  C5  F0V d   1      36.607 169.535  50.705  0.00  0.00    -0.036 A 
ATOM     22  H13 F0V d   1      35.530 169.528  50.826  0.00  0.00     0.089 H 
BRANCH  17  23
ATOM     23  C   F0V d   1      39.198 168.459  48.093  0.00  0.00    -0.050 C 
ATOM     24  H10 F0V d   1      40.288 168.605  48.136  0.00  0.00     0.033 H 
ATOM     25  H11 F0V d   1      38.790 168.995  47.223  0.00  0.00     0.033 H 
ATOM     26  H12 F0V d   1      38.975 167.386  48.001  0.00  0.00     0.033 H 
ENDBRANCH  17  23
ENDBRANCH  11  13
ENDBRANCH   3  11
BRANCH   6  27
ATOM     27  C10 F0V d   1      34.816 166.448  54.615  0.00  0.00    -0.035 C 
ATOM     28  H15 F0V d   1      35.443 166.010  53.825  0.00  0.00     0.035 H 
ATOM     29  H16 F0V d   1      33.755 166.285  54.374  0.00  0.00     0.035 H 
ATOM     30  H17 F0V d   1      35.051 165.970  55.577  0.00  0.00     0.035 H 
ENDBRANCH   6  27
BRANCH   2  31
ATOM     31  C13 F0V d   1      34.287 173.254  56.839  0.00  0.00     0.018 C 
ATOM     32  H3  F0V d   1      35.207 173.747  57.185  0.00  0.00     0.052 H 
ATOM     33  H4  F0V d   1      33.648 173.021  57.704  0.00  0.00     0.052 H 
BRANCH  31  34
ATOM     34  C14 F0V d   1      33.544 174.190  55.916  0.00  0.00    -0.051 A 
ATOM     35  C15 F0V d   1      34.240 175.068  55.091  0.00  0.00    -0.076 A 
ATOM     36  C16 F0V d   1      33.579 175.787  54.106  0.00  0.00    -0.082 A 
ATOM     37  H5  F0V d   1      35.309 175.191  55.219  0.00  0.00     0.084 H 
ATOM     38  C17 F0V d   1      32.212 175.654  53.947  0.00  0.00    -0.083 A 
ATOM     39  H6  F0V d   1      34.136 176.455  53.459  0.00  0.00     0.083 H 
ATOM     40  C18 F0V d   1      31.505 174.811  54.783  0.00  0.00    -0.082 A 
ATOM     41  H7  F0V d   1      31.698 176.208  53.170  0.00  0.00     0.083 H 
ATOM     42  C19 F0V d   1      32.165 174.089  55.765  0.00  0.00    -0.076 A 
ATOM     43  H8  F0V d   1      30.431 174.714  54.670  0.00  0.00     0.083 H 
ATOM     44  H9  F0V d   1      31.600 173.438  56.423  0.00  0.00     0.084 H 
ENDBRANCH  31  34
ENDBRANCH   2  31
TORSDOF 6
