REMARK  11 active torsions:
REMARK  status: ('A' for Active; 'I' for Inactive)
REMARK    1  A    between atoms: N1_3  and  C28_4 
REMARK    2  A    between atoms: N2_14  and  C29_15 
REMARK    3  A    between atoms: N5_19  and  C17_18 
REMARK    4  A    between atoms: C14_20  and  N5_19 
REMARK    5  A    between atoms: C13_21  and  O2_32 
REMARK    6  A    between atoms: C6_34  and  C11_25 
REMARK    7  A    between atoms: C_30  and  N7_37 
REMARK    8  A    between atoms: O2_32  and  C5_33 
REMARK    9  A    between atoms: C5_33  and  C9_46 
REMARK   10  A    between atoms: C5_33  and  C10_47 
REMARK       I    between atoms: C6_34  and  N6_36 
REMARK   11  A    between atoms: N8_40  and  C37_43 
ROOT
ATOM      1  C14 X26 d   1       3.030   9.955  -4.798  0.00  0.00     0.082 A 
ATOM      2  C13 X26 d   1       1.989  10.317  -5.745  0.00  0.00     0.097 A 
ATOM      3  C12 X26 d   1       0.690  10.566  -5.315  0.00  0.00    -0.033 A 
ATOM      4  C15 X26 d   1       2.725   9.956  -3.443  0.00  0.00    -0.053 A 
ATOM      5  C16 X26 d   1       1.415  10.219  -3.033  0.00  0.00    -0.065 A 
ATOM      6  C11 X26 d   1       0.397  10.523  -3.947  0.00  0.00     0.035 A 
ATOM      7  H11 X26 d   1      -0.089  10.792  -6.034  0.00  0.00     0.089 H 
ATOM      8  H12 X26 d   1       3.497   9.754  -2.709  0.00  0.00     0.087 H 
ATOM      9  H13 X26 d   1       1.179  10.187  -1.976  0.00  0.00     0.085 H 
ENDROOT
BRANCH   1  10
ATOM     10  N5  X26 d   1       4.266   9.698  -5.350  0.00  0.00    -0.185 N 
ATOM     11  H10 X26 d   1       4.468  10.155  -6.250  0.00  0.00     0.184 HD
BRANCH  10  12
ATOM     12  C17 X26 d   1       5.250   8.909  -4.841  0.00  0.00     0.729 A 
ATOM     13  N4  X26 d   1       6.130   8.342  -5.701  0.00  0.00    -0.073 NA
ATOM     14  C18 X26 d   1       7.152   7.563  -5.280  0.00  0.00     0.051 A 
ATOM     15  C19 X26 d   1       7.370   7.368  -3.906  0.00  0.00     0.102 A 
ATOM     16  H4  X26 d   1       7.804   7.088  -6.004  0.00  0.00     0.119 H 
ATOM     17  N1  X26 d   1       8.416   6.529  -3.468  0.00  0.00    -0.314 N 
ATOM     18  C20 X26 d   1       6.375   7.985  -3.017  0.00  0.00     0.178 A 
ATOM     19  C27 X26 d   1       9.236   6.825  -2.463  0.00  0.00     0.260 C 
ATOM     20  O1  X26 d   1      10.231   6.114  -2.270  0.00  0.00    -0.267 OA
ATOM     21  C26 X26 d   1       9.018   7.995  -1.560  0.00  0.00     0.059 A 
ATOM     22  C25 X26 d   1      10.152   8.653  -1.035  0.00  0.00    -0.065 A 
ATOM     23  C21 X26 d   1       7.680   8.469  -1.167  0.00  0.00     0.052 A 
ATOM     24  C24 X26 d   1      10.013   9.733  -0.161  0.00  0.00    -0.082 A 
ATOM     25  H5  X26 d   1      11.143   8.315  -1.314  0.00  0.00     0.085 H 
ATOM     26  C23 X26 d   1       8.744  10.198   0.170  0.00  0.00    -0.081 A 
ATOM     27  H6  X26 d   1      10.892  10.208   0.259  0.00  0.00     0.083 H 
ATOM     28  C22 X26 d   1       7.610   9.580  -0.337  0.00  0.00    -0.056 A 
ATOM     29  H7  X26 d   1       8.640  11.051   0.830  0.00  0.00     0.083 H 
ATOM     30  H8  X26 d   1       6.636   9.978  -0.076  0.00  0.00     0.087 H 
ATOM     31  N2  X26 d   1       6.457   7.963  -1.641  0.00  0.00    -0.324 N 
ATOM     32  N3  X26 d   1       5.378   8.748  -3.510  0.00  0.00    -0.042 NA
BRANCH  17  33
ATOM     33  C28 X26 d   1       8.610   5.291  -4.211  0.00  0.00    -0.011 C 
ATOM     34  H1  X26 d   1       9.449   4.729  -3.775  0.00  0.00     0.057 H 
ATOM     35  H2  X26 d   1       8.833   5.525  -5.262  0.00  0.00     0.057 H 
ATOM     36  H3  X26 d   1       7.695   4.684  -4.157  0.00  0.00     0.057 H 
ENDBRANCH  17  33
BRANCH  31  37
ATOM     37  C29 X26 d   1       5.266   7.886  -0.772  0.00  0.00     0.019 C 
ATOM     38  C31 X26 d   1       4.196   6.973  -1.337  0.00  0.00    -0.046 C 
ATOM     39  C32 X26 d   1       3.334   6.688  -0.094  0.00  0.00    -0.063 C 
ATOM     40  H23 X26 d   1       4.632   6.048  -1.742  0.00  0.00     0.036 H 
ATOM     41  H24 X26 d   1       3.613   7.478  -2.121  0.00  0.00     0.036 H 
ATOM     42  C8  X26 d   1       4.313   6.654   1.083  0.00  0.00    -0.063 C 
ATOM     43  H49 X26 d   1       2.821   5.720  -0.196  0.00  0.00     0.033 H 
ATOM     44  H50 X26 d   1       2.589   7.485   0.048  0.00  0.00     0.033 H 
ATOM     45  C7  X26 d   1       5.596   7.368   0.635  0.00  0.00    -0.046 C 
ATOM     46  H41 X26 d   1       3.877   7.173   1.949  0.00  0.00     0.033 H 
ATOM     47  H42 X26 d   1       4.538   5.612   1.355  0.00  0.00     0.033 H 
ATOM     48  H39 X26 d   1       5.835   8.202   1.312  0.00  0.00     0.036 H 
ATOM     49  H40 X26 d   1       6.443   6.666   0.604  0.00  0.00     0.036 H 
ATOM     50  H9  X26 d   1       4.853   8.902  -0.685  0.00  0.00     0.073 H 
ENDBRANCH  31  37
ENDBRANCH  10  12
ENDBRANCH   1  10
BRANCH   2  51
ATOM     51  O2  X26 d   1       2.391  10.341  -7.073  0.00  0.00    -0.344 OA
BRANCH  51  52
ATOM     52  C5  X26 d   1       1.447  10.180  -8.144  0.00  0.00     0.038 C 
ATOM     53  H25 X26 d   1       0.647  10.927  -8.031  0.00  0.00     0.082 H 
BRANCH  52  54
ATOM     54  C9  X26 d   1       0.801   8.791  -8.168  0.00  0.00    -0.052 C 
ATOM     55  H43 X26 d   1       0.092   8.731  -9.007  0.00  0.00     0.030 H 
ATOM     56  H44 X26 d   1       0.266   8.619  -7.222  0.00  0.00     0.030 H 
ATOM     57  H45 X26 d   1       1.581   8.026  -8.292  0.00  0.00     0.030 H 
ENDBRANCH  52  54
BRANCH  52  58
ATOM     58  C10 X26 d   1       2.206  10.445  -9.431  0.00  0.00    -0.052 C 
ATOM     59  H46 X26 d   1       1.525  10.334 -10.288  0.00  0.00     0.030 H 
ATOM     60  H47 X26 d   1       3.033   9.725  -9.524  0.00  0.00     0.030 H 
ATOM     61  H48 X26 d   1       2.611  11.468  -9.414  0.00  0.00     0.030 H 
ENDBRANCH  52  58
ENDBRANCH  51  52
ENDBRANCH   2  51
BRANCH   6  62
ATOM     62  C6  X26 d   1      -1.000  10.764  -3.440  0.00  0.00     0.253 C 
ATOM     63  O3  X26 d   1      -1.191  11.549  -2.521  0.00  0.00    -0.267 OA
ATOM     64  N6  X26 d   1      -2.008  10.036  -3.982  0.00  0.00    -0.348 N 
ATOM     65  C2  X26 d   1      -3.418  10.269  -3.630  0.00  0.00    -0.000 C 
ATOM     66  C3  X26 d   1      -1.810   8.959  -4.975  0.00  0.00    -0.000 C 
ATOM     67  C1  X26 d   1      -4.050   8.971  -3.113  0.00  0.00    -0.023 C 
ATOM     68  H14 X26 d   1      -3.476  11.040  -2.847  0.00  0.00     0.064 H 
ATOM     69  H15 X26 d   1      -3.965  10.611  -4.521  0.00  0.00     0.064 H 
ATOM     70  C   X26 d   1      -3.943   7.807  -4.104  0.00  0.00     0.107 C 
ATOM     71  H16 X26 d   1      -5.114   9.158  -2.909  0.00  0.00     0.038 H 
ATOM     72  H17 X26 d   1      -3.543   8.683  -2.180  0.00  0.00     0.038 H 
ATOM     73  C4  X26 d   1      -2.456   7.667  -4.461  0.00  0.00    -0.023 C 
ATOM     74  H22 X26 d   1      -4.523   8.036  -5.010  0.00  0.00     0.084 H 
ATOM     75  H20 X26 d   1      -1.914   7.345  -3.560  0.00  0.00     0.038 H 
ATOM     76  H21 X26 d   1      -2.359   6.898  -5.242  0.00  0.00     0.038 H 
ATOM     77  H18 X26 d   1      -2.276   9.248  -5.928  0.00  0.00     0.064 H 
ATOM     78  H19 X26 d   1      -0.733   8.795  -5.129  0.00  0.00     0.064 H 
BRANCH  70  79
ATOM     79  N7  X26 d   1      -4.458   6.560  -3.509  0.00  0.00    -0.064 N 
ATOM     80  C30 X26 d   1      -5.928   6.633  -3.309  0.00  0.00     0.106 C 
ATOM     81  C33 X26 d   1      -6.454   5.336  -2.697  0.00  0.00     0.105 C 
ATOM     82  H27 X26 d   1      -6.417   6.798  -4.280  0.00  0.00     0.078 H 
ATOM     83  H28 X26 d   1      -6.160   7.471  -2.635  0.00  0.00     0.078 H 
ATOM     84  N8  X26 d   1      -6.153   4.188  -3.582  0.00  0.00    -0.072 N 
ATOM     85  H29 X26 d   1      -7.543   5.414  -2.563  0.00  0.00     0.078 H 
ATOM     86  H30 X26 d   1      -5.975   5.176  -1.720  0.00  0.00     0.078 H 
ATOM     87  C35 X26 d   1      -4.689   4.114  -3.753  0.00  0.00     0.105 C 
ATOM     88  H31 X26 d   1      -6.593   4.322  -4.479  0.00  0.00     0.279 HD
ATOM     89  C36 X26 d   1      -4.199   5.413  -4.405  0.00  0.00     0.106 C 
ATOM     90  H32 X26 d   1      -4.435   3.259  -4.397  0.00  0.00     0.078 H 
ATOM     91  H33 X26 d   1      -4.208   3.989  -2.772  0.00  0.00     0.078 H 
ATOM     92  H34 X26 d   1      -3.119   5.338  -4.598  0.00  0.00     0.078 H 
ATOM     93  H35 X26 d   1      -4.731   5.566  -5.355  0.00  0.00     0.078 H 
ATOM     94  H26 X26 d   1      -4.003   6.408  -2.622  0.00  0.00     0.280 HD
BRANCH  84  95
ATOM     95  C37 X26 d   1      -6.663   2.955  -2.969  0.00  0.00     0.066 C 
ATOM     96  H36 X26 d   1      -7.754   3.029  -2.850  0.00  0.00     0.068 H 
ATOM     97  H37 X26 d   1      -6.195   2.815  -1.983  0.00  0.00     0.068 H 
ATOM     98  H38 X26 d   1      -6.422   2.098  -3.615  0.00  0.00     0.068 H 
ENDBRANCH  84  95
ENDBRANCH  70  79
ENDBRANCH   6  62
TORSDOF 11
