REMARK  9 active torsions:
REMARK  status: ('A' for Active; 'I' for Inactive)
REMARK    1  A    between atoms: O2_36  and  C5_5 
REMARK    2  A    between atoms: C11_8  and  C6_6 
REMARK       I    between atoms: C6_6  and  N6_38 
REMARK    3  A    between atoms: C13_10  and  O2_36 
REMARK    4  A    between atoms: N5_32  and  C14_11 
REMARK    5  A    between atoms: C17_14  and  N5_32 
REMARK    6  A    between atoms: N1_23  and  C28_24 
REMARK    7  A    between atoms: N2_29  and  C29_30 
REMARK    8  A    between atoms: C_33  and  N7_39 
REMARK    9  A    between atoms: N8_42  and  C37_45 
ROOT
ATOM      1  C11 F3J d   1       0.419  10.249  -3.992  0.00  0.00     0.035 A 
ATOM      2  C12 F3J d   1       0.608   9.857  -5.329  0.00  0.00    -0.033 A 
ATOM      3  C13 F3J d   1       1.872   9.484  -5.784  0.00  0.00     0.096 A 
ATOM      4  C14 F3J d   1       3.027   9.509  -4.861  0.00  0.00     0.082 A 
ATOM      5  C15 F3J d   1       2.813   9.926  -3.540  0.00  0.00    -0.053 A 
ATOM      6  C16 F3J d   1       1.519  10.283  -3.117  0.00  0.00    -0.065 A 
ATOM      7  H14 F3J d   1      -0.235   9.845  -6.011  0.00  0.00     0.089 H 
ATOM      8  H15 F3J d   1       3.643   9.973  -2.845  0.00  0.00     0.087 H 
ATOM      9  H16 F3J d   1       1.366  10.592  -2.089  0.00  0.00     0.085 H 
ENDROOT
BRANCH   4  10
ATOM     10  N5  F3J d   1       4.232   9.157  -5.408  0.00  0.00    -0.185 N 
ATOM     11  H26 F3J d   1       4.363   9.430  -6.393  0.00  0.00     0.184 HD
BRANCH  10  12
ATOM     12  C17 F3J d   1       5.279   8.503  -4.847  0.00  0.00     0.729 A 
ATOM     13  N4  F3J d   1       6.178   7.872  -5.636  0.00  0.00    -0.073 NA
ATOM     14  C18 F3J d   1       7.237   7.197  -5.153  0.00  0.00     0.051 A 
ATOM     15  C19 F3J d   1       7.471   7.166  -3.776  0.00  0.00     0.102 A 
ATOM     16  H17 F3J d   1       7.907   6.679  -5.830  0.00  0.00     0.119 H 
ATOM     17  C20 F3J d   1       6.466   7.859  -2.931  0.00  0.00     0.178 A 
ATOM     18  N1  F3J d   1       8.570   6.434  -3.310  0.00  0.00    -0.314 N 
ATOM     19  N2  F3J d   1       6.522   8.023  -1.547  0.00  0.00    -0.324 N 
ATOM     20  N3  F3J d   1       5.443   8.509  -3.516  0.00  0.00    -0.042 NA
ATOM     21  C21 F3J d   1       7.751   8.492  -1.048  0.00  0.00     0.052 A 
ATOM     22  C22 F3J d   1       7.692   9.608  -0.211  0.00  0.00    -0.056 A 
ATOM     23  C26 F3J d   1       9.106   7.992  -1.429  0.00  0.00     0.059 A 
ATOM     24  C23 F3J d   1       8.856  10.181   0.300  0.00  0.00    -0.081 A 
ATOM     25  H18 F3J d   1       6.729  10.034   0.045  0.00  0.00     0.087 H 
ATOM     26  C24 F3J d   1      10.113   9.687  -0.036  0.00  0.00    -0.082 A 
ATOM     27  H24 F3J d   1       8.780  11.028   0.972  0.00  0.00     0.083 H 
ATOM     28  C25 F3J d   1      10.238   8.597  -0.890  0.00  0.00    -0.065 A 
ATOM     29  H23 F3J d   1      11.002  10.156   0.371  0.00  0.00     0.083 H 
ATOM     30  H19 F3J d   1      11.222   8.216  -1.137  0.00  0.00     0.085 H 
ATOM     31  C27 F3J d   1       9.364   6.813  -2.316  0.00  0.00     0.260 C 
ATOM     32  O1  F3J d   1      10.382   6.184  -2.083  0.00  0.00    -0.267 OA
BRANCH  19  33
ATOM     33  C29 F3J d   1       5.287   8.092  -0.753  0.00  0.00     0.019 C 
ATOM     34  C7  F3J d   1       5.430   7.555   0.670  0.00  0.00    -0.045 C 
ATOM     35  C32 F3J d   1       4.210   6.670   0.414  0.00  0.00    -0.061 C 
ATOM     36  H12 F3J d   1       5.288   8.309   1.458  0.00  0.00     0.036 H 
ATOM     37  H13 F3J d   1       6.362   7.002   0.856  0.00  0.00     0.036 H 
ATOM     38  C31 F3J d   1       4.251   7.016  -1.074  0.00  0.00    -0.045 C 
ATOM     39  H30 F3J d   1       3.297   7.008   0.926  0.00  0.00     0.033 H 
ATOM     40  H31 F3J d   1       4.378   5.604   0.630  0.00  0.00     0.033 H 
ATOM     41  H28 F3J d   1       4.621   6.206  -1.720  0.00  0.00     0.036 H 
ATOM     42  H29 F3J d   1       3.304   7.402  -1.478  0.00  0.00     0.036 H 
ATOM     43  H25 F3J d   1       4.886   9.115  -0.802  0.00  0.00     0.073 H 
ENDBRANCH  19  33
BRANCH  18  44
ATOM     44  C28 F3J d   1       8.789   5.155  -3.995  0.00  0.00    -0.011 C 
ATOM     45  H20 F3J d   1       8.031   5.026  -4.782  0.00  0.00     0.057 H 
ATOM     46  H21 F3J d   1       8.708   4.332  -3.270  0.00  0.00     0.057 H 
ATOM     47  H22 F3J d   1       9.792   5.148  -4.447  0.00  0.00     0.057 H 
ENDBRANCH  18  44
ENDBRANCH  10  12
ENDBRANCH   4  10
BRANCH   3  48
ATOM     48  O2  F3J d   1       2.110   9.086  -7.080  0.00  0.00    -0.354 OA
BRANCH  48  49
ATOM     49  C5  F3J d   1       1.063   9.019  -8.047  0.00  0.00     0.010 C 
ATOM     50  H9  F3J d   1       1.474   8.680  -9.009  0.00  0.00     0.066 H 
ATOM     51  H10 F3J d   1       0.614  10.015  -8.171  0.00  0.00     0.066 H 
ATOM     52  H11 F3J d   1       0.294   8.310  -7.706  0.00  0.00     0.066 H 
ENDBRANCH  48  49
ENDBRANCH   3  48
BRANCH   1  53
ATOM     53  C6  F3J d   1      -0.964  10.627  -3.519  0.00  0.00     0.253 C 
ATOM     54  O3  F3J d   1      -1.150  11.715  -2.995  0.00  0.00    -0.267 OA
ATOM     55  N6  F3J d   1      -1.977   9.772  -3.675  0.00  0.00    -0.348 N 
ATOM     56  C2  F3J d   1      -1.750   8.326  -3.755  0.00  0.00    -0.000 C 
ATOM     57  C3  F3J d   1      -3.374  10.206  -3.728  0.00  0.00    -0.000 C 
ATOM     58  C1  F3J d   1      -2.757   7.709  -4.720  0.00  0.00    -0.023 C 
ATOM     59  H3  F3J d   1      -0.729   8.134  -4.117  0.00  0.00     0.064 H 
ATOM     60  H4  F3J d   1      -1.875   7.879  -2.758  0.00  0.00     0.064 H 
ATOM     61  C   F3J d   1      -4.186   7.862  -4.212  0.00  0.00     0.107 C 
ATOM     62  H1  F3J d   1      -2.532   6.638  -4.835  0.00  0.00     0.038 H 
ATOM     63  H2  F3J d   1      -2.669   8.209  -5.696  0.00  0.00     0.038 H 
ATOM     64  C4  F3J d   1      -4.202   9.023  -3.223  0.00  0.00    -0.023 C 
ATOM     65  H27 F3J d   1      -4.846   8.098  -5.060  0.00  0.00     0.084 H 
ATOM     66  H7  F3J d   1      -5.241   9.352  -3.076  0.00  0.00     0.038 H 
ATOM     67  H8  F3J d   1      -3.787   8.680  -2.264  0.00  0.00     0.038 H 
ATOM     68  H5  F3J d   1      -3.527  11.083  -3.082  0.00  0.00     0.064 H 
ATOM     69  H6  F3J d   1      -3.657  10.458  -4.761  0.00  0.00     0.064 H 
BRANCH  61  70
ATOM     70  N7  F3J d   1      -4.675   6.619  -3.569  0.00  0.00    -0.064 N 
ATOM     71  C30 F3J d   1      -6.115   6.735  -3.268  0.00  0.00     0.106 C 
ATOM     72  C33 F3J d   1      -6.604   5.482  -2.538  0.00  0.00     0.105 C 
ATOM     73  H33 F3J d   1      -6.675   6.850  -4.208  0.00  0.00     0.078 H 
ATOM     74  H34 F3J d   1      -6.283   7.616  -2.631  0.00  0.00     0.078 H 
ATOM     75  N8  F3J d   1      -6.373   4.287  -3.374  0.00  0.00    -0.072 N 
ATOM     76  H35 F3J d   1      -7.680   5.578  -2.330  0.00  0.00     0.078 H 
ATOM     77  H36 F3J d   1      -6.055   5.375  -1.591  0.00  0.00     0.078 H 
ATOM     78  C35 F3J d   1      -4.944   4.177  -3.722  0.00  0.00     0.105 C 
ATOM     79  H37 F3J d   1      -6.911   4.368  -4.222  0.00  0.00     0.279 HD
ATOM     80  C36 F3J d   1      -4.482   5.445  -4.442  0.00  0.00     0.106 C 
ATOM     81  H38 F3J d   1      -4.795   3.309  -4.381  0.00  0.00     0.078 H 
ATOM     82  H39 F3J d   1      -4.354   4.045  -2.803  0.00  0.00     0.078 H 
ATOM     83  H40 F3J d   1      -3.416   5.351  -4.697  0.00  0.00     0.078 H 
ATOM     84  H41 F3J d   1      -5.069   5.575  -5.363  0.00  0.00     0.078 H 
ATOM     85  H32 F3J d   1      -4.165   6.478  -2.711  0.00  0.00     0.280 HD
BRANCH  75  86
ATOM     86  C37 F3J d   1      -6.808   3.087  -2.639  0.00  0.00     0.066 C 
ATOM     87  H42 F3J d   1      -7.874   3.179  -2.385  0.00  0.00     0.068 H 
ATOM     88  H43 F3J d   1      -6.218   2.988  -1.716  0.00  0.00     0.068 H 
ATOM     89  H44 F3J d   1      -6.657   2.197  -3.268  0.00  0.00     0.068 H 
ENDBRANCH  75  86
ENDBRANCH  61  70
ENDBRANCH   1  53
TORSDOF 9
