REMARK  11 active torsions:
REMARK  status: ('A' for Active; 'I' for Inactive)
REMARK    1  A    between atoms: C6_35  and  C11_1 
REMARK    2  A    between atoms: C13_3  and  O2_33 
REMARK    3  A    between atoms: C14_4  and  N5_25 
REMARK    4  A    between atoms: N1_9  and  C28_10 
REMARK    5  A    between atoms: N2_20  and  C29_21 
REMARK    6  A    between atoms: C29_21  and  C32_32 
REMARK    7  A    between atoms: C29_21  and  C7_45 
REMARK    8  A    between atoms: C_30  and  N7_38 
REMARK    9  A    between atoms: C32_32  and  C31_31 
REMARK   10  A    between atoms: O2_33  and  C5_34 
REMARK       I    between atoms: C6_35  and  N6_37 
REMARK   11  A    between atoms: N8_41  and  C37_44 
ROOT
ATOM      1  C11 F2S d   1       0.314  10.134  -4.171  0.00  0.00     0.035 A 
ATOM      2  C12 F2S d   1       0.460   9.611  -5.462  0.00  0.00    -0.033 A 
ATOM      3  C13 F2S d   1       1.718   9.236  -5.923  0.00  0.00     0.096 A 
ATOM      4  C14 F2S d   1       2.898   9.409  -5.050  0.00  0.00     0.082 A 
ATOM      5  C15 F2S d   1       2.710   9.959  -3.791  0.00  0.00    -0.053 A 
ATOM      6  C16 F2S d   1       1.424  10.308  -3.344  0.00  0.00    -0.065 A 
ATOM      7  H1  F2S d   1      -0.407   9.498  -6.102  0.00  0.00     0.089 H 
ATOM      8  H2  F2S d   1       3.565  10.122  -3.144  0.00  0.00     0.087 H 
ATOM      9  H3  F2S d   1       1.294  10.716  -2.348  0.00  0.00     0.085 H 
ENDROOT
BRANCH   4  10
ATOM     10  N5  F2S d   1       4.119   9.082  -5.572  0.00  0.00    -0.185 N 
ATOM     11  C17 F2S d   1       5.176   8.476  -4.971  0.00  0.00     0.729 A 
ATOM     12  N4  F2S d   1       6.118   7.905  -5.758  0.00  0.00    -0.073 NA
ATOM     13  N3  F2S d   1       5.303   8.477  -3.640  0.00  0.00    -0.042 NA
ATOM     14  C18 F2S d   1       7.192   7.270  -5.271  0.00  0.00     0.051 A 
ATOM     15  C19 F2S d   1       7.386   7.237  -3.891  0.00  0.00     0.102 A 
ATOM     16  H7  F2S d   1       7.898   6.790  -5.939  0.00  0.00     0.119 H 
ATOM     17  N1  F2S d   1       8.478   6.505  -3.410  0.00  0.00    -0.314 N 
ATOM     18  C20 F2S d   1       6.348   7.867  -3.058  0.00  0.00     0.178 A 
ATOM     19  C27 F2S d   1       9.243   6.829  -2.391  0.00  0.00     0.260 C 
ATOM     20  O1  F2S d   1      10.252   6.160  -2.162  0.00  0.00    -0.267 OA
ATOM     21  C26 F2S d   1       8.958   8.011  -1.518  0.00  0.00     0.059 A 
ATOM     22  C25 F2S d   1      10.074   8.641  -0.982  0.00  0.00    -0.065 A 
ATOM     23  C21 F2S d   1       7.607   8.516  -1.170  0.00  0.00     0.052 A 
ATOM     24  C24 F2S d   1       9.930   9.749  -0.162  0.00  0.00    -0.082 A 
ATOM     25  H8  F2S d   1      11.065   8.263  -1.207  0.00  0.00     0.085 H 
ATOM     26  C23 F2S d   1       8.673  10.247   0.153  0.00  0.00    -0.081 A 
ATOM     27  H9  F2S d   1      10.812  10.234   0.239  0.00  0.00     0.083 H 
ATOM     28  C22 F2S d   1       7.532   9.652  -0.350  0.00  0.00    -0.056 A 
ATOM     29  H10 F2S d   1       8.586  11.112   0.800  0.00  0.00     0.083 H 
ATOM     30  H11 F2S d   1       6.562  10.070  -0.107  0.00  0.00     0.087 H 
ATOM     31  N2  F2S d   1       6.410   7.974  -1.680  0.00  0.00    -0.324 N 
ATOM     32  H13 F2S d   1       4.257   9.331  -6.562  0.00  0.00     0.184 HD
BRANCH  17  33
ATOM     33  C28 F2S d   1       8.672   5.262  -4.139  0.00  0.00    -0.011 C 
ATOM     34  H4  F2S d   1       9.538   4.726  -3.725  0.00  0.00     0.057 H 
ATOM     35  H5  F2S d   1       8.852   5.484  -5.201  0.00  0.00     0.057 H 
ATOM     36  H6  F2S d   1       7.773   4.636  -4.042  0.00  0.00     0.057 H 
ENDBRANCH  17  33
BRANCH  31  37
ATOM     37  C29 F2S d   1       5.181   7.727  -0.916  0.00  0.00     0.015 C 
ATOM     38  H12 F2S d   1       4.557   7.014  -1.475  0.00  0.00     0.072 H 
BRANCH  37  39
ATOM     39  C32 F2S d   1       5.566   7.087   0.414  0.00  0.00    -0.049 C 
ATOM     40  H26 F2S d   1       6.178   7.793   0.995  0.00  0.00     0.035 H 
ATOM     41  H27 F2S d   1       6.144   6.171   0.224  0.00  0.00     0.035 H 
BRANCH  39  42
ATOM     42  C31 F2S d   1       4.313   6.739   1.201  0.00  0.00    -0.075 C 
ATOM     43  H23 F2S d   1       4.598   6.278   2.158  0.00  0.00     0.027 H 
ATOM     44  H24 F2S d   1       3.700   6.032   0.622  0.00  0.00     0.027 H 
ATOM     45  H25 F2S d   1       3.734   7.655   1.393  0.00  0.00     0.027 H 
ENDBRANCH  39  42
ENDBRANCH  37  39
BRANCH  37  46
ATOM     46  C7  F2S d   1       4.375   9.010  -0.738  0.00  0.00    -0.057 C 
ATOM     47  H44 F2S d   1       3.462   8.793  -0.163  0.00  0.00     0.030 H 
ATOM     48  H45 F2S d   1       4.100   9.410  -1.725  0.00  0.00     0.030 H 
ATOM     49  H46 F2S d   1       4.981   9.752  -0.197  0.00  0.00     0.030 H 
ENDBRANCH  37  46
ENDBRANCH  31  37
ENDBRANCH   4  10
BRANCH   3  50
ATOM     50  O2  F2S d   1       1.928   8.706  -7.171  0.00  0.00    -0.354 OA
BRANCH  50  51
ATOM     51  C5  F2S d   1       0.869   8.254  -8.026  0.00  0.00     0.010 C 
ATOM     52  H28 F2S d   1       1.294   7.874  -8.967  0.00  0.00     0.066 H 
ATOM     53  H29 F2S d   1       0.190   9.092  -8.242  0.00  0.00     0.066 H 
ATOM     54  H30 F2S d   1       0.311   7.449  -7.525  0.00  0.00     0.066 H 
ENDBRANCH  50  51
ENDBRANCH   3  50
BRANCH   1  55
ATOM     55  C6  F2S d   1      -1.053  10.521  -3.688  0.00  0.00     0.253 C 
ATOM     56  O3  F2S d   1      -1.240  11.661  -3.326  0.00  0.00    -0.267 OA
ATOM     57  N6  F2S d   1      -2.037   9.632  -3.655  0.00  0.00    -0.348 N 
ATOM     58  C2  F2S d   1      -3.422  10.079  -3.714  0.00  0.00    -0.000 C 
ATOM     59  C3  F2S d   1      -1.790   8.196  -3.503  0.00  0.00    -0.000 C 
ATOM     60  C1  F2S d   1      -4.302   8.892  -3.343  0.00  0.00    -0.023 C 
ATOM     61  H14 F2S d   1      -3.582  10.902  -3.002  0.00  0.00     0.064 H 
ATOM     62  H15 F2S d   1      -3.663  10.422  -4.731  0.00  0.00     0.064 H 
ATOM     63  C   F2S d   1      -4.111   7.666  -4.233  0.00  0.00     0.107 C 
ATOM     64  H16 F2S d   1      -5.354   9.208  -3.412  0.00  0.00     0.038 H 
ATOM     65  H17 F2S d   1      -4.073   8.604  -2.306  0.00  0.00     0.038 H 
ATOM     66  C4  F2S d   1      -2.632   7.503  -4.571  0.00  0.00    -0.023 C 
ATOM     67  H22 F2S d   1      -4.683   7.797  -5.164  0.00  0.00     0.084 H 
ATOM     68  H20 F2S d   1      -2.378   6.433  -4.602  0.00  0.00     0.038 H 
ATOM     69  H21 F2S d   1      -2.427   7.957  -5.552  0.00  0.00     0.038 H 
ATOM     70  H18 F2S d   1      -0.723   7.974  -3.655  0.00  0.00     0.064 H 
ATOM     71  H19 F2S d   1      -2.095   7.861  -2.501  0.00  0.00     0.064 H 
BRANCH  63  72
ATOM     72  N7  F2S d   1      -4.605   6.472  -3.521  0.00  0.00    -0.064 N 
ATOM     73  C30 F2S d   1      -4.385   5.248  -4.320  0.00  0.00     0.106 C 
ATOM     74  C33 F2S d   1      -4.927   4.010  -3.602  0.00  0.00     0.105 C 
ATOM     75  H32 F2S d   1      -3.306   5.120  -4.489  0.00  0.00     0.078 H 
ATOM     76  H33 F2S d   1      -4.898   5.354  -5.287  0.00  0.00     0.078 H 
ATOM     77  N8  F2S d   1      -6.354   4.171  -3.258  0.00  0.00    -0.072 N 
ATOM     78  H34 F2S d   1      -4.351   3.851  -2.678  0.00  0.00     0.078 H 
ATOM     79  H35 F2S d   1      -4.814   3.136  -4.260  0.00  0.00     0.078 H 
ATOM     80  C35 F2S d   1      -6.565   5.406  -2.486  0.00  0.00     0.105 C 
ATOM     81  H36 F2S d   1      -6.899   4.202  -4.105  0.00  0.00     0.279 HD
ATOM     82  C36 F2S d   1      -6.052   6.616  -3.266  0.00  0.00     0.106 C 
ATOM     83  H37 F2S d   1      -6.023   5.334  -1.532  0.00  0.00     0.078 H 
ATOM     84  H38 F2S d   1      -7.640   5.531  -2.289  0.00  0.00     0.078 H 
ATOM     85  H39 F2S d   1      -6.586   6.685  -4.225  0.00  0.00     0.078 H 
ATOM     86  H40 F2S d   1      -6.230   7.530  -2.680  0.00  0.00     0.078 H 
ATOM     87  H31 F2S d   1      -4.116   6.387  -2.644  0.00  0.00     0.280 HD
BRANCH  77  88
ATOM     88  C37 F2S d   1      -6.795   3.045  -2.420  0.00  0.00     0.066 C 
ATOM     89  H41 F2S d   1      -6.651   2.102  -2.968  0.00  0.00     0.068 H 
ATOM     90  H42 F2S d   1      -7.860   3.167  -2.173  0.00  0.00     0.068 H 
ATOM     91  H43 F2S d   1      -6.204   3.024  -1.493  0.00  0.00     0.068 H 
ENDBRANCH  77  88
ENDBRANCH  63  72
ENDBRANCH   1  55
TORSDOF 11
