REMARK  8 active torsions:
REMARK  status: ('A' for Active; 'I' for Inactive)
REMARK    1  A    between atoms: O3A_8  and  PB_1 
REMARK    2  A    between atoms: PA_5  and  O3A_8 
REMARK    3  A    between atoms: PA_5  and  O5'_9 
REMARK    4  A    between atoms: O5'_9  and  C5'_10 
REMARK    5  A    between atoms: C5'_10  and  C4'_11 
REMARK    6  A    between atoms: C3'_13  and  O3'_14 
REMARK    7  A    between atoms: C2'_15  and  O2'_16 
REMARK    8  A    between atoms: C1'_17  and  N9_18 
ROOT
ATOM      1  C4' ADP d   1      97.559  38.705 104.598  0.00  0.00     0.089 C 
ATOM      2  O4' ADP d   1      96.182  38.483 104.940  0.00  0.00    -0.353 OA
ATOM      3  C3' ADP d   1      97.506  39.461 103.271  0.00  0.00     0.091 C 
ATOM      4  C2' ADP d   1      96.319  38.802 102.590  0.00  0.00     0.105 C 
ATOM      5  C1' ADP d   1      95.386  38.511 103.752  0.00  0.00     0.139 C 
ATOM      6  H3  ADP d   1      98.069  37.744 104.435  0.00  0.00     0.090 H 
ATOM      7  H4  ADP d   1      97.302  40.526 103.457  0.00  0.00     0.091 H 
ATOM      8  H6  ADP d   1      95.855  39.472 101.851  0.00  0.00     0.093 H 
ATOM      9  H8  ADP d   1      94.891  37.541 103.595  0.00  0.00     0.122 H 
ENDROOT
BRANCH   5  10
ATOM     10  N9  ADP d   1      94.363  39.571 103.924  0.00  0.00    -0.294 N 
ATOM     11  C8  ADP d   1      94.301  40.472 104.940  0.00  0.00     0.071 A 
ATOM     12  N7  ADP d   1      93.205  41.261 104.802  0.00  0.00    -0.236 NA
ATOM     13  H9  ADP d   1      95.026  40.550 105.749  0.00  0.00     0.144 H 
ATOM     14  C5  ADP d   1      92.568  40.846 103.679  0.00  0.00     0.149 A 
ATOM     15  C6  ADP d   1      91.368  41.249 102.944  0.00  0.00     0.155 A 
ATOM     16  C4  ADP d   1      93.329  39.731 103.113  0.00  0.00     0.167 A 
ATOM     17  N6  ADP d   1      90.640  42.280 103.396  0.00  0.00    -0.382 N 
ATOM     18  N1  ADP d   1      91.037  40.565 101.831  0.00  0.00    -0.222 NA
ATOM     19  H10 ADP d   1      89.793  42.574 102.889  0.00  0.00     0.157 HD
ATOM     20  H11 ADP d   1      90.927  42.778 104.251  0.00  0.00     0.157 HD
ATOM     21  C2  ADP d   1      91.787  39.547 101.358  0.00  0.00     0.091 A 
ATOM     22  N3  ADP d   1      92.912  39.119 101.972  0.00  0.00    -0.222 NA
ATOM     23  H12 ADP d   1      91.473  39.052 100.446  0.00  0.00     0.146 H 
ENDBRANCH   5  10
BRANCH   4  24
ATOM     24  O2' ADP d   1      96.707  37.560 101.962  0.00  0.00    -0.388 OA
ATOM     25  H7  ADP d   1      95.950  37.168 101.544  0.00  0.00     0.210 HD
ENDBRANCH   4  24
BRANCH   1  26
ATOM     26  C5' ADP d   1      98.255  39.409 105.757  0.00  0.00     0.058 C 
ATOM     27  H1  ADP d   1      97.932  38.959 106.707  0.00  0.00     0.079 H 
ATOM     28  H2  ADP d   1      99.344  39.300 105.652  0.00  0.00     0.079 H 
BRANCH  26  29
ATOM     29  O5' ADP d   1      97.913  40.789 105.745  0.00  0.00    -0.287 OA
BRANCH  29  30
ATOM     30  PA  ADP d   1      98.907  41.818 106.476  0.00  0.00     0.418 P 
ATOM     31  O1A ADP d   1      98.298  43.193 106.490  0.00  0.00    -0.624 OA
ATOM     32  O2A ADP d   1      99.280  41.193 107.800  0.00  0.00    -0.624 OA
BRANCH  30  33
ATOM     33  O3A ADP d   1     100.215  41.760 105.524  0.00  0.00    -0.173 OA
BRANCH  33  34
ATOM     34  PB  ADP d   1     100.341  42.337 104.014  0.00  0.00     0.431 P 
ATOM     35  O1B ADP d   1     100.376  41.069 103.203  0.00  0.00    -0.616 OA
ATOM     36  O2B ADP d   1     101.645  43.128 104.051  0.00  0.00    -0.616 OA
ATOM     37  O3B ADP d   1      99.120  43.191 103.715  0.00  0.00    -0.616 OA
ENDBRANCH  33  34
ENDBRANCH  30  33
ENDBRANCH  29  30
ENDBRANCH  26  29
ENDBRANCH   1  26
BRANCH   3  38
ATOM     38  O3' ADP d   1      98.696  39.374 102.468  0.00  0.00    -0.390 OA
ATOM     39  H5  ADP d   1      99.431  39.730 102.953  0.00  0.00     0.210 HD
ENDBRANCH   3  38
TORSDOF 8
