REMARK  8 active torsions:
REMARK  status: ('A' for Active; 'I' for Inactive)
REMARK    1  A    between atoms: O21_25  and  C22_5 
REMARK    2  A    between atoms: C22_5  and  C23_26 
REMARK    3  A    between atoms: C26_7  and  O27_28 
REMARK    4  A    between atoms: O27_28  and  C28_8 
REMARK    5  A    between atoms: C02_10  and  O01_9 
REMARK    6  A    between atoms: C06_14  and  C07_15 
REMARK    7  A    between atoms: N20_24  and  O21_25 
REMARK    8  A    between atoms: C32_32  and  O33_33 
ROOT
ATOM      1  C10 F5S d   1      19.673  24.008  52.997  0.00  0.00     0.002 C 
ATOM      2  C13 F5S d   1      22.017  26.134  54.043  0.00  0.00    -0.081 C 
ATOM      3  C15 F5S d   1      24.582  26.180  54.298  0.00  0.00    -0.073 C 
ATOM      4  C17 F5S d   1      25.295  23.456  52.861  0.00  0.00     0.070 A 
ATOM      5  C02 F5S d   1      20.715  25.194  49.469  0.00  0.00     0.085 A 
ATOM      6  C03 F5S d   1      20.684  24.492  50.669  0.00  0.00     0.079 A 
ATOM      7  C04 F5S d   1      21.743  23.400  50.842  0.00  0.00     0.297 C 
ATOM      8  O05 F5S d   1      22.414  23.278  52.084  0.00  0.00    -0.312 OA
ATOM      9  C06 F5S d   1      23.231  22.155  52.215  0.00  0.00     0.047 C 
ATOM     10  O08 F5S d   1      22.005  22.669  49.902  0.00  0.00    -0.259 OA
ATOM     11  C09 F5S d   1      19.730  24.804  51.662  0.00  0.00    -0.031 A 
ATOM     12  C11 F5S d   1      19.897  24.733  54.330  0.00  0.00     0.066 C 
ATOM     13  C12 F5S d   1      21.270  25.255  54.773  0.00  0.00    -0.057 C 
ATOM     14  C14 F5S d   1      23.343  26.619  54.637  0.00  0.00    -0.084 C 
ATOM     15  C16 F5S d   1      24.826  24.930  53.167  0.00  0.00     0.080 A 
ATOM     16  O18 F5S d   1      25.970  24.624  52.224  0.00  0.00    -0.371 OA
ATOM     17  C19 F5S d   1      24.620  22.580  51.821  0.00  0.00    -0.014 C 
ATOM     18  N20 F5S d   1      18.888  24.871  55.184  0.00  0.00    -0.138 NA
ATOM     19  C31 F5S d   1      18.797  25.817  51.399  0.00  0.00    -0.043 A 
ATOM     20  C32 F5S d   1      18.835  26.518  50.183  0.00  0.00     0.068 A 
ATOM     21  C34 F5S d   1      19.794  26.208  49.220  0.00  0.00    -0.018 A 
ATOM     22  H1  F5S d   1      20.438  23.221  52.931  0.00  0.00     0.049 H 
ATOM     23  H2  F5S d   1      18.676  23.547  53.050  0.00  0.00     0.049 H 
ATOM     24  H3  F5S d   1      21.680  26.480  53.067  0.00  0.00     0.083 H 
ATOM     25  H4  F5S d   1      25.450  26.643  54.765  0.00  0.00     0.081 H 
ATOM     26  H5  F5S d   1      25.750  22.850  53.658  0.00  0.00     0.087 H 
ATOM     27  H13 F5S d   1      22.876  21.351  51.554  0.00  0.00     0.083 H 
ATOM     28  H17 F5S d   1      21.671  24.905  55.723  0.00  0.00     0.086 H 
ATOM     29  H18 F5S d   1      23.286  27.390  55.404  0.00  0.00     0.083 H 
ATOM     30  H19 F5S d   1      23.884  25.085  52.620  0.00  0.00     0.093 H 
ATOM     31  H20 F5S d   1      25.233  21.678  51.672  0.00  0.00     0.040 H 
ATOM     32  H21 F5S d   1      24.559  23.142  50.877  0.00  0.00     0.040 H 
ATOM     33  H25 F5S d   1      18.042  26.060  52.138  0.00  0.00     0.088 H 
ATOM     34  H27 F5S d   1      19.823  26.753  48.283  0.00  0.00     0.092 H 
ENDROOT
BRANCH  18  35
ATOM     35  O21 F5S d   1      17.634  24.404  54.870  0.00  0.00    -0.252 OA
BRANCH  35  36
ATOM     36  C22 F5S d   1      16.741  24.939  55.836  0.00  0.00     0.071 C 
ATOM     37  H6  F5S d   1      17.263  25.111  56.789  0.00  0.00     0.085 H 
ATOM     38  H7  F5S d   1      15.896  24.254  55.999  0.00  0.00     0.085 H 
BRANCH  36  39
ATOM     39  C23 F5S d   1      16.254  26.254  55.253  0.00  0.00    -0.032 A 
ATOM     40  C24 F5S d   1      16.377  27.422  55.997  0.00  0.00    -0.072 A 
ATOM     41  C25 F5S d   1      15.940  28.623  55.456  0.00  0.00    -0.050 A 
ATOM     42  H8  F5S d   1      16.810  27.395  56.990  0.00  0.00     0.084 H 
ATOM     43  C26 F5S d   1      15.378  28.650  54.184  0.00  0.00     0.068 A 
ATOM     44  H22 F5S d   1      16.037  29.541  56.025  0.00  0.00     0.087 H 
ATOM     45  C29 F5S d   1      15.258  27.472  53.442  0.00  0.00    -0.050 A 
ATOM     46  C30 F5S d   1      15.700  26.272  53.976  0.00  0.00    -0.072 A 
ATOM     47  H23 F5S d   1      14.820  27.497  52.451  0.00  0.00     0.087 H 
ATOM     48  H24 F5S d   1      15.615  25.355  53.404  0.00  0.00     0.084 H 
BRANCH  43  49
ATOM     49  O27 F5S d   1      14.947  29.913  53.719  0.00  0.00    -0.356 OA
BRANCH  49  50
ATOM     50  C28 F5S d   1      14.530  30.086  52.383  0.00  0.00     0.010 C 
ATOM     51  H9  F5S d   1      14.236  31.134  52.223  0.00  0.00     0.066 H 
ATOM     52  H10 F5S d   1      13.671  29.429  52.179  0.00  0.00     0.066 H 
ATOM     53  H11 F5S d   1      15.357  29.830  51.705  0.00  0.00     0.066 H 
ENDBRANCH  49  50
ENDBRANCH  43  49
ENDBRANCH  36  39
ENDBRANCH  35  36
ENDBRANCH  18  35
BRANCH   5  54
ATOM     54  O01 F5S d   1      21.688  24.864  48.503  0.00  0.00    -0.360 OA
ATOM     55  H12 F5S d   1      21.583  25.426  47.744  0.00  0.00     0.217 HD
ENDBRANCH   5  54
BRANCH  20  56
ATOM     56  O33 F5S d   1      17.909  27.549  49.918  0.00  0.00    -0.361 OA
ATOM     57  H26 F5S d   1      18.078  27.912  49.056  0.00  0.00     0.217 HD
ENDBRANCH  20  56
BRANCH   9  58
ATOM     58  C07 F5S d   1      23.237  21.665  53.651  0.00  0.00    -0.051 C 
ATOM     59  H14 F5S d   1      23.886  20.780  53.734  0.00  0.00     0.030 H 
ATOM     60  H15 F5S d   1      22.213  21.398  53.952  0.00  0.00     0.030 H 
ATOM     61  H16 F5S d   1      23.617  22.461  54.309  0.00  0.00     0.030 H 
ENDBRANCH   9  58
TORSDOF 8
