REMARK  7 active torsions:
REMARK  status: ('A' for Active; 'I' for Inactive)
REMARK    1  A    between atoms: C17_17  and  C10_10 
REMARK    2  A    between atoms: C12_12  and  N21_21 
REMARK    3  A    between atoms: C13_13  and  O23_23 
REMARK    4  A    between atoms: C14_14  and  O24_24 
REMARK    5  A    between atoms: C15_15  and  C17_17 
REMARK    6  A    between atoms: C16_16  and  N20_20 
REMARK    7  A    between atoms: C17_17  and  O25_25 
ROOT
ATOM      1  C13 F5J d   1     -32.543 -39.116  -3.617  0.00  0.00     0.092 C 
ATOM      2  C14 F5J d   1     -33.949 -38.854  -3.057  0.00  0.00     0.105 C 
ATOM      3  C15 F5J d   1     -32.464 -38.232  -4.863  0.00  0.00     0.097 C 
ATOM      4  C16 F5J d   1     -34.273 -37.473  -3.594  0.00  0.00     0.138 C 
ATOM      5  O22 F5J d   1     -33.723 -37.510  -4.908  0.00  0.00    -0.353 OA
ATOM      6  H9  F5J d   1     -32.421 -40.180  -3.868  0.00  0.00     0.091 H 
ATOM      7  H10 F5J d   1     -34.652 -39.583  -3.486  0.00  0.00     0.093 H 
ATOM      8  H11 F5J d   1     -31.630 -37.524  -4.753  0.00  0.00     0.092 H 
ATOM      9  H12 F5J d   1     -33.823 -36.696  -2.958  0.00  0.00     0.122 H 
ENDROOT
BRANCH   3  10
ATOM     10  C17 F5J d   1     -32.260 -39.018  -6.154  0.00  0.00     0.088 C 
ATOM     11  H13 F5J d   1     -32.307 -38.320  -7.003  0.00  0.00     0.094 H 
BRANCH  10  12
ATOM     12  C10 F5J d   1     -30.930 -39.720  -6.167  0.00  0.00    -0.027 A 
ATOM     13  C5  F5J d   1     -29.750 -38.969  -6.161  0.00  0.00    -0.074 A 
ATOM     14  C3  F5J d   1     -28.504 -39.622  -6.173  0.00  0.00    -0.082 A 
ATOM     15  H4  F5J d   1     -29.796 -37.886  -6.147  0.00  0.00     0.084 H 
ATOM     16  C1  F5J d   1     -28.424 -41.024  -6.178  0.00  0.00    -0.083 A 
ATOM     17  H6  F5J d   1     -27.593 -39.035  -6.178  0.00  0.00     0.083 H 
ATOM     18  C2  F5J d   1     -29.607 -41.775  -6.184  0.00  0.00    -0.082 A 
ATOM     19  H3  F5J d   1     -27.459 -41.519  -6.177  0.00  0.00     0.083 H 
ATOM     20  C4  F5J d   1     -30.856 -41.123  -6.181  0.00  0.00    -0.074 A 
ATOM     21  H7  F5J d   1     -29.561 -42.858  -6.191  0.00  0.00     0.083 H 
ATOM     22  H5  F5J d   1     -31.768 -41.709  -6.190  0.00  0.00     0.084 H 
ENDBRANCH  10  12
BRANCH  10  23
ATOM     23  O25 F5J d   1     -33.283 -40.008  -6.297  0.00  0.00    -0.388 OA
ATOM     24  H18 F5J d   1     -34.132 -39.583  -6.322  0.00  0.00     0.210 HD
ENDBRANCH  10  23
ENDBRANCH   3  10
BRANCH   1  25
ATOM     25  O23 F5J d   1     -31.500 -38.706  -2.726  0.00  0.00    -0.390 OA
ATOM     26  H16 F5J d   1     -31.527 -39.241  -1.941  0.00  0.00     0.210 HD
ENDBRANCH   1  25
BRANCH   2  27
ATOM     27  O24 F5J d   1     -34.041 -38.969  -1.641  0.00  0.00    -0.388 OA
ATOM     28  H17 F5J d   1     -33.433 -38.363  -1.235  0.00  0.00     0.210 HD
ENDBRANCH   2  27
BRANCH   4  29
ATOM     29  N20 F5J d   1     -35.672 -37.193  -3.817  0.00  0.00    -0.311 N 
ATOM     30  C7  F5J d   1     -36.524 -38.003  -4.512  0.00  0.00    -0.015 A 
ATOM     31  C6  F5J d   1     -37.801 -37.452  -4.490  0.00  0.00    -0.051 A 
ATOM     32  H1  F5J d   1     -36.247 -38.934  -5.006  0.00  0.00     0.111 H 
ATOM     33  C9  F5J d   1     -37.711 -36.232  -3.782  0.00  0.00     0.057 A 
ATOM     34  H2  F5J d   1     -38.699 -37.879  -4.934  0.00  0.00     0.087 H 
ATOM     35  C11 F5J d   1     -36.377 -36.099  -3.361  0.00  0.00     0.147 A 
ATOM     36  C12 F5J d   1     -38.594 -35.221  -3.413  0.00  0.00     0.136 A 
ATOM     37  N18 F5J d   1     -35.869 -35.115  -2.575  0.00  0.00    -0.223 NA
ATOM     38  C8  F5J d   1     -36.817 -34.199  -2.294  0.00  0.00     0.091 A 
ATOM     39  N19 F5J d   1     -38.116 -34.173  -2.704  0.00  0.00    -0.224 NA
ATOM     40  H8  F5J d   1     -36.506 -33.377  -1.660  0.00  0.00     0.146 H 
BRANCH  36  41
ATOM     41  N21 F5J d   1     -39.951 -35.229  -3.805  0.00  0.00    -0.383 N 
ATOM     42  H14 F5J d   1     -40.576 -34.464  -3.513  0.00  0.00     0.157 HD
ATOM     43  H15 F5J d   1     -40.316 -36.000  -4.383  0.00  0.00     0.157 HD
ENDBRANCH  36  41
ENDBRANCH   4  29
TORSDOF 7
