REMARK  10 active torsions:
REMARK  status: ('A' for Active; 'I' for Inactive)
REMARK    1  A    between atoms: C2_2  and  C1_1 
REMARK    2  A    between atoms: C4_4  and  O4_15 
REMARK    3  A    between atoms: N5_12  and  C5_5 
REMARK    4  A    between atoms: C6_6  and  C7_7 
REMARK    5  A    between atoms: C7_7  and  C8_8 
REMARK    6  A    between atoms: C7_7  and  O7_17 
REMARK    7  A    between atoms: C8_8  and  C9_9 
REMARK    8  A    between atoms: C8_8  and  O8_18 
REMARK    9  A    between atoms: C9_9  and  O9_19 
REMARK   10  A    between atoms: C10_10  and  C11_11 
REMARK       I    between atoms: C10_10  and  N5_12 
ROOT
ATOM      1  C2  DAN d   1     160.191  22.780 -18.736  0.00  0.00     0.144 C 
ATOM      2  C3  DAN d   1     161.394  22.945 -19.343  0.00  0.00    -0.035 C 
ATOM      3  C4  DAN d   1     161.501  22.837 -20.856  0.00  0.00     0.076 C 
ATOM      4  C5  DAN d   1     160.252  23.470 -21.433  0.00  0.00     0.068 C 
ATOM      5  C6  DAN d   1     159.003  22.782 -20.885  0.00  0.00     0.094 C 
ATOM      6  O6  DAN d   1     158.966  22.675 -19.473  0.00  0.00    -0.335 OA
ATOM      7  H1  DAN d   1     162.281  23.154 -18.747  0.00  0.00     0.085 H 
ATOM      8  H2  DAN d   1     161.518  21.771 -21.127  0.00  0.00     0.092 H 
ATOM      9  H3  DAN d   1     160.229  24.537 -21.167  0.00  0.00     0.081 H 
ATOM     10  H4  DAN d   1     159.018  21.762 -21.296  0.00  0.00     0.091 H 
ENDROOT
BRANCH   5  11
ATOM     11  C7  DAN d   1     157.670  23.422 -21.294  0.00  0.00     0.089 C 
ATOM     12  H5  DAN d   1     157.579  23.302 -22.384  0.00  0.00     0.091 H 
BRANCH  11  13
ATOM     13  C8  DAN d   1     156.450  22.792 -20.651  0.00  0.00     0.083 C 
ATOM     14  H6  DAN d   1     156.292  23.188 -19.637  0.00  0.00     0.090 H 
BRANCH  13  15
ATOM     15  C9  DAN d   1     155.288  23.166 -21.567  0.00  0.00     0.043 C 
ATOM     16  H7  DAN d   1     155.463  22.731 -22.562  0.00  0.00     0.078 H 
ATOM     17  H8  DAN d   1     155.236  24.262 -21.649  0.00  0.00     0.078 H 
BRANCH  15  18
ATOM     18  O9  DAN d   1     154.060  22.685 -21.066  0.00  0.00    -0.398 OA
ATOM     19  H16 DAN d   1     154.097  21.738 -20.997  0.00  0.00     0.209 HD
ENDBRANCH  15  18
ENDBRANCH  13  15
BRANCH  13  20
ATOM     20  O8  DAN d   1     156.604  21.361 -20.599  0.00  0.00    -0.391 OA
ATOM     21  H15 DAN d   1     157.330  21.142 -20.026  0.00  0.00     0.210 HD
ENDBRANCH  13  20
ENDBRANCH  11  13
BRANCH  11  22
ATOM     22  O7  DAN d   1     157.623  24.809 -20.990  0.00  0.00    -0.390 OA
ATOM     23  H14 DAN d   1     158.375  25.242 -21.377  0.00  0.00     0.210 HD
ENDBRANCH  11  22
ENDBRANCH   5  11
BRANCH   4  24
ATOM     24  N5  DAN d   1     160.261  23.327 -22.868  0.00  0.00    -0.351 N 
ATOM     25  C10 DAN d   1     159.768  24.251 -23.676  0.00  0.00     0.214 C 
ATOM     26  O10 DAN d   1     159.268  25.286 -23.289  0.00  0.00    -0.274 OA
ATOM     27  H12 DAN d   1     160.655  22.499 -23.267  0.00  0.00     0.163 HD
BRANCH  25  28
ATOM     28  C11 DAN d   1     159.849  23.956 -25.127  0.00  0.00    -0.003 C 
ATOM     29  H9  DAN d   1     159.411  24.790 -25.696  0.00  0.00     0.040 H 
ATOM     30  H10 DAN d   1     159.293  23.032 -25.345  0.00  0.00     0.040 H 
ATOM     31  H11 DAN d   1     160.902  23.828 -25.417  0.00  0.00     0.040 H 
ENDBRANCH  25  28
ENDBRANCH   4  24
BRANCH   3  32
ATOM     32  O4  DAN d   1     162.700  23.447 -21.404  0.00  0.00    -0.389 OA
ATOM     33  H13 DAN d   1     162.709  23.333 -22.347  0.00  0.00     0.210 HD
ENDBRANCH   3  32
BRANCH   1  34
ATOM     34  C1  DAN d   1     159.983  22.579 -17.297  0.00  0.00     0.233 C 
ATOM     35  O1A DAN d   1     158.803  22.648 -16.852  0.00  0.00    -0.642 OA
ATOM     36  O1B DAN d   1     160.942  22.295 -16.541  0.00  0.00    -0.642 OA
ENDBRANCH   1  34
TORSDOF 10
