REMARK  7 active torsions:
REMARK  status: ('A' for Active; 'I' for Inactive)
REMARK    1  A    between atoms: C5_1  and  N4_14 
REMARK    2  A    between atoms: N4_14  and  C24_8 
REMARK    3  A    between atoms: C2_12  and  C1_11 
REMARK       I    between atoms: N4_14  and  C2_12 
REMARK    4  A    between atoms: N13_18  and  C9_15 
REMARK    5  A    between atoms: C14_19  and  N13_18 
REMARK    6  A    between atoms: C27_26  and  C30_28 
REMARK    7  A    between atoms: N33_31  and  C34_32 
ROOT
ATOM      1  C5  8M1 d   1       8.101 -23.172  38.681  0.00  0.00     0.020 C 
ATOM      2  C7  8M1 d   1       9.570 -22.731  38.760  0.00  0.00    -0.044 C 
ATOM      3  C8  8M1 d   1       9.783 -21.673  39.859  0.00  0.00    -0.044 C 
ATOM      4  C9  8M1 d   1       9.260 -22.196  41.213  0.00  0.00     0.026 C 
ATOM      5  C11 8M1 d   1       7.759 -22.483  41.074  0.00  0.00    -0.044 C 
ATOM      6  C12 8M1 d   1       7.568 -23.602  40.053  0.00  0.00    -0.044 C 
ATOM      7  H1  8M1 d   1       7.513 -22.308  38.338  0.00  0.00     0.073 H 
ATOM      8  H2  8M1 d   1       9.868 -22.305  37.791  0.00  0.00     0.036 H 
ATOM      9  H3  8M1 d   1      10.195 -23.608  38.982  0.00  0.00     0.036 H 
ATOM     10  H4  8M1 d   1       9.239 -20.755  39.590  0.00  0.00     0.036 H 
ATOM     11  H5  8M1 d   1      10.857 -21.451  39.946  0.00  0.00     0.036 H 
ATOM     12  H13 8M1 d   1       9.795 -23.126  41.455  0.00  0.00     0.073 H 
ATOM     13  H14 8M1 d   1       7.239 -21.576  40.731  0.00  0.00     0.036 H 
ATOM     14  H15 8M1 d   1       7.350 -22.795  42.046  0.00  0.00     0.036 H 
ATOM     15  H16 8M1 d   1       8.113 -24.496  40.389  0.00  0.00     0.036 H 
ATOM     16  H17 8M1 d   1       6.497 -23.836  39.968  0.00  0.00     0.036 H 
ENDROOT
BRANCH   1  17
ATOM     17  N4  8M1 d   1       7.890 -24.288  37.714  0.00  0.00    -0.314 N 
ATOM     18  C2  8M1 d   1       7.491 -24.008  36.422  0.00  0.00     0.220 C 
ATOM     19  O3  8M1 d   1       7.319 -22.859  36.055  0.00  0.00    -0.273 OA
BRANCH  17  20
ATOM     20  C24 8M1 d   1       8.084 -25.637  38.117  0.00  0.00     0.037 A 
ATOM     21  C25 8M1 d   1       7.042 -26.416  38.658  0.00  0.00    -0.056 A 
ATOM     22  C26 8M1 d   1       7.269 -27.733  39.038  0.00  0.00    -0.070 A 
ATOM     23  H22 8M1 d   1       6.055 -25.984  38.779  0.00  0.00     0.087 H 
ATOM     24  C27 8M1 d   1       8.551 -28.281  38.865  0.00  0.00    -0.023 A 
ATOM     25  H8  8M1 d   1       6.469 -28.329  39.462  0.00  0.00     0.084 H 
ATOM     26  C28 8M1 d   1       9.587 -27.503  38.334  0.00  0.00    -0.070 A 
ATOM     27  C29 8M1 d   1       9.356 -26.195  37.961  0.00  0.00    -0.056 A 
ATOM     28  H9  8M1 d   1      10.576 -27.931  38.215  0.00  0.00     0.084 H 
ATOM     29  H23 8M1 d   1      10.162 -25.600  37.547  0.00  0.00     0.087 H 
BRANCH  24  30
ATOM     30  C30 8M1 d   1       8.875 -29.685  39.240  0.00  0.00     0.010 A 
ATOM     31  C31 8M1 d   1       8.021 -30.647  39.836  0.00  0.00     0.034 A 
ATOM     32  N32 8M1 d   1       8.718 -31.747  39.999  0.00  0.00    -0.185 NA
ATOM     33  H24 8M1 d   1       6.977 -30.500  40.109  0.00  0.00     0.118 H 
ATOM     34  N33 8M1 d   1      10.025 -31.529  39.507  0.00  0.00    -0.285 N 
ATOM     35  C35 8M1 d   1      10.104 -30.265  39.046  0.00  0.00     0.010 A 
ATOM     36  H28 8M1 d   1      10.979 -29.792  38.603  0.00  0.00     0.115 H 
BRANCH  34  37
ATOM     37  C34 8M1 d   1      11.131 -32.485  39.484  0.00  0.00     0.002 C 
ATOM     38  H25 8M1 d   1      12.017 -32.010  39.038  0.00  0.00     0.059 H 
ATOM     39  H26 8M1 d   1      10.845 -33.362  38.886  0.00  0.00     0.059 H 
ATOM     40  H27 8M1 d   1      11.363 -32.802  40.511  0.00  0.00     0.059 H 
ENDBRANCH  34  37
ENDBRANCH  24  30
ENDBRANCH  17  20
BRANCH  18  41
ATOM     41  C1  8M1 d   1       7.234 -25.087  35.389  0.00  0.00    -0.002 C 
ATOM     42  H10 8M1 d   1       7.422 -26.075  35.836  0.00  0.00     0.040 H 
ATOM     43  H11 8M1 d   1       7.905 -24.940  34.530  0.00  0.00     0.040 H 
ATOM     44  H12 8M1 d   1       6.189 -25.030  35.051  0.00  0.00     0.040 H 
ENDBRANCH  18  41
ENDBRANCH   1  17
BRANCH   4  45
ATOM     45  N13 8M1 d   1       9.429 -21.252  42.337  0.00  0.00    -0.218 N 
ATOM     46  H18 8M1 d   1       8.591 -20.765  42.687  0.00  0.00     0.178 HD
BRANCH  45  47
ATOM     47  C14 8M1 d   1      10.642 -20.978  42.952  0.00  0.00     0.723 A 
ATOM     48  N15 8M1 d   1      10.755 -19.794  43.575  0.00  0.00    -0.074 NA
ATOM     49  C16 8M1 d   1      11.855 -19.421  44.218  0.00  0.00     0.033 A 
ATOM     50  C17 8M1 d   1      12.955 -20.301  44.209  0.00  0.00     0.011 A 
ATOM     51  H19 8M1 d   1      11.905 -18.469  44.734  0.00  0.00     0.117 H 
ATOM     52  C22 8M1 d   1      12.814 -21.559  43.543  0.00  0.00     0.087 A 
ATOM     53  C18 8M1 d   1      14.171 -19.974  44.838  0.00  0.00    -0.069 A 
ATOM     54  C21 8M1 d   1      13.916 -22.444  43.534  0.00  0.00    -0.054 A 
ATOM     55  N23 8M1 d   1      11.640 -21.862  42.930  0.00  0.00    -0.062 NA
ATOM     56  C20 8M1 d   1      15.091 -22.087  44.130  0.00  0.00    -0.081 A 
ATOM     57  H7  8M1 d   1      13.828 -23.411  43.052  0.00  0.00     0.087 H 
ATOM     58  C19 8M1 d   1      15.219 -20.856  44.793  0.00  0.00    -0.082 A 
ATOM     59  H6  8M1 d   1      15.937 -22.763  44.091  0.00  0.00     0.083 H 
ATOM     60  H21 8M1 d   1      16.156 -20.601  45.274  0.00  0.00     0.083 H 
ATOM     61  H20 8M1 d   1      14.278 -19.028  45.356  0.00  0.00     0.085 H 
ENDBRANCH  45  47
ENDBRANCH   4  45
TORSDOF 7
