REMARK  9 active torsions:
REMARK  status: ('A' for Active; 'I' for Inactive)
REMARK    1  A    between atoms: C04_5  and  C05_7 
REMARK    2  A    between atoms: C05_7  and  N06_14 
REMARK    3  A    between atoms: C07_11  and  N05_13 
REMARK    4  A    between atoms: N06_14  and  C08_15 
REMARK    5  A    between atoms: C11_18  and  S01_21 
REMARK    6  A    between atoms: S01_21  and  N07_22 
REMARK    7  A    between atoms: N07_22  and  C14_23 
REMARK    8  A    between atoms: C15_26  and  C17_30 
REMARK    9  A    between atoms: C16_27  and  C18_31 
ROOT
ATOM      1  C08 6MB d   1      88.421 121.398  19.129  0.00  0.00     0.028 A 
ATOM      2  C09 6MB d   1      87.699 121.147  20.287  0.00  0.00    -0.056 A 
ATOM      3  C10 6MB d   1      87.776 119.904  20.898  0.00  0.00    -0.058 A 
ATOM      4  C11 6MB d   1      88.572 118.916  20.339  0.00  0.00     0.080 A 
ATOM      5  C12 6MB d   1      89.292 119.169  19.182  0.00  0.00    -0.058 A 
ATOM      6  C13 6MB d   1      89.217 120.411  18.574  0.00  0.00    -0.056 A 
ATOM      7  H9  6MB d   1      87.074 121.923  20.715  0.00  0.00     0.087 H 
ATOM      8  H10 6MB d   1      87.218 119.707  21.806  0.00  0.00     0.086 H 
ATOM      9  H11 6MB d   1      89.915 118.393  18.752  0.00  0.00     0.086 H 
ATOM     10  H12 6MB d   1      89.779 120.609  17.668  0.00  0.00     0.087 H 
ENDROOT
BRANCH   1  11
ATOM     11  N06 6MB d   1      88.344 122.670  18.502  0.00  0.00    -0.384 N 
ATOM     12  H8  6MB d   1      88.004 123.489  19.026  0.00  0.00     0.160 HD
BRANCH  11  13
ATOM     13  C05 6MB d   1      88.742 122.801  17.141  0.00  0.00     0.034 C 
ATOM     14  H2  6MB d   1      89.664 123.398  17.085  0.00  0.00     0.073 H 
ATOM     15  H3  6MB d   1      88.925 121.803  16.716  0.00  0.00     0.073 H 
BRANCH  13  16
ATOM     16  C04 6MB d   1      87.646 123.491  16.354  0.00  0.00     0.070 A 
ATOM     17  C03 6MB d   1      87.877 124.749  15.797  0.00  0.00     0.030 A 
ATOM     18  N01 6MB d   1      86.896 125.354  15.101  0.00  0.00    -0.238 NA
ATOM     19  H1  6MB d   1      88.838 125.235  15.923  0.00  0.00     0.118 H 
ATOM     20  C02 6MB d   1      85.673 124.735  14.943  0.00  0.00     0.177 A 
ATOM     21  C01 6MB d   1      85.448 123.506  15.489  0.00  0.00     0.172 A 
ATOM     22  N03 6MB d   1      84.618 125.404  14.186  0.00  0.00    -0.172 N 
ATOM     23  N02 6MB d   1      86.452 122.883  16.203  0.00  0.00    -0.241 NA
ATOM     24  C06 6MB d   1      84.106 122.842  15.309  0.00  0.00     0.292 A 
ATOM     25  N04 6MB d   1      83.095 123.484  14.582  0.00  0.00    -0.154 N 
ATOM     26  O01 6MB d   1      83.901 121.748  15.793  0.00  0.00    -0.265 OA
ATOM     27  C07 6MB d   1      83.335 124.767  14.013  0.00  0.00     0.680 A 
ATOM     28  H5  6MB d   1      82.206 123.042  14.463  0.00  0.00     0.187 HD
ATOM     29  H4  6MB d   1      84.790 126.332  13.775  0.00  0.00     0.186 HD
BRANCH  27  30
ATOM     30  N05 6MB d   1      82.311 125.418  13.277  0.00  0.00    -0.234 N 
ATOM     31  H6  6MB d   1      82.484 126.346  12.865  0.00  0.00     0.174 HD
ATOM     32  H7  6MB d   1      81.395 124.962  13.155  0.00  0.00     0.174 HD
ENDBRANCH  27  30
ENDBRANCH  13  16
ENDBRANCH  11  13
ENDBRANCH   1  11
BRANCH   4  33
ATOM     33  S01 6MB d   1      88.699 117.314  21.086  0.00  0.00     0.264 S 
ATOM     34  O02 6MB d   1      87.477 116.574  20.946  0.00  0.00    -0.200 OA
ATOM     35  O03 6MB d   1      88.822 117.383  22.516  0.00  0.00    -0.200 OA
BRANCH  33  36
ATOM     36  N07 6MB d   1      89.963 116.531  20.385  0.00  0.00    -0.258 N 
ATOM     37  H13 6MB d   1      89.877 116.254  19.428  0.00  0.00     0.181 HD
BRANCH  36  38
ATOM     38  C14 6MB d   1      91.171 116.228  21.069  0.00  0.00     0.190 A 
ATOM     39  C15 6MB d   1      91.978 117.085  21.803  0.00  0.00     0.018 A 
ATOM     40  C16 6MB d   1      93.066 116.326  22.275  0.00  0.00     0.068 A 
ATOM     41  N08 6MB d   1      92.904 115.054  21.823  0.00  0.00    -0.131 NA
ATOM     42  O04 6MB d   1      91.751 115.033  21.093  0.00  0.00    -0.194 OA
BRANCH  39  43
ATOM     43  C17 6MB d   1      91.764 118.559  22.074  0.00  0.00    -0.045 C 
ATOM     44  H14 6MB d   1      90.836 118.891  21.585  0.00  0.00     0.033 H 
ATOM     45  H15 6MB d   1      92.614 119.132  21.675  0.00  0.00     0.033 H 
ATOM     46  H16 6MB d   1      91.686 118.725  23.159  0.00  0.00     0.033 H 
ENDBRANCH  39  43
BRANCH  40  47
ATOM     47  C18 6MB d   1      94.205 116.837  23.129  0.00  0.00    -0.033 C 
ATOM     48  H17 6MB d   1      94.903 116.014  23.339  0.00  0.00     0.035 H 
ATOM     49  H18 6MB d   1      93.806 117.230  24.076  0.00  0.00     0.035 H 
ATOM     50  H19 6MB d   1      94.734 117.639  22.593  0.00  0.00     0.035 H 
ENDBRANCH  40  47
ENDBRANCH  36  38
ENDBRANCH  33  36
ENDBRANCH   4  33
TORSDOF 9
