REMARK  7 active torsions:
REMARK  status: ('A' for Active; 'I' for Inactive)
REMARK    1  A    between atoms: C2_17  and  C1_1 
REMARK    2  A    between atoms: C4_19  and  C5_3 
REMARK    3  A    between atoms: C7_5  and  C12_9 
REMARK    4  A    between atoms: C10_7  and  C11_8 
REMARK    5  A    between atoms: C16_12  and  C19_14 
REMARK    6  A    between atoms: C2_17  and  C3_18 
REMARK    7  A    between atoms: C2_17  and  C4_19 
ROOT
ATOM      1  C5  F6J d   1      39.555  50.751   8.984  0.00  0.00    -0.040 A 
ATOM      2  C6  F6J d   1      38.806  49.723   9.538  0.00  0.00    -0.065 A 
ATOM      3  C7  F6J d   1      39.387  48.624  10.131  0.00  0.00    -0.023 A 
ATOM      4  C9  F6J d   1      41.519  49.579   9.659  0.00  0.00    -0.065 A 
ATOM      5  C10 F6J d   1      40.938  50.676   9.055  0.00  0.00     0.047 A 
ATOM      6  C8  F6J d   1      40.760  48.566  10.190  0.00  0.00    -0.071 A 
ATOM      7  H4  F6J d   1      37.724  49.787   9.503  0.00  0.00     0.085 H 
ATOM      8  H5  F6J d   1      42.600  49.516   9.715  0.00  0.00     0.085 H 
ATOM      9  H16 F6J d   1      41.245  47.717  10.658  0.00  0.00     0.084 H 
ENDROOT
BRANCH   3  10
ATOM     10  C12 F6J d   1      38.579  47.555  10.695  0.00  0.00     0.004 A 
ATOM     11  C13 F6J d   1      38.967  46.829  11.807  0.00  0.00    -0.010 A 
ATOM     12  N1  F6J d   1      37.983  45.943  12.111  0.00  0.00    -0.349 N 
ATOM     13  H6  F6J d   1      39.904  46.948  12.348  0.00  0.00     0.112 H 
ATOM     14  C14 F6J d   1      36.958  46.101  11.212  0.00  0.00     0.138 A 
ATOM     15  H17 F6J d   1      38.003  45.266  12.887  0.00  0.00     0.167 HD
ATOM     16  N2  F6J d   1      35.817  45.409  11.200  0.00  0.00    -0.242 NA
ATOM     17  C18 F6J d   1      37.301  47.081  10.314  0.00  0.00     0.023 A 
ATOM     18  C15 F6J d   1      34.981  45.767  10.211  0.00  0.00     0.015 A 
ATOM     19  C16 F6J d   1      35.189  46.731   9.245  0.00  0.00    -0.007 A 
ATOM     20  H7  F6J d   1      34.035  45.239  10.166  0.00  0.00     0.116 H 
ATOM     21  C17 F6J d   1      36.397  47.394   9.323  0.00  0.00    -0.056 A 
ATOM     22  H18 F6J d   1      36.636  48.166   8.600  0.00  0.00     0.086 H 
BRANCH  19  23
ATOM     23  C19 F6J d   1      34.188  47.059   8.204  0.00  0.00    -0.025 A 
ATOM     24  C24 F6J d   1      34.284  48.207   7.431  0.00  0.00    -0.072 A 
ATOM     25  C23 F6J d   1      33.353  48.532   6.468  0.00  0.00    -0.082 A 
ATOM     26  H9  F6J d   1      35.123  48.874   7.590  0.00  0.00     0.084 H 
ATOM     27  C22 F6J d   1      32.269  47.702   6.259  0.00  0.00    -0.083 A 
ATOM     28  H8  F6J d   1      33.471  49.434   5.878  0.00  0.00     0.083 H 
ATOM     29  C21 F6J d   1      32.132  46.560   7.011  0.00  0.00    -0.082 A 
ATOM     30  H21 F6J d   1      31.530  47.950   5.506  0.00  0.00     0.083 H 
ATOM     31  C20 F6J d   1      33.081  46.256   7.958  0.00  0.00    -0.072 A 
ATOM     32  H20 F6J d   1      31.282  45.904   6.859  0.00  0.00     0.083 H 
ATOM     33  H19 F6J d   1      32.960  45.349   8.539  0.00  0.00     0.084 H 
ENDBRANCH  19  23
ENDBRANCH   3  10
BRANCH   1  34
ATOM     34  C4  F6J d   1      38.885  51.925   8.341  0.00  0.00    -0.037 C 
ATOM     35  H14 F6J d   1      39.510  52.234   7.491  0.00  0.00     0.040 H 
ATOM     36  H15 F6J d   1      38.854  52.733   9.086  0.00  0.00     0.040 H 
BRANCH  34  37
ATOM     37  C2  F6J d   1      37.473  51.736   7.819  0.00  0.00    -0.057 C 
ATOM     38  H10 F6J d   1      36.791  51.481   8.643  0.00  0.00     0.039 H 
BRANCH  37  39
ATOM     39  C1  F6J d   1      37.447  50.669   6.756  0.00  0.00    -0.073 C 
ATOM     40  H1  F6J d   1      36.418  50.543   6.388  0.00  0.00     0.028 H 
ATOM     41  H2  F6J d   1      37.803  49.719   7.181  0.00  0.00     0.028 H 
ATOM     42  H3  F6J d   1      38.101  50.965   5.923  0.00  0.00     0.028 H 
ENDBRANCH  37  39
BRANCH  37  43
ATOM     43  C3  F6J d   1      37.054  53.017   7.138  0.00  0.00    -0.073 C 
ATOM     44  H11 F6J d   1      37.054  53.838   7.870  0.00  0.00     0.028 H 
ATOM     45  H12 F6J d   1      36.043  52.897   6.722  0.00  0.00     0.028 H 
ATOM     46  H13 F6J d   1      37.760  53.249   6.327  0.00  0.00     0.028 H 
ENDBRANCH  37  43
ENDBRANCH  34  37
ENDBRANCH   1  34
BRANCH   5  47
ATOM     47  C11 F6J d   1      41.884  51.697   8.508  0.00  0.00     0.209 C 
ATOM     48  O1  F6J d   1      41.767  52.055   7.304  0.00  0.00    -0.644 OA
ATOM     49  O2  F6J d   1      42.793  52.087   9.280  0.00  0.00    -0.644 OA
ENDBRANCH   5  47
TORSDOF 7
