REMARK  5 active torsions:
REMARK  status: ('A' for Active; 'I' for Inactive)
REMARK    1  A    between atoms: C1_1  and  C8_18 
REMARK    2  A    between atoms: C12_4  and  C23_12 
REMARK    3  A    between atoms: C12_4  and  N22_23 
REMARK    4  A    between atoms: C4_14  and  N9_19 
REMARK    5  A    between atoms: C6_16  and  N7_17 
ROOT
ATOM      1  C11 5OD d   1      -4.861  13.393  20.735  0.00  0.00    -0.019 C 
ATOM      2  C12 5OD d   1      -5.095  14.365  19.618  0.00  0.00     0.123 C 
ATOM      3  C13 5OD d   1      -3.846  14.688  18.877  0.00  0.00    -0.019 C 
ATOM      4  C14 5OD d   1      -2.628  15.014  19.745  0.00  0.00    -0.001 C 
ATOM      5  N9  5OD d   1      -2.562  14.389  21.118  0.00  0.00    -0.364 N 
ATOM      6  C10 5OD d   1      -3.831  13.896  21.739  0.00  0.00    -0.001 C 
ATOM      7  H2  5OD d   1      -4.504  12.444  20.308  0.00  0.00     0.039 H 
ATOM      8  H3  5OD d   1      -5.812  13.223  21.260  0.00  0.00     0.039 H 
ATOM      9  H4  5OD d   1      -4.048  15.559  18.236  0.00  0.00     0.039 H 
ATOM     10  H5  5OD d   1      -3.592  13.822  18.248  0.00  0.00     0.039 H 
ATOM     11  H6  5OD d   1      -2.601  16.105  19.878  0.00  0.00     0.064 H 
ATOM     12  H7  5OD d   1      -1.734  14.690  19.192  0.00  0.00     0.064 H 
ATOM     13  H16 5OD d   1      -3.583  13.070  22.422  0.00  0.00     0.064 H 
ATOM     14  H17 5OD d   1      -4.280  14.722  22.310  0.00  0.00     0.064 H 
ENDROOT
BRANCH   5  15
ATOM     15  C4  5OD d   1      -1.362  13.596  21.405  0.00  0.00     0.145 A 
ATOM     16  C3  5OD d   1      -0.138  13.974  20.872  0.00  0.00     0.047 A 
ATOM     17  N2  5OD d   1       0.951  13.275  21.126  0.00  0.00    -0.253 NA
ATOM     18  H1  5OD d   1      -0.076  14.853  20.240  0.00  0.00     0.120 H 
ATOM     19  C1  5OD d   1       0.905  12.212  21.906  0.00  0.00     0.114 A 
ATOM     20  C6  5OD d   1      -0.310  11.832  22.459  0.00  0.00     0.153 A 
ATOM     21  N5  5OD d   1      -1.403  12.531  22.196  0.00  0.00    -0.210 NA
BRANCH  19  22
ATOM     22  C8  5OD d   1       2.221  11.469  22.148  0.00  0.00     0.020 A 
ATOM     23  C15 5OD d   1       2.338  10.107  21.899  0.00  0.00     0.068 A 
ATOM     24  C16 5OD d   1       3.552   9.469  22.114  0.00  0.00     0.056 A 
ATOM     25 CL1  5OD d   1       0.941   9.160  21.322  0.00  0.00    -0.082 Cl
ATOM     26  C17 5OD d   1       4.646  10.184  22.565  0.00  0.00    -0.060 A 
ATOM     27 CL2  5OD d   1       3.731   7.718  21.814  0.00  0.00    -0.083 Cl
ATOM     28  C18 5OD d   1       4.534  11.542  22.803  0.00  0.00    -0.080 A 
ATOM     29  H8  5OD d   1       5.591   9.681  22.732  0.00  0.00     0.086 H 
ATOM     30  C19 5OD d   1       3.324  12.181  22.590  0.00  0.00    -0.069 A 
ATOM     31  H9  5OD d   1       5.391  12.104  23.155  0.00  0.00     0.083 H 
ATOM     32  H10 5OD d   1       3.239  13.246  22.770  0.00  0.00     0.085 H 
ENDBRANCH  19  22
BRANCH  20  33
ATOM     33  N7  5OD d   1      -0.394  10.666  23.317  0.00  0.00    -0.382 N 
ATOM     34  H14 5OD d   1      -1.299  10.390  23.724  0.00  0.00     0.157 HD
ATOM     35  H15 5OD d   1       0.452  10.114  23.520  0.00  0.00     0.157 HD
ENDBRANCH  20  33
ENDBRANCH   5  15
BRANCH   2  36
ATOM     36  C23 5OD d   1      -5.697  15.652  20.172  0.00  0.00    -0.045 C 
ATOM     37  H11 5OD d   1      -6.621  15.418  20.721  0.00  0.00     0.030 H 
ATOM     38  H12 5OD d   1      -5.927  16.336  19.342  0.00  0.00     0.030 H 
ATOM     39  H13 5OD d   1      -4.977  16.130  20.853  0.00  0.00     0.030 H 
ENDBRANCH   2  36
BRANCH   2  40
ATOM     40  N22 5OD d   1      -6.065  13.757  18.648  0.00  0.00    -0.071 N 
ATOM     41  H18 5OD d   1      -5.677  12.905  18.275  0.00  0.00     0.275 HD
ATOM     42  H19 5OD d   1      -6.238  14.405  17.895  0.00  0.00     0.275 HD
ATOM     43  H20 5OD d   1      -6.931  13.553  19.122  0.00  0.00     0.275 HD
ENDBRANCH   2  40
TORSDOF 5
