REMARK  5 active torsions:
REMARK  status: ('A' for Active; 'I' for Inactive)
REMARK    1  A    between atoms: C1_1  and  C8_18 
REMARK    2  A    between atoms: C12_4  and  C23_12 
REMARK    3  A    between atoms: C12_4  and  N22_23 
REMARK    4  A    between atoms: C4_14  and  N9_19 
REMARK    5  A    between atoms: C6_16  and  N7_17 
ROOT
ATOM      1  C11 5OD d   1      35.375  13.339 239.667  0.00  0.00    -0.019 C 
ATOM      2  C12 5OD d   1      35.142  14.203 238.464  0.00  0.00     0.123 C 
ATOM      3  C13 5OD d   1      36.349  14.302 237.604  0.00  0.00    -0.019 C 
ATOM      4  C14 5OD d   1      37.634  14.679 238.340  0.00  0.00    -0.001 C 
ATOM      5  N9  5OD d   1      37.756  14.224 239.769  0.00  0.00    -0.364 N 
ATOM      6  C10 5OD d   1      36.519  13.850 240.533  0.00  0.00    -0.001 C 
ATOM      7  H2  5OD d   1      35.615  12.320 239.329  0.00  0.00     0.039 H 
ATOM      8  H3  5OD d   1      34.456  13.319 240.271  0.00  0.00     0.039 H 
ATOM      9  H4  5OD d   1      36.159  15.065 236.835  0.00  0.00     0.039 H 
ATOM     10  H5  5OD d   1      36.506  13.326 237.121  0.00  0.00     0.039 H 
ATOM     11  H6  5OD d   1      37.712  15.776 238.332  0.00  0.00     0.064 H 
ATOM     12  H7  5OD d   1      38.477  14.247 237.780  0.00  0.00     0.064 H 
ATOM     13  H16 5OD d   1      36.784  13.062 241.253  0.00  0.00     0.064 H 
ATOM     14  H17 5OD d   1      36.168  14.740 241.077  0.00  0.00     0.064 H 
ENDROOT
BRANCH   5  15
ATOM     15  C4  5OD d   1      38.938  13.412 240.046  0.00  0.00     0.145 A 
ATOM     16  C3  5OD d   1      40.170  13.810 239.553  0.00  0.00     0.047 A 
ATOM     17  N2  5OD d   1      41.251  13.092 239.798  0.00  0.00    -0.253 NA
ATOM     18  H1  5OD d   1      40.247  14.716 238.963  0.00  0.00     0.120 H 
ATOM     19  C1  5OD d   1      41.177  11.994 240.526  0.00  0.00     0.114 A 
ATOM     20  C6  5OD d   1      39.948  11.601 241.037  0.00  0.00     0.153 A 
ATOM     21  N5  5OD d   1      38.867  12.316 240.782  0.00  0.00    -0.210 NA
BRANCH  19  22
ATOM     22  C8  5OD d   1      42.467  11.212 240.785  0.00  0.00     0.020 A 
ATOM     23  C15 5OD d   1      42.548   9.839 240.570  0.00  0.00     0.068 A 
ATOM     24  C16 5OD d   1      43.738   9.175 240.811  0.00  0.00     0.056 A 
ATOM     25 CL1  5OD d   1      41.153   8.883 239.996  0.00  0.00    -0.082 Cl
ATOM     26  C17 5OD d   1      44.851   9.863 241.256  0.00  0.00    -0.060 A 
ATOM     27 CL2  5OD d   1      43.834   7.416 240.543  0.00  0.00    -0.083 Cl
ATOM     28  C18 5OD d   1      44.775  11.227 241.463  0.00  0.00    -0.080 A 
ATOM     29  H8  5OD d   1      45.779   9.335 241.442  0.00  0.00     0.086 H 
ATOM     30  C19 5OD d   1      43.588  11.897 241.223  0.00  0.00    -0.069 A 
ATOM     31  H9  5OD d   1      45.644  11.772 241.813  0.00  0.00     0.083 H 
ATOM     32  H10 5OD d   1      43.535  12.968 241.379  0.00  0.00     0.085 H 
ENDBRANCH  19  22
BRANCH  20  33
ATOM     33  N7  5OD d   1      39.828  10.402 241.843  0.00  0.00    -0.382 N 
ATOM     34  H14 5OD d   1      38.910  10.122 242.216  0.00  0.00     0.157 HD
ATOM     35  H15 5OD d   1      40.661   9.830 242.043  0.00  0.00     0.157 HD
ENDBRANCH  20  33
ENDBRANCH   5  15
BRANCH   2  36
ATOM     36  C23 5OD d   1      34.715  15.600 238.902  0.00  0.00    -0.045 C 
ATOM     37  H11 5OD d   1      33.821  15.527 239.539  0.00  0.00     0.030 H 
ATOM     38  H12 5OD d   1      34.484  16.208 238.015  0.00  0.00     0.030 H 
ATOM     39  H13 5OD d   1      35.531  16.072 239.468  0.00  0.00     0.030 H 
ENDBRANCH   2  36
BRANCH   2  40
ATOM     40  N22 5OD d   1      34.035  13.598 237.653  0.00  0.00    -0.071 N 
ATOM     41  H18 5OD d   1      34.303  12.673 237.356  0.00  0.00     0.275 HD
ATOM     42  H19 5OD d   1      33.858  14.173 236.844  0.00  0.00     0.275 HD
ATOM     43  H20 5OD d   1      33.200  13.542 238.214  0.00  0.00     0.275 HD
ENDBRANCH   2  40
TORSDOF 5
