REMARK  6 active torsions:
REMARK  status: ('A' for Active; 'I' for Inactive)
REMARK    1  A    between atoms: N3_1  and  C3_17 
REMARK       I    between atoms: C22_27  and  N3_1 
REMARK       I    between atoms: N2_3  and  C16_12 
REMARK    2  A    between atoms: C8_10  and  C11_21 
REMARK    3  A    between atoms: C16_12  and  C17_26 
REMARK    4  A    between atoms: C2_16  and  C1_15 
REMARK    5  A    between atoms: N1_19  and  C10_20 
REMARK    6  A    between atoms: C23_29  and  C22_27 
ROOT
ATOM      1  C26 F7J d   1       5.553  26.328  13.912  0.00  0.00    -0.063 A 
ATOM      2  C23 F7J d   1       3.733  28.053  12.710  0.00  0.00     0.033 A 
ATOM      3  C24 F7J d   1       3.314  27.208  13.733  0.00  0.00    -0.068 A 
ATOM      4  C25 F7J d   1       4.223  26.331  14.313  0.00  0.00    -0.081 A 
ATOM      5  C27 F7J d   1       5.965  27.201  12.907  0.00  0.00     0.045 A 
ATOM      6  C28 F7J d   1       5.058  28.054  12.286  0.00  0.00    -0.048 A 
ATOM      7  C29 F7J d   1       7.334  27.254  12.522  0.00  0.00     0.099 C 
ATOM      8  N4  F7J d   1       8.444  27.316  12.204  0.00  0.00    -0.191 NA
ATOM      9  H14 F7J d   1       6.263  25.653  14.376  0.00  0.00     0.085 H 
ATOM     10  H30 F7J d   1       2.286  27.233  14.075  0.00  0.00     0.085 H 
ATOM     11  H31 F7J d   1       3.892  25.645  15.084  0.00  0.00     0.083 H 
ATOM     12  H32 F7J d   1       5.379  28.709  11.484  0.00  0.00     0.087 H 
ENDROOT
BRANCH   2  13
ATOM     13  C22 F7J d   1       2.818  29.032  12.070  0.00  0.00     0.256 C 
ATOM     14  N3  F7J d   1       1.512  28.611  11.885  0.00  0.00    -0.322 N 
ATOM     15  H1  F7J d   1       1.246  27.685  12.152  0.00  0.00     0.169 HD
ATOM     16  O2  F7J d   1       3.199  30.144  11.715  0.00  0.00    -0.267 OA
BRANCH  14  17
ATOM     17  C3  F7J d   1       0.544  29.492  11.316  0.00  0.00     0.042 A 
ATOM     18  C4  F7J d   1       0.684  29.785   9.937  0.00  0.00    -0.054 A 
ATOM     19  C5  F7J d   1      -0.229  30.587   9.301  0.00  0.00    -0.054 A 
ATOM     20  H2  F7J d   1       1.518  29.373   9.381  0.00  0.00     0.087 H 
ATOM     21  C6  F7J d   1      -1.256  31.126  10.087  0.00  0.00     0.045 A 
ATOM     22  H18 F7J d   1      -0.159  30.794   8.239  0.00  0.00     0.087 H 
ATOM     23  C7  F7J d   1      -1.385  30.894  11.484  0.00  0.00     0.007 A 
ATOM     24  N1  F7J d   1      -2.310  31.940   9.681  0.00  0.00    -0.360 N 
ATOM     25  C8  F7J d   1      -2.517  31.670  11.926  0.00  0.00    -0.025 A 
ATOM     26  C2  F7J d   1      -0.480  30.010  12.098  0.00  0.00    -0.022 A 
ATOM     27  C9  F7J d   1      -3.063  32.286  10.816  0.00  0.00    -0.013 A 
ATOM     28  H3  F7J d   1      -3.937  32.936  10.820  0.00  0.00     0.112 H 
BRANCH  25  29
ATOM     29  C11 F7J d   1      -2.985  31.854  13.322  0.00  0.00    -0.023 C 
ATOM     30  C12 F7J d   1      -1.951  32.669  14.109  0.00  0.00    -0.043 C 
ATOM     31  C13 F7J d   1      -2.401  32.812  15.569  0.00  0.00    -0.002 C 
ATOM     32  H23 F7J d   1      -0.979  32.155  14.075  0.00  0.00     0.036 H 
ATOM     33  H24 F7J d   1      -1.853  33.667  13.658  0.00  0.00     0.036 H 
ATOM     34  N2  F7J d   1      -3.748  33.408  15.677  0.00  0.00    -0.352 N 
ATOM     35  H4  F7J d   1      -2.415  31.816  16.035  0.00  0.00     0.064 H 
ATOM     36  H5  F7J d   1      -1.684  33.456  16.100  0.00  0.00     0.064 H 
ATOM     37  C16 F7J d   1      -3.911  34.713  16.149  0.00  0.00     0.224 C 
ATOM     38  C14 F7J d   1      -4.770  32.728  14.868  0.00  0.00    -0.002 C 
ATOM     39  O1  F7J d   1      -2.931  35.381  16.466  0.00  0.00    -0.273 OA
ATOM     40  C15 F7J d   1      -4.330  32.593  13.400  0.00  0.00    -0.043 C 
ATOM     41  H25 F7J d   1      -5.703  33.309  14.909  0.00  0.00     0.064 H 
ATOM     42  H26 F7J d   1      -4.944  31.724  15.283  0.00  0.00     0.064 H 
ATOM     43  H27 F7J d   1      -5.090  32.026  12.842  0.00  0.00     0.036 H 
ATOM     44  H28 F7J d   1      -4.222  33.595  12.958  0.00  0.00     0.036 H 
ATOM     45  H22 F7J d   1      -3.098  30.863  13.785  0.00  0.00     0.047 H 
BRANCH  37  46
ATOM     46  C17 F7J d   1      -5.315  35.244  16.371  0.00  0.00     0.024 C 
ATOM     47  C21 F7J d   1      -5.536  36.511  15.537  0.00  0.00    -0.054 C 
ATOM     48  C20 F7J d   1      -6.403  37.405  16.415  0.00  0.00    -0.064 C 
ATOM     49  H8  F7J d   1      -4.577  37.000  15.313  0.00  0.00     0.034 H 
ATOM     50  H9  F7J d   1      -6.054  36.271  14.597  0.00  0.00     0.034 H 
ATOM     51  C19 F7J d   1      -5.972  37.101  17.848  0.00  0.00    -0.064 C 
ATOM     52  H6  F7J d   1      -7.468  37.168  16.274  0.00  0.00     0.033 H 
ATOM     53  H7  F7J d   1      -6.229  38.465  16.177  0.00  0.00     0.033 H 
ATOM     54  C18 F7J d   1      -5.485  35.651  17.846  0.00  0.00    -0.054 C 
ATOM     55  H12 F7J d   1      -6.823  37.217  18.535  0.00  0.00     0.033 H 
ATOM     56  H13 F7J d   1      -5.159  37.776  18.154  0.00  0.00     0.033 H 
ATOM     57  H10 F7J d   1      -6.226  35.002  18.336  0.00  0.00     0.034 H 
ATOM     58  H11 F7J d   1      -4.523  35.573  18.374  0.00  0.00     0.034 H 
ATOM     59  H29 F7J d   1      -6.051  34.474  16.098  0.00  0.00     0.054 H 
ENDBRANCH  37  46
ENDBRANCH  25  29
BRANCH  26  60
ATOM     60  C1  F7J d   1      -0.647  29.616  13.521  0.00  0.00    -0.048 C 
ATOM     61  H15 F7J d   1      -1.514  30.142  13.948  0.00  0.00     0.033 H 
ATOM     62  H16 F7J d   1       0.259  29.885  14.085  0.00  0.00     0.033 H 
ATOM     63  H17 F7J d   1      -0.809  28.530  13.584  0.00  0.00     0.033 H 
ENDBRANCH  26  60
BRANCH  24  64
ATOM     64  C10 F7J d   1      -2.473  32.468   8.333  0.00  0.00    -0.014 C 
ATOM     65  H19 F7J d   1      -1.734  32.002   7.665  0.00  0.00     0.057 H 
ATOM     66  H20 F7J d   1      -2.321  33.557   8.345  0.00  0.00     0.057 H 
ATOM     67  H21 F7J d   1      -3.487  32.243   7.971  0.00  0.00     0.057 H 
ENDBRANCH  24  64
ENDBRANCH  14  17
ENDBRANCH   2  13
TORSDOF 6
