REMARK  28 active torsions:
REMARK  status: ('A' for Active; 'I' for Inactive)
REMARK    1  A    between atoms: CB_1  and  CA_2 
REMARK    2  A    between atoms: CG_9  and  CB_1 
REMARK    3  A    between atoms: C4_7  and  C5_6 
REMARK    4  A    between atoms: C1_18  and  C4_7 
REMARK    5  A    between atoms: C4_7  and  O6_20 
REMARK    6  A    between atoms: C1_18  and  C2_8 
REMARK    7  A    between atoms: NE1_12  and  C1_18 
REMARK    8  A    between atoms: C1_18  and  C3_19 
REMARK    9  A    between atoms: N_21  and  CN_22 
REMARK   10  A    between atoms: CA_23  and  CB_24 
REMARK   11  A    between atoms: CB_24  and  CG_25 
REMARK   12  A    between atoms: CG_25  and  CD1_26 
REMARK   13  A    between atoms: CG_25  and  CD2_27 
REMARK   14  A    between atoms: CA_31  and  CB_34 
REMARK   15  A    between atoms: CB_34  and  CG_35 
REMARK   16  A    between atoms: CE1_38  and  NN_42 
REMARK   17  A    between atoms: CZ_40  and  OH_41 
REMARK   18  A    between atoms: CA_46  and  CB_49 
REMARK   19  A    between atoms: N_51  and  C1_50 
REMARK   20  A    between atoms: CG_56  and  CE_59 
REMARK   21  A    between atoms: CD_57  and  OD_58 
REMARK   22  A    between atoms: CA_61  and  CB_64 
REMARK   23  A    between atoms: CB_64  and  CG_65 
REMARK   24  A    between atoms: CG_65  and  CD1_66 
REMARK   25  A    between atoms: CG_65  and  CD2_67 
REMARK   26  A    between atoms: CA_69  and  CB_72 
REMARK   27  A    between atoms: CB_72  and  CG_73 
REMARK   28  A    between atoms: CD_74  and  CE_75 
ROOT
ATOM      1  CA  F7P d   1     -14.929  20.231 -28.803  0.00  0.00     0.252 A 
ATOM      2  C   F7P d   1     -14.429  20.184 -30.234  0.00  0.00     0.275 C 
ATOM      3  O   F7P d   1     -14.953  20.917 -31.042  0.00  0.00    -0.268 OA
ATOM      4  N   F7P d   1     -14.843  21.582 -28.255  0.00  0.00    -0.077 NA
ATOM      5  N   F7P d   1     -13.450  19.346 -30.591  0.00  0.00    -0.339 N 
ATOM      6  CA  F7P d   1     -12.728  18.433 -29.678  0.00  0.00     0.091 C 
ATOM      7  C   F7P d   1     -11.196  18.699 -29.801  0.00  0.00     0.241 C 
ATOM      8  O   F7P d   1     -10.489  17.955 -30.511  0.00  0.00    -0.271 OA
ATOM      9  N   F7P d   1     -10.742  19.766 -29.146  0.00  0.00    -0.346 N 
ATOM     10  CA  F7P d   1      -9.384  20.250 -29.271  0.00  0.00     0.093 C 
ATOM     11  C   F7P d   1      -8.645  20.367 -27.931  0.00  0.00     0.241 C 
ATOM     12  O   F7P d   1      -7.563  19.816 -27.705  0.00  0.00    -0.271 OA
ATOM     13  N   F7P d   1      -9.274  21.091 -27.008  0.00  0.00    -0.346 N 
ATOM     14  CA  F7P d   1      -8.667  21.398 -25.702  0.00  0.00     0.086 C 
ATOM     15  C   F7P d   1      -9.741  21.956 -24.779  0.00  0.00     0.242 C 
ATOM     16  O   F7P d   1     -10.701  22.543 -25.312  0.00  0.00    -0.271 OA
ATOM     17  N   F7P d   1      -9.620  21.863 -23.396  0.00  0.00    -0.341 N 
ATOM     18  CA  F7P d   1     -10.575  22.576 -22.656  0.00  0.00     0.092 C 
ATOM     19  C   F7P d   1     -12.015  22.236 -22.942  0.00  0.00     0.245 C 
ATOM     20  O   F7P d   1     -12.294  21.116 -23.336  0.00  0.00    -0.271 OA
ATOM     21  CB  F7P d   1     -10.221  24.088 -22.529  0.00  0.00    -0.031 C 
ATOM     22  CG  F7P d   1     -11.339  24.629 -21.668  0.00  0.00    -0.013 C 
ATOM     23  CD  F7P d   1     -12.713  24.546 -22.255  0.00  0.00     0.109 C 
ATOM     24  N   F7P d   1     -12.920  23.132 -22.965  0.00  0.00    -0.310 N 
ATOM     25  CA  F7P d   1     -14.298  22.851 -23.396  0.00  0.00     0.094 C 
ATOM     26  C   F7P d   1     -14.530  23.342 -24.809  0.00  0.00     0.241 C 
ATOM     27  O   F7P d   1     -15.625  23.799 -25.142  0.00  0.00    -0.271 OA
ATOM     28  N   F7P d   1     -13.523  23.175 -25.662  0.00  0.00    -0.346 N 
ATOM     29  CA  F7P d   1     -13.652  23.385 -27.078  0.00  0.00     0.089 C 
ATOM     30  C   F7P d   1     -13.559  22.070 -27.856  0.00  0.00     0.249 C 
ATOM     31  O   F7P d   1     -12.618  21.341 -27.812  0.00  0.00    -0.275 OA
ATOM     32  OXT F7P d   1     -14.420  21.663 -28.572  0.00  0.00    -0.252 OA
ATOM     33  H22 F7P d   1     -13.016  18.692 -28.648  0.00  0.00     0.087 H 
ATOM     34  H32 F7P d   1     -11.369  20.256 -28.540  0.00  0.00     0.163 HD
ATOM     35  H33 F7P d   1      -8.834  19.538 -29.904  0.00  0.00     0.088 H 
ATOM     36  H40 F7P d   1     -10.190  21.438 -27.208  0.00  0.00     0.163 HD
ATOM     37  H41 F7P d   1      -8.246  20.479 -25.267  0.00  0.00     0.086 H 
ATOM     38  H48 F7P d   1     -10.438  22.199 -21.632  0.00  0.00     0.087 H 
ATOM     39  H49 F7P d   1     -10.210  24.576 -23.515  0.00  0.00     0.037 H 
ATOM     40  H50 F7P d   1      -9.245  24.226 -22.041  0.00  0.00     0.037 H 
ATOM     41  H51 F7P d   1     -11.134  25.706 -21.753  0.00  0.00     0.046 H 
ATOM     42  H52 F7P d   1     -13.521  24.795 -21.551  0.00  0.00     0.118 H 
ATOM     43  H57 F7P d   1     -14.408  21.757 -23.420  0.00  0.00     0.088 H 
ATOM     44  H67 F7P d   1     -12.635  22.890 -25.301  0.00  0.00     0.163 HD
ATOM     45  H68 F7P d   1     -14.618  23.870 -27.283  0.00  0.00     0.087 H 
ENDROOT
BRANCH   1  46
ATOM     46  CB  F7P d   1     -16.425  19.852 -28.809  0.00  0.00     0.016 C 
ATOM     47  H1  F7P d   1     -16.960  20.550 -29.469  0.00  0.00     0.047 H 
ATOM     48  H2  F7P d   1     -16.814  19.945 -27.784  0.00  0.00     0.047 H 
BRANCH  46  49
ATOM     49  CG  F7P d   1     -16.685  18.401 -29.308  0.00  0.00    -0.025 A 
ATOM     50  CD1 F7P d   1     -16.848  17.948 -30.609  0.00  0.00    -0.012 A 
ATOM     51  NE1 F7P d   1     -17.062  16.613 -30.633  0.00  0.00    -0.344 N 
ATOM     52  H10 F7P d   1     -16.809  18.583 -31.493  0.00  0.00     0.112 H 
ATOM     53  CE2 F7P d   1     -17.053  16.155 -29.336  0.00  0.00     0.045 A 
ATOM     54  CD2 F7P d   1     -16.813  17.228 -28.487  0.00  0.00    -0.002 A 
ATOM     55  CZ2 F7P d   1     -17.219  14.875 -28.766  0.00  0.00    -0.056 A 
ATOM     56  CE3 F7P d   1     -16.736  17.078 -27.099  0.00  0.00    -0.070 A 
ATOM     57  CZ3 F7P d   1     -16.911  15.800 -26.556  0.00  0.00    -0.082 A 
ATOM     58  H11 F7P d   1     -16.545  17.931 -26.459  0.00  0.00     0.084 H 
ATOM     59  CH2 F7P d   1     -17.152  14.718 -27.385  0.00  0.00    -0.081 A 
ATOM     60  H13 F7P d   1     -16.858  15.657 -25.483  0.00  0.00     0.083 H 
ATOM     61  H14 F7P d   1     -17.291  13.734 -26.952  0.00  0.00     0.083 H 
ATOM     62  H12 F7P d   1     -17.398  14.016 -29.402  0.00  0.00     0.087 H 
BRANCH  51  63
ATOM     63  C1  F7P d   1     -17.317  15.824 -31.879  0.00  0.00     0.055 C 
BRANCH  63  64
ATOM     64  C4  F7P d   1     -18.822  15.461 -31.919  0.00  0.00     0.056 C 
ATOM     65  H6  F7P d   1     -19.104  14.963 -30.979  0.00  0.00     0.086 H 
BRANCH  64  66
ATOM     66  C5  F7P d   1     -19.728  16.698 -32.181  0.00  0.00    -0.050 C 
ATOM     67  H3  F7P d   1     -20.782  16.383 -32.199  0.00  0.00     0.031 H 
ATOM     68  H4  F7P d   1     -19.463  17.148 -33.149  0.00  0.00     0.031 H 
ATOM     69  H5  F7P d   1     -19.580  17.437 -31.380  0.00  0.00     0.031 H 
ENDBRANCH  64  66
BRANCH  64  70
ATOM     70  O6  F7P d   1     -19.071  14.670 -32.991  0.00  0.00    -0.393 OA
ATOM     71  H18 F7P d   1     -18.836  15.133 -33.786  0.00  0.00     0.210 HD
ENDBRANCH  64  70
ENDBRANCH  63  64
BRANCH  63  72
ATOM     72  C2  F7P d   1     -16.473  14.518 -31.954  0.00  0.00    -0.051 C 
ATOM     73  H7  F7P d   1     -15.403  14.771 -31.926  0.00  0.00     0.030 H 
ATOM     74  H8  F7P d   1     -16.700  13.988 -32.891  0.00  0.00     0.030 H 
ATOM     75  H9  F7P d   1     -16.720  13.872 -31.098  0.00  0.00     0.030 H 
ENDBRANCH  63  72
BRANCH  63  76
ATOM     76  C3  F7P d   1     -16.980  16.651 -33.189  0.00  0.00    -0.051 C 
ATOM     77  H15 F7P d   1     -17.553  17.590 -33.187  0.00  0.00     0.030 H 
ATOM     78  H16 F7P d   1     -17.249  16.059 -34.076  0.00  0.00     0.030 H 
ATOM     79  H17 F7P d   1     -15.904  16.878 -33.212  0.00  0.00     0.030 H 
ENDBRANCH  63  76
ENDBRANCH  51  63
ENDBRANCH  46  49
ENDBRANCH   1  46
BRANCH   5  80
ATOM     80  CN  F7P d   1     -13.076  19.168 -31.993  0.00  0.00    -0.015 C 
ATOM     81  H19 F7P d   1     -13.645  19.873 -32.617  0.00  0.00     0.056 H 
ATOM     82  H20 F7P d   1     -13.302  18.138 -32.305  0.00  0.00     0.056 H 
ATOM     83  H21 F7P d   1     -11.999  19.360 -32.112  0.00  0.00     0.056 H 
ENDBRANCH   5  80
BRANCH   6  84
ATOM     84  CB  F7P d   1     -13.156  16.980 -29.897  0.00  0.00    -0.035 C 
ATOM     85  H23 F7P d   1     -12.757  16.654 -30.869  0.00  0.00     0.037 H 
ATOM     86  H24 F7P d   1     -14.255  16.953 -29.924  0.00  0.00     0.037 H 
BRANCH  84  87
ATOM     87  CG  F7P d   1     -12.695  15.991 -28.853  0.00  0.00    -0.059 C 
ATOM     88  H25 F7P d   1     -11.602  15.905 -28.940  0.00  0.00     0.038 H 
BRANCH  87  89
ATOM     89  CD1 F7P d   1     -12.995  16.418 -27.431  0.00  0.00    -0.073 C 
ATOM     90  H26 F7P d   1     -12.631  15.650 -26.733  0.00  0.00     0.028 H 
ATOM     91  H27 F7P d   1     -14.081  16.541 -27.306  0.00  0.00     0.028 H 
ATOM     92  H28 F7P d   1     -12.491  17.373 -27.221  0.00  0.00     0.028 H 
ENDBRANCH  87  89
BRANCH  87  93
ATOM     93  CD2 F7P d   1     -13.299  14.625 -29.159  0.00  0.00    -0.073 C 
ATOM     94  H29 F7P d   1     -13.064  14.344 -30.196  0.00  0.00     0.028 H 
ATOM     95  H30 F7P d   1     -14.390  14.669 -29.029  0.00  0.00     0.028 H 
ATOM     96  H31 F7P d   1     -12.878  13.876 -28.472  0.00  0.00     0.028 H 
ENDBRANCH  87  93
ENDBRANCH  84  87
ENDBRANCH   6  84
BRANCH  29  97
ATOM     97  CB  F7P d   1     -12.501  24.269 -27.576  0.00  0.00    -0.023 C 
ATOM     98  H69 F7P d   1     -12.488  24.235 -28.675  0.00  0.00     0.042 H 
ATOM     99  H70 F7P d   1     -11.557  23.862 -27.185  0.00  0.00     0.042 H 
BRANCH  97 100
ATOM    100  CG  F7P d   1     -12.613  25.733 -27.140  0.00  0.00    -0.105 C 
ATOM    101  CD  F7P d   1     -11.814  26.273 -26.243  0.00  0.00    -0.110 C 
ATOM    102  H72 F7P d   1     -11.041  25.673 -25.764  0.00  0.00     0.075 H 
ATOM    103  H71 F7P d   1     -13.386  26.354 -27.591  0.00  0.00     0.076 H 
BRANCH 101 104
ATOM    104  CE  F7P d   1     -11.981  27.753 -25.878  0.00  0.00    -0.060 C 
ATOM    105  H73 F7P d   1     -11.235  28.030 -25.119  0.00  0.00     0.032 H 
ATOM    106  H74 F7P d   1     -12.991  27.920 -25.477  0.00  0.00     0.032 H 
ATOM    107  H75 F7P d   1     -11.837  28.371 -26.777  0.00  0.00     0.032 H 
ENDBRANCH 101 104
ENDBRANCH  97 100
ENDBRANCH  29  97
BRANCH  10 108
ATOM    108  CB  F7P d   1      -9.361  21.653 -29.955  0.00  0.00    -0.014 C 
ATOM    109  H34 F7P d   1      -8.312  21.925 -30.147  0.00  0.00     0.043 H 
ATOM    110  H35 F7P d   1      -9.807  22.381 -29.261  0.00  0.00     0.043 H 
BRANCH 108 111
ATOM    111  CG  F7P d   1     -10.110  21.725 -31.257  0.00  0.00    -0.053 A 
ATOM    112  CD1 F7P d   1     -11.353  22.340 -31.273  0.00  0.00    -0.042 A 
ATOM    113  CE1 F7P d   1     -12.112  22.429 -32.458  0.00  0.00     0.136 A 
ATOM    114  H36 F7P d   1     -11.749  22.761 -30.356  0.00  0.00     0.088 H 
ATOM    115  CZ  F7P d   1     -11.630  21.887 -33.654  0.00  0.00     0.098 A 
ATOM    116  CE2 F7P d   1     -10.362  21.260 -33.639  0.00  0.00    -0.048 A 
ATOM    117  CD2 F7P d   1      -9.626  21.170 -32.463  0.00  0.00    -0.074 A 
ATOM    118  H38 F7P d   1      -9.959  20.845 -34.556  0.00  0.00     0.087 H 
ATOM    119  H37 F7P d   1      -8.666  20.666 -32.471  0.00  0.00     0.084 H 
BRANCH 113 120
ATOM    120  NN  F7P d   1     -13.407  23.120 -32.329  0.00  0.00    -0.113 N 
ATOM    121  O1  F7P d   1     -14.206  23.082 -33.222  0.00  0.00    -0.532 OA
ATOM    122  O2  F7P d   1     -13.633  23.727 -31.307  0.00  0.00    -0.532 OA
ENDBRANCH 113 120
BRANCH 115 123
ATOM    123  OH  F7P d   1     -12.275  21.912 -34.860  0.00  0.00    -0.358 OA
ATOM    124  H39 F7P d   1     -11.743  22.379 -35.493  0.00  0.00     0.217 HD
ENDBRANCH 115 123
ENDBRANCH 108 111
ENDBRANCH  10 108
BRANCH  25 125
ATOM    125  CB  F7P d   1     -15.337  23.368 -22.393  0.00  0.00    -0.035 C 
ATOM    126  H58 F7P d   1     -16.339  23.191 -22.812  0.00  0.00     0.037 H 
ATOM    127  H59 F7P d   1     -15.180  24.449 -22.261  0.00  0.00     0.037 H 
BRANCH 125 128
ATOM    128  CG  F7P d   1     -15.268  22.700 -21.015  0.00  0.00    -0.059 C 
ATOM    129  H60 F7P d   1     -14.224  22.740 -20.669  0.00  0.00     0.038 H 
BRANCH 128 130
ATOM    130  CD1 F7P d   1     -16.133  23.446 -20.013  0.00  0.00    -0.073 C 
ATOM    131  H61 F7P d   1     -16.069  22.951 -19.033  0.00  0.00     0.028 H 
ATOM    132  H62 F7P d   1     -17.178  23.444 -20.357  0.00  0.00     0.028 H 
ATOM    133  H63 F7P d   1     -15.779  24.483 -19.923  0.00  0.00     0.028 H 
ENDBRANCH 128 130
BRANCH 128 134
ATOM    134  CD2 F7P d   1     -15.692  21.237 -21.077  0.00  0.00    -0.073 C 
ATOM    135  H64 F7P d   1     -15.062  20.703 -21.804  0.00  0.00     0.028 H 
ATOM    136  H65 F7P d   1     -16.745  21.173 -21.388  0.00  0.00     0.028 H 
ATOM    137  H66 F7P d   1     -15.575  20.779 -20.084  0.00  0.00     0.028 H 
ENDBRANCH 128 134
ENDBRANCH 125 128
ENDBRANCH  25 125
BRANCH  23 138
ATOM    138  OD  F7P d   1     -12.530  25.470 -23.330  0.00  0.00    -0.376 OA
ATOM    139  H53 F7P d   1     -12.400  26.342 -22.977  0.00  0.00     0.212 HD
ENDBRANCH  23 138
BRANCH  14 140
ATOM    140  CB  F7P d   1      -7.531  22.458 -25.875  0.00  0.00    -0.049 C 
ATOM    141  H42 F7P d   1      -7.085  22.680 -24.895  0.00  0.00     0.030 H 
ATOM    142  H43 F7P d   1      -7.952  23.380 -26.304  0.00  0.00     0.030 H 
ATOM    143  H44 F7P d   1      -6.758  22.060 -26.548  0.00  0.00     0.030 H 
ENDBRANCH  14 140
BRANCH  22 144
ATOM    144  CE  F7P d   1     -11.318  24.473 -20.176  0.00  0.00    -0.069 C 
ATOM    145  H54 F7P d   1     -10.282  24.544 -19.814  0.00  0.00     0.028 H 
ATOM    146  H55 F7P d   1     -11.735  23.492 -19.904  0.00  0.00     0.028 H 
ATOM    147  H56 F7P d   1     -11.922  25.268 -19.716  0.00  0.00     0.028 H 
ENDBRANCH  22 144
BRANCH  17 148
ATOM    148  C1  F7P d   1      -8.502  21.180 -22.736  0.00  0.00    -0.015 C 
ATOM    149  H45 F7P d   1      -7.876  20.686 -23.493  0.00  0.00     0.056 H 
ATOM    150  H46 F7P d   1      -8.894  20.427 -22.036  0.00  0.00     0.056 H 
ATOM    151  H47 F7P d   1      -7.898  21.915 -22.184  0.00  0.00     0.056 H 
ENDBRANCH  17 148
TORSDOF 28
