REMARK  2 active torsions:
REMARK  status: ('A' for Active; 'I' for Inactive)
REMARK    1  A    between atoms: C2_3  and  C6_8 
REMARK    2  A    between atoms: N2_7  and  C10_12 
ROOT
ATOM      1  N2  NCT d   1     157.844 120.829 167.443  0.00  0.00    -0.067 N 
ATOM      2  C6  NCT d   1     158.693 122.053 167.630  0.00  0.00     0.130 C 
ATOM      3  C7  NCT d   1     158.226 122.866 166.468  0.00  0.00    -0.033 C 
ATOM      4  C8  NCT d   1     157.976 121.917 165.320  0.00  0.00    -0.040 C 
ATOM      5  C9  NCT d   1     157.694 120.592 165.985  0.00  0.00     0.084 C 
ATOM      6  H5  NCT d   1     156.953 120.886 167.911  0.00  0.00     0.280 HD
ATOM      7  H6  NCT d   1     159.766 121.832 167.532  0.00  0.00     0.092 H 
ATOM      8  H7  NCT d   1     158.997 123.599 166.188  0.00  0.00     0.036 H 
ATOM      9  H8  NCT d   1     157.297 123.393 166.728  0.00  0.00     0.036 H 
ATOM     10  H9  NCT d   1     158.862 121.847 164.672  0.00  0.00     0.035 H 
ATOM     11  H10 NCT d   1     157.112 122.246 164.724  0.00  0.00     0.035 H 
ATOM     12  H11 NCT d   1     156.672 120.258 165.755  0.00  0.00     0.076 H 
ATOM     13  H12 NCT d   1     158.413 119.832 165.645  0.00  0.00     0.076 H 
ENDROOT
BRANCH   2  14
ATOM     14  C2  NCT d   1     158.442 122.600 168.999  0.00  0.00    -0.010 A 
ATOM     15  C1  NCT d   1     157.149 122.984 169.415  0.00  0.00     0.010 A 
ATOM     16  N1  NCT d   1     156.888 123.480 170.651  0.00  0.00    -0.273 NA
ATOM     17  H1  NCT d   1     156.327 122.878 168.716  0.00  0.00     0.115 H 
ATOM     18  C5  NCT d   1     157.918 123.606 171.522  0.00  0.00     0.002 A 
ATOM     19  C4  NCT d   1     159.228 123.252 171.194  0.00  0.00    -0.065 A 
ATOM     20  H4  NCT d   1     157.717 123.997 172.513  0.00  0.00     0.114 H 
ATOM     21  C3  NCT d   1     159.473 122.748 169.920  0.00  0.00    -0.072 A 
ATOM     22  H3  NCT d   1     160.032 123.367 171.912  0.00  0.00     0.085 H 
ATOM     23  H2  NCT d   1     160.482 122.467 169.642  0.00  0.00     0.084 H 
ENDBRANCH   2  14
BRANCH   1  24
ATOM     24  C10 NCT d   1     158.715 119.783 167.980  0.00  0.00     0.067 C 
ATOM     25  H13 NCT d   1     158.845 119.933 169.062  0.00  0.00     0.068 H 
ATOM     26  H14 NCT d   1     159.695 119.831 167.483  0.00  0.00     0.068 H 
ATOM     27  H15 NCT d   1     158.260 118.798 167.799  0.00  0.00     0.068 H 
ENDBRANCH   1  24
TORSDOF 2
