REMARK  2 active torsions:
REMARK  status: ('A' for Active; 'I' for Inactive)
REMARK    1  A    between atoms: C2_3  and  C6_8 
REMARK    2  A    between atoms: N2_7  and  C10_12 
ROOT
ATOM      1  N2  NCT d   1     119.823 155.680 169.201  0.00  0.00    -0.067 N 
ATOM      2  C6  NCT d   1     118.469 155.053 168.982  0.00  0.00     0.130 C 
ATOM      3  C7  NCT d   1     118.660 154.452 167.620  0.00  0.00    -0.033 C 
ATOM      4  C8  NCT d   1     119.550 155.382 166.829  0.00  0.00    -0.040 C 
ATOM      5  C9  NCT d   1     120.386 156.077 167.876  0.00  0.00     0.084 C 
ATOM      6  H5  NCT d   1     120.455 155.089 169.718  0.00  0.00     0.280 HD
ATOM      7  H6  NCT d   1     117.670 155.809 168.951  0.00  0.00     0.092 H 
ATOM      8  H7  NCT d   1     117.687 154.346 167.117  0.00  0.00     0.036 H 
ATOM      9  H8  NCT d   1     119.136 153.464 167.710  0.00  0.00     0.036 H 
ATOM     10  H9  NCT d   1     118.949 156.110 166.264  0.00  0.00     0.035 H 
ATOM     11  H10 NCT d   1     120.187 154.815 166.135  0.00  0.00     0.035 H 
ATOM     12  H11 NCT d   1     121.436 155.757 167.798  0.00  0.00     0.076 H 
ATOM     13  H12 NCT d   1     120.325 157.168 167.749  0.00  0.00     0.076 H 
ENDROOT
BRANCH   2  14
ATOM     14  C2  NCT d   1     118.185 154.109 170.109  0.00  0.00    -0.010 A 
ATOM     15  C1  NCT d   1     119.228 153.460 170.804  0.00  0.00     0.010 A 
ATOM     16  N1  NCT d   1     119.012 152.601 171.828  0.00  0.00    -0.273 NA
ATOM     17  H1  NCT d   1     120.250 153.659 170.504  0.00  0.00     0.115 H 
ATOM     18  C5  NCT d   1     117.732 152.356 172.200  0.00  0.00     0.002 A 
ATOM     19  C4  NCT d   1     116.637 152.954 171.570  0.00  0.00    -0.065 A 
ATOM     20  H4  NCT d   1     117.550 151.669 173.019  0.00  0.00     0.114 H 
ATOM     21  C3  NCT d   1     116.885 153.834 170.517  0.00  0.00    -0.072 A 
ATOM     22  H3  NCT d   1     115.624 152.740 171.891  0.00  0.00     0.085 H 
ATOM     23  H2  NCT d   1     116.053 154.310 170.010  0.00  0.00     0.084 H 
ENDBRANCH   2  14
BRANCH   1  24
ATOM     24  C10 NCT d   1     119.461 156.909 169.911  0.00  0.00     0.067 C 
ATOM     25  H13 NCT d   1     119.041 156.654 170.895  0.00  0.00     0.068 H 
ATOM     26  H14 NCT d   1     118.713 157.464 169.326  0.00  0.00     0.068 H 
ATOM     27  H15 NCT d   1     120.357 157.532 170.045  0.00  0.00     0.068 H 
ENDBRANCH   1  24
TORSDOF 2
