REMARK WARNING: 32 MAX_TORS EXCEEDED!!!
REMARK  52 active torsions:
REMARK  status: ('A' for Active; 'I' for Inactive)
REMARK    1  A    between atoms: N_1  and  CA_2 
REMARK    2  A    between atoms: CA_2  and  C_3 
REMARK    3  A    between atoms: CA_2  and  CB_5 
REMARK       I    between atoms: C_3  and  N_10 
REMARK    4  A    between atoms: CB_5  and  CG_6 
REMARK    5  A    between atoms: CG_6  and  CD_7 
REMARK       I    between atoms: CD_7  and  NE2_9 
REMARK    6  A    between atoms: N_10  and  CA_11 
REMARK    7  A    between atoms: CA_11  and  C_12 
REMARK    8  A    between atoms: CA_11  and  CB_14 
REMARK       I    between atoms: C_12  and  N_19 
REMARK    9  A    between atoms: CB_14  and  CG_15 
REMARK   10  A    between atoms: CG_15  and  CD_16 
REMARK   11  A    between atoms: CA_20  and  C_21 
REMARK       I    between atoms: C_21  and  N_26 
REMARK   12  A    between atoms: N_26  and  CA_27 
REMARK   13  A    between atoms: CA_27  and  C_28 
REMARK   14  A    between atoms: CA_27  and  CB_30 
REMARK       I    between atoms: C_28  and  N_35 
REMARK   15  A    between atoms: CB_30  and  CG_31 
REMARK   16  A    between atoms: CG_31  and  CD_32 
REMARK   17  A    between atoms: CA_36  and  C_37 
REMARK       I    between atoms: C_37  and  N_42 
REMARK   18  A    between atoms: CA_43  and  C_44 
REMARK       I    between atoms: C_44  and  N_49 
REMARK   19  A    between atoms: N_49  and  CA_50 
REMARK   20  A    between atoms: CA_50  and  C_51 
REMARK   21  A    between atoms: CA_50  and  CB_53 
REMARK       I    between atoms: C_51  and  N_58 
REMARK   22  A    between atoms: CB_53  and  CG_54 
REMARK   23  A    between atoms: CG_54  and  CD_55 
REMARK   24  A    between atoms: CA_59  and  C_60 
REMARK       I    between atoms: C_60  and  N_65 
REMARK   25  A    between atoms: N_65  and  CA_66 
REMARK   26  A    between atoms: CA_66  and  C_67 
REMARK   27  A    between atoms: CA_66  and  CB_69 
REMARK       I    between atoms: C_67  and  N_76 
REMARK   28  A    between atoms: CB_69  and  CG_70 
REMARK   29  A    between atoms: N_76  and  CA_77 
REMARK   30  A    between atoms: CA_77  and  C_78 
REMARK   31  A    between atoms: CA_77  and  CB_80 
REMARK       I    between atoms: C_78  and  N_85 
REMARK   32  A    between atoms: CB_80  and  CG_81 
REMARK   33  A    between atoms: CG_81  and  CD_82 
REMARK   34  A    between atoms: N_85  and  CA_86 
REMARK   35  A    between atoms: CA_86  and  C_87 
REMARK   36  A    between atoms: CA_86  and  CB_89 
REMARK       I    between atoms: C_87  and  N_97 
REMARK   37  A    between atoms: CB_89  and  CG_90 
REMARK   38  A    between atoms: CZ_95  and  OH_96 
REMARK   39  A    between atoms: N_97  and  CA_98 
REMARK   40  A    between atoms: CA_98  and  C_99 
REMARK   41  A    between atoms: CA_98  and  CB_101 
REMARK       I    between atoms: C_99  and  N_105 
REMARK   42  A    between atoms: CB_101  and  CG1_102 
REMARK   43  A    between atoms: CB_101  and  CG2_103 
REMARK   44  A    between atoms: CG1_102  and  CD1_104 
REMARK   45  A    between atoms: N_105  and  CA_106 
REMARK   46  A    between atoms: CA_106  and  C_107 
REMARK   47  A    between atoms: CA_106  and  CB_109 
REMARK       I    between atoms: C_107  and  N_113 
REMARK   48  A    between atoms: CB_109  and  CG_110 
REMARK   49  A    between atoms: N_113  and  CA_114 
REMARK   50  A    between atoms: CA_114  and  C_115 
REMARK   51  A    between atoms: CA_114  and  CB_117 
REMARK   52  A    between atoms: CB_117  and  CG_118 
ROOT
ATOM      1  C   GLU d   1      47.756  -8.777   6.942  0.00  0.00     0.243 C 
ATOM      2  O   GLU d   1      47.781  -7.555   7.098  0.00  0.00    -0.271 OA
ATOM      3  N   PRO d   1      47.793  -9.320   5.746  0.00  0.00    -0.337 N 
ATOM      4  CA  PRO d   1      47.863  -8.505   4.494  0.00  0.00     0.091 C 
ATOM      5  CB  PRO d   1      47.836  -9.550   3.370  0.00  0.00    -0.036 C 
ATOM      6  CG  PRO d   1      47.314 -10.797   4.000  0.00  0.00    -0.048 C 
ATOM      7  CD  PRO d   1      47.783 -10.760   5.447  0.00  0.00    -0.001 C 
ATOM      8  H50 PRO d   1      48.797  -7.925   4.465  0.00  0.00     0.087 H 
ATOM      9  H51 PRO d   1      48.849  -9.714   2.973  0.00  0.00     0.036 H 
ATOM     10  H52 PRO d   1      47.172  -9.223   2.556  0.00  0.00     0.036 H 
ATOM     11  H53 PRO d   1      47.719 -11.683   3.489  0.00  0.00     0.035 H 
ATOM     12  H54 PRO d   1      46.215 -10.818   3.954  0.00  0.00     0.035 H 
ATOM     13  H55 PRO d   1      47.084 -11.297   6.105  0.00  0.00     0.064 H 
ATOM     14  H56 PRO d   1      48.789 -11.194   5.549  0.00  0.00     0.064 H 
ENDROOT
BRANCH   1  15
ATOM     15  CA  GLU d   1      47.678  -9.709   8.155  0.00  0.00     0.090 C 
ATOM     16  H45 GLU d   1      48.285 -10.604   7.954  0.00  0.00     0.087 H 
BRANCH  15  17
ATOM     17  N   GLU d   1      48.199  -9.044   9.342  0.00  0.00    -0.346 N 
ATOM     18  C   PRO d   1      49.418  -9.302   9.793  0.00  0.00     0.241 C 
ATOM     19  O   PRO d   1      50.172 -10.112   9.255  0.00  0.00    -0.271 OA
ATOM     20  H44 GLU d   1      47.627  -8.381   9.825  0.00  0.00     0.163 HD
BRANCH  18  21
ATOM     21  CA  PRO d   1      49.848  -8.543  11.044  0.00  0.00     0.091 C 
ATOM     22  N   PRO d   1      51.074  -9.125  11.668  0.00  0.00    -0.337 N 
ATOM     23  C   PRO d   1      51.069 -10.266  12.320  0.00  0.00     0.243 C 
ATOM     24  CD  PRO d   1      52.250  -8.263  11.450  0.00  0.00    -0.001 C 
ATOM     25  O   PRO d   1      50.041 -10.929  12.455  0.00  0.00    -0.271 OA
ATOM     26  CG  PRO d   1      51.738  -7.160  10.524  0.00  0.00    -0.048 C 
ATOM     27  H42 PRO d   1      53.064  -8.827  10.972  0.00  0.00     0.064 H 
ATOM     28  H43 PRO d   1      52.606  -7.840  12.401  0.00  0.00     0.064 H 
ATOM     29  CB  PRO d   1      50.260  -7.108  10.705  0.00  0.00    -0.036 C 
ATOM     30  H40 PRO d   1      52.189  -6.195  10.798  0.00  0.00     0.035 H 
ATOM     31  H41 PRO d   1      51.985  -7.397   9.479  0.00  0.00     0.035 H 
ATOM     32  H38 PRO d   1      49.995  -6.426  11.527  0.00  0.00     0.036 H 
ATOM     33  H39 PRO d   1      49.769  -6.774   9.779  0.00  0.00     0.036 H 
ATOM     34  H37 PRO d   1      49.016  -8.545  11.764  0.00  0.00     0.087 H 
BRANCH  23  35
ATOM     35  CA  PRO d   1      52.398 -10.752  12.912  0.00  0.00     0.092 C 
ATOM     36  N   PRO d   1      52.198 -11.656  14.082  0.00  0.00    -0.337 N 
ATOM     37  C   GLU d   1      51.729 -11.219  15.225  0.00  0.00     0.243 C 
ATOM     38  CD  PRO d   1      52.597 -13.044  13.775  0.00  0.00    -0.001 C 
ATOM     39  O   GLU d   1      51.430 -10.035  15.390  0.00  0.00    -0.271 OA
ATOM     40  CG  PRO d   1      52.827 -13.028  12.265  0.00  0.00    -0.048 C 
ATOM     41  H35 PRO d   1      51.797 -13.751  14.043  0.00  0.00     0.064 H 
ATOM     42  H36 PRO d   1      53.520 -13.315  14.310  0.00  0.00     0.064 H 
ATOM     43  CB  PRO d   1      53.161 -11.619  11.906  0.00  0.00    -0.036 C 
ATOM     44  H33 PRO d   1      53.660 -13.696  12.000  0.00  0.00     0.035 H 
ATOM     45  H34 PRO d   1      51.917 -13.350  11.738  0.00  0.00     0.035 H 
ATOM     46  H31 PRO d   1      54.244 -11.446  11.992  0.00  0.00     0.036 H 
ATOM     47  H32 PRO d   1      52.834 -11.396  10.880  0.00  0.00     0.036 H 
ATOM     48  H30 PRO d   1      52.999  -9.878  13.203  0.00  0.00     0.087 H 
BRANCH  37  49
ATOM     49  CA  GLU d   1      51.559 -12.226  16.361  0.00  0.00     0.090 C 
ATOM     50  H25 GLU d   1      52.375 -12.961  16.305  0.00  0.00     0.087 H 
BRANCH  49  51
ATOM     51  N   GLU d   1      51.627 -11.556  17.653  0.00  0.00    -0.346 N 
ATOM     52  C   PRO d   1      52.787 -11.148  18.150  0.00  0.00     0.241 C 
ATOM     53  O   PRO d   1      53.859 -11.304  17.563  0.00  0.00    -0.271 OA
ATOM     54  H24 GLU d   1      50.787 -11.402  18.173  0.00  0.00     0.163 HD
BRANCH  52  55
ATOM     55  CA  PRO d   1      52.734 -10.459  19.509  0.00  0.00     0.091 C 
ATOM     56  N   PRO d   1      53.914 -10.791  20.363  0.00  0.00    -0.337 N 
ATOM     57  C   GLU d   1      54.050 -11.952  20.963  0.00  0.00     0.243 C 
ATOM     58  CD  PRO d   1      54.867  -9.670  20.424  0.00  0.00    -0.001 C 
ATOM     59  O   GLU d   1      53.204 -12.840  20.854  0.00  0.00    -0.271 OA
ATOM     60  CG  PRO d   1      54.258  -8.607  19.507  0.00  0.00    -0.048 C 
ATOM     61  H22 PRO d   1      55.857  -9.980  20.058  0.00  0.00     0.064 H 
ATOM     62  H23 PRO d   1      54.958  -9.291  21.453  0.00  0.00     0.064 H 
ATOM     63  CB  PRO d   1      52.810  -8.940  19.368  0.00  0.00    -0.036 C 
ATOM     64  H20 PRO d   1      54.376  -7.609  19.953  0.00  0.00     0.035 H 
ATOM     65  H21 PRO d   1      54.748  -8.629  18.523  0.00  0.00     0.035 H 
ATOM     66  H18 PRO d   1      52.224  -8.449  20.159  0.00  0.00     0.036 H 
ATOM     67  H19 PRO d   1      52.434  -8.624  18.384  0.00  0.00     0.036 H 
ATOM     68  H17 PRO d   1      51.803 -10.752  20.016  0.00  0.00     0.087 H 
BRANCH  57  69
ATOM     69  CA  GLU d   1      55.305 -12.172  21.815  0.00  0.00     0.090 C 
ATOM     70  H12 GLU d   1      55.591 -11.214  22.274  0.00  0.00     0.087 H 
BRANCH  69  71
ATOM     71  N   GLU d   1      55.050 -13.136  22.876  0.00  0.00    -0.346 N 
ATOM     72  C   GLN d   1      54.290 -12.817  23.916  0.00  0.00     0.249 C 
ATOM     73  O   GLN d   1      53.765 -11.711  24.046  0.00  0.00    -0.271 OA
ATOM     74  H11 GLU d   1      55.453 -14.050  22.820  0.00  0.00     0.163 HD
BRANCH  72  75
ATOM     75  CA  GLN d   1      54.099 -13.898  24.969  0.00  0.00     0.176 C 
ATOM     76  H4  GLN d   1      53.594 -13.469  25.847  0.00  0.00     0.099 H 
BRANCH  75  77
ATOM     77  N   GLN d   1      53.265 -14.996  24.403  0.00  0.00    -0.066 N 
ATOM     78  H1  GLN d   1      53.137 -15.714  25.099  0.00  0.00     0.275 HD
ATOM     79  H2  GLN d   1      53.727 -15.388  23.597  0.00  0.00     0.275 HD
ATOM     80  H3  GLN d   1      52.367 -14.629  24.130  0.00  0.00     0.275 HD
ENDBRANCH  75  77
BRANCH  75  81
ATOM     81  CB  GLN d   1      55.460 -14.457  25.388  0.00  0.00    -0.022 C 
ATOM     82  H5  GLN d   1      55.976 -14.865  24.506  0.00  0.00     0.037 H 
ATOM     83  H6  GLN d   1      55.315 -15.256  26.131  0.00  0.00     0.037 H 
BRANCH  81  84
ATOM     84  CG  GLN d   1      56.306 -13.338  26.001  0.00  0.00     0.011 C 
ATOM     85  H7  GLN d   1      55.777 -12.915  26.868  0.00  0.00     0.047 H 
ATOM     86  H8  GLN d   1      56.468 -12.551  25.250  0.00  0.00     0.047 H 
BRANCH  84  87
ATOM     87  CD  GLN d   1      57.653 -13.890  26.452  0.00  0.00     0.215 C 
ATOM     88  OE1 GLN d   1      57.928 -15.078  26.279  0.00  0.00    -0.274 OA
ATOM     89  NE2 GLN d   1      58.515 -13.096  27.027  0.00  0.00    -0.370 N 
ATOM     90  H9  GLN d   1      59.401 -13.452  27.325  0.00  0.00     0.159 HD
ATOM     91  H10 GLN d   1      58.290 -12.132  27.169  0.00  0.00     0.159 HD
ENDBRANCH  84  87
ENDBRANCH  81  84
ENDBRANCH  75  81
ENDBRANCH  72  75
ENDBRANCH  69  71
BRANCH  69  92
ATOM     92  CB  GLU d   1      56.452 -12.653  20.927  0.00  0.00    -0.029 C 
ATOM     93  H13 GLU d   1      56.537 -11.996  20.049  0.00  0.00     0.037 H 
ATOM     94  H14 GLU d   1      56.253 -13.683  20.596  0.00  0.00     0.037 H 
BRANCH  92  95
ATOM     95  CG  GLU d   1      57.759 -12.616  21.721  0.00  0.00     0.018 C 
ATOM     96  H15 GLU d   1      57.662 -13.254  22.612  0.00  0.00     0.049 H 
ATOM     97  H16 GLU d   1      57.968 -11.582  22.031  0.00  0.00     0.049 H 
BRANCH  95  98
ATOM     98  CD  GLU d   1      58.908 -13.126  20.858  0.00  0.00     0.172 C 
ATOM     99  OE1 GLU d   1      58.649 -13.517  19.732  0.00  0.00    -0.648 OA
ATOM    100  OE2 GLU d   1      60.031 -13.117  21.336  0.00  0.00    -0.648 OA
ENDBRANCH  95  98
ENDBRANCH  92  95
ENDBRANCH  69  92
ENDBRANCH  57  69
ENDBRANCH  52  55
ENDBRANCH  49  51
BRANCH  49 101
ATOM    101  CB  GLU d   1      50.227 -12.961  16.204  0.00  0.00    -0.029 C 
ATOM    102  H26 GLU d   1      50.123 -13.316  15.168  0.00  0.00     0.037 H 
ATOM    103  H27 GLU d   1      49.400 -12.276  16.442  0.00  0.00     0.037 H 
BRANCH 101 104
ATOM    104  CG  GLU d   1      50.190 -14.157  17.159  0.00  0.00     0.018 C 
ATOM    105  H28 GLU d   1      51.213 -14.534  17.306  0.00  0.00     0.049 H 
ATOM    106  H29 GLU d   1      49.566 -14.950  16.721  0.00  0.00     0.049 H 
BRANCH 104 107
ATOM    107  CD  GLU d   1      49.607 -13.748  18.508  0.00  0.00     0.172 C 
ATOM    108  OE1 GLU d   1      49.423 -12.561  18.722  0.00  0.00    -0.648 OA
ATOM    109  OE2 GLU d   1      49.353 -14.632  19.310  0.00  0.00    -0.648 OA
ENDBRANCH 104 107
ENDBRANCH 101 104
ENDBRANCH  49 101
ENDBRANCH  37  49
ENDBRANCH  23  35
ENDBRANCH  18  21
ENDBRANCH  15  17
BRANCH  15 110
ATOM    110  CB  GLU d   1      46.228 -10.137   8.395  0.00  0.00    -0.029 C 
ATOM    111  H46 GLU d   1      45.790 -10.495   7.452  0.00  0.00     0.037 H 
ATOM    112  H47 GLU d   1      45.648  -9.279   8.766  0.00  0.00     0.037 H 
BRANCH 110 113
ATOM    113  CG  GLU d   1      46.196 -11.260   9.431  0.00  0.00     0.018 C 
ATOM    114  H48 GLU d   1      46.660 -10.908  10.364  0.00  0.00     0.049 H 
ATOM    115  H49 GLU d   1      46.755 -12.126   9.047  0.00  0.00     0.049 H 
BRANCH 113 116
ATOM    116  CD  GLU d   1      44.756 -11.671   9.708  0.00  0.00     0.172 C 
ATOM    117  OE1 GLU d   1      43.865 -11.025   9.180  0.00  0.00    -0.648 OA
ATOM    118  OE2 GLU d   1      44.563 -12.626  10.442  0.00  0.00    -0.648 OA
ENDBRANCH 113 116
ENDBRANCH 110 113
ENDBRANCH  15 110
ENDBRANCH   1  15
BRANCH   4 119
ATOM    119  C   PRO d   1      46.676  -7.551   4.367  0.00  0.00     0.241 C 
ATOM    120  O   PRO d   1      45.559  -7.875   4.774  0.00  0.00    -0.271 OA
ATOM    121  N   PHE d   1      46.931  -6.371   3.808  0.00  0.00    -0.346 N 
ATOM    122  H57 PHE d   1      47.860  -6.167   3.500  0.00  0.00     0.163 HD
BRANCH 121 123
ATOM    123  CA  PHE d   1      45.885  -5.366   3.634  0.00  0.00     0.093 C 
ATOM    124  H58 PHE d   1      44.931  -5.878   3.441  0.00  0.00     0.088 H 
BRANCH 123 125
ATOM    125  C   PHE d   1      46.203  -4.451   2.455  0.00  0.00     0.241 C 
ATOM    126  O   PHE d   1      47.338  -4.393   1.994  0.00  0.00    -0.271 OA
ATOM    127  N   GLU d   1      45.196  -3.730   1.975  0.00  0.00    -0.346 N 
ATOM    128  H66 GLU d   1      44.290  -3.816   2.390  0.00  0.00     0.163 HD
BRANCH 127 129
ATOM    129  CA  GLU d   1      45.385  -2.816   0.855  0.00  0.00     0.090 C 
ATOM    130  H67 GLU d   1      46.137  -3.238   0.172  0.00  0.00     0.087 H 
BRANCH 129 131
ATOM    131  C   GLU d   1      45.875  -1.456   1.351  0.00  0.00     0.241 C 
ATOM    132  O   GLU d   1      45.368  -0.924   2.337  0.00  0.00    -0.271 OA
ATOM    133  N   TYR d   1      46.859  -0.896   0.651  0.00  0.00    -0.346 N 
ATOM    134  H72 TYR d   1      47.230  -1.377  -0.143  0.00  0.00     0.163 HD
BRANCH 133 135
ATOM    135  CA  TYR d   1      47.407   0.401   1.017  0.00  0.00     0.093 C 
ATOM    136  H73 TYR d   1      46.845   0.797   1.876  0.00  0.00     0.088 H 
BRANCH 135 137
ATOM    137  C   TYR d   1      47.273   1.360  -0.148  0.00  0.00     0.241 C 
ATOM    138  O   TYR d   1      47.730   1.081  -1.257  0.00  0.00    -0.271 OA
ATOM    139  N   ILE d   1      46.641   2.492   0.109  0.00  0.00    -0.346 N 
ATOM    140  H81 ILE d   1      46.292   2.666   1.030  0.00  0.00     0.163 HD
BRANCH 139 141
ATOM    141  CA  ILE d   1      46.450   3.479  -0.926  0.00  0.00     0.092 C 
ATOM    142  H82 ILE d   1      47.120   3.251  -1.768  0.00  0.00     0.088 H 
BRANCH 141 143
ATOM    143  C   ILE d   1      46.782   4.857  -0.386  0.00  0.00     0.241 C 
ATOM    144  O   ILE d   1      46.307   5.241   0.681  0.00  0.00    -0.271 OA
ATOM    145  N   ASP d   1      47.603   5.595  -1.113  0.00  0.00    -0.345 N 
ATOM    146  H92 ASP d   1      47.964   5.239  -1.975  0.00  0.00     0.163 HD
BRANCH 145 147
ATOM    147  CA  ASP d   1      47.982   6.923  -0.660  0.00  0.00     0.098 C 
ATOM    148  H93 ASP d   1      48.330   6.863   0.382  0.00  0.00     0.088 H 
BRANCH 147 149
ATOM    149  C   ASP d   1      46.787   7.865  -0.738  0.00  0.00     0.241 C 
ATOM    150  O   ASP d   1      46.614   8.591  -1.718  0.00  0.00    -0.271 OA
ATOM    151  N   ASP d   1      45.972   7.844   0.309  0.00  0.00    -0.344 N 
ATOM    152  H96 ASP d   1      46.173   7.231   1.073  0.00  0.00     0.163 HD
BRANCH 151 153
ATOM    153  CA  ASP d   1      44.789   8.696   0.370  0.00  0.00     0.105 C 
ATOM    154  H97 ASP d   1      44.378   8.809  -0.644  0.00  0.00     0.090 H 
BRANCH 153 155
ATOM    155  C   ASP d   1      45.142  10.079   0.918  0.00  0.00     0.197 C 
ATOM    156  O   ASP d   1      46.316  10.326   1.137  0.00  0.00    -0.646 OA
ATOM    157  OXT ASP d   1      44.232  10.869   1.107  0.00  0.00    -0.646 OA
ENDBRANCH 153 155
BRANCH 153 158
ATOM    158  CB  ASP d   1      43.738   8.044   1.268  0.00  0.00     0.044 C 
ATOM    159  H98 ASP d   1      43.838   8.437   2.291  0.00  0.00     0.053 H 
ATOM    160  H99 ASP d   1      43.892   6.955   1.277  0.00  0.00     0.053 H 
BRANCH 158 161
ATOM    161  CG  ASP d   1      42.339   8.352   0.744  0.00  0.00     0.175 C 
ATOM    162  OD1 ASP d   1      42.210   9.275  -0.045  0.00  0.00    -0.648 OA
ATOM    163  OD2 ASP d   1      41.414   7.660   1.140  0.00  0.00    -0.648 OA
ENDBRANCH 158 161
ENDBRANCH 153 158
ENDBRANCH 151 153
ENDBRANCH 147 149
BRANCH 147 164
ATOM    164  CB  ASP d   1      49.108   7.471  -1.540  0.00  0.00     0.043 C 
ATOM    165  H94 ASP d   1      48.742   7.575  -2.572  0.00  0.00     0.052 H 
ATOM    166  H95 ASP d   1      49.955   6.770  -1.521  0.00  0.00     0.052 H 
BRANCH 164 167
ATOM    167  CG  ASP d   1      49.574   8.835  -1.033  0.00  0.00     0.175 C 
ATOM    168  OD1 ASP d   1      49.004   9.320  -0.070  0.00  0.00    -0.648 OA
ATOM    169  OD2 ASP d   1      50.495   9.377  -1.622  0.00  0.00    -0.648 OA
ENDBRANCH 164 167
ENDBRANCH 147 164
ENDBRANCH 145 147
ENDBRANCH 141 143
BRANCH 141 170
ATOM    170  CB  ILE d   1      45.006   3.447  -1.417  0.00  0.00    -0.030 C 
ATOM    171  H83 ILE d   1      44.328   3.785  -0.620  0.00  0.00     0.043 H 
BRANCH 170 172
ATOM    172  CG1 ILE d   1      44.651   2.027  -1.842  0.00  0.00    -0.063 C 
ATOM    173  H84 ILE d   1      44.877   1.333  -1.019  0.00  0.00     0.033 H 
ATOM    174  H85 ILE d   1      45.244   1.752  -2.727  0.00  0.00     0.033 H 
BRANCH 172 175
ATOM    175  CD1 ILE d   1      43.162   1.943  -2.183  0.00  0.00    -0.076 C 
ATOM    176  H89 ILE d   1      42.913   0.916  -2.489  0.00  0.00     0.027 H 
ATOM    177  H90 ILE d   1      42.935   2.636  -3.007  0.00  0.00     0.027 H 
ATOM    178  H91 ILE d   1      42.567   2.217  -1.299  0.00  0.00     0.027 H 
ENDBRANCH 172 175
ENDBRANCH 170 172
BRANCH 170 179
ATOM    179  CG2 ILE d   1      44.886   4.354  -2.629  0.00  0.00    -0.071 C 
ATOM    180  H86 ILE d   1      45.139   5.385  -2.342  0.00  0.00     0.028 H 
ATOM    181  H87 ILE d   1      43.855   4.322  -3.010  0.00  0.00     0.028 H 
ATOM    182  H88 ILE d   1      45.578   4.012  -3.413  0.00  0.00     0.028 H 
ENDBRANCH 170 179
ENDBRANCH 141 170
ENDBRANCH 139 141
ENDBRANCH 135 137
BRANCH 135 183
ATOM    183  CB  TYR d   1      48.878   0.264   1.406  0.00  0.00    -0.014 C 
ATOM    184  H74 TYR d   1      49.368  -0.460   0.738  0.00  0.00     0.043 H 
ATOM    185  H75 TYR d   1      48.951  -0.088   2.446  0.00  0.00     0.043 H 
BRANCH 183 186
ATOM    186  CG  TYR d   1      49.559   1.605   1.280  0.00  0.00    -0.056 A 
ATOM    187  CD1 TYR d   1      49.011   2.741   1.893  0.00  0.00    -0.074 A 
ATOM    188  CE1 TYR d   1      49.656   3.973   1.780  0.00  0.00    -0.051 A 
ATOM    189  H76 TYR d   1      48.087   2.662   2.454  0.00  0.00     0.084 H 
ATOM    190  CZ  TYR d   1      50.846   4.076   1.054  0.00  0.00     0.065 A 
ATOM    191  H78 TYR d   1      49.234   4.851   2.256  0.00  0.00     0.087 H 
ATOM    192  CE2 TYR d   1      51.394   2.943   0.441  0.00  0.00    -0.051 A 
ATOM    193  CD2 TYR d   1      50.750   1.709   0.557  0.00  0.00    -0.074 A 
ATOM    194  H79 TYR d   1      52.316   3.023  -0.123  0.00  0.00     0.087 H 
ATOM    195  H77 TYR d   1      51.175   0.830   0.085  0.00  0.00     0.084 H 
BRANCH 190 196
ATOM    196  OH  TYR d   1      51.483   5.294   0.946  0.00  0.00    -0.361 OA
ATOM    197  H80 TYR d   1      50.985   5.953   1.415  0.00  0.00     0.217 HD
ENDBRANCH 190 196
ENDBRANCH 183 186
ENDBRANCH 135 183
ENDBRANCH 133 135
ENDBRANCH 129 131
BRANCH 129 198
ATOM    198  CB  GLU d   1      44.062  -2.648   0.100  0.00  0.00    -0.029 C 
ATOM    199  H68 GLU d   1      44.141  -1.798  -0.594  0.00  0.00     0.037 H 
ATOM    200  H69 GLU d   1      43.251  -2.460   0.819  0.00  0.00     0.037 H 
BRANCH 198 201
ATOM    201  CG  GLU d   1      43.759  -3.924  -0.689  0.00  0.00     0.018 C 
ATOM    202  H70 GLU d   1      43.880  -4.796  -0.030  0.00  0.00     0.049 H 
ATOM    203  H71 GLU d   1      44.458  -4.003  -1.535  0.00  0.00     0.049 H 
BRANCH 201 204
ATOM    204  CD  GLU d   1      42.329  -3.887  -1.218  0.00  0.00     0.172 C 
ATOM    205  OE1 GLU d   1      41.565  -3.063  -0.745  0.00  0.00    -0.648 OA
ATOM    206  OE2 GLU d   1      42.019  -4.685  -2.088  0.00  0.00    -0.648 OA
ENDBRANCH 201 204
ENDBRANCH 198 201
ENDBRANCH 129 198
ENDBRANCH 127 129
ENDBRANCH 123 125
BRANCH 123 207
ATOM    207  CB  PHE d   1      45.753  -4.523   4.906  0.00  0.00    -0.014 C 
ATOM    208  H59 PHE d   1      45.529  -5.180   5.759  0.00  0.00     0.043 H 
ATOM    209  H60 PHE d   1      44.938  -3.795   4.780  0.00  0.00     0.043 H 
BRANCH 207 210
ATOM    210  CG  PHE d   1      47.048  -3.787   5.165  0.00  0.00    -0.056 A 
ATOM    211  CD1 PHE d   1      47.256  -2.508   4.624  0.00  0.00    -0.077 A 
ATOM    212  CE1 PHE d   1      48.459  -1.828   4.876  0.00  0.00    -0.082 A 
ATOM    213  H61 PHE d   1      46.489  -2.046   4.013  0.00  0.00     0.084 H 
ATOM    214  CZ  PHE d   1      49.447  -2.426   5.666  0.00  0.00    -0.083 A 
ATOM    215  H63 PHE d   1      48.622  -0.841   4.459  0.00  0.00     0.083 H 
ATOM    216  CE2 PHE d   1      49.238  -3.701   6.205  0.00  0.00    -0.082 A 
ATOM    217  H65 PHE d   1      50.375  -1.901   5.861  0.00  0.00     0.083 H 
ATOM    218  CD2 PHE d   1      48.039  -4.380   5.955  0.00  0.00    -0.077 A 
ATOM    219  H64 PHE d   1      50.005  -4.163   6.816  0.00  0.00     0.083 H 
ATOM    220  H62 PHE d   1      47.878  -5.367   6.374  0.00  0.00     0.084 H 
ENDBRANCH 207 210
ENDBRANCH 123 207
ENDBRANCH 121 123
ENDBRANCH   4 119
TORSDOF 52
