REMARK  27 active torsions:
REMARK  status: ('A' for Active; 'I' for Inactive)
REMARK    1  A    between atoms: C6_3  and  N6_35 
REMARK    2  A    between atoms: C1'_7  and  N9_37 
REMARK    3  A    between atoms: C2'_9  and  O2'_40 
REMARK    4  A    between atoms: C3'_10  and  O3'_41 
REMARK    5  A    between atoms: C5'_12  and  C4'_11 
REMARK    6  A    between atoms: O5'_43  and  C5'_12 
REMARK    7  A    between atoms: CAG_19  and  CAC_15 
REMARK    8  A    between atoms: CAE_17  and  CAI_20 
REMARK    9  A    between atoms: SAP_63  and  CAG_19 
REMARK   10  A    between atoms: CAR_25  and  CAQ_24 
REMARK   11  A    between atoms: CAQ_24  and  SAP_63 
REMARK   12  A    between atoms: NAS_38  and  CAR_25 
REMARK   13  A    between atoms: CAU_27  and  CAT_26 
REMARK       I    between atoms: CAT_26  and  NAS_38 
REMARK   14  A    between atoms: CAV_28  and  CAU_27 
REMARK   15  A    between atoms: NAW_39  and  CAV_28 
REMARK   16  A    between atoms: CAY_30  and  CAX_29 
REMARK       I    between atoms: CAX_29  and  NAW_39 
REMARK   17  A    between atoms: CAZ_31  and  CAY_30 
REMARK   18  A    between atoms: CAY_30  and  OBL_52 
REMARK   19  A    between atoms: CBA_32  and  CAZ_31 
REMARK   20  A    between atoms: CAZ_31  and  CBM_33 
REMARK   21  A    between atoms: CAZ_31  and  CBN_34 
REMARK   22  A    between atoms: OBB_48  and  CBA_32 
REMARK   23  A    between atoms: O3'_41  and  PCH_62 
REMARK   24  A    between atoms: PBE_61  and  O5'_43 
REMARK   25  A    between atoms: PBC_60  and  OBB_48 
REMARK   26  A    between atoms: OBD_49  and  PBC_60 
REMARK   27  A    between atoms: OBD_49  and  PBE_61 
ROOT
ATOM      1  CAZ F8G d   1     -28.397   6.287 -21.131  0.00  0.00     0.009 C 
ENDROOT
BRANCH   1   2
ATOM      2  CAY F8G d   1     -26.997   5.805 -20.733  0.00  0.00     0.120 C 
ATOM      3  H30 F8G d   1     -26.761   4.907 -21.323  0.00  0.00     0.099 H 
BRANCH   2   4
ATOM      4  CAX F8G d   1     -26.915   5.444 -19.272  0.00  0.00     0.247 C 
ATOM      5  NAW F8G d   1     -26.857   4.152 -18.968  0.00  0.00    -0.358 N 
ATOM      6  H42 F8G d   1     -26.819   3.464 -19.692  0.00  0.00     0.162 HD
ATOM      7  OBK F8G d   1     -26.887   6.299 -18.399  0.00  0.00    -0.271 OA
BRANCH   5   8
ATOM      8  CAV F8G d   1     -26.850   3.749 -17.568  0.00  0.00     0.003 C 
ATOM      9  H28 F8G d   1     -27.385   4.504 -16.973  0.00  0.00     0.064 H 
ATOM     10  H29 F8G d   1     -27.358   2.778 -17.470  0.00  0.00     0.064 H 
BRANCH   8  11
ATOM     11  CAU F8G d   1     -25.424   3.621 -17.045  0.00  0.00     0.024 C 
ATOM     12  H26 F8G d   1     -24.913   2.836 -17.622  0.00  0.00     0.049 H 
ATOM     13  H27 F8G d   1     -24.911   4.582 -17.198  0.00  0.00     0.049 H 
BRANCH  11  14
ATOM     14  CAT F8G d   1     -25.340   3.264 -15.573  0.00  0.00     0.219 C 
ATOM     15  NAS F8G d   1     -24.215   2.652 -15.218  0.00  0.00    -0.360 N 
ATOM     16  H41 F8G d   1     -23.582   2.339 -15.926  0.00  0.00     0.162 HD
ATOM     17  OBJ F8G d   1     -26.227   3.527 -14.771  0.00  0.00    -0.274 OA
BRANCH  15  18
ATOM     18  CAR F8G d   1     -23.891   2.431 -13.829  0.00  0.00     0.003 C 
ATOM     19  H24 F8G d   1     -22.798   2.472 -13.708  0.00  0.00     0.065 H 
ATOM     20  H25 F8G d   1     -24.357   3.224 -13.225  0.00  0.00     0.065 H 
BRANCH  18  21
ATOM     21  CAQ F8G d   1     -24.388   1.083 -13.336  0.00  0.00    -0.001 C 
ATOM     22  H22 F8G d   1     -24.002   0.289 -13.992  0.00  0.00     0.052 H 
ATOM     23  H23 F8G d   1     -25.488   1.071 -13.352  0.00  0.00     0.052 H 
BRANCH  21  24
ATOM     24  SAP F8G d   1     -23.823   0.807 -11.687  0.00  0.00    -0.090 SA
BRANCH  24  25
ATOM     25  CAG F8G d   1     -22.253   0.240 -11.869  0.00  0.00     0.200 C 
ATOM     26  OAJ F8G d   1     -21.824   0.163 -13.014  0.00  0.00    -0.285 OA
BRANCH  25  27
ATOM     27  CAC F8G d   1     -21.382  -0.171 -10.754  0.00  0.00     0.102 C 
ATOM     28  CAB F8G d   1     -21.853  -0.171  -9.490  0.00  0.00     0.142 C 
ATOM     29  CAA F8G d   1     -21.214  -0.955  -8.371  0.00  0.00    -0.008 C 
ATOM     30  OAH F8G d   1     -22.830   0.478  -9.178  0.00  0.00    -0.297 OA
ATOM     31  CAF F8G d   1     -20.096  -1.847  -8.868  0.00  0.00    -0.053 C 
ATOM     32  H9  F8G d   1     -21.982  -1.581  -7.893  0.00  0.00     0.044 H 
ATOM     33  H10 F8G d   1     -20.804  -0.250  -7.633  0.00  0.00     0.044 H 
ATOM     34  CAE F8G d   1     -19.221  -1.022  -9.788  0.00  0.00    -0.025 C 
ATOM     35  H13 F8G d   1     -20.516  -2.702  -9.418  0.00  0.00     0.034 H 
ATOM     36  H14 F8G d   1     -19.503  -2.214  -8.017  0.00  0.00     0.034 H 
ATOM     37  CAD F8G d   1     -19.972  -0.652 -11.065  0.00  0.00     0.092 A 
ATOM     38  H12 F8G d   1     -18.960  -0.087  -9.271  0.00  0.00     0.044 H 
ATOM     39  CAK F8G d   1     -19.121   0.318 -11.912  0.00  0.00    -0.026 A 
ATOM     40  OAO F8G d   1     -20.112  -1.835 -11.841  0.00  0.00    -0.308 OA
ATOM     41  CAL F8G d   1     -18.841  -0.333 -13.278  0.00  0.00     0.019 A 
ATOM     42  H18 F8G d   1     -18.170   0.522 -11.398  0.00  0.00     0.038 H 
ATOM     43  H19 F8G d   1     -19.669   1.261 -12.057  0.00  0.00     0.038 H 
ATOM     44  CAM F8G d   1     -19.555  -1.656 -13.153  0.00  0.00     0.259 A 
ATOM     45  H20 F8G d   1     -17.762  -0.476 -13.438  0.00  0.00     0.048 H 
ATOM     46  H21 F8G d   1     -19.257   0.269 -14.099  0.00  0.00     0.048 H 
ATOM     47  OAN F8G d   1     -19.690  -2.512 -14.000  0.00  0.00    -0.265 OA
ATOM     48  H11 F8G d   1     -21.020   0.861 -10.631  0.00  0.00     0.069 H 
BRANCH  34  49
ATOM     49  CAI F8G d   1     -17.932  -1.780 -10.068  0.00  0.00    -0.070 C 
ATOM     50  H15 F8G d   1     -17.294  -1.183 -10.736  0.00  0.00     0.028 H 
ATOM     51  H16 F8G d   1     -18.169  -2.741 -10.548  0.00  0.00     0.028 H 
ATOM     52  H17 F8G d   1     -17.402  -1.964  -9.122  0.00  0.00     0.028 H 
ENDBRANCH  34  49
ENDBRANCH  25  27
ENDBRANCH  24  25
ENDBRANCH  21  24
ENDBRANCH  18  21
ENDBRANCH  15  18
ENDBRANCH  11  14
ENDBRANCH   8  11
ENDBRANCH   5   8
ENDBRANCH   2   4
BRANCH   2  53
ATOM     53  OBL F8G d   1     -26.033   6.824 -21.040  0.00  0.00    -0.385 OA
ATOM     54  H44 F8G d   1     -25.166   6.523 -20.793  0.00  0.00     0.210 HD
ENDBRANCH   2  53
ENDBRANCH   1   2
BRANCH   1  55
ATOM     55  CBA F8G d   1     -28.454   6.439 -22.644  0.00  0.00     0.041 C 
ATOM     56  H31 F8G d   1     -27.753   7.219 -22.975  0.00  0.00     0.076 H 
ATOM     57  H32 F8G d   1     -29.473   6.703 -22.962  0.00  0.00     0.076 H 
BRANCH  55  58
ATOM     58  OBB F8G d   1     -28.081   5.182 -23.187  0.00  0.00    -0.289 OA
BRANCH  58  59
ATOM     59  PBC F8G d   1     -27.941   5.005 -24.778  0.00  0.00     0.417 P 
ATOM     60  OBO F8G d   1     -27.282   3.674 -25.029  0.00  0.00    -0.624 OA
ATOM     61  OBP F8G d   1     -27.159   6.148 -25.381  0.00  0.00    -0.624 OA
BRANCH  59  62
ATOM     62  OBD F8G d   1     -29.429   4.843 -25.372  0.00  0.00    -0.180 OA
BRANCH  62  63
ATOM     63  PBE F8G d   1     -30.511   5.982 -25.703  0.00  0.00     0.417 P 
ATOM     64  OBQ F8G d   1     -29.928   7.370 -25.603  0.00  0.00    -0.624 OA
ATOM     65  OBR F8G d   1     -31.713   5.806 -24.806  0.00  0.00    -0.624 OA
BRANCH  63  66
ATOM     66  O5' F8G d   1     -30.968   5.652 -27.202  0.00  0.00    -0.287 OA
BRANCH  66  67
ATOM     67  C5' F8G d   1     -31.368   4.310 -27.463  0.00  0.00     0.058 C 
ATOM     68  H7  F8G d   1     -30.914   3.637 -26.721  0.00  0.00     0.079 H 
ATOM     69  H8  F8G d   1     -32.464   4.232 -27.407  0.00  0.00     0.079 H 
BRANCH  67  70
ATOM     70  C4' F8G d   1     -30.900   3.928 -28.851  0.00  0.00     0.090 C 
ATOM     71  C3' F8G d   1     -31.631   4.749 -29.880  0.00  0.00     0.107 C 
ATOM     72  C2' F8G d   1     -32.853   3.910 -30.177  0.00  0.00     0.106 C 
ATOM     73  H5  F8G d   1     -31.888   5.761 -29.533  0.00  0.00     0.092 H 
ATOM     74  C1' F8G d   1     -32.267   2.513 -30.128  0.00  0.00     0.140 C 
ATOM     75  H4  F8G d   1     -33.628   4.044 -29.408  0.00  0.00     0.093 H 
ATOM     76  O4' F8G d   1     -31.256   2.574 -29.121  0.00  0.00    -0.353 OA
ATOM     77  H2  F8G d   1     -31.834   2.264 -31.108  0.00  0.00     0.122 H 
ATOM     78  H6  F8G d   1     -29.813   4.072 -28.935  0.00  0.00     0.090 H 
BRANCH  71  79
ATOM     79  O3' F8G d   1     -30.777   4.773 -31.010  0.00  0.00    -0.272 OA
BRANCH  79  80
ATOM     80  PCH F8G d   1     -30.756   6.068 -31.949  0.00  0.00     0.422 P 
ATOM     81  OCI F8G d   1     -29.692   5.897 -33.005  0.00  0.00    -0.617 OA
ATOM     82  OCJ F8G d   1     -32.124   6.160 -32.578  0.00  0.00    -0.617 OA
ATOM     83  OCK F8G d   1     -30.463   7.272 -31.085  0.00  0.00    -0.617 OA
ENDBRANCH  79  80
ENDBRANCH  71  79
BRANCH  72  84
ATOM     84  O2' F8G d   1     -33.405   4.220 -31.459  0.00  0.00    -0.388 OA
ATOM     85  H43 F8G d   1     -32.755   4.053 -32.131  0.00  0.00     0.210 HD
ENDBRANCH  72  84
BRANCH  74  86
ATOM     86  N9  F8G d   1     -33.214   1.444 -29.734  0.00  0.00    -0.294 N 
ATOM     87  C4  F8G d   1     -33.195   0.227 -30.270  0.00  0.00     0.167 A 
ATOM     88  C5  F8G d   1     -34.257  -0.536 -29.600  0.00  0.00     0.149 A 
ATOM     89  N3  F8G d   1     -32.440  -0.347 -31.236  0.00  0.00    -0.222 NA
ATOM     90  C6  F8G d   1     -34.472  -1.943 -30.015  0.00  0.00     0.155 A 
ATOM     91  N7  F8G d   1     -34.816   0.302 -28.703  0.00  0.00    -0.236 NA
ATOM     92  N1  F8G d   1     -33.691  -2.473 -30.985  0.00  0.00    -0.222 NA
ATOM     93  C2  F8G d   1     -32.622  -1.735 -31.673  0.00  0.00     0.091 A 
ATOM     94  H3  F8G d   1     -32.012  -2.185 -32.448  0.00  0.00     0.146 H 
ATOM     95  C8  F8G d   1     -34.170   1.494 -28.789  0.00  0.00     0.071 A 
ATOM     96  H1  F8G d   1     -34.395   2.367 -28.179  0.00  0.00     0.144 H 
BRANCH  90  97
ATOM     97  N6  F8G d   1     -35.438  -2.691 -29.430  0.00  0.00    -0.382 N 
ATOM     98  H39 F8G d   1     -35.581  -3.668 -29.724  0.00  0.00     0.157 HD
ATOM     99  H40 F8G d   1     -36.029  -2.283 -28.692  0.00  0.00     0.157 HD
ENDBRANCH  90  97
ENDBRANCH  74  86
ENDBRANCH  67  70
ENDBRANCH  66  67
ENDBRANCH  63  66
ENDBRANCH  62  63
ENDBRANCH  59  62
ENDBRANCH  58  59
ENDBRANCH  55  58
ENDBRANCH   1  55
BRANCH   1 100
ATOM    100  CBM F8G d   1     -29.426   5.249 -20.708  0.00  0.00    -0.065 C 
ATOM    101  H33 F8G d   1     -29.397   5.128 -19.615  0.00  0.00     0.028 H 
ATOM    102  H34 F8G d   1     -29.196   4.287 -21.190  0.00  0.00     0.028 H 
ATOM    103  H35 F8G d   1     -30.429   5.582 -21.013  0.00  0.00     0.028 H 
ENDBRANCH   1 100
BRANCH   1 104
ATOM    104  CBN F8G d   1     -28.731   7.639 -20.512  0.00  0.00    -0.065 C 
ATOM    105  H36 F8G d   1     -27.981   8.381 -20.825  0.00  0.00     0.028 H 
ATOM    106  H37 F8G d   1     -28.726   7.552 -19.416  0.00  0.00     0.028 H 
ATOM    107  H38 F8G d   1     -29.727   7.961 -20.849  0.00  0.00     0.028 H 
ENDBRANCH   1 104
TORSDOF 27
