REMARK  8 active torsions:
REMARK  status: ('A' for Active; 'I' for Inactive)
REMARK    1  A    between atoms: N02_19  and  C01_1 
REMARK    2  A    between atoms: N02_19  and  C03_2 
REMARK    3  A    between atoms: C05_4  and  C04_3 
REMARK    4  A    between atoms: C04_3  and  N02_19 
REMARK    5  A    between atoms: C06_5  and  C05_4 
REMARK    6  A    between atoms: C07_6  and  C06_5 
REMARK    7  A    between atoms: C14_11  and  N15_21 
REMARK    8  A    between atoms: C16_12  and  C17_13 
ROOT
ATOM      1  C07 F8M d   1     107.912 -10.370   5.746  0.00  0.00    -0.057 A 
ATOM      2  C08 F8M d   1     107.570  -9.283   4.920  0.00  0.00    -0.074 A 
ATOM      3  C09 F8M d   1     107.419  -9.379   3.539  0.00  0.00    -0.049 A 
ATOM      4  C10 F8M d   1     107.599 -10.599   2.846  0.00  0.00     0.092 A 
ATOM      5  C12 F8M d   1     107.576 -11.854   0.768  0.00  0.00     0.186 A 
ATOM      6  C14 F8M d   1     107.486 -12.953  -1.324  0.00  0.00     0.141 A 
ATOM      7  C16 F8M d   1     107.831 -14.206  -0.736  0.00  0.00     0.087 A 
ATOM      8  C20 F8M d   1     108.040 -14.207   0.622  0.00  0.00    -0.045 A 
ATOM      9  C21 F8M d   1     107.921 -13.030   1.438  0.00  0.00     0.069 A 
ATOM     10  C22 F8M d   1     108.127 -12.991   2.883  0.00  0.00     0.199 A 
ATOM     11  C24 F8M d   1     107.941 -11.708   3.628  0.00  0.00     0.049 A 
ATOM     12  C25 F8M d   1     108.087 -11.575   5.039  0.00  0.00    -0.060 A 
ATOM     13  N13 F8M d   1     107.353 -11.766  -0.592  0.00  0.00    -0.205 NA
ATOM     14  O11 F8M d   1     107.436 -10.645   1.474  0.00  0.00    -0.290 OA
ATOM     15  O23 F8M d   1     108.446 -13.998   3.520  0.00  0.00    -0.286 OA
ATOM     16  H13 F8M d   1     107.415  -8.316   5.385  0.00  0.00     0.084 H 
ATOM     17  H14 F8M d   1     107.155  -8.490   2.977  0.00  0.00     0.087 H 
ATOM     18  H15 F8M d   1     108.308 -15.142   1.101  0.00  0.00     0.087 H 
ATOM     19  H16 F8M d   1     108.350 -12.460   5.606  0.00  0.00     0.086 H 
ENDROOT
BRANCH   1  20
ATOM     20  C06 F8M d   1     108.069 -10.228   7.295  0.00  0.00    -0.040 C 
ATOM     21  H11 F8M d   1     108.502 -11.167   7.671  0.00  0.00     0.040 H 
ATOM     22  H12 F8M d   1     108.770  -9.401   7.482  0.00  0.00     0.040 H 
BRANCH  20  23
ATOM     23  C05 F8M d   1     106.761  -9.940   8.132  0.00  0.00    -0.039 C 
ATOM     24  H9  F8M d   1     106.082 -10.793   7.988  0.00  0.00     0.035 H 
ATOM     25  H10 F8M d   1     107.053  -9.878   9.191  0.00  0.00     0.035 H 
BRANCH  23  26
ATOM     26  C04 F8M d   1     105.953  -8.628   7.786  0.00  0.00     0.083 C 
ATOM     27  H7  F8M d   1     105.069  -8.914   7.198  0.00  0.00     0.075 H 
ATOM     28  H8  F8M d   1     106.600  -7.975   7.182  0.00  0.00     0.075 H 
BRANCH  26  29
ATOM     29  N02 F8M d   1     105.480  -7.836   9.008  0.00  0.00    -0.079 N 
ATOM     30  H17 F8M d   1     106.111  -7.060   9.134  0.00  0.00     0.278 HD
BRANCH  29  31
ATOM     31  C01 F8M d   1     105.484  -8.663  10.253  0.00  0.00     0.066 C 
ATOM     32  H1  F8M d   1     105.138  -8.052  11.100  0.00  0.00     0.068 H 
ATOM     33  H2  F8M d   1     106.505  -9.021  10.452  0.00  0.00     0.068 H 
ATOM     34  H3  F8M d   1     104.812  -9.524  10.123  0.00  0.00     0.068 H 
ENDBRANCH  29  31
BRANCH  29  35
ATOM     35  C03 F8M d   1     104.093  -7.303   8.833  0.00  0.00     0.066 C 
ATOM     36  H4  F8M d   1     104.049  -6.686   7.923  0.00  0.00     0.068 H 
ATOM     37  H5  F8M d   1     103.823  -6.689   9.705  0.00  0.00     0.068 H 
ATOM     38  H6  F8M d   1     103.387  -8.141   8.742  0.00  0.00     0.068 H 
ENDBRANCH  29  35
ENDBRANCH  26  29
ENDBRANCH  23  26
ENDBRANCH  20  23
ENDBRANCH   1  20
BRANCH   7  39
ATOM     39  C17 F8M d   1     107.959 -15.469  -1.636  0.00  0.00     0.213 C 
ATOM     40  O18 F8M d   1     107.671 -15.331  -2.838  0.00  0.00    -0.644 OA
ATOM     41  O19 F8M d   1     108.346 -16.516  -1.094  0.00  0.00    -0.644 OA
ENDBRANCH   7  39
BRANCH   6  42
ATOM     42  N15 F8M d   1     107.270 -12.919  -2.694  0.00  0.00    -0.383 N 
ATOM     43  H18 F8M d   1     107.019 -12.032  -3.154  0.00  0.00     0.157 HD
ATOM     44  H19 F8M d   1     107.361 -13.781  -3.251  0.00  0.00     0.157 HD
ENDBRANCH   6  42
TORSDOF 8
