REMARK  3 active torsions:
REMARK  status: ('A' for Active; 'I' for Inactive)
REMARK    1  A    between atoms: C02_1  and  N01_22 
REMARK    2  A    between atoms: C09_6  and  C10_7 
REMARK    3  A    between atoms: C24_18  and  C25_19 
ROOT
ATOM      1  C02 F8P d   1     107.089 -13.241  -1.865  0.00  0.00     0.141 A 
ATOM      2  C04 F8P d   1     107.152 -12.089   0.279  0.00  0.00     0.186 A 
ATOM      3  C06 F8P d   1     107.151 -10.769   2.427  0.00  0.00     0.092 A 
ATOM      4  C07 F8P d   1     106.946  -9.533   3.142  0.00  0.00    -0.049 A 
ATOM      5  C08 F8P d   1     107.129  -9.440   4.556  0.00  0.00    -0.074 A 
ATOM      6  C09 F8P d   1     107.529 -10.564   5.324  0.00  0.00    -0.053 A 
ATOM      7  C18 F8P d   1     107.732 -11.776   4.610  0.00  0.00    -0.060 A 
ATOM      8  C19 F8P d   1     107.548 -11.890   3.178  0.00  0.00     0.049 A 
ATOM      9  C20 F8P d   1     107.760 -13.166   2.407  0.00  0.00     0.199 A 
ATOM     10  C22 F8P d   1     107.555 -13.255   0.959  0.00  0.00     0.069 A 
ATOM     11  C23 F8P d   1     107.722 -14.463   0.157  0.00  0.00    -0.045 A 
ATOM     12  C24 F8P d   1     107.499 -14.476  -1.227  0.00  0.00     0.087 A 
ATOM     13  N03 F8P d   1     106.920 -12.066  -1.109  0.00  0.00    -0.205 NA
ATOM     14  O05 F8P d   1     106.969 -10.873   1.033  0.00  0.00    -0.290 OA
ATOM     15  O21 F8P d   1     108.122 -14.185   3.050  0.00  0.00    -0.286 OA
ATOM     16  H1  F8P d   1     106.644  -8.650   2.591  0.00  0.00     0.087 H 
ATOM     17  H2  F8P d   1     106.959  -8.491   5.052  0.00  0.00     0.084 H 
ATOM     18  H12 F8P d   1     108.039 -12.656   5.163  0.00  0.00     0.086 H 
ATOM     19  H13 F8P d   1     108.028 -15.380   0.647  0.00  0.00     0.087 H 
ENDROOT
BRANCH   6  20
ATOM     20  C10 F8P d   1     107.747 -10.478   6.889  0.00  0.00    -0.028 C 
ATOM     21  C11 F8P d   1     107.440 -11.935   7.356  0.00  0.00    -0.053 C 
ATOM     22  C12 F8P d   1     107.703 -12.174   8.862  0.00  0.00    -0.003 C 
ATOM     23  H4  F8P d   1     108.073 -12.625   6.779  0.00  0.00     0.034 H 
ATOM     24  H5  F8P d   1     106.381 -12.150   7.150  0.00  0.00     0.034 H 
ATOM     25  C13 F8P d   1     107.860 -10.864   9.627  0.00  0.00     0.243 C 
ATOM     26  H6  F8P d   1     108.625 -12.763   8.973  0.00  0.00     0.041 H 
ATOM     27  H7  F8P d   1     106.857 -12.734   9.286  0.00  0.00     0.041 H 
ATOM     28  C16 F8P d   1     106.880  -9.747   9.282  0.00  0.00    -0.003 C 
ATOM     29  F14 F8P d   1     109.200 -10.403   9.596  0.00  0.00    -0.206 F 
ATOM     30  F15 F8P d   1     107.853 -11.106  11.033  0.00  0.00    -0.206 F 
ATOM     31  C17 F8P d   1     106.939  -9.427   7.773  0.00  0.00    -0.053 C 
ATOM     32  H8  F8P d   1     107.142  -8.845   9.854  0.00  0.00     0.041 H 
ATOM     33  H9  F8P d   1     105.861 -10.065   9.546  0.00  0.00     0.041 H 
ATOM     34  H10 F8P d   1     105.907  -9.384   7.393  0.00  0.00     0.034 H 
ATOM     35  H11 F8P d   1     107.415  -8.443   7.652  0.00  0.00     0.034 H 
ATOM     36  H3  F8P d   1     108.811 -10.256   7.058  0.00  0.00     0.047 H 
ENDBRANCH   6  20
BRANCH  12  37
ATOM     37  C25 F8P d   1     107.683 -15.774  -2.095  0.00  0.00     0.213 C 
ATOM     38  O26 F8P d   1     107.341 -15.783  -3.310  0.00  0.00    -0.644 OA
ATOM     39  O27 F8P d   1     108.187 -16.823  -1.538  0.00  0.00    -0.644 OA
ENDBRANCH  12  37
BRANCH   1  40
ATOM     40  N01 F8P d   1     106.847 -13.200  -3.292  0.00  0.00    -0.383 N 
ATOM     41  H14 F8P d   1     106.556 -12.319  -3.740  0.00  0.00     0.157 HD
ATOM     42  H15 F8P d   1     106.966 -14.052  -3.859  0.00  0.00     0.157 HD
ENDBRANCH   1  40
TORSDOF 3
