REMARK  3 active torsions:
REMARK  status: ('A' for Active; 'I' for Inactive)
REMARK    1  A    between atoms: C02_1  and  N01_19 
REMARK    2  A    between atoms: C09_6  and  C10_7 
REMARK    3  A    between atoms: C24_17  and  C25_18 
ROOT
ATOM      1  C02 F8S d   1      -2.303 -30.391 -15.808  0.00  0.00     0.141 A 
ATOM      2  C04 F8S d   1      -3.211 -29.740 -13.685  0.00  0.00     0.186 A 
ATOM      3  C06 F8S d   1      -4.254 -29.110 -11.560  0.00  0.00     0.092 A 
ATOM      4  C07 F8S d   1      -5.406 -28.680 -10.828  0.00  0.00    -0.049 A 
ATOM      5  C08 F8S d   1      -5.361 -28.524  -9.441  0.00  0.00    -0.074 A 
ATOM      6  C09 F8S d   1      -4.202 -28.764  -8.681  0.00  0.00    -0.053 A 
ATOM      7  C18 F8S d   1      -3.086 -29.179  -9.423  0.00  0.00    -0.060 A 
ATOM      8  C19 F8S d   1      -3.110 -29.350 -10.834  0.00  0.00     0.049 A 
ATOM      9  C20 F8S d   1      -1.896 -29.794 -11.589  0.00  0.00     0.199 A 
ATOM     10  C22 F8S d   1      -2.013 -30.003 -13.043  0.00  0.00     0.069 A 
ATOM     11  C23 F8S d   1      -0.928 -30.484 -13.841  0.00  0.00    -0.045 A 
ATOM     12  C24 F8S d   1      -1.040 -30.686 -15.202  0.00  0.00     0.087 A 
ATOM     13  N03 F8S d   1      -3.401 -29.916 -15.049  0.00  0.00    -0.205 NA
ATOM     14  O05 F8S d   1      -4.325 -29.262 -12.945  0.00  0.00    -0.290 OA
ATOM     15  O21 F8S d   1      -0.863 -29.977 -11.008  0.00  0.00    -0.286 OA
ATOM     16  H1  F8S d   1      -6.328 -28.472 -11.358  0.00  0.00     0.087 H 
ATOM     17  H2  F8S d   1      -6.260 -28.203  -8.927  0.00  0.00     0.084 H 
ATOM     18  H12 F8S d   1      -2.161 -29.379  -8.895  0.00  0.00     0.086 H 
ATOM     19  H13 F8S d   1       0.019 -30.698 -13.358  0.00  0.00     0.087 H 
ENDROOT
BRANCH   6  20
ATOM     20  C10 F8S d   1      -4.167 -28.583  -7.146  0.00  0.00    -0.027 C 
ATOM     21  C11 F8S d   1      -5.551 -28.911  -6.448  0.00  0.00    -0.046 C 
ATOM     22  C12 F8S d   1      -5.579 -28.728  -4.933  0.00  0.00     0.029 C 
ATOM     23  H4  F8S d   1      -5.802 -29.959  -6.668  0.00  0.00     0.035 H 
ATOM     24  H5  F8S d   1      -6.316 -28.251  -6.884  0.00  0.00     0.035 H 
ATOM     25  S13 F8S d   1      -4.066 -28.425  -4.203  0.00  0.00     0.144 S 
ATOM     26  H6  F8S d   1      -5.993 -29.645  -4.488  0.00  0.00     0.056 H 
ATOM     27  H7  F8S d   1      -6.241 -27.879  -4.706  0.00  0.00     0.056 H 
ATOM     28  C16 F8S d   1      -3.065 -29.512  -5.044  0.00  0.00     0.029 C 
ATOM     29  O14 F8S d   1      -4.124 -28.874  -2.852  0.00  0.00    -0.228 OA
ATOM     30  O15 F8S d   1      -3.647 -27.087  -4.407  0.00  0.00    -0.228 OA
ATOM     31  C17 F8S d   1      -2.936 -29.308  -6.555  0.00  0.00    -0.046 C 
ATOM     32  H8  F8S d   1      -2.056 -29.437  -4.611  0.00  0.00     0.056 H 
ATOM     33  H9  F8S d   1      -3.461 -30.525  -4.878  0.00  0.00     0.056 H 
ATOM     34  H10 F8S d   1      -2.038 -28.706  -6.757  0.00  0.00     0.035 H 
ATOM     35  H11 F8S d   1      -2.836 -30.291  -7.039  0.00  0.00     0.035 H 
ATOM     36  H3  F8S d   1      -3.999 -27.511  -6.965  0.00  0.00     0.047 H 
ENDBRANCH   6  20
BRANCH  12  37
ATOM     37  C25 F8S d   1       0.138 -31.206 -16.087  0.00  0.00     0.213 C 
ATOM     38  O26 F8S d   1       1.249 -31.373 -15.542  0.00  0.00    -0.644 OA
ATOM     39  O27 F8S d   1      -0.114 -31.416 -17.291  0.00  0.00    -0.644 OA
ENDBRANCH  12  37
BRANCH   1  40
ATOM     40  N01 F8S d   1      -2.466 -30.574 -17.165  0.00  0.00    -0.383 N 
ATOM     41  H14 F8S d   1      -3.372 -30.364 -17.608  0.00  0.00     0.157 HD
ATOM     42  H15 F8S d   1      -1.682 -30.921 -17.736  0.00  0.00     0.157 HD
ENDBRANCH   1  40
TORSDOF 3
