REMARK  7 active torsions:
REMARK  status: ('A' for Active; 'I' for Inactive)
REMARK    1  A    between atoms: N13_18  and  C7_3 
REMARK    2  A    between atoms: C2_12  and  C1_11 
REMARK    3  A    between atoms: C2_12  and  C3_13 
REMARK    4  A    between atoms: N4_14  and  C2_12 
REMARK    5  A    between atoms: C14_19  and  N13_18 
REMARK    6  A    between atoms: C16_20  and  C27_28 
REMARK    7  A    between atoms: C18_22  and  N20_24 
ROOT
ATOM      1  C15 F97 d   1     -34.512 -16.173 -19.416  0.00  0.00    -0.014 A 
ATOM      2  C14 F97 d   1     -33.972 -14.895 -19.216  0.00  0.00     0.134 A 
ATOM      3  C16 F97 d   1     -35.257 -16.767 -18.417  0.00  0.00     0.047 A 
ATOM      4  N17 F97 d   1     -35.452 -16.093 -17.293  0.00  0.00    -0.223 NA
ATOM      5  C18 F97 d   1     -34.935 -14.886 -17.124  0.00  0.00     0.206 A 
ATOM      6  N19 F97 d   1     -34.214 -14.286 -18.062  0.00  0.00    -0.201 NA
ATOM      7  H2  F97 d   1     -34.345 -16.693 -20.352  0.00  0.00     0.092 H 
ENDROOT
BRANCH   2   8
ATOM      8  N13 F97 d   1     -33.226 -14.346 -20.254  0.00  0.00    -0.326 N 
ATOM      9  H20 F97 d   1     -33.375 -14.780 -21.176  0.00  0.00     0.169 HD
BRANCH   8  10
ATOM     10  C7  F97 d   1     -32.307 -13.297 -20.235  0.00  0.00     0.131 A 
ATOM     11  C6  F97 d   1     -32.074 -12.494 -19.127  0.00  0.00    -0.010 A 
ATOM     12  C5  F97 d   1     -31.137 -11.466 -19.230  0.00  0.00     0.070 A 
ATOM     13  H1  F97 d   1     -32.610 -12.663 -18.200  0.00  0.00     0.093 H 
ATOM     14  C10 F97 d   1     -30.471 -11.288 -20.464  0.00  0.00     0.029 A 
ATOM     15  N4  F97 d   1     -30.649 -10.502 -18.390  0.00  0.00    -0.265 N 
ATOM     16  C9  F97 d   1     -30.768 -12.138 -21.529  0.00  0.00     0.018 A 
ATOM     17  C11 F97 d   1     -29.562 -10.163 -20.286  0.00  0.00     0.035 A 
ATOM     18  N8  F97 d   1     -31.659 -13.090 -21.376  0.00  0.00    -0.242 NA
ATOM     19  H18 F97 d   1     -30.264 -12.013 -22.481  0.00  0.00     0.116 H 
ATOM     20  N12 F97 d   1     -29.696  -9.737 -19.066  0.00  0.00    -0.183 NA
ATOM     21  H19 F97 d   1     -28.891  -9.753 -21.040  0.00  0.00     0.118 H 
BRANCH  15  22
ATOM     22  C2  F97 d   1     -31.040 -10.300 -16.993  0.00  0.00     0.028 C 
ATOM     23  H14 F97 d   1     -32.052 -10.697 -16.821  0.00  0.00     0.074 H 
BRANCH  22  24
ATOM     24  C1  F97 d   1     -31.000  -8.804 -16.672  0.00  0.00    -0.056 C 
ATOM     25  H11 F97 d   1     -31.293  -8.646 -15.623  0.00  0.00     0.030 H 
ATOM     26  H12 F97 d   1     -31.698  -8.268 -17.332  0.00  0.00     0.030 H 
ATOM     27  H13 F97 d   1     -29.980  -8.422 -16.829  0.00  0.00     0.030 H 
ENDBRANCH  22  24
BRANCH  22  28
ATOM     28  C3  F97 d   1     -30.030 -11.022 -16.100  0.00  0.00    -0.056 C 
ATOM     29  H15 F97 d   1     -30.049 -12.099 -16.321  0.00  0.00     0.030 H 
ATOM     30  H16 F97 d   1     -30.293 -10.860 -15.044  0.00  0.00     0.030 H 
ATOM     31  H17 F97 d   1     -29.022 -10.626 -16.292  0.00  0.00     0.030 H 
ENDBRANCH  22  28
ENDBRANCH  15  22
ENDBRANCH   8  10
ENDBRANCH   2   8
BRANCH   3  32
ATOM     32  C27 F97 d   1     -35.832 -18.155 -18.606  0.00  0.00     0.013 C 
ATOM     33  C28 F97 d   1     -37.260 -18.113 -19.217  0.00  0.00    -0.033 C 
ATOM     34  C29 F97 d   1     -37.993 -19.246 -18.457  0.00  0.00     0.082 C 
ATOM     35  H9  F97 d   1     -37.234 -18.314 -20.298  0.00  0.00     0.036 H 
ATOM     36  H10 F97 d   1     -37.740 -17.140 -19.036  0.00  0.00     0.036 H 
ATOM     37  N30 F97 d   1     -37.441 -19.156 -17.091  0.00  0.00    -0.074 N 
ATOM     38  H22 F97 d   1     -37.775 -20.226 -18.906  0.00  0.00     0.075 H 
ATOM     39  H23 F97 d   1     -39.080 -19.078 -18.454  0.00  0.00     0.075 H 
ATOM     40  C31 F97 d   1     -36.009 -18.850 -17.236  0.00  0.00     0.090 C 
ATOM     41  H24 F97 d   1     -37.562 -20.033 -16.608  0.00  0.00     0.277 HD
ATOM     42  H25 F97 d   1     -37.903 -18.422 -16.577  0.00  0.00     0.277 HD
ATOM     43  H26 F97 d   1     -35.682 -18.180 -16.427  0.00  0.00     0.076 H 
ATOM     44  H27 F97 d   1     -35.419 -19.778 -17.204  0.00  0.00     0.076 H 
ATOM     45  H21 F97 d   1     -35.160 -18.739 -19.252  0.00  0.00     0.052 H 
ENDBRANCH   3  32
BRANCH   5  46
ATOM     46  N20 F97 d   1     -35.178 -14.229 -15.937  0.00  0.00    -0.245 NA
ATOM     47  C21 F97 d   1     -35.094 -15.113 -14.764  0.00  0.00    -0.008 C 
ATOM     48  C22 F97 d   1     -34.906 -14.147 -13.564  0.00  0.00     0.008 C 
ATOM     49  H3  F97 d   1     -36.018 -15.698 -14.651  0.00  0.00     0.056 H 
ATOM     50  H4  F97 d   1     -34.236 -15.796 -14.852  0.00  0.00     0.056 H 
ATOM     51  C23 F97 d   1     -34.560 -12.783 -14.221  0.00  0.00     0.256 C 
ATOM     52  H5  F97 d   1     -34.085 -14.486 -12.915  0.00  0.00     0.043 H 
ATOM     53  H6  F97 d   1     -35.832 -14.072 -12.975  0.00  0.00     0.043 H 
ATOM     54  C24 F97 d   1     -34.235 -13.137 -15.683  0.00  0.00     0.047 C 
ATOM     55  F25 F97 d   1     -33.458 -12.205 -13.586  0.00  0.00    -0.205 F 
ATOM     56  F26 F97 d   1     -35.676 -11.947 -14.181  0.00  0.00    -0.205 F 
ATOM     57  H7  F97 d   1     -34.418 -12.284 -16.353  0.00  0.00     0.065 H 
ATOM     58  H8  F97 d   1     -33.193 -13.472 -15.793  0.00  0.00     0.065 H 
ENDBRANCH   5  46
TORSDOF 7
