REMARK  4 active torsions:
REMARK  status: ('A' for Active; 'I' for Inactive)
REMARK    1  A    between atoms: P1_1  and  O2_3 
REMARK    2  A    between atoms: P1_1  and  C1_4 
REMARK    3  A    between atoms: O2_3  and  C2_5 
REMARK    4  A    between atoms: C2_5  and  C3_6 
ROOT
ATOM      1  O2   VX d   1      54.455  24.169  22.289  0.00  0.00    -0.336 OA
ENDROOT
BRANCH   1   2
ATOM      2  P1   VX d   1      53.537  25.502  22.596  0.00  0.00     0.185 P 
ATOM      3  O1   VX d   1      53.528  25.776  24.081  0.00  0.00    -0.295 OA
ATOM      4  H1   VX d   1      53.924  26.296  22.110  0.00  0.00     0.128 HD
BRANCH   2   5
ATOM      5  C1   VX d   1      51.796  25.204  22.010  0.00  0.00    -0.006 C 
ATOM      6  H2   VX d   1      51.183  26.094  22.215  0.00  0.00     0.040 H 
ATOM      7  H3   VX d   1      51.374  24.338  22.540  0.00  0.00     0.040 H 
ATOM      8  H4   VX d   1      51.802  25.004  20.928  0.00  0.00     0.040 H 
ENDBRANCH   2   5
ENDBRANCH   1   2
BRANCH   1   9
ATOM      9  C2   VX d   1      54.832  23.356  23.364  0.00  0.00     0.023 C 
ATOM     10  H5   VX d   1      54.944  23.972  24.268  0.00  0.00     0.074 H 
ATOM     11  H6   VX d   1      55.789  22.864  23.134  0.00  0.00     0.074 H 
BRANCH   9  12
ATOM     12  C3   VX d   1      53.759  22.296  23.601  0.00  0.00    -0.056 C 
ATOM     13  H7   VX d   1      54.055  21.657  24.446  0.00  0.00     0.030 H 
ATOM     14  H8   VX d   1      53.647  21.680  22.697  0.00  0.00     0.030 H 
ATOM     15  H9   VX d   1      52.802  22.788  23.831  0.00  0.00     0.030 H 
ENDBRANCH   9  12
ENDBRANCH   1   9
TORSDOF 4
