REMARK  3 active torsions:
REMARK  status: ('A' for Active; 'I' for Inactive)
REMARK    1  A    between atoms: N_1  and  CA_2 
REMARK    2  A    between atoms: CA_2  and  C_3 
REMARK    3  A    between atoms: CA_2  and  CB_5 
ROOT
ATOM      1  CA  ALA d   1     252.296 -14.052 -32.326  0.00  0.00     0.179 C 
ATOM      2  H4  ALA d   1     252.771 -13.060 -32.304  0.00  0.00     0.100 H 
ENDROOT
BRANCH   1   3
ATOM      3  N   ALA d   1     253.325 -15.043 -32.617  0.00  0.00    -0.066 N 
ATOM      4  H1  ALA d   1     253.729 -14.853 -33.521  0.00  0.00     0.275 HD
ATOM      5  H2  ALA d   1     252.914 -15.963 -32.620  0.00  0.00     0.275 HD
ATOM      6  H3  ALA d   1     254.044 -14.998 -31.912  0.00  0.00     0.275 HD
ENDBRANCH   1   3
BRANCH   1   7
ATOM      7  C   ALA d   1     251.658 -14.304 -30.964  0.00  0.00     0.204 C 
ATOM      8  O   ALA d   1     250.923 -13.465 -30.443  0.00  0.00    -0.646 OA
ATOM      9  OXT ALA d   1     251.862 -15.352 -30.352  0.00  0.00    -0.646 OA
ENDBRANCH   1   7
BRANCH   1  10
ATOM     10  CB  ALA d   1     251.238 -14.051 -33.418  0.00  0.00    -0.040 C 
ATOM     11  H5  ALA d   1     250.470 -13.299 -33.184  0.00  0.00     0.030 H 
ATOM     12  H6  ALA d   1     250.771 -15.045 -33.477  0.00  0.00     0.030 H 
ATOM     13  H7  ALA d   1     251.707 -13.808 -34.383  0.00  0.00     0.030 H 
ENDBRANCH   1  10
TORSDOF 3
