REMARK  3 active torsions:
REMARK  status: ('A' for Active; 'I' for Inactive)
REMARK    1  A    between atoms: N_1  and  CA_2 
REMARK    2  A    between atoms: CA_2  and  CB_3 
REMARK    3  A    between atoms: CA_2  and  C_4 
ROOT
ATOM      1  CA  DAL d   1     250.977 -14.732 -32.192  0.00  0.00     0.179 C 
ATOM      2  H4  DAL d   1     250.446 -15.686 -32.325  0.00  0.00     0.100 H 
ENDROOT
BRANCH   1   3
ATOM      3  N   DAL d   1     252.395 -14.932 -32.421  0.00  0.00    -0.066 N 
ATOM      4  H1  DAL d   1     252.539 -15.269 -33.360  0.00  0.00     0.275 HD
ATOM      5  H2  DAL d   1     252.750 -15.608 -31.763  0.00  0.00     0.275 HD
ATOM      6  H3  DAL d   1     252.882 -14.058 -32.300  0.00  0.00     0.275 HD
ENDBRANCH   1   3
BRANCH   1   7
ATOM      7  CB  DAL d   1     250.441 -13.710 -33.188  0.00  0.00    -0.040 C 
ATOM      8  H5  DAL d   1     249.365 -13.558 -33.014  0.00  0.00     0.030 H 
ATOM      9  H6  DAL d   1     250.599 -14.079 -34.212  0.00  0.00     0.030 H 
ATOM     10  H7  DAL d   1     250.972 -12.756 -33.056  0.00  0.00     0.030 H 
ENDBRANCH   1   7
BRANCH   1  11
ATOM     11  C   DAL d   1     250.761 -14.230 -30.795  0.00  0.00     0.204 C 
ATOM     12  O   DAL d   1     250.445 -13.031 -30.635  0.00  0.00    -0.646 OA
ATOM     13  OXT DAL d   1     250.906 -15.029 -29.845  0.00  0.00    -0.646 OA
ENDBRANCH   1  11
TORSDOF 3
