REMARK WARNING: 32 MAX_TORS EXCEEDED!!!
REMARK  52 active torsions:
REMARK  status: ('A' for Active; 'I' for Inactive)
REMARK    1  A    between atoms: C_1  and  CH3_3 
REMARK       I    between atoms: C_1  and  N_4 
REMARK    2  A    between atoms: N_4  and  CA_5 
REMARK    3  A    between atoms: CA_5  and  C_6 
REMARK    4  A    between atoms: CA_5  and  CB_8 
REMARK       I    between atoms: C_6  and  N_12 
REMARK    5  A    between atoms: CB_8  and  CG_9 
REMARK    6  A    between atoms: CG_9  and  SD_10 
REMARK    7  A    between atoms: SD_10  and  CE_11 
REMARK    8  A    between atoms: N_12  and  CA_13 
REMARK    9  A    between atoms: CA_13  and  C_14 
REMARK   10  A    between atoms: CA_13  and  CB_16 
REMARK       I    between atoms: C_14  and  N_20 
REMARK   11  A    between atoms: CB_16  and  CG_17 
REMARK   12  A    between atoms: N_20  and  CA_21 
REMARK   13  A    between atoms: CA_21  and  C_22 
REMARK   14  A    between atoms: CA_21  and  CB_24 
REMARK       I    between atoms: C_22  and  N_27 
REMARK   15  A    between atoms: CB_24  and  CG1_25 
REMARK   16  A    between atoms: CB_24  and  CG2_26 
REMARK   17  A    between atoms: N_27  and  CA_28 
REMARK   18  A    between atoms: CA_28  and  C_29 
REMARK   19  A    between atoms: CA_28  and  CB_31 
REMARK       I    between atoms: C_29  and  N_38 
REMARK   20  A    between atoms: CB_31  and  CG_32 
REMARK   21  A    between atoms: N_38  and  CA_39 
REMARK   22  A    between atoms: CA_39  and  C_40 
REMARK   23  A    between atoms: CA_39  and  CB_42 
REMARK       I    between atoms: C_40  and  N_46 
REMARK   24  A    between atoms: CB_42  and  CG_43 
REMARK   25  A    between atoms: CG_43  and  SD_44 
REMARK   26  A    between atoms: SD_44  and  CE_45 
REMARK   27  A    between atoms: N_46  and  CA_47 
REMARK   28  A    between atoms: CA_47  and  C_48 
REMARK   29  A    between atoms: CA_47  and  CB_50 
REMARK       I    between atoms: C_48  and  N_55 
REMARK   30  A    between atoms: CB_50  and  CG_51 
REMARK   31  A    between atoms: CG_51  and  CD_52 
REMARK   32  A    between atoms: CD_52  and  CE_53 
REMARK   33  A    between atoms: CE_53  and  NZ_54 
REMARK   34  A    between atoms: N_55  and  CA_56 
REMARK   35  A    between atoms: CA_56  and  C_57 
REMARK       I    between atoms: C_57  and  N_59 
REMARK   36  A    between atoms: N_59  and  CA_60 
REMARK   37  A    between atoms: CA_60  and  C_61 
REMARK   38  A    between atoms: CA_60  and  CB_63 
REMARK       I    between atoms: C_61  and  N_67 
REMARK   39  A    between atoms: CB_63  and  CG_64 
REMARK   40  A    between atoms: CG_64  and  CD1_65 
REMARK   41  A    between atoms: CG_64  and  CD2_66 
REMARK   42  A    between atoms: N_67  and  CA_68 
REMARK   43  A    between atoms: CA_68  and  C_69 
REMARK   44  A    between atoms: CA_68  and  CB_71 
REMARK       I    between atoms: C_69  and  N_73 
REMARK   45  A    between atoms: CB_71  and  OG_72 
REMARK   46  A    between atoms: N_73  and  CA_74 
REMARK   47  A    between atoms: CA_74  and  C_75 
REMARK   48  A    between atoms: CA_74  and  CB_77 
REMARK   49  A    between atoms: CB_77  and  CG_78 
REMARK   50  A    between atoms: CG_78  and  CD_79 
REMARK   51  A    between atoms: CD_79  and  CE_80 
REMARK   52  A    between atoms: CE_80  and  NZ_81 
ROOT
ATOM      1  CA  MET d   1      18.250   5.485  12.251  0.00  0.00     0.090 C 
ATOM      2  H36 MET d   1      18.112   5.721  11.186  0.00  0.00     0.087 H 
ENDROOT
BRANCH   1   3
ATOM      3  N   MET d   1      17.945   4.069  12.455  0.00  0.00    -0.346 N 
ATOM      4  C   PHE d   1      18.258   3.156  11.523  0.00  0.00     0.241 C 
ATOM      5  O   PHE d   1      18.852   3.442  10.481  0.00  0.00    -0.271 OA
ATOM      6  H35 MET d   1      17.497   3.778  13.300  0.00  0.00     0.163 HD
BRANCH   4   7
ATOM      7  CA  PHE d   1      17.832   1.721  11.800  0.00  0.00     0.093 C 
ATOM      8  H27 PHE d   1      16.751   1.702  12.002  0.00  0.00     0.088 H 
BRANCH   7   9
ATOM      9  N   PHE d   1      18.106   0.966  10.586  0.00  0.00    -0.346 N 
ATOM     10  C   VAL d   1      17.408  -0.097  10.211  0.00  0.00     0.241 C 
ATOM     11  O   VAL d   1      16.654  -0.704  10.971  0.00  0.00    -0.271 OA
ATOM     12  H26 PHE d   1      18.862   1.265  10.003  0.00  0.00     0.163 HD
BRANCH  10  13
ATOM     13  CA  VAL d   1      17.655  -0.566   8.782  0.00  0.00     0.092 C 
ATOM     14  H18 VAL d   1      18.012   0.284   8.182  0.00  0.00     0.088 H 
BRANCH  13  15
ATOM     15  N   VAL d   1      18.713  -1.567   8.869  0.00  0.00    -0.346 N 
ATOM     16  C   ASP d   1      19.974  -1.294   8.543  0.00  0.00     0.241 C 
ATOM     17  O   ASP d   1      20.317  -0.185   8.120  0.00  0.00    -0.271 OA
ATOM     18  H17 VAL d   1      18.483  -2.488   9.184  0.00  0.00     0.163 HD
BRANCH  16  19
ATOM     19  CA  ASP d   1      21.022  -2.395   8.710  0.00  0.00     0.098 C 
ATOM     20  H14 ASP d   1      21.683  -2.100   9.539  0.00  0.00     0.088 H 
BRANCH  19  21
ATOM     21  N   ASP d   1      20.438  -3.686   9.050  0.00  0.00    -0.346 N 
ATOM     22  C   MET d   1      20.462  -4.152  10.299  0.00  0.00     0.241 C 
ATOM     23  O   MET d   1      20.970  -3.511  11.224  0.00  0.00    -0.271 OA
ATOM     24  H13 ASP d   1      20.010  -4.234   8.331  0.00  0.00     0.163 HD
BRANCH  22  25
ATOM     25  CA  MET d   1      19.852  -5.526  10.556  0.00  0.00     0.090 C 
ATOM     26  H5  MET d   1      19.589  -5.585  11.623  0.00  0.00     0.087 H 
BRANCH  25  27
ATOM     27  N   MET d   1      18.635  -5.757   9.776  0.00  0.00    -0.348 N 
ATOM     28  C   ACE d   1      17.628  -4.878   9.722  0.00  0.00     0.214 C 
ATOM     29  O   ACE d   1      17.640  -3.768  10.259  0.00  0.00    -0.274 OA
ATOM     30  H4  MET d   1      18.553  -6.610   9.261  0.00  0.00     0.163 HD
BRANCH  28  31
ATOM     31  CH3 ACE d   1      16.428  -5.323   8.907  0.00  0.00    -0.003 C 
ATOM     32  H1  ACE d   1      16.607  -6.334   8.513  0.00  0.00     0.040 H 
ATOM     33  H2  ACE d   1      16.274  -4.626   8.070  0.00  0.00     0.040 H 
ATOM     34  H3  ACE d   1      15.533  -5.332   9.547  0.00  0.00     0.040 H 
ENDBRANCH  28  31
ENDBRANCH  25  27
BRANCH  25  35
ATOM     35  CB  MET d   1      20.876  -6.624  10.244  0.00  0.00    -0.030 C 
ATOM     36  H6  MET d   1      20.784  -6.889   9.180  0.00  0.00     0.037 H 
ATOM     37  H7  MET d   1      20.639  -7.502  10.862  0.00  0.00     0.037 H 
BRANCH  35  38
ATOM     38  CG  MET d   1      22.319  -6.228  10.513  0.00  0.00    -0.021 C 
ATOM     39  H8  MET d   1      22.320  -5.461  11.302  0.00  0.00     0.049 H 
ATOM     40  H9  MET d   1      22.734  -5.803   9.587  0.00  0.00     0.049 H 
BRANCH  38  41
ATOM     41  SD  MET d   1      23.398  -7.576  11.042  0.00  0.00    -0.173 SA
BRANCH  41  42
ATOM     42  CE  MET d   1      24.974  -6.942  10.520  0.00  0.00    -0.035 C 
ATOM     43  H10 MET d   1      25.763  -7.665  10.776  0.00  0.00     0.041 H 
ATOM     44  H11 MET d   1      25.172  -5.987  11.029  0.00  0.00     0.041 H 
ATOM     45  H12 MET d   1      24.963  -6.782   9.432  0.00  0.00     0.041 H 
ENDBRANCH  41  42
ENDBRANCH  38  41
ENDBRANCH  35  38
ENDBRANCH  25  35
ENDBRANCH  22  25
ENDBRANCH  19  21
BRANCH  19  46
ATOM     46  CB  ASP d   1      21.876  -2.519   7.443  0.00  0.00     0.043 C 
ATOM     47  H15 ASP d   1      22.027  -1.515   7.020  0.00  0.00     0.052 H 
ATOM     48  H16 ASP d   1      21.339  -3.146   6.716  0.00  0.00     0.052 H 
BRANCH  46  49
ATOM     49  CG  ASP d   1      23.244  -3.147   7.714  0.00  0.00     0.175 C 
ATOM     50  OD1 ASP d   1      23.809  -2.911   8.805  0.00  0.00    -0.648 OA
ATOM     51  OD2 ASP d   1      23.764  -3.870   6.833  0.00  0.00    -0.648 OA
ENDBRANCH  46  49
ENDBRANCH  19  46
ENDBRANCH  16  19
ENDBRANCH  13  15
BRANCH  13  52
ATOM     52  CB  VAL d   1      16.392  -1.109   8.114  0.00  0.00    -0.033 C 
ATOM     53  H19 VAL d   1      16.048  -1.987   8.680  0.00  0.00     0.042 H 
BRANCH  52  54
ATOM     54  CG1 VAL d   1      15.299  -0.061   8.140  0.00  0.00    -0.071 C 
ATOM     55  H20 VAL d   1      14.395  -0.462   7.657  0.00  0.00     0.028 H 
ATOM     56  H21 VAL d   1      15.637   0.835   7.599  0.00  0.00     0.028 H 
ATOM     57  H22 VAL d   1      15.070   0.205   9.183  0.00  0.00     0.028 H 
ENDBRANCH  52  54
BRANCH  52  58
ATOM     58  CG2 VAL d   1      16.683  -1.546   6.671  0.00  0.00    -0.071 C 
ATOM     59  H23 VAL d   1      17.478  -2.306   6.671  0.00  0.00     0.028 H 
ATOM     60  H24 VAL d   1      17.009  -0.675   6.083  0.00  0.00     0.028 H 
ATOM     61  H25 VAL d   1      15.771  -1.970   6.225  0.00  0.00     0.028 H 
ENDBRANCH  52  58
ENDBRANCH  13  52
ENDBRANCH  10  13
ENDBRANCH   7   9
BRANCH   7  62
ATOM     62  CB  PHE d   1      18.555   1.113  13.015  0.00  0.00    -0.014 C 
ATOM     63  H28 PHE d   1      18.166   0.096  13.173  0.00  0.00     0.043 H 
ATOM     64  H29 PHE d   1      18.329   1.733  13.895  0.00  0.00     0.043 H 
BRANCH  62  65
ATOM     65  CG  PHE d   1      20.064   1.027  12.871  0.00  0.00    -0.056 A 
ATOM     66  CD1 PHE d   1      20.665  -0.047  12.195  0.00  0.00    -0.077 A 
ATOM     67  CE1 PHE d   1      22.055  -0.135  12.069  0.00  0.00    -0.082 A 
ATOM     68  H30 PHE d   1      20.041  -0.821  11.763  0.00  0.00     0.084 H 
ATOM     69  CZ  PHE d   1      22.856   0.831  12.632  0.00  0.00    -0.083 A 
ATOM     70  H32 PHE d   1      22.500  -0.963  11.529  0.00  0.00     0.083 H 
ATOM     71  CE2 PHE d   1      22.277   1.898  13.319  0.00  0.00    -0.082 A 
ATOM     72  H34 PHE d   1      23.934   0.763  12.542  0.00  0.00     0.083 H 
ATOM     73  CD2 PHE d   1      20.874   1.991  13.424  0.00  0.00    -0.077 A 
ATOM     74  H33 PHE d   1      22.906   2.656  13.772  0.00  0.00     0.083 H 
ATOM     75  H31 PHE d   1      20.429   2.831  13.946  0.00  0.00     0.084 H 
ENDBRANCH  62  65
ENDBRANCH   7  62
ENDBRANCH   4   7
ENDBRANCH   1   3
BRANCH   1  76
ATOM     76  C   MET d   1      19.701   5.755  12.627  0.00  0.00     0.241 C 
ATOM     77  O   MET d   1      20.145   5.425  13.740  0.00  0.00    -0.271 OA
ATOM     78  N   LYS d   1      20.444   6.347  11.687  0.00  0.00    -0.346 N 
ATOM     79  H44 LYS d   1      20.008   6.612  10.827  0.00  0.00     0.163 HD
BRANCH  78  80
ATOM     80  CA  LYS d   1      21.861   6.621  11.865  0.00  0.00     0.089 C 
ATOM     81  H45 LYS d   1      22.150   6.250  12.859  0.00  0.00     0.087 H 
BRANCH  80  82
ATOM     82  C   LYS d   1      22.187   8.109  11.810  0.00  0.00     0.240 C 
ATOM     83  O   LYS d   1      23.367   8.468  11.850  0.00  0.00    -0.271 OA
ATOM     84  N   GLY d   1      21.180   8.963  11.744  0.00  0.00    -0.351 N 
ATOM     85  H57 GLY d   1      20.247   8.605  11.718  0.00  0.00     0.163 HD
BRANCH  84  86
ATOM     86  CA  GLY d   1      21.376  10.393  11.708  0.00  0.00     0.069 C 
ATOM     87  H58 GLY d   1      22.191  10.643  12.404  0.00  0.00     0.078 H 
ATOM     88  H59 GLY d   1      20.445  10.873  12.045  0.00  0.00     0.078 H 
BRANCH  86  89
ATOM     89  C   GLY d   1      21.730  10.958  10.349  0.00  0.00     0.236 C 
ATOM     90  O   GLY d   1      22.137  12.101  10.240  0.00  0.00    -0.272 OA
ATOM     91  N   LEU d   1      21.569  10.133   9.323  0.00  0.00    -0.346 N 
ATOM     92  H60 LEU d   1      21.216   9.215   9.505  0.00  0.00     0.163 HD
BRANCH  91  93
ATOM     93  CA  LEU d   1      21.875  10.487   7.957  0.00  0.00     0.089 C 
ATOM     94  H61 LEU d   1      22.898  10.890   7.937  0.00  0.00     0.087 H 
BRANCH  93  95
ATOM     95  C   LEU d   1      20.949  11.529   7.378  0.00  0.00     0.241 C 
ATOM     96  O   LEU d   1      19.779  11.544   7.663  0.00  0.00    -0.271 OA
ATOM     97  N   SER d   1      21.515  12.359   6.522  0.00  0.00    -0.344 N 
ATOM     98  H71 SER d   1      22.490  12.242   6.333  0.00  0.00     0.163 HD
BRANCH  97  99
ATOM     99  CA  SER d   1      20.818  13.428   5.838  0.00  0.00     0.109 C 
ATOM    100  H72 SER d   1      19.734  13.272   5.941  0.00  0.00     0.090 H 
BRANCH  99 101
ATOM    101  C   SER d   1      21.185  13.428   4.369  0.00  0.00     0.243 C 
ATOM    102  O   SER d   1      22.095  12.757   3.965  0.00  0.00    -0.271 OA
ATOM    103  N   LYS d   1      20.425  14.140   3.559  0.00  0.00    -0.345 N 
ATOM    104  H76 LYS d   1      19.637  14.636   3.925  0.00  0.00     0.163 HD
BRANCH 103 105
ATOM    105  CA  LYS d   1      20.724  14.208   2.142  0.00  0.00     0.096 C 
ATOM    106  H77 LYS d   1      21.006  13.198   1.808  0.00  0.00     0.089 H 
BRANCH 105 107
ATOM    107  C   LYS d   1      21.914  15.126   1.888  0.00  0.00     0.196 C 
ATOM    108  O   LYS d   1      22.132  16.118   2.557  0.00  0.00    -0.646 OA
ATOM    109  OXT LYS d   1      22.727  14.885   1.017  0.00  0.00    -0.646 OA
ENDBRANCH 105 107
BRANCH 105 110
ATOM    110  CB  LYS d   1      19.500  14.627   1.348  0.00  0.00    -0.037 C 
ATOM    111  H78 LYS d   1      19.797  14.769   0.298  0.00  0.00     0.036 H 
ATOM    112  H79 LYS d   1      19.128  15.578   1.756  0.00  0.00     0.036 H 
BRANCH 110 113
ATOM    113  CG  LYS d   1      18.381  13.616   1.396  0.00  0.00    -0.061 C 
ATOM    114  H80 LYS d   1      18.018  13.536   2.432  0.00  0.00     0.033 H 
ATOM    115  H81 LYS d   1      18.769  12.641   1.067  0.00  0.00     0.033 H 
BRANCH 113 116
ATOM    116  CD  LYS d   1      17.228  14.007   0.505  0.00  0.00    -0.043 C 
ATOM    117  H82 LYS d   1      17.457  13.710  -0.529  0.00  0.00     0.035 H 
ATOM    118  H83 LYS d   1      17.092  15.098   0.552  0.00  0.00     0.035 H 
BRANCH 116 119
ATOM    119  CE  LYS d   1      15.950  13.333   0.939  0.00  0.00     0.080 C 
ATOM    120  H84 LYS d   1      15.718  13.656   1.964  0.00  0.00     0.075 H 
ATOM    121  H85 LYS d   1      16.109  12.245   0.925  0.00  0.00     0.075 H 
BRANCH 119 122
ATOM    122  NZ  LYS d   1      14.791  13.646   0.078  0.00  0.00    -0.079 N 
ATOM    123  H86 LYS d   1      13.976  13.165   0.424  0.00  0.00     0.274 HD
ATOM    124  H87 LYS d   1      14.982  13.347  -0.865  0.00  0.00     0.274 HD
ATOM    125  H88 LYS d   1      14.624  14.640   0.088  0.00  0.00     0.274 HD
ENDBRANCH 119 122
ENDBRANCH 116 119
ENDBRANCH 113 116
ENDBRANCH 110 113
ENDBRANCH 105 110
ENDBRANCH 103 105
ENDBRANCH  99 101
BRANCH  99 126
ATOM    126  CB  SER d   1      21.185  14.766   6.435  0.00  0.00     0.044 C 
ATOM    127  H73 SER d   1      21.438  15.466   5.625  0.00  0.00     0.077 H 
ATOM    128  H74 SER d   1      22.055  14.640   7.096  0.00  0.00     0.077 H 
BRANCH 126 129
ATOM    129  OG  SER d   1      20.125  15.282   7.169  0.00  0.00    -0.398 OA
ATOM    130  H75 SER d   1      19.372  15.395   6.600  0.00  0.00     0.209 HD
ENDBRANCH 126 129
ENDBRANCH  99 126
ENDBRANCH  97  99
ENDBRANCH  93  95
BRANCH  93 131
ATOM    131  CB  LEU d   1      21.816   9.261   7.070  0.00  0.00    -0.035 C 
ATOM    132  H62 LEU d   1      22.206   9.553   6.083  0.00  0.00     0.037 H 
ATOM    133  H63 LEU d   1      20.758   8.976   6.977  0.00  0.00     0.037 H 
BRANCH 131 134
ATOM    134  CG  LEU d   1      22.577   8.027   7.507  0.00  0.00    -0.059 C 
ATOM    135  H64 LEU d   1      22.206   7.717   8.495  0.00  0.00     0.038 H 
BRANCH 134 136
ATOM    136  CD1 LEU d   1      22.324   6.903   6.524  0.00  0.00    -0.073 C 
ATOM    137  H65 LEU d   1      22.877   6.007   6.842  0.00  0.00     0.028 H 
ATOM    138  H66 LEU d   1      22.664   7.208   5.523  0.00  0.00     0.028 H 
ATOM    139  H67 LEU d   1      21.248   6.678   6.493  0.00  0.00     0.028 H 
ENDBRANCH 134 136
BRANCH 134 140
ATOM    140  CD2 LEU d   1      24.053   8.328   7.628  0.00  0.00    -0.073 C 
ATOM    141  H68 LEU d   1      24.203   9.147   8.347  0.00  0.00     0.028 H 
ATOM    142  H69 LEU d   1      24.448   8.626   6.646  0.00  0.00     0.028 H 
ATOM    143  H70 LEU d   1      24.583   7.430   7.979  0.00  0.00     0.028 H 
ENDBRANCH 134 140
ENDBRANCH 131 134
ENDBRANCH  93 131
ENDBRANCH  91  93
ENDBRANCH  86  89
ENDBRANCH  84  86
ENDBRANCH  80  82
BRANCH  80 144
ATOM    144  CB  LYS d   1      22.686   5.875  10.816  0.00  0.00    -0.038 C 
ATOM    145  H46 LYS d   1      23.696   6.310  10.801  0.00  0.00     0.036 H 
ATOM    146  H47 LYS d   1      22.209   6.022   9.836  0.00  0.00     0.036 H 
BRANCH 144 147
ATOM    147  CG  LYS d   1      22.814   4.405  11.056  0.00  0.00    -0.061 C 
ATOM    148  H48 LYS d   1      21.852   4.013  11.418  0.00  0.00     0.033 H 
ATOM    149  H49 LYS d   1      23.591   4.229  11.815  0.00  0.00     0.033 H 
BRANCH 147 150
ATOM    150  CD  LYS d   1      23.197   3.680   9.771  0.00  0.00    -0.043 C 
ATOM    151  H50 LYS d   1      23.882   2.855  10.015  0.00  0.00     0.035 H 
ATOM    152  H51 LYS d   1      23.700   4.387   9.096  0.00  0.00     0.035 H 
BRANCH 150 153
ATOM    153  CE  LYS d   1      21.972   3.118   9.076  0.00  0.00     0.080 C 
ATOM    154  H52 LYS d   1      22.066   3.268   7.990  0.00  0.00     0.075 H 
ATOM    155  H53 LYS d   1      21.074   3.638   9.441  0.00  0.00     0.075 H 
BRANCH 153 156
ATOM    156  NZ  LYS d   1      21.855   1.673   9.364  0.00  0.00    -0.079 N 
ATOM    157  H54 LYS d   1      21.040   1.303   8.901  0.00  0.00     0.274 HD
ATOM    158  H55 LYS d   1      21.768   1.535  10.359  0.00  0.00     0.274 HD
ATOM    159  H56 LYS d   1      22.677   1.196   9.029  0.00  0.00     0.274 HD
ENDBRANCH 153 156
ENDBRANCH 150 153
ENDBRANCH 147 150
ENDBRANCH 144 147
ENDBRANCH  80 144
ENDBRANCH  78  80
ENDBRANCH   1  76
BRANCH   1 160
ATOM    160  CB  MET d   1      17.311   6.385  13.073  0.00  0.00    -0.030 C 
ATOM    161  H37 MET d   1      17.574   7.433  12.867  0.00  0.00     0.037 H 
ATOM    162  H38 MET d   1      17.475   6.168  14.139  0.00  0.00     0.037 H 
BRANCH 160 163
ATOM    163  CG  MET d   1      15.853   6.203  12.778  0.00  0.00    -0.021 C 
ATOM    164  H39 MET d   1      15.272   6.827  13.473  0.00  0.00     0.049 H 
ATOM    165  H40 MET d   1      15.592   5.145  12.930  0.00  0.00     0.049 H 
BRANCH 163 166
ATOM    166  SD  MET d   1      15.429   6.666  11.094  0.00  0.00    -0.173 SA
BRANCH 166 167
ATOM    167  CE  MET d   1      13.639   6.692  11.167  0.00  0.00    -0.035 C 
ATOM    168  H41 MET d   1      13.236   6.967  10.181  0.00  0.00     0.041 H 
ATOM    169  H42 MET d   1      13.313   7.430  11.915  0.00  0.00     0.041 H 
ATOM    170  H43 MET d   1      13.269   5.695  11.449  0.00  0.00     0.041 H 
ENDBRANCH 166 167
ENDBRANCH 163 166
ENDBRANCH 160 163
ENDBRANCH   1 160
TORSDOF 52
