REMARK  12 active torsions:
REMARK  status: ('A' for Active; 'I' for Inactive)
REMARK    1  A    between atoms: C1_1  and  O11_7 
REMARK    2  A    between atoms: C2_2  and  O12_12 
REMARK    3  A    between atoms: C3_3  and  O13_17 
REMARK    4  A    between atoms: C4_4  and  O14_22 
REMARK    5  A    between atoms: C5_5  and  O15_27 
REMARK    6  A    between atoms: C6_6  and  O16_32 
REMARK    7  A    between atoms: O11_7  and  P1_8 
REMARK    8  A    between atoms: O12_12  and  P2_13 
REMARK    9  A    between atoms: O13_17  and  P3_18 
REMARK   10  A    between atoms: O14_22  and  P4_23 
REMARK   11  A    between atoms: O15_27  and  P5_28 
REMARK   12  A    between atoms: O16_32  and  P6_33 
ROOT
ATOM      1  C1  IHP d   1      14.119   9.992   1.597  0.00  0.00     0.107 C 
ATOM      2  C2  IHP d   1      12.935  10.659   2.301  0.00  0.00     0.107 C 
ATOM      3  C3  IHP d   1      12.229  11.600   1.324  0.00  0.00     0.107 C 
ATOM      4  C4  IHP d   1      11.723  10.802   0.120  0.00  0.00     0.107 C 
ATOM      5  C5  IHP d   1      12.908  10.137  -0.584  0.00  0.00     0.107 C 
ATOM      6  C6  IHP d   1      13.615   9.194   0.393  0.00  0.00     0.107 C 
ATOM      7  H1  IHP d   1      14.824  10.764   1.256  0.00  0.00     0.092 H 
ATOM      8  H2  IHP d   1      13.297  11.233   3.167  0.00  0.00     0.092 H 
ATOM      9  H3  IHP d   1      12.935  12.372   0.983  0.00  0.00     0.092 H 
ATOM     10  H4  IHP d   1      11.018  10.029   0.462  0.00  0.00     0.092 H 
ATOM     11  H5  IHP d   1      13.613  10.909  -0.926  0.00  0.00     0.092 H 
ATOM     12  H6  IHP d   1      12.910   8.422   0.734  0.00  0.00     0.092 H 
ENDROOT
BRANCH   1  13
ATOM     13  O11 IHP d   1      14.781   9.112   2.507  0.00  0.00    -0.272 OA
BRANCH  13  14
ATOM     14  P1  IHP d   1      16.326   9.285   2.927  0.00  0.00     0.422 P 
ATOM     15  O21 IHP d   1      16.545  10.649   3.455  0.00  0.00    -0.617 OA
ATOM     16  O31 IHP d   1      16.696   8.204   4.061  0.00  0.00    -0.617 OA
ATOM     17  O41 IHP d   1      17.262   9.050   1.636  0.00  0.00    -0.617 OA
ENDBRANCH  13  14
ENDBRANCH   1  13
BRANCH   2  18
ATOM     18  O12 IHP d   1      12.019   9.655   2.743  0.00  0.00    -0.272 OA
BRANCH  18  19
ATOM     19  P2  IHP d   1      11.624   9.452   4.289  0.00  0.00     0.422 P 
ATOM     20  O22 IHP d   1      11.121  10.729   4.843  0.00  0.00    -0.617 OA
ATOM     21  O32 IHP d   1      10.476   8.328   4.407  0.00  0.00    -0.617 OA
ATOM     22  O42 IHP d   1      12.921   8.982   5.119  0.00  0.00    -0.617 OA
ENDBRANCH  18  19
ENDBRANCH   2  18
BRANCH   6  23
ATOM     23  O16 IHP d   1      14.721   8.573  -0.264  0.00  0.00    -0.272 OA
BRANCH  23  24
ATOM     24  P6  IHP d   1      14.850   6.978  -0.442  0.00  0.00     0.422 P 
ATOM     25  O26 IHP d   1      13.640   6.454  -1.113  0.00  0.00    -0.617 OA
ATOM     26  O36 IHP d   1      16.148   6.642  -1.337  0.00  0.00    -0.617 OA
ATOM     27  O46 IHP d   1      15.004   6.287   1.004  0.00  0.00    -0.617 OA
ENDBRANCH  23  24
ENDBRANCH   6  23
BRANCH   3  28
ATOM     28  O13 IHP d   1      11.120  12.223   1.980  0.00  0.00    -0.272 OA
BRANCH  28  29
ATOM     29  P3  IHP d   1      10.991  13.818   2.157  0.00  0.00     0.422 P 
ATOM     30  O23 IHP d   1      12.203  14.338   2.828  0.00  0.00    -0.617 OA
ATOM     31  O33 IHP d   1      10.837  14.508   0.712  0.00  0.00    -0.617 OA
ATOM     32  O43 IHP d   1       9.695  14.154   3.052  0.00  0.00    -0.617 OA
ENDBRANCH  28  29
ENDBRANCH   3  28
BRANCH   5  33
ATOM     33  O15 IHP d   1      12.436   9.391  -1.707  0.00  0.00    -0.272 OA
BRANCH  33  34
ATOM     34  P5  IHP d   1      12.908   9.691  -3.218  0.00  0.00     0.422 P 
ATOM     35  O25 IHP d   1      14.385   9.641  -3.293  0.00  0.00    -0.617 OA
ATOM     36  O35 IHP d   1      12.282   8.582  -4.204  0.00  0.00    -0.617 OA
ATOM     37  O45 IHP d   1      12.397  11.153  -3.661  0.00  0.00    -0.617 OA
ENDBRANCH  33  34
ENDBRANCH   5  33
BRANCH   4  38
ATOM     38  O14 IHP d   1      11.060  11.682  -0.791  0.00  0.00    -0.272 OA
BRANCH  38  39
ATOM     39  P4  IHP d   1       9.516  11.512  -1.211  0.00  0.00     0.422 P 
ATOM     40  O24 IHP d   1       9.073  12.746  -2.143  0.00  0.00    -0.617 OA
ATOM     41  O34 IHP d   1       9.329  10.132  -2.021  0.00  0.00    -0.617 OA
ATOM     42  O44 IHP d   1       8.676  11.486   0.005  0.00  0.00    -0.617 OA
ENDBRANCH  38  39
ENDBRANCH   4  38
TORSDOF 12
