REMARK  9 active torsions:
REMARK  status: ('A' for Active; 'I' for Inactive)
REMARK    1  A    between atoms: C1_1  and  O1_7 
REMARK    2  A    between atoms: C2_2  and  O2_8 
REMARK    3  A    between atoms: C3_3  and  O3_9 
REMARK    4  A    between atoms: C4_4  and  O4_10 
REMARK    5  A    between atoms: C5_5  and  O5_11 
REMARK    6  A    between atoms: C6_6  and  O6_12 
REMARK    7  A    between atoms: O1_7  and  P1_13 
REMARK    8  A    between atoms: O4_10  and  P4_17 
REMARK    9  A    between atoms: O5_11  and  P5_21 
ROOT
ATOM      1  C1  I3P d   1      11.445   9.974   0.825  0.00  0.00     0.106 C 
ATOM      2  C2  I3P d   1      11.656  10.667   2.190  0.00  0.00     0.090 C 
ATOM      3  C3  I3P d   1      11.474  12.192   2.047  0.00  0.00     0.091 C 
ATOM      4  C4  I3P d   1      10.077  12.530   1.481  0.00  0.00     0.106 C 
ATOM      5  C5  I3P d   1       9.864  11.830   0.122  0.00  0.00     0.106 C 
ATOM      6  C6  I3P d   1      10.049  10.303   0.262  0.00  0.00     0.091 C 
ATOM      7  H1  I3P d   1      12.212  10.328   0.120  0.00  0.00     0.092 H 
ATOM      8  H2  I3P d   1      12.679  10.460   2.538  0.00  0.00     0.091 H 
ATOM      9  H3  I3P d   1      12.236  12.577   1.353  0.00  0.00     0.091 H 
ATOM     10  H4  I3P d   1       9.303  12.200   2.190  0.00  0.00     0.092 H 
ATOM     11  H5  I3P d   1      10.589  12.221  -0.607  0.00  0.00     0.092 H 
ATOM     12  H6  I3P d   1       9.282   9.912   0.947  0.00  0.00     0.091 H 
ENDROOT
BRANCH   1  13
ATOM     13  O1  I3P d   1      11.560   8.572   0.978  0.00  0.00    -0.272 OA
BRANCH  13  14
ATOM     14  P1  I3P d   1      13.124   8.020   0.413  0.00  0.00     0.422 P 
ATOM     15  O11 I3P d   1      13.383   8.409  -1.261  0.00  0.00    -0.617 OA
ATOM     16  O12 I3P d   1      14.220   8.730   1.254  0.00  0.00    -0.617 OA
ATOM     17  O13 I3P d   1      13.297   6.315   0.685  0.00  0.00    -0.617 OA
ENDBRANCH  13  14
ENDBRANCH   1  13
BRANCH   2  18
ATOM     18  O2  I3P d   1      10.741  10.171   3.140  0.00  0.00    -0.390 OA
ATOM     19  H7  I3P d   1      10.899  10.589   3.978  0.00  0.00     0.210 HD
ENDBRANCH   2  18
BRANCH   6  20
ATOM     20  O6  I3P d   1       9.909   9.686  -0.994  0.00  0.00    -0.390 OA
ATOM     21  H9  I3P d   1      10.024   8.748  -0.899  0.00  0.00     0.210 HD
ENDBRANCH   6  20
BRANCH   3  22
ATOM     22  O3  I3P d   1      11.653  12.795   3.301  0.00  0.00    -0.390 OA
ATOM     23  H8  I3P d   1      10.990  12.476   3.902  0.00  0.00     0.210 HD
ENDBRANCH   3  22
BRANCH   5  24
ATOM     24  O5  I3P d   1       8.547  12.088  -0.327  0.00  0.00    -0.272 OA
BRANCH  24  25
ATOM     25  P5  I3P d   1       8.572  13.050  -1.792  0.00  0.00     0.422 P 
ATOM     26  O51 I3P d   1       9.188  12.181  -2.922  0.00  0.00    -0.617 OA
ATOM     27  O52 I3P d   1       6.961  13.455  -2.291  0.00  0.00    -0.617 OA
ATOM     28  O53 I3P d   1       9.545  14.478  -1.629  0.00  0.00    -0.617 OA
ENDBRANCH  24  25
ENDBRANCH   5  24
BRANCH   4  29
ATOM     29  O4  I3P d   1       9.988  13.929   1.290  0.00  0.00    -0.272 OA
BRANCH  29  30
ATOM     30  P4  I3P d   1       8.700  14.602   2.270  0.00  0.00     0.422 P 
ATOM     31  O41 I3P d   1       7.352  14.031   1.750  0.00  0.00    -0.617 OA
ATOM     32  O42 I3P d   1       8.851  14.169   3.944  0.00  0.00    -0.617 OA
ATOM     33  O43 I3P d   1       8.620  16.325   2.083  0.00  0.00    -0.617 OA
ENDBRANCH  29  30
ENDBRANCH   4  29
TORSDOF 9
