REMARK  3 active torsions:
REMARK  status: ('A' for Active; 'I' for Inactive)
REMARK    1  A    between atoms: CAJ_1  and  OAM_2 
REMARK    2  A    between atoms: OAM_2  and  CAI_3 
REMARK    3  A    between atoms: CAI_3  and  CAG_5 
ROOT
ATOM      1  CAG 4ME d   1     -14.283 -28.914  39.848  0.00  0.00     0.052 A 
ATOM      2  CAB 4ME d   1     -14.185 -27.944  40.826  0.00  0.00    -0.066 A 
ATOM      3  CAA 4ME d   1     -12.942 -27.477  41.200  0.00  0.00    -0.080 A 
ATOM      4  CAC 4ME d   1     -11.823 -28.000  40.575  0.00  0.00    -0.056 A 
ATOM      5  CAH 4ME d   1     -11.957 -28.929  39.641  0.00  0.00     0.043 A 
ATOM      6  CAF 4ME d   1     -13.163 -29.386  39.278  0.00  0.00     0.008 A 
ATOM      7  CAD 4ME d   1     -12.963 -30.306  38.329  0.00  0.00    -0.055 A 
ATOM      8  CAE 4ME d   1     -11.651 -30.415  38.110  0.00  0.00    -0.022 A 
ATOM      9  NAK 4ME d   1     -11.033 -29.564  38.924  0.00  0.00    -0.365 N 
ATOM     10  H4  4ME d   1     -15.079 -27.552  41.297  0.00  0.00     0.085 H 
ATOM     11  H5  4ME d   1     -12.844 -26.717  41.967  0.00  0.00     0.083 H 
ATOM     12  H6  4ME d   1     -10.835 -27.648  40.851  0.00  0.00     0.086 H 
ATOM     13  H7  4ME d   1     -13.741 -30.872  37.819  0.00  0.00     0.087 H 
ATOM     14  H8  4ME d   1     -11.172 -31.081  37.394  0.00  0.00     0.111 H 
ATOM     15  H9  4ME d   1     -10.015 -29.421  38.988  0.00  0.00     0.165 HD
ENDROOT
BRANCH   1  16
ATOM     16  CAI 4ME d   1     -15.575 -29.350  39.508  0.00  0.00     0.293 C 
ATOM     17  OAL 4ME d   1     -15.778 -30.431  38.944  0.00  0.00    -0.259 OA
BRANCH  16  18
ATOM     18  OAM 4ME d   1     -16.577 -28.474  39.852  0.00  0.00    -0.322 OA
BRANCH  18  19
ATOM     19  CAJ 4ME d   1     -17.872 -29.092  39.814  0.00  0.00     0.013 C 
ATOM     20  H1  4ME d   1     -18.638 -28.355  40.096  0.00  0.00     0.067 H 
ATOM     21  H2  4ME d   1     -17.897 -29.935  40.520  0.00  0.00     0.067 H 
ATOM     22  H3  4ME d   1     -18.073 -29.460  38.797  0.00  0.00     0.067 H 
ENDBRANCH  18  19
ENDBRANCH  16  18
ENDBRANCH   1  16
TORSDOF 3
