REMARK  11 active torsions:
REMARK  status: ('A' for Active; 'I' for Inactive)
REMARK    1  A    between atoms: N1_1  and  C1'_9 
REMARK    2  A    between atoms: C4_4  and  N4_8 
REMARK    3  A    between atoms: C2'_10  and  O2'_11 
REMARK    4  A    between atoms: C3'_12  and  O3'_15 
REMARK    5  A    between atoms: C4'_13  and  C5'_16 
REMARK    6  A    between atoms: C5'_16  and  O5'_17 
REMARK    7  A    between atoms: O5'_17  and  PA_18 
REMARK    8  A    between atoms: PA_18  and  O3A_21 
REMARK    9  A    between atoms: O3A_21  and  PB_22 
REMARK   10  A    between atoms: PB_22  and  O3B_25 
REMARK   11  A    between atoms: O3B_25  and  PG_26 
ROOT
ATOM      1  C1' CTP d   1     -11.901 -37.650  24.590  0.00  0.00     0.137 C 
ATOM      2  C2' CTP d   1     -11.162 -37.990  23.289  0.00  0.00     0.104 C 
ATOM      3  C3' CTP d   1      -9.906 -38.200  23.671  0.00  0.00     0.091 C 
ATOM      4  C4' CTP d   1      -9.637 -37.162  24.917  0.00  0.00     0.089 C 
ATOM      5  O4' CTP d   1     -10.795 -36.915  25.467  0.00  0.00    -0.354 OA
ATOM      6  H7  CTP d   1     -12.230 -38.579  25.079  0.00  0.00     0.122 H 
ATOM      7  H8  CTP d   1     -11.223 -37.163  22.567  0.00  0.00     0.093 H 
ATOM      8  H10 CTP d   1      -9.207 -38.004  22.844  0.00  0.00     0.091 H 
ATOM      9  H11 CTP d   1      -8.965 -37.639  25.645  0.00  0.00     0.090 H 
ENDROOT
BRANCH   4  10
ATOM     10  C5' CTP d   1      -9.030 -35.844  24.479  0.00  0.00     0.058 C 
ATOM     11  H13 CTP d   1      -7.989 -36.016  24.168  0.00  0.00     0.079 H 
ATOM     12  H14 CTP d   1      -9.049 -35.143  25.326  0.00  0.00     0.079 H 
BRANCH  10  13
ATOM     13  O5' CTP d   1      -9.739 -35.282  23.406  0.00  0.00    -0.287 OA
BRANCH  13  14
ATOM     14  PA  CTP d   1      -8.855 -34.832  22.055  0.00  0.00     0.417 P 
ATOM     15  O1A CTP d   1      -9.811 -34.386  20.976  0.00  0.00    -0.624 OA
ATOM     16  O2A CTP d   1      -7.972 -35.945  21.544  0.00  0.00    -0.624 OA
BRANCH  14  17
ATOM     17  O3A CTP d   1      -7.915 -33.596  22.606  0.00  0.00    -0.180 OA
BRANCH  17  18
ATOM     18  PB  CTP d   1      -6.750 -32.857  21.709  0.00  0.00     0.428 P 
ATOM     19  O1B CTP d   1      -7.024 -33.150  20.251  0.00  0.00    -0.624 OA
ATOM     20  O2B CTP d   1      -6.806 -31.376  22.017  0.00  0.00    -0.624 OA
BRANCH  18  21
ATOM     21  O3B CTP d   1      -5.261 -33.365  22.139  0.00  0.00    -0.173 OA
BRANCH  21  22
ATOM     22  PG  CTP d   1      -3.972 -33.442  21.109  0.00  0.00     0.431 P 
ATOM     23  O1G CTP d   1      -4.404 -33.448  19.642  0.00  0.00    -0.616 OA
ATOM     24  O2G CTP d   1      -3.015 -32.280  21.374  0.00  0.00    -0.616 OA
ATOM     25  O3G CTP d   1      -3.314 -34.756  21.449  0.00  0.00    -0.616 OA
ENDBRANCH  21  22
ENDBRANCH  18  21
ENDBRANCH  17  18
ENDBRANCH  14  17
ENDBRANCH  13  14
ENDBRANCH  10  13
ENDBRANCH   4  10
BRANCH   3  26
ATOM     26  O3' CTP d   1      -9.767 -39.562  24.122  0.00  0.00    -0.390 OA
ATOM     27  H12 CTP d   1      -9.924 -40.153  23.395  0.00  0.00     0.210 HD
ENDBRANCH   3  26
BRANCH   2  28
ATOM     28  O2' CTP d   1     -11.737 -39.217  22.703  0.00  0.00    -0.388 OA
ATOM     29  H9  CTP d   1     -11.279 -39.427  21.898  0.00  0.00     0.210 HD
ENDBRANCH   2  28
BRANCH   1  30
ATOM     30  N1  CTP d   1     -12.973 -36.842  24.445  0.00  0.00    -0.301 N 
ATOM     31  C2  CTP d   1     -14.366 -37.385  24.378  0.00  0.00     0.326 A 
ATOM     32  N3  CTP d   1     -15.519 -36.462  24.258  0.00  0.00    -0.295 N 
ATOM     33  O2  CTP d   1     -14.594 -38.543  24.408  0.00  0.00    -0.247 OA
ATOM     34  C4  CTP d   1     -15.349 -35.047  24.215  0.00  0.00     0.100 A 
ATOM     35  H1  CTP d   1     -16.442 -36.842  24.206  0.00  0.00     0.172 HD
ATOM     36  C5  CTP d   1     -13.974 -34.479  24.285  0.00  0.00    -0.044 A 
ATOM     37  C6  CTP d   1     -12.802 -35.398  24.411  0.00  0.00     0.020 A 
ATOM     38  H2  CTP d   1     -13.823 -33.401  24.245  0.00  0.00     0.085 H 
ATOM     39  H3  CTP d   1     -12.145 -35.183  23.556  0.00  0.00     0.070 H 
ATOM     40  H4  CTP d   1     -12.290 -35.123  25.345  0.00  0.00     0.070 H 
BRANCH  34  41
ATOM     41  N4  CTP d   1     -16.539 -34.206  24.080  0.00  0.00    -0.386 N 
ATOM     42  H5  CTP d   1     -16.444 -33.181  24.047  0.00  0.00     0.157 HD
ATOM     43  H6  CTP d   1     -17.471 -34.639  24.018  0.00  0.00     0.157 HD
ENDBRANCH  34  41
ENDBRANCH   1  30
TORSDOF 11
