REMARK  20 active torsions:
REMARK  status: ('A' for Active; 'I' for Inactive)
REMARK    1  A    between atoms: C11_15  and  C13_1 
REMARK    2  A    between atoms: O20_47  and  C21_2 
REMARK    3  A    between atoms: C24_4  and  C26_5 
REMARK    4  A    between atoms: C16_16  and  C24_4 
REMARK    5  A    between atoms: C24_4  and  C25_19 
REMARK    6  A    between atoms: C24_4  and  C27_20 
REMARK    7  A    between atoms: C01_6  and  C16_16 
REMARK       I    between atoms: N14_39  and  C01_6 
REMARK    8  A    between atoms: C02_7  and  O28_48 
REMARK    9  A    between atoms: C07_12  and  C06_11 
REMARK   10  A    between atoms: C42_31  and  C09_14 
REMARK   11  A    between atoms: C09_14  and  N10_38 
REMARK       I    between atoms: N10_38  and  C11_15 
REMARK   12  A    between atoms: C16_16  and  N17_40 
REMARK       I    between atoms: N17_40  and  C18_17 
REMARK   13  A    between atoms: C18_17  and  O20_47 
REMARK   14  A    between atoms: O28_48  and  C29_21 
REMARK   15  A    between atoms: C30_22  and  C31_23 
REMARK   16  A    between atoms: C36_27  and  O40_49 
REMARK   17  A    between atoms: O40_49  and  C41_30 
REMARK       I    between atoms: N44_43  and  C42_31 
REMARK   18  A    between atoms: C48_32  and  C53_37 
REMARK   19  A    between atoms: S45_53  and  C48_32 
REMARK   20  A    between atoms: N44_43  and  S45_53 
ROOT
ATOM      1  C13 FH1 d   1     -13.570  -9.822  14.196  0.00  0.00     0.094 C 
ATOM      2  C01 FH1 d   1     -15.997  -8.920  14.150  0.00  0.00     0.244 C 
ATOM      3  C02 FH1 d   1     -13.820 -11.679  12.942  0.00  0.00     0.064 C 
ATOM      4  C03 FH1 d   1     -12.849 -10.833  13.270  0.00  0.00    -0.011 C 
ATOM      5  C04 FH1 d   1     -15.113 -10.755  12.663  0.00  0.00     0.023 C 
ATOM      6  N14 FH1 d   1     -14.989  -9.842  13.633  0.00  0.00    -0.334 N 
ATOM      7  O15 FH1 d   1     -15.747  -8.167  15.053  0.00  0.00    -0.271 OA
ATOM      8  H1  FH1 d   1     -13.525 -10.178  15.236  0.00  0.00     0.088 H 
ATOM      9  H8  FH1 d   1     -13.519 -12.311  12.093  0.00  0.00     0.086 H 
ATOM     10  H9  FH1 d   1     -12.037 -11.350  13.803  0.00  0.00     0.040 H 
ATOM     11  H10 FH1 d   1     -12.442 -10.333  12.379  0.00  0.00     0.040 H 
ATOM     12  H11 FH1 d   1     -16.047 -11.327  12.764  0.00  0.00     0.068 H 
ATOM     13  H12 FH1 d   1     -15.072 -10.293  11.666  0.00  0.00     0.068 H 
ENDROOT
BRANCH   1  14
ATOM     14  C11 FH1 d   1     -13.159  -8.402  14.157  0.00  0.00     0.241 C 
ATOM     15  N10 FH1 d   1     -12.567  -7.890  15.372  0.00  0.00    -0.341 N 
ATOM     16  H48 FH1 d   1     -12.365  -8.551  16.095  0.00  0.00     0.163 HD
ATOM     17  O12 FH1 d   1     -13.277  -7.686  13.201  0.00  0.00    -0.271 OA
BRANCH  15  18
ATOM     18  C09 FH1 d   1     -12.243  -6.511  15.632  0.00  0.00     0.122 A 
ATOM     19  C07 FH1 d   1     -13.492  -5.675  15.957  0.00  0.00    -0.003 A 
ATOM     20  C08 FH1 d   1     -12.553  -6.098  17.067  0.00  0.00    -0.023 A 
ATOM     21  H16 FH1 d   1     -14.498  -6.111  15.876  0.00  0.00     0.050 H 
ATOM     22  H17 FH1 d   1     -12.874  -6.855  17.798  0.00  0.00     0.038 H 
ATOM     23  H18 FH1 d   1     -11.925  -5.347  17.569  0.00  0.00     0.038 H 
BRANCH  19  24
ATOM     24  C06 FH1 d   1     -13.513  -4.187  15.531  0.00  0.00    -0.105 C 
ATOM     25  C05 FH1 d   1     -14.558  -3.746  14.802  0.00  0.00    -0.124 C 
ATOM     26  H13 FH1 d   1     -14.601  -2.704  14.487  0.00  0.00     0.066 H 
ATOM     27  H14 FH1 d   1     -15.359  -4.431  14.528  0.00  0.00     0.066 H 
ATOM     28  H15 FH1 d   1     -12.705  -3.514  15.813  0.00  0.00     0.076 H 
ENDBRANCH  19  24
BRANCH  18  29
ATOM     29  C42 FH1 d   1     -11.042  -5.838  15.078  0.00  0.00     0.260 C 
ATOM     30  N44 FH1 d   1     -10.344  -6.646  14.129  0.00  0.00    -0.252 N 
ATOM     31  H50 FH1 d   1     -10.629  -7.572  13.882  0.00  0.00     0.181 HD
ATOM     32  O43 FH1 d   1     -10.670  -4.775  15.432  0.00  0.00    -0.270 OA
BRANCH  30  33
ATOM     33  S45 FH1 d   1      -9.036  -5.910  13.487  0.00  0.00     0.241 S 
ATOM     34  O46 FH1 d   1      -7.976  -5.487  14.392  0.00  0.00    -0.205 OA
ATOM     35  O47 FH1 d   1      -9.523  -4.761  12.707  0.00  0.00    -0.205 OA
BRANCH  33  36
ATOM     36  C48 FH1 d   1      -8.382  -7.017  12.244  0.00  0.00     0.079 A 
ATOM     37  C49 FH1 d   1      -7.287  -7.929  12.737  0.00  0.00    -0.042 A 
ATOM     38  C50 FH1 d   1      -6.929  -6.733  11.877  0.00  0.00    -0.042 A 
ATOM     39  H37 FH1 d   1      -7.195  -8.946  12.328  0.00  0.00     0.035 H 
ATOM     40  H38 FH1 d   1      -7.019  -7.937  13.804  0.00  0.00     0.035 H 
ATOM     41  H39 FH1 d   1      -6.407  -5.872  12.320  0.00  0.00     0.035 H 
ATOM     42  H40 FH1 d   1      -6.582  -6.881  10.844  0.00  0.00     0.035 H 
BRANCH  36  43
ATOM     43  C53 FH1 d   1      -9.379  -7.544  11.215  0.00  0.00    -0.054 C 
ATOM     44  H45 FH1 d   1      -8.860  -8.210  10.509  0.00  0.00     0.029 H 
ATOM     45  H46 FH1 d   1      -9.820  -6.699  10.665  0.00  0.00     0.029 H 
ATOM     46  H47 FH1 d   1     -10.175  -8.103  11.729  0.00  0.00     0.029 H 
ENDBRANCH  36  43
ENDBRANCH  33  36
ENDBRANCH  30  33
ENDBRANCH  18  29
ENDBRANCH  15  18
ENDBRANCH   1  14
BRANCH   2  47
ATOM     47  C16 FH1 d   1     -17.387  -8.998  13.514  0.00  0.00     0.098 C 
ATOM     48  H19 FH1 d   1     -17.440  -9.863  12.836  0.00  0.00     0.088 H 
BRANCH  47  49
ATOM     49  C24 FH1 d   1     -17.613  -7.708  12.703  0.00  0.00    -0.022 C 
BRANCH  49  50
ATOM     50  C26 FH1 d   1     -18.896  -7.985  11.890  0.00  0.00    -0.067 C 
ATOM     51  H5  FH1 d   1     -19.136  -7.106  11.274  0.00  0.00     0.028 H 
ATOM     52  H6  FH1 d   1     -19.729  -8.189  12.578  0.00  0.00     0.028 H 
ATOM     53  H7  FH1 d   1     -18.736  -8.857  11.239  0.00  0.00     0.028 H 
ENDBRANCH  49  50
BRANCH  49  54
ATOM     54  C25 FH1 d   1     -17.781  -6.462  13.589  0.00  0.00    -0.067 C 
ATOM     55  H22 FH1 d   1     -17.938  -5.578  12.953  0.00  0.00     0.028 H 
ATOM     56  H23 FH1 d   1     -16.875  -6.320  14.197  0.00  0.00     0.028 H 
ATOM     57  H24 FH1 d   1     -18.649  -6.597  14.251  0.00  0.00     0.028 H 
ENDBRANCH  49  54
BRANCH  49  58
ATOM     58  C27 FH1 d   1     -16.494  -7.384  11.692  0.00  0.00    -0.067 C 
ATOM     59  H25 FH1 d   1     -16.335  -8.249  11.031  0.00  0.00     0.028 H 
ATOM     60  H26 FH1 d   1     -15.563  -7.161  12.234  0.00  0.00     0.028 H 
ATOM     61  H27 FH1 d   1     -16.786  -6.511  11.089  0.00  0.00     0.028 H 
ENDBRANCH  49  58
ENDBRANCH  47  49
BRANCH  47  62
ATOM     62  N17 FH1 d   1     -18.343  -9.161  14.544  0.00  0.00    -0.323 N 
ATOM     63  C18 FH1 d   1     -18.680 -10.504  14.907  0.00  0.00     0.361 C 
ATOM     64  O19 FH1 d   1     -18.281 -11.455  14.324  0.00  0.00    -0.238 OA
ATOM     65  H49 FH1 d   1     -18.764  -8.375  14.997  0.00  0.00     0.165 HD
BRANCH  63  66
ATOM     66  O20 FH1 d   1     -19.519 -10.582  15.987  0.00  0.00    -0.299 OA
BRANCH  66  67
ATOM     67  C21 FH1 d   1     -20.001 -11.773  16.275  0.00  0.00     0.050 C 
ATOM     68  C22 FH1 d   1     -21.150 -11.553  17.370  0.00  0.00    -0.040 C 
ATOM     69  C51 FH1 d   1     -20.376 -11.351  18.473  0.00  0.00    -0.063 C 
ATOM     70  H3  FH1 d   1     -21.791 -12.441  17.476  0.00  0.00     0.036 H 
ATOM     71  H4  FH1 d   1     -21.773 -10.676  17.140  0.00  0.00     0.036 H 
ATOM     72  C52 FH1 d   1     -19.216 -12.495  18.378  0.00  0.00    -0.063 C 
ATOM     73  H41 FH1 d   1     -20.969 -11.475  19.391  0.00  0.00     0.033 H 
ATOM     74  H42 FH1 d   1     -19.931 -10.345  18.456  0.00  0.00     0.033 H 
ATOM     75  C23 FH1 d   1     -18.913 -12.572  17.039  0.00  0.00    -0.040 C 
ATOM     76  H43 FH1 d   1     -18.331 -12.199  18.960  0.00  0.00     0.033 H 
ATOM     77  H44 FH1 d   1     -19.592 -13.461  18.747  0.00  0.00     0.033 H 
ATOM     78  H20 FH1 d   1     -17.922 -12.133  16.851  0.00  0.00     0.036 H 
ATOM     79  H21 FH1 d   1     -18.917 -13.622  16.712  0.00  0.00     0.036 H 
ATOM     80  H2  FH1 d   1     -20.359 -12.299  15.378  0.00  0.00     0.084 H 
ENDBRANCH  66  67
ENDBRANCH  63  66
ENDBRANCH  47  62
ENDBRANCH   2  47
BRANCH   3  81
ATOM     81  O28 FH1 d   1     -14.369 -12.462  14.049  0.00  0.00    -0.326 OA
BRANCH  81  82
ATOM     82  C29 FH1 d   1     -13.693 -13.646  14.259  0.00  0.00     0.190 A 
ATOM     83  C30 FH1 d   1     -13.960 -14.392  15.533  0.00  0.00     0.084 A 
ATOM     84  N32 FH1 d   1     -13.256 -15.581  15.827  0.00  0.00    -0.247 NA
ATOM     85  C33 FH1 d   1     -12.299 -16.041  14.858  0.00  0.00     0.086 A 
ATOM     86  C34 FH1 d   1     -11.566 -17.339  15.186  0.00  0.00    -0.050 A 
ATOM     87  C38 FH1 d   1     -12.057 -15.296  13.587  0.00  0.00     0.091 A 
ATOM     88  C35 FH1 d   1     -10.580 -17.817  14.189  0.00  0.00    -0.048 A 
ATOM     89  H31 FH1 d   1     -11.757 -17.884  16.103  0.00  0.00     0.087 H 
ATOM     90  C36 FH1 d   1     -10.318 -17.038  12.931  0.00  0.00     0.070 A 
ATOM     91  H32 FH1 d   1     -10.041 -18.740  14.369  0.00  0.00     0.087 H 
ATOM     92  C37 FH1 d   1     -11.048 -15.763  12.560  0.00  0.00    -0.021 A 
ATOM     93  H33 FH1 d   1     -10.863 -15.229  11.635  0.00  0.00     0.091 H 
ATOM     94  N39 FH1 d   1     -12.749 -14.080  13.285  0.00  0.00    -0.221 NA
BRANCH  83  95
ATOM     95  C31 FH1 d   1     -14.968 -13.865  16.530  0.00  0.00    -0.031 C 
ATOM     96  H28 FH1 d   1     -15.022 -14.546  17.392  0.00  0.00     0.035 H 
ATOM     97  H29 FH1 d   1     -15.957 -13.800  16.052  0.00  0.00     0.035 H 
ATOM     98  H30 FH1 d   1     -14.659 -12.866  16.871  0.00  0.00     0.035 H 
ENDBRANCH  83  95
BRANCH  90  99
ATOM     99  O40 FH1 d   1      -9.425 -17.618  12.092  0.00  0.00    -0.356 OA
BRANCH  99 100
ATOM    100  C41 FH1 d   1      -9.155 -16.895  10.896  0.00  0.00     0.010 C 
ATOM    101  H34 FH1 d   1      -8.423 -17.449  10.290  0.00  0.00     0.066 H 
ATOM    102  H35 FH1 d   1      -8.747 -15.905  11.150  0.00  0.00     0.066 H 
ATOM    103  H36 FH1 d   1     -10.086 -16.772  10.324  0.00  0.00     0.066 H 
ENDBRANCH  99 100
ENDBRANCH  90  99
ENDBRANCH  81  82
ENDBRANCH   3  81
TORSDOF 20
