REMARK  22 active torsions:
REMARK  status: ('A' for Active; 'I' for Inactive)
REMARK    1  A    between atoms: C11_15  and  C13_1 
REMARK    2  A    between atoms: O20_49  and  C21_2 
REMARK    3  A    between atoms: C24_4  and  C26_5 
REMARK    4  A    between atoms: C16_16  and  C24_4 
REMARK    5  A    between atoms: C24_4  and  C25_19 
REMARK    6  A    between atoms: C24_4  and  C27_20 
REMARK    7  A    between atoms: C01_6  and  C16_16 
REMARK       I    between atoms: N14_41  and  C01_6 
REMARK    8  A    between atoms: C02_7  and  O28_50 
REMARK    9  A    between atoms: C07_12  and  C06_11 
REMARK   10  A    between atoms: C42_31  and  C09_14 
REMARK   11  A    between atoms: C09_14  and  N10_40 
REMARK       I    between atoms: N10_40  and  C11_15 
REMARK   12  A    between atoms: C16_16  and  N17_42 
REMARK       I    between atoms: N17_42  and  C18_17 
REMARK   13  A    between atoms: C18_17  and  O20_49 
REMARK   14  A    between atoms: O28_50  and  C29_21 
REMARK   15  A    between atoms: C30_22  and  C31_23 
REMARK   16  A    between atoms: C31_23  and  C53_37 
REMARK   17  A    between atoms: C31_23  and  C55_39 
REMARK   18  A    between atoms: C36_27  and  O40_51 
REMARK   19  A    between atoms: O40_51  and  C41_30 
REMARK       I    between atoms: N44_45  and  C42_31 
REMARK   20  A    between atoms: C48_32  and  C54_38 
REMARK   21  A    between atoms: S45_55  and  C48_32 
REMARK   22  A    between atoms: N44_45  and  S45_55 
ROOT
ATOM      1  C13 FH4 d   1     -13.550  -9.805  14.055  0.00  0.00     0.094 C 
ATOM      2  C01 FH4 d   1     -16.007  -8.929  14.086  0.00  0.00     0.244 C 
ATOM      3  C02 FH4 d   1     -13.853 -11.586  12.668  0.00  0.00     0.064 C 
ATOM      4  C03 FH4 d   1     -12.893 -10.765  13.099  0.00  0.00    -0.011 C 
ATOM      5  C04 FH4 d   1     -15.101 -10.622  12.403  0.00  0.00     0.023 C 
ATOM      6  N14 FH4 d   1     -15.001  -9.769  13.512  0.00  0.00    -0.334 N 
ATOM      7  O15 FH4 d   1     -15.695  -8.251  15.080  0.00  0.00    -0.271 OA
ATOM      8  H1  FH4 d   1     -13.491 -10.219  15.072  0.00  0.00     0.088 H 
ATOM      9  H8  FH4 d   1     -13.516 -12.137  11.777  0.00  0.00     0.086 H 
ATOM     10  H9  FH4 d   1     -12.107 -11.337  13.614  0.00  0.00     0.040 H 
ATOM     11  H10 FH4 d   1     -12.453 -10.217  12.253  0.00  0.00     0.040 H 
ATOM     12  H11 FH4 d   1     -16.051 -11.177  12.401  0.00  0.00     0.068 H 
ATOM     13  H12 FH4 d   1     -14.996 -10.072  11.456  0.00  0.00     0.068 H 
ENDROOT
BRANCH   1  14
ATOM     14  C11 FH4 d   1     -13.153  -8.389  14.105  0.00  0.00     0.241 C 
ATOM     15  N10 FH4 d   1     -12.499  -7.999  15.285  0.00  0.00    -0.341 N 
ATOM     16  H52 FH4 d   1     -12.230  -8.704  15.942  0.00  0.00     0.163 HD
ATOM     17  O12 FH4 d   1     -13.276  -7.588  13.192  0.00  0.00    -0.271 OA
BRANCH  15  18
ATOM     18  C09 FH4 d   1     -12.201  -6.620  15.585  0.00  0.00     0.122 A 
ATOM     19  C07 FH4 d   1     -13.449  -5.793  15.974  0.00  0.00    -0.003 A 
ATOM     20  C08 FH4 d   1     -12.488  -6.244  17.055  0.00  0.00    -0.023 A 
ATOM     21  H16 FH4 d   1     -14.461  -6.219  15.908  0.00  0.00     0.050 H 
ATOM     22  H17 FH4 d   1     -12.793  -7.022  17.770  0.00  0.00     0.038 H 
ATOM     23  H18 FH4 d   1     -11.852  -5.506  17.566  0.00  0.00     0.038 H 
BRANCH  19  24
ATOM     24  C06 FH4 d   1     -13.450  -4.300  15.560  0.00  0.00    -0.105 C 
ATOM     25  C05 FH4 d   1     -14.443  -3.805  14.818  0.00  0.00    -0.124 C 
ATOM     26  H13 FH4 d   1     -14.437  -2.755  14.531  0.00  0.00     0.066 H 
ATOM     27  H14 FH4 d   1     -15.259  -4.452  14.500  0.00  0.00     0.066 H 
ATOM     28  H15 FH4 d   1     -12.635  -3.650  15.876  0.00  0.00     0.076 H 
ENDBRANCH  19  24
BRANCH  18  29
ATOM     29  C42 FH4 d   1     -11.025  -5.904  15.055  0.00  0.00     0.260 C 
ATOM     30  N44 FH4 d   1     -10.312  -6.699  14.133  0.00  0.00    -0.252 N 
ATOM     31  H54 FH4 d   1     -10.577  -7.635  13.902  0.00  0.00     0.181 HD
ATOM     32  O43 FH4 d   1     -10.693  -4.825  15.397  0.00  0.00    -0.270 OA
BRANCH  30  33
ATOM     33  S45 FH4 d   1      -9.017  -5.955  13.477  0.00  0.00     0.241 S 
ATOM     34  O46 FH4 d   1      -7.953  -5.466  14.355  0.00  0.00    -0.205 OA
ATOM     35  O47 FH4 d   1      -9.526  -4.809  12.685  0.00  0.00    -0.205 OA
BRANCH  33  36
ATOM     36  C48 FH4 d   1      -8.365  -7.052  12.240  0.00  0.00     0.079 A 
ATOM     37  C49 FH4 d   1      -6.944  -6.684  11.865  0.00  0.00    -0.042 A 
ATOM     38  C50 FH4 d   1      -7.242  -7.938  12.688  0.00  0.00    -0.042 A 
ATOM     39  H35 FH4 d   1      -6.455  -5.818  12.335  0.00  0.00     0.035 H 
ATOM     40  H36 FH4 d   1      -6.606  -6.775  10.822  0.00  0.00     0.035 H 
ATOM     41  H37 FH4 d   1      -7.114  -8.934  12.239  0.00  0.00     0.035 H 
ATOM     42  H38 FH4 d   1      -6.963  -7.977  13.751  0.00  0.00     0.035 H 
BRANCH  36  43
ATOM     43  C54 FH4 d   1      -9.373  -7.557  11.167  0.00  0.00    -0.054 C 
ATOM     44  H46 FH4 d   1      -8.855  -8.224  10.462  0.00  0.00     0.029 H 
ATOM     45  H47 FH4 d   1      -9.788  -6.697  10.621  0.00  0.00     0.029 H 
ATOM     46  H48 FH4 d   1     -10.188  -8.107  11.660  0.00  0.00     0.029 H 
ENDBRANCH  36  43
ENDBRANCH  33  36
ENDBRANCH  30  33
ENDBRANCH  18  29
ENDBRANCH  15  18
ENDBRANCH   1  14
BRANCH   2  47
ATOM     47  C16 FH4 d   1     -17.385  -8.973  13.447  0.00  0.00     0.098 C 
ATOM     48  H19 FH4 d   1     -17.441  -9.810  12.736  0.00  0.00     0.088 H 
BRANCH  47  49
ATOM     49  C24 FH4 d   1     -17.631  -7.665  12.693  0.00  0.00    -0.022 C 
BRANCH  49  50
ATOM     50  C26 FH4 d   1     -16.526  -7.385  11.664  0.00  0.00    -0.067 C 
ATOM     51  H5  FH4 d   1     -16.739  -6.439  11.145  0.00  0.00     0.028 H 
ATOM     52  H6  FH4 d   1     -16.491  -8.205  10.932  0.00  0.00     0.028 H 
ATOM     53  H7  FH4 d   1     -15.556  -7.311  12.178  0.00  0.00     0.028 H 
ENDBRANCH  49  50
BRANCH  49  54
ATOM     54  C25 FH4 d   1     -18.986  -7.874  11.971  0.00  0.00    -0.067 C 
ATOM     55  H22 FH4 d   1     -19.240  -6.969  11.399  0.00  0.00     0.028 H 
ATOM     56  H23 FH4 d   1     -19.772  -8.070  12.715  0.00  0.00     0.028 H 
ATOM     57  H24 FH4 d   1     -18.908  -8.731  11.286  0.00  0.00     0.028 H 
ENDBRANCH  49  54
BRANCH  49  58
ATOM     58  C27 FH4 d   1     -17.705  -6.462  13.658  0.00  0.00    -0.067 C 
ATOM     59  H25 FH4 d   1     -16.734  -6.333  14.158  0.00  0.00     0.028 H 
ATOM     60  H26 FH4 d   1     -18.485  -6.644  14.412  0.00  0.00     0.028 H 
ATOM     61  H27 FH4 d   1     -17.949  -5.552  13.091  0.00  0.00     0.028 H 
ENDBRANCH  49  58
ENDBRANCH  47  49
BRANCH  47  62
ATOM     62  N17 FH4 d   1     -18.319  -9.178  14.480  0.00  0.00    -0.323 N 
ATOM     63  C18 FH4 d   1     -18.658 -10.512  14.822  0.00  0.00     0.361 C 
ATOM     64  O19 FH4 d   1     -18.266 -11.489  14.220  0.00  0.00    -0.238 OA
ATOM     65  H53 FH4 d   1     -18.732  -8.404  14.960  0.00  0.00     0.165 HD
BRANCH  63  66
ATOM     66  O20 FH4 d   1     -19.502 -10.578  15.914  0.00  0.00    -0.299 OA
BRANCH  66  67
ATOM     67  C21 FH4 d   1     -19.810 -11.998  16.206  0.00  0.00     0.050 C 
ATOM     68  C22 FH4 d   1     -21.065 -12.089  16.679  0.00  0.00    -0.040 C 
ATOM     69  C51 FH4 d   1     -20.869 -11.319  18.138  0.00  0.00    -0.063 C 
ATOM     70  H3  FH4 d   1     -21.380 -13.135  16.807  0.00  0.00     0.036 H 
ATOM     71  H4  FH4 d   1     -21.785 -11.566  16.033  0.00  0.00     0.036 H 
ATOM     72  C52 FH4 d   1     -19.648 -11.756  18.635  0.00  0.00    -0.063 C 
ATOM     73  H39 FH4 d   1     -21.682 -11.591  18.827  0.00  0.00     0.033 H 
ATOM     74  H40 FH4 d   1     -20.857 -10.228  17.997  0.00  0.00     0.033 H 
ATOM     75  C23 FH4 d   1     -18.920 -12.463  17.420  0.00  0.00    -0.040 C 
ATOM     76  H41 FH4 d   1     -19.053 -10.904  18.995  0.00  0.00     0.033 H 
ATOM     77  H42 FH4 d   1     -19.802 -12.470  19.458  0.00  0.00     0.033 H 
ATOM     78  H20 FH4 d   1     -17.883 -12.113  17.315  0.00  0.00     0.036 H 
ATOM     79  H21 FH4 d   1     -18.929 -13.558  17.528  0.00  0.00     0.036 H 
ATOM     80  H2  FH4 d   1     -19.658 -12.626  15.316  0.00  0.00     0.084 H 
ENDBRANCH  66  67
ENDBRANCH  63  66
ENDBRANCH  47  62
ENDBRANCH   2  47
BRANCH   3  81
ATOM     81  O28 FH4 d   1     -14.439 -12.482  13.652  0.00  0.00    -0.326 OA
BRANCH  81  82
ATOM     82  C29 FH4 d   1     -13.734 -13.633  13.887  0.00  0.00     0.191 A 
ATOM     83  C30 FH4 d   1     -14.028 -14.413  15.116  0.00  0.00     0.091 A 
ATOM     84  N32 FH4 d   1     -13.293 -15.588  15.416  0.00  0.00    -0.246 NA
ATOM     85  C33 FH4 d   1     -12.302 -16.019  14.484  0.00  0.00     0.086 A 
ATOM     86  C34 FH4 d   1     -11.497 -17.271  14.836  0.00  0.00    -0.050 A 
ATOM     87  C38 FH4 d   1     -12.033 -15.225  13.249  0.00  0.00     0.091 A 
ATOM     88  C35 FH4 d   1     -10.445 -17.709  13.885  0.00  0.00    -0.048 A 
ATOM     89  H29 FH4 d   1     -11.689 -17.821  15.751  0.00  0.00     0.087 H 
ATOM     90  C36 FH4 d   1     -10.199 -16.938  12.630  0.00  0.00     0.070 A 
ATOM     91  H30 FH4 d   1      -9.854 -18.591  14.102  0.00  0.00     0.087 H 
ATOM     92  C37 FH4 d   1     -10.964 -15.660  12.261  0.00  0.00    -0.021 A 
ATOM     93  H31 FH4 d   1     -10.755 -15.104  11.354  0.00  0.00     0.091 H 
ATOM     94  N39 FH4 d   1     -12.755 -14.048  12.946  0.00  0.00    -0.221 NA
BRANCH  83  95
ATOM     95  C31 FH4 d   1     -15.115 -13.931  16.057  0.00  0.00    -0.014 C 
ATOM     96  H28 FH4 d   1     -15.430 -12.908  15.802  0.00  0.00     0.048 H 
BRANCH  95  97
ATOM     97  C53 FH4 d   1     -14.592 -13.953  17.473  0.00  0.00    -0.068 C 
ATOM     98  H43 FH4 d   1     -15.377 -13.604  18.159  0.00  0.00     0.028 H 
ATOM     99  H44 FH4 d   1     -13.717 -13.291  17.551  0.00  0.00     0.028 H 
ATOM    100  H45 FH4 d   1     -14.301 -14.979  17.741  0.00  0.00     0.028 H 
ENDBRANCH  95  97
BRANCH  95 101
ATOM    101  C55 FH4 d   1     -16.264 -14.902  15.840  0.00  0.00    -0.068 C 
ATOM    102  H49 FH4 d   1     -16.602 -14.842  14.795  0.00  0.00     0.028 H 
ATOM    103  H50 FH4 d   1     -17.096 -14.641  16.510  0.00  0.00     0.028 H 
ATOM    104  H51 FH4 d   1     -15.925 -15.926  16.058  0.00  0.00     0.028 H 
ENDBRANCH  95 101
ENDBRANCH  83  95
BRANCH  90 105
ATOM    105  O40 FH4 d   1      -9.247 -17.417  11.763  0.00  0.00    -0.356 OA
BRANCH 105 106
ATOM    106  C41 FH4 d   1      -9.077 -16.601  10.621  0.00  0.00     0.010 C 
ATOM    107  H32 FH4 d   1      -8.305 -17.037   9.970  0.00  0.00     0.066 H 
ATOM    108  H33 FH4 d   1      -8.766 -15.593  10.933  0.00  0.00     0.066 H 
ATOM    109  H34 FH4 d   1     -10.027 -16.538  10.071  0.00  0.00     0.066 H 
ENDBRANCH 105 106
ENDBRANCH  90 105
ENDBRANCH  81  82
ENDBRANCH   3  81
TORSDOF 22
