REMARK  19 active torsions:
REMARK  status: ('A' for Active; 'I' for Inactive)
REMARK    1  A    between atoms: C11_15  and  C13_1 
REMARK    2  A    between atoms: O20_46  and  C21_2 
REMARK    3  A    between atoms: C24_4  and  C26_5 
REMARK    4  A    between atoms: C16_16  and  C24_4 
REMARK    5  A    between atoms: C24_4  and  C25_19 
REMARK    6  A    between atoms: C24_4  and  C27_20 
REMARK    7  A    between atoms: C01_6  and  C16_16 
REMARK       I    between atoms: N14_38  and  C01_6 
REMARK    8  A    between atoms: C02_7  and  O28_47 
REMARK    9  A    between atoms: C07_12  and  C06_11 
REMARK   10  A    between atoms: C42_30  and  C09_14 
REMARK   11  A    between atoms: C09_14  and  N10_37 
REMARK       I    between atoms: N10_37  and  C11_15 
REMARK   12  A    between atoms: C16_16  and  N17_39 
REMARK       I    between atoms: N17_39  and  C18_17 
REMARK   13  A    between atoms: C18_17  and  O20_46 
REMARK   14  A    between atoms: O28_47  and  C29_21 
REMARK   15  A    between atoms: C36_26  and  O40_48 
REMARK   16  A    between atoms: O40_48  and  C41_29 
REMARK       I    between atoms: N44_42  and  C42_30 
REMARK   17  A    between atoms: C48_31  and  C53_36 
REMARK   18  A    between atoms: S45_52  and  C48_31 
REMARK   19  A    between atoms: N44_42  and  S45_52 
ROOT
ATOM      1  C13 FHD d   1     -13.486  -9.906  14.157  0.00  0.00     0.094 C 
ATOM      2  C01 FHD d   1     -16.008  -8.906  14.107  0.00  0.00     0.244 C 
ATOM      3  C02 FHD d   1     -13.993 -11.783  12.987  0.00  0.00     0.064 C 
ATOM      4  C03 FHD d   1     -12.845 -10.730  13.319  0.00  0.00    -0.011 C 
ATOM      5  C04 FHD d   1     -15.164 -10.816  12.638  0.00  0.00     0.023 C 
ATOM      6  N14 FHD d   1     -15.017  -9.879  13.600  0.00  0.00    -0.334 N 
ATOM      7  O15 FHD d   1     -15.718  -8.130  14.987  0.00  0.00    -0.271 OA
ATOM      8  H1  FHD d   1     -13.412 -10.300  15.181  0.00  0.00     0.088 H 
ATOM      9  H8  FHD d   1     -13.714 -12.461  12.167  0.00  0.00     0.086 H 
ATOM     10  H9  FHD d   1     -11.984 -11.211  13.806  0.00  0.00     0.040 H 
ATOM     11  H10 FHD d   1     -12.507 -10.203  12.415  0.00  0.00     0.040 H 
ATOM     12  H11 FHD d   1     -16.139 -11.320  12.710  0.00  0.00     0.068 H 
ATOM     13  H12 FHD d   1     -15.047 -10.385  11.633  0.00  0.00     0.068 H 
ENDROOT
BRANCH   1  14
ATOM     14  C11 FHD d   1     -13.121  -8.418  14.149  0.00  0.00     0.241 C 
ATOM     15  N10 FHD d   1     -12.591  -7.957  15.407  0.00  0.00    -0.341 N 
ATOM     16  H45 FHD d   1     -12.427  -8.623  16.135  0.00  0.00     0.163 HD
ATOM     17  O12 FHD d   1     -13.277  -7.668  13.212  0.00  0.00    -0.271 OA
BRANCH  15  18
ATOM     18  C09 FHD d   1     -12.284  -6.546  15.656  0.00  0.00     0.122 A 
ATOM     19  C07 FHD d   1     -13.521  -5.706  15.975  0.00  0.00    -0.003 A 
ATOM     20  C08 FHD d   1     -12.568  -6.128  17.097  0.00  0.00    -0.023 A 
ATOM     21  H16 FHD d   1     -14.535  -6.124  15.892  0.00  0.00     0.050 H 
ATOM     22  H17 FHD d   1     -12.886  -6.879  17.835  0.00  0.00     0.038 H 
ATOM     23  H18 FHD d   1     -11.930  -5.378  17.588  0.00  0.00     0.038 H 
BRANCH  19  24
ATOM     24  C06 FHD d   1     -13.491  -4.223  15.564  0.00  0.00    -0.105 C 
ATOM     25  C05 FHD d   1     -14.464  -3.768  14.780  0.00  0.00    -0.124 C 
ATOM     26  H13 FHD d   1     -14.471  -2.724  14.472  0.00  0.00     0.066 H 
ATOM     27  H14 FHD d   1     -15.254  -4.440  14.446  0.00  0.00     0.066 H 
ATOM     28  H15 FHD d   1     -12.694  -3.564  15.906  0.00  0.00     0.076 H 
ENDBRANCH  19  24
BRANCH  18  29
ATOM     29  C42 FHD d   1     -11.064  -5.871  15.059  0.00  0.00     0.260 C 
ATOM     30  N44 FHD d   1     -10.368  -6.671  14.102  0.00  0.00    -0.252 N 
ATOM     31  H47 FHD d   1     -10.656  -7.597  13.857  0.00  0.00     0.181 HD
ATOM     32  O43 FHD d   1     -10.695  -4.792  15.382  0.00  0.00    -0.270 OA
BRANCH  30  33
ATOM     33  S45 FHD d   1      -9.041  -5.934  13.431  0.00  0.00     0.241 S 
ATOM     34  O46 FHD d   1      -8.002  -5.505  14.381  0.00  0.00    -0.205 OA
ATOM     35  O47 FHD d   1      -9.521  -4.749  12.702  0.00  0.00    -0.205 OA
BRANCH  33  36
ATOM     36  C48 FHD d   1      -8.373  -7.090  12.213  0.00  0.00     0.079 A 
ATOM     37  C49 FHD d   1      -6.942  -6.742  11.802  0.00  0.00    -0.042 A 
ATOM     38  C50 FHD d   1      -7.219  -7.972  12.678  0.00  0.00    -0.042 A 
ATOM     39  H34 FHD d   1      -6.444  -5.860  12.232  0.00  0.00     0.035 H 
ATOM     40  H35 FHD d   1      -6.622  -6.870  10.757  0.00  0.00     0.035 H 
ATOM     41  H36 FHD d   1      -7.097  -8.983  12.262  0.00  0.00     0.035 H 
ATOM     42  H37 FHD d   1      -6.919  -7.973  13.736  0.00  0.00     0.035 H 
BRANCH  36  43
ATOM     43  C53 FHD d   1      -9.335  -7.665  11.158  0.00  0.00    -0.054 C 
ATOM     44  H42 FHD d   1      -8.785  -8.347  10.493  0.00  0.00     0.029 H 
ATOM     45  H43 FHD d   1      -9.764  -6.843  10.566  0.00  0.00     0.029 H 
ATOM     46  H44 FHD d   1     -10.144  -8.216  11.661  0.00  0.00     0.029 H 
ENDBRANCH  36  43
ENDBRANCH  33  36
ENDBRANCH  30  33
ENDBRANCH  18  29
ENDBRANCH  15  18
ENDBRANCH   1  14
BRANCH   2  47
ATOM     47  C16 FHD d   1     -17.381  -8.964  13.478  0.00  0.00     0.098 C 
ATOM     48  H19 FHD d   1     -17.432  -9.819  12.788  0.00  0.00     0.088 H 
BRANCH  47  49
ATOM     49  C24 FHD d   1     -17.643  -7.664  12.687  0.00  0.00    -0.022 C 
BRANCH  49  50
ATOM     50  C26 FHD d   1     -18.966  -7.875  11.922  0.00  0.00    -0.067 C 
ATOM     51  H5  FHD d   1     -19.200  -6.972  11.339  0.00  0.00     0.028 H 
ATOM     52  H6  FHD d   1     -19.777  -8.069  12.639  0.00  0.00     0.028 H 
ATOM     53  H7  FHD d   1     -18.864  -8.734  11.243  0.00  0.00     0.028 H 
ENDBRANCH  49  50
BRANCH  49  54
ATOM     54  C25 FHD d   1     -17.796  -6.428  13.612  0.00  0.00    -0.067 C 
ATOM     55  H22 FHD d   1     -17.980  -5.533  13.000  0.00  0.00     0.028 H 
ATOM     56  H23 FHD d   1     -16.874  -6.290  14.195  0.00  0.00     0.028 H 
ATOM     57  H24 FHD d   1     -18.643  -6.585  14.296  0.00  0.00     0.028 H 
ENDBRANCH  49  54
BRANCH  49  58
ATOM     58  C27 FHD d   1     -16.485  -7.408  11.685  0.00  0.00    -0.067 C 
ATOM     59  H25 FHD d   1     -16.371  -8.281  11.026  0.00  0.00     0.028 H 
ATOM     60  H26 FHD d   1     -15.550  -7.243  12.240  0.00  0.00     0.028 H 
ATOM     61  H27 FHD d   1     -16.714  -6.519  11.079  0.00  0.00     0.028 H 
ENDBRANCH  49  58
ENDBRANCH  47  49
BRANCH  47  62
ATOM     62  N17 FHD d   1     -18.351  -9.140  14.516  0.00  0.00    -0.323 N 
ATOM     63  C18 FHD d   1     -18.735 -10.498  14.821  0.00  0.00     0.361 C 
ATOM     64  O19 FHD d   1     -18.396 -11.429  14.157  0.00  0.00    -0.238 OA
ATOM     65  H46 FHD d   1     -18.743  -8.361  15.005  0.00  0.00     0.165 HD
BRANCH  63  66
ATOM     66  O20 FHD d   1     -19.552 -10.601  15.950  0.00  0.00    -0.299 OA
BRANCH  66  67
ATOM     67  C21 FHD d   1     -20.021 -11.867  16.251  0.00  0.00     0.050 C 
ATOM     68  C22 FHD d   1     -21.207 -11.601  17.435  0.00  0.00    -0.040 C 
ATOM     69  C51 FHD d   1     -20.441 -11.349  18.543  0.00  0.00    -0.063 C 
ATOM     70  H3  FHD d   1     -21.838 -12.491  17.578  0.00  0.00     0.036 H 
ATOM     71  H4  FHD d   1     -21.841 -10.739  17.181  0.00  0.00     0.036 H 
ATOM     72  C52 FHD d   1     -19.181 -12.346  18.428  0.00  0.00    -0.063 C 
ATOM     73  H38 FHD d   1     -21.012 -11.555  19.460  0.00  0.00     0.033 H 
ATOM     74  H39 FHD d   1     -20.104 -10.302  18.548  0.00  0.00     0.033 H 
ATOM     75  C23 FHD d   1     -19.057 -12.628  16.836  0.00  0.00    -0.040 C 
ATOM     76  H40 FHD d   1     -18.268 -11.870  18.814  0.00  0.00     0.033 H 
ATOM     77  H41 FHD d   1     -19.369 -13.280  18.978  0.00  0.00     0.033 H 
ATOM     78  H20 FHD d   1     -18.062 -12.334  16.471  0.00  0.00     0.036 H 
ATOM     79  H21 FHD d   1     -19.226 -13.693  16.621  0.00  0.00     0.036 H 
ATOM     80  H2  FHD d   1     -20.426 -12.366  15.358  0.00  0.00     0.084 H 
ENDBRANCH  66  67
ENDBRANCH  63  66
ENDBRANCH  47  62
ENDBRANCH   2  47
BRANCH   3  81
ATOM     81  O28 FHD d   1     -14.401 -12.458  14.055  0.00  0.00    -0.325 OA
BRANCH  81  82
ATOM     82  C29 FHD d   1     -13.687 -13.640  14.272  0.00  0.00     0.207 A 
ATOM     83  C30 FHD d   1     -13.894 -14.412  15.550  0.00  0.00     0.179 A 
ATOM     84  N32 FHD d   1     -13.234 -15.622  15.902  0.00  0.00    -0.230 NA
ATOM     85 CL   FHD d   1     -15.053 -13.797  16.674  0.00  0.00    -0.058 Cl
ATOM     86  C33 FHD d   1     -12.279 -16.115  14.945  0.00  0.00     0.087 A 
ATOM     87  C34 FHD d   1     -11.526 -17.421  15.248  0.00  0.00    -0.050 A 
ATOM     88  C38 FHD d   1     -12.071 -15.365  13.664  0.00  0.00     0.091 A 
ATOM     89  C35 FHD d   1     -10.534 -17.916  14.224  0.00  0.00    -0.048 A 
ATOM     90  H28 FHD d   1     -11.702 -17.968  16.167  0.00  0.00     0.087 H 
ATOM     91  C36 FHD d   1     -10.309 -17.136  12.937  0.00  0.00     0.070 A 
ATOM     92  H29 FHD d   1      -9.980 -18.830  14.406  0.00  0.00     0.087 H 
ATOM     93  C37 FHD d   1     -11.066 -15.854  12.630  0.00  0.00    -0.021 A 
ATOM     94  H30 FHD d   1     -10.897 -15.308  11.709  0.00  0.00     0.091 H 
ATOM     95  N39 FHD d   1     -12.748 -14.128  13.325  0.00  0.00    -0.220 NA
BRANCH  91  96
ATOM     96  O40 FHD d   1      -9.411 -17.627  12.024  0.00  0.00    -0.356 OA
BRANCH  96  97
ATOM     97  C41 FHD d   1      -9.165 -16.864  10.844  0.00  0.00     0.010 C 
ATOM     98  H31 FHD d   1      -8.427 -17.386  10.217  0.00  0.00     0.066 H 
ATOM     99  H32 FHD d   1      -8.774 -15.874  11.122  0.00  0.00     0.066 H 
ATOM    100  H33 FHD d   1     -10.103 -16.744  10.283  0.00  0.00     0.066 H 
ENDBRANCH  96  97
ENDBRANCH  91  96
ENDBRANCH  81  82
ENDBRANCH   3  81
TORSDOF 19
