REMARK  9 active torsions:
REMARK  status: ('A' for Active; 'I' for Inactive)
REMARK    1  A    between atoms: C1_1  and  O1_6 
REMARK    2  A    between atoms: C2_2  and  O2_11 
REMARK    3  A    between atoms: C3_3  and  O3_12 
REMARK    4  A    between atoms: C4_4  and  O4_13 
REMARK    5  A    between atoms: C5_5  and  O5_14 
REMARK    6  A    between atoms: O1_6  and  P1_19 
REMARK    7  A    between atoms: C6_7  and  O6_18 
REMARK    8  A    between atoms: O3_12  and  P3_21 
REMARK    9  A    between atoms: O5_14  and  P5_20 
ROOT
ATOM      1  C1  FGV d   1      12.465   9.515  -1.218  0.00  0.00     0.106 C 
ATOM      2  C2  FGV d   1      12.613   9.281   0.304  0.00  0.00     0.091 C 
ATOM      3  C3  FGV d   1      12.054  10.488   1.085  0.00  0.00     0.106 C 
ATOM      4  C4  FGV d   1      10.574  10.735   0.716  0.00  0.00     0.091 C 
ATOM      5  C5  FGV d   1      10.422  10.961  -0.802  0.00  0.00     0.106 C 
ATOM      6  C6  FGV d   1      10.986   9.756  -1.586  0.00  0.00     0.091 C 
ATOM      7  H1  FGV d   1      13.059  10.395  -1.506  0.00  0.00     0.092 H 
ATOM      8  H2  FGV d   1      13.681   9.165   0.542  0.00  0.00     0.091 H 
ATOM      9  H3  FGV d   1      12.644  11.383   0.837  0.00  0.00     0.092 H 
ATOM     10  H4  FGV d   1       9.982   9.856   1.010  0.00  0.00     0.091 H 
ATOM     11  H5  FGV d   1      10.965  11.872  -1.092  0.00  0.00     0.092 H 
ATOM     12  H6  FGV d   1      10.400   8.860  -1.335  0.00  0.00     0.091 H 
ENDROOT
BRANCH   1  13
ATOM     13  O1  FGV d   1      12.931   8.380  -1.924  0.00  0.00    -0.272 OA
BRANCH  13  14
ATOM     14  P1  FGV d   1      14.532   8.679  -2.568  0.00  0.00     0.422 P 
ATOM     15  O11 FGV d   1      15.483   8.987  -1.379  0.00  0.00    -0.617 OA
ATOM     16  O12 FGV d   1      15.143   7.254  -3.353  0.00  0.00    -0.617 OA
ATOM     17  O13 FGV d   1      14.552  10.037  -3.650  0.00  0.00    -0.617 OA
ENDBRANCH  13  14
ENDBRANCH   1  13
BRANCH   2  18
ATOM     18  O2  FGV d   1      11.932   8.114   0.692  0.00  0.00    -0.390 OA
ATOM     19  H7  FGV d   1      12.054   7.973   1.623  0.00  0.00     0.210 HD
ENDBRANCH   2  18
BRANCH   6  20
ATOM     20  O6  FGV d   1      10.896  10.000  -2.967  0.00  0.00    -0.390 OA
ATOM     21  H9  FGV d   1      11.245   9.255  -3.442  0.00  0.00     0.210 HD
ENDBRANCH   6  20
BRANCH   3  22
ATOM     22  O3  FGV d   1      12.144  10.233   2.474  0.00  0.00    -0.272 OA
BRANCH  22  23
ATOM     23  P3  FGV d   1      13.468  11.141   3.177  0.00  0.00     0.422 P 
ATOM     24  O31 FGV d   1      13.279  12.852   2.953  0.00  0.00    -0.617 OA
ATOM     25  O32 FGV d   1      13.650  10.759   4.860  0.00  0.00    -0.617 OA
ATOM     26  O33 FGV d   1      14.783  10.709   2.475  0.00  0.00    -0.617 OA
ENDBRANCH  22  23
ENDBRANCH   3  22
BRANCH   5  27
ATOM     27  O5  FGV d   1       9.048  11.106  -1.109  0.00  0.00    -0.272 OA
BRANCH  27  28
ATOM     28  P5  FGV d   1       8.728  12.703  -1.756  0.00  0.00     0.422 P 
ATOM     29  O51 FGV d   1       9.455  12.820  -3.124  0.00  0.00    -0.617 OA
ATOM     30  O52 FGV d   1       7.035  12.915  -2.070  0.00  0.00    -0.617 OA
ATOM     31  O53 FGV d   1       9.328  13.965  -0.727  0.00  0.00    -0.617 OA
ENDBRANCH  27  28
ENDBRANCH   5  27
BRANCH   4  32
ATOM     32  O4  FGV d   1      10.094  11.865   1.399  0.00  0.00    -0.390 OA
ATOM     33  H8  FGV d   1       9.178  11.998   1.185  0.00  0.00     0.210 HD
ENDBRANCH   4  32
TORSDOF 9
