REMARK  17 active torsions:
REMARK  status: ('A' for Active; 'I' for Inactive)
REMARK    1  A    between atoms: C14_15  and  C15_1 
REMARK       I    between atoms: C15_1  and  N16_31 
REMARK    2  A    between atoms: C17_2  and  C18_16 
REMARK    3  A    between atoms: N16_31  and  C17_2 
REMARK    4  A    between atoms: C28_6  and  C27_20 
REMARK       I    between atoms: N29_32  and  C28_6 
REMARK    5  A    between atoms: C05_8  and  C02_7 
REMARK       I    between atoms: C02_7  and  N03_28 
REMARK    6  A    between atoms: C09_12  and  C08_11 
REMARK       I    between atoms: N10_29  and  C09_12 
REMARK    7  A    between atoms: C11_13  and  C12_14 
REMARK    8  A    between atoms: C27_20  and  C11_13 
REMARK    9  A    between atoms: C11_13  and  N10_29 
REMARK       I    between atoms: C12_14  and  N13_30 
REMARK   10  A    between atoms: C14_15  and  C25_19 
REMARK   11  A    between atoms: N13_30  and  C14_15 
REMARK   12  A    between atoms: C30_21  and  C31_22 
REMARK   13  A    between atoms: C30_21  and  N29_32 
REMARK   14  A    between atoms: C31_22  and  C32_23 
REMARK   15  A    between atoms: C31_22  and  C33_24 
REMARK   16  A    between atoms: C31_22  and  C34_25 
REMARK   17  A    between atoms: N03_28  and  O04_34 
ROOT
ATOM      1  C11 FGY d   1       5.653  -8.056  27.087  0.00  0.00     0.097 C 
ATOM      2  H8  FGY d   1       5.998  -8.536  28.015  0.00  0.00     0.088 H 
ENDROOT
BRANCH   1   3
ATOM      3  C12 FGY d   1       4.598  -6.971  27.392  0.00  0.00     0.241 C 
ATOM      4  N13 FGY d   1       4.832  -6.131  28.550  0.00  0.00    -0.346 N 
ATOM      5  H32 FGY d   1       5.623  -6.330  29.129  0.00  0.00     0.163 HD
ATOM      6  O26 FGY d   1       3.633  -6.811  26.673  0.00  0.00    -0.271 OA
BRANCH   4   7
ATOM      7  C14 FGY d   1       3.967  -5.004  28.915  0.00  0.00     0.086 C 
ATOM      8  H9  FGY d   1       2.939  -5.346  29.107  0.00  0.00     0.086 H 
BRANCH   7   9
ATOM      9  C15 FGY d   1       4.057  -3.941  27.807  0.00  0.00     0.240 C 
ATOM     10  N16 FGY d   1       3.134  -2.887  27.785  0.00  0.00    -0.355 N 
ATOM     11  H33 FGY d   1       2.408  -2.833  28.471  0.00  0.00     0.162 HD
ATOM     12  O24 FGY d   1       4.945  -3.994  26.978  0.00  0.00    -0.271 OA
BRANCH  10  13
ATOM     13  C17 FGY d   1       3.250  -1.862  26.737  0.00  0.00     0.019 C 
ATOM     14  H1  FGY d   1       3.811  -1.007  27.143  0.00  0.00     0.071 H 
ATOM     15  H2  FGY d   1       3.801  -2.291  25.887  0.00  0.00     0.071 H 
BRANCH  13  16
ATOM     16  C18 FGY d   1       1.969  -1.390  26.265  0.00  0.00    -0.041 A 
ATOM     17  C19 FGY d   1       0.780  -1.914  26.759  0.00  0.00    -0.075 A 
ATOM     18  C20 FGY d   1      -0.445  -1.460  26.314  0.00  0.00    -0.082 A 
ATOM     19  H10 FGY d   1       0.816  -2.696  27.509  0.00  0.00     0.084 H 
ATOM     20  C21 FGY d   1      -0.510  -0.481  25.355  0.00  0.00    -0.083 A 
ATOM     21  H3  FGY d   1      -1.358  -1.878  26.723  0.00  0.00     0.083 H 
ATOM     22  C22 FGY d   1       0.658   0.048  24.849  0.00  0.00    -0.082 A 
ATOM     23  H4  FGY d   1      -1.471  -0.127  24.999  0.00  0.00     0.083 H 
ATOM     24  C23 FGY d   1       1.881  -0.398  25.294  0.00  0.00    -0.075 A 
ATOM     25  H5  FGY d   1       0.612   0.823  24.093  0.00  0.00     0.083 H 
ATOM     26  H11 FGY d   1       2.788   0.029  24.882  0.00  0.00     0.084 H 
ENDBRANCH  13  16
ENDBRANCH  10  13
ENDBRANCH   7   9
BRANCH   7  27
ATOM     27  C25 FGY d   1       4.539  -4.218  30.061  0.00  0.00    -0.049 C 
ATOM     28  H12 FGY d   1       4.551  -4.844  30.965  0.00  0.00     0.030 H 
ATOM     29  H13 FGY d   1       3.919  -3.327  30.240  0.00  0.00     0.030 H 
ATOM     30  H14 FGY d   1       5.566  -3.908  29.817  0.00  0.00     0.030 H 
ENDBRANCH   7  27
ENDBRANCH   4   7
ENDBRANCH   1   3
BRANCH   1  31
ATOM     31  C27 FGY d   1       6.785  -7.261  26.380  0.00  0.00     0.036 C 
ATOM     32  H15 FGY d   1       6.438  -6.964  25.379  0.00  0.00     0.051 H 
ATOM     33  H16 FGY d   1       7.009  -6.362  26.972  0.00  0.00     0.051 H 
BRANCH  31  34
ATOM     34  C28 FGY d   1       8.071  -8.090  26.232  0.00  0.00     0.220 C 
ATOM     35  N29 FGY d   1       8.628  -8.434  27.508  0.00  0.00    -0.360 N 
ATOM     36  H34 FGY d   1       8.167  -8.093  28.327  0.00  0.00     0.162 HD
ATOM     37  O35 FGY d   1       8.545  -8.433  25.176  0.00  0.00    -0.274 OA
BRANCH  35  38
ATOM     38  C30 FGY d   1       9.836  -9.258  27.688  0.00  0.00     0.001 C 
ATOM     39  H17 FGY d   1      10.400  -9.274  26.744  0.00  0.00     0.065 H 
ATOM     40  H18 FGY d   1      10.457  -8.811  28.478  0.00  0.00     0.065 H 
BRANCH  38  41
ATOM     41  C31 FGY d   1       9.487 -10.719  28.089  0.00  0.00    -0.035 C 
BRANCH  41  42
ATOM     42  C32 FGY d   1       8.734 -11.423  26.934  0.00  0.00    -0.068 C 
ATOM     43  H19 FGY d   1       8.493 -12.455  27.229  0.00  0.00     0.028 H 
ATOM     44  H20 FGY d   1       9.370 -11.437  26.037  0.00  0.00     0.028 H 
ATOM     45  H21 FGY d   1       7.804 -10.877  26.716  0.00  0.00     0.028 H 
ENDBRANCH  41  42
BRANCH  41  46
ATOM     46  C33 FGY d   1       8.546 -10.740  29.323  0.00  0.00    -0.068 C 
ATOM     47  H22 FGY d   1       9.043 -10.248  30.172  0.00  0.00     0.028 H 
ATOM     48  H23 FGY d   1       8.313 -11.782  29.589  0.00  0.00     0.028 H 
ATOM     49  H24 FGY d   1       7.615 -10.206  29.083  0.00  0.00     0.028 H 
ENDBRANCH  41  46
BRANCH  41  50
ATOM     50  C34 FGY d   1      10.748 -11.515  28.386  0.00  0.00    -0.068 C 
ATOM     51  H25 FGY d   1      11.409 -11.495  27.507  0.00  0.00     0.028 H 
ATOM     52  H26 FGY d   1      10.478 -12.556  28.619  0.00  0.00     0.028 H 
ATOM     53  H27 FGY d   1      11.268 -11.070  29.247  0.00  0.00     0.028 H 
ENDBRANCH  41  50
ENDBRANCH  38  41
ENDBRANCH  35  38
ENDBRANCH  31  34
ENDBRANCH   1  31
BRANCH   1  54
ATOM     54  N10 FGY d   1       5.200  -9.068  26.138  0.00  0.00    -0.343 N 
ATOM     55  C09 FGY d   1       4.688 -10.307  26.521  0.00  0.00     0.252 C 
ATOM     56  O36 FGY d   1       4.623 -10.592  27.671  0.00  0.00    -0.268 OA
ATOM     57  H31 FGY d   1       5.260  -8.862  25.161  0.00  0.00     0.163 HD
BRANCH  55  58
ATOM     58  C08 FGY d   1       4.300 -11.284  25.482  0.00  0.00     0.032 A 
ATOM     59  C07 FGY d   1       3.723 -10.999  24.263  0.00  0.00    -0.067 A 
ATOM     60  C06 FGY d   1       3.426 -11.958  23.326  0.00  0.00    -0.067 A 
ATOM     61  H7  FGY d   1       3.492  -9.965  24.032  0.00  0.00     0.085 H 
ATOM     62  C05 FGY d   1       3.729 -13.295  23.558  0.00  0.00     0.034 A 
ATOM     63  H6  FGY d   1       2.950 -11.670  22.396  0.00  0.00     0.085 H 
ATOM     64  C38 FGY d   1       4.338 -13.607  24.773  0.00  0.00    -0.067 A 
ATOM     65  C37 FGY d   1       4.627 -12.635  25.701  0.00  0.00    -0.067 A 
ATOM     66  H29 FGY d   1       4.589 -14.639  24.991  0.00  0.00     0.085 H 
ATOM     67  H28 FGY d   1       5.119 -12.916  26.625  0.00  0.00     0.085 H 
BRANCH  62  68
ATOM     68  C02 FGY d   1       3.458 -14.310  22.589  0.00  0.00     0.275 C 
ATOM     69  N03 FGY d   1       3.529 -15.653  22.998  0.00  0.00    -0.233 N 
ATOM     70  H30 FGY d   1       3.745 -15.937  23.932  0.00  0.00     0.197 HD
ATOM     71  O01 FGY d   1       3.237 -14.035  21.410  0.00  0.00    -0.265 OA
BRANCH  69  72
ATOM     72  O04 FGY d   1       3.274 -16.519  21.994  0.00  0.00    -0.287 OA
ATOM     73  H35 FGY d   1       2.399 -16.363  21.657  0.00  0.00     0.244 HD
ENDBRANCH  69  72
ENDBRANCH  62  68
ENDBRANCH  55  58
ENDBRANCH   1  54
TORSDOF 17
