REMARK  7 active torsions:
REMARK  status: ('A' for Active; 'I' for Inactive)
REMARK    1  A    between atoms: C8_1  and  C7_2 
REMARK       I    between atoms: C7_2  and  N2_4 
REMARK    2  A    between atoms: N2_4  and  C2_5 
REMARK    3  A    between atoms: C3_6  and  O3_7 
REMARK    4  A    between atoms: CAB_10  and  CAK_11 
REMARK    5  A    between atoms: CAB_10  and  CAL_12 
REMARK    6  A    between atoms: C1_19  and  O1_20 
REMARK    7  A    between atoms: O1_20  and  CAU_21 
ROOT
ATOM      1  C2  6LA d   1     -32.650  45.236  15.115  0.00  0.00     0.087 C 
ATOM      2  C3  6LA d   1     -32.312  44.528  16.484  0.00  0.00     0.087 C 
ATOM      3  C4  6LA d   1     -32.693  43.087  16.385  0.00  0.00     0.096 C 
ATOM      4  O4  6LA d   1     -32.281  42.453  17.564  0.00  0.00    -0.336 OA
ATOM      5  CAB 6LA d   1     -32.503  41.062  17.649  0.00  0.00     0.252 C 
ATOM      6  O6  6LA d   1     -31.986  40.378  16.478  0.00  0.00    -0.344 OA
ATOM      7  C6  6LA d   1     -32.109  40.975  15.200  0.00  0.00     0.050 C 
ATOM      8  C5  6LA d   1     -31.941  42.496  15.264  0.00  0.00     0.089 C 
ATOM      9  O5  6LA d   1     -32.318  43.103  14.015  0.00  0.00    -0.349 OA
ATOM     10  C1  6LA d   1     -31.954  44.513  13.985  0.00  0.00     0.152 C 
ATOM     11  H5  6LA d   1     -32.312  46.282  15.162  0.00  0.00     0.084 H 
ATOM     12  H6  6LA d   1     -31.225  44.602  16.638  0.00  0.00     0.090 H 
ATOM     13  H8  6LA d   1     -33.777  42.975  16.235  0.00  0.00     0.091 H 
ATOM     14  H12 6LA d   1     -33.105  40.744  14.793  0.00  0.00     0.078 H 
ATOM     15  H13 6LA d   1     -31.336  40.559  14.537  0.00  0.00     0.078 H 
ATOM     16  H14 6LA d   1     -30.875  42.706  15.432  0.00  0.00     0.090 H 
ATOM     17  H15 6LA d   1     -30.866  44.607  14.120  0.00  0.00     0.132 H 
ENDROOT
BRANCH   1  18
ATOM     18  N2  6LA d   1     -34.109  45.195  14.796  0.00  0.00    -0.349 N 
ATOM     19  C7  6LA d   1     -34.793  46.331  14.709  0.00  0.00     0.214 C 
ATOM     20  O7  6LA d   1     -34.296  47.444  14.919  0.00  0.00    -0.274 OA
ATOM     21  H4  6LA d   1     -34.568  44.319  14.649  0.00  0.00     0.163 HD
BRANCH  19  22
ATOM     22  C8  6LA d   1     -36.268  46.154  14.379  0.00  0.00    -0.003 C 
ATOM     23  H1  6LA d   1     -36.485  45.086  14.233  0.00  0.00     0.040 H 
ATOM     24  H2  6LA d   1     -36.507  46.706  13.458  0.00  0.00     0.040 H 
ATOM     25  H3  6LA d   1     -36.878  46.542  15.208  0.00  0.00     0.040 H 
ENDBRANCH  19  22
ENDBRANCH   1  18
BRANCH   2  26
ATOM     26  O3  6LA d   1     -32.972  45.103  17.670  0.00  0.00    -0.391 OA
ATOM     27  H7  6LA d   1     -32.714  46.012  17.765  0.00  0.00     0.210 HD
ENDBRANCH   2  26
BRANCH  10  28
ATOM     28  O1  6LA d   1     -32.320  45.088  12.692  0.00  0.00    -0.364 OA
BRANCH  28  29
ATOM     29  CAU 6LA d   1     -31.589  44.466  11.588  0.00  0.00     0.007 C 
ATOM     30  H16 6LA d   1     -31.896  44.929  10.638  0.00  0.00     0.066 H 
ATOM     31  H17 6LA d   1     -31.813  43.389  11.560  0.00  0.00     0.066 H 
ATOM     32  H18 6LA d   1     -30.509  44.612  11.735  0.00  0.00     0.066 H 
ENDBRANCH  28  29
ENDBRANCH  10  28
BRANCH   5  33
ATOM     33  CAK 6LA d   1     -31.854  40.563  18.968  0.00  0.00    -0.015 C 
ATOM     34  H9  6LA d   1     -32.009  39.478  19.066  0.00  0.00     0.035 H 
ATOM     35  H10 6LA d   1     -32.317  41.078  19.822  0.00  0.00     0.035 H 
ATOM     36  H11 6LA d   1     -30.776  40.779  18.951  0.00  0.00     0.035 H 
ENDBRANCH   5  33
BRANCH   5  37
ATOM     37  CAL 6LA d   1     -33.990  40.711  17.684  0.00  0.00     0.238 C 
ATOM     38  OAN 6LA d   1     -34.371  39.729  16.981  0.00  0.00    -0.644 OA
ATOM     39  OAM 6LA d   1     -34.679  41.511  18.314  0.00  0.00    -0.644 OA
ENDBRANCH   5  37
TORSDOF 7
