REMARK  7 active torsions:
REMARK  status: ('A' for Active; 'I' for Inactive)
REMARK    1  A    between atoms: C8_1  and  C7_2 
REMARK       I    between atoms: C7_2  and  N2_4 
REMARK    2  A    between atoms: N2_4  and  C2_5 
REMARK    3  A    between atoms: C3_6  and  O3_7 
REMARK    4  A    between atoms: CAB_10  and  CAK_11 
REMARK    5  A    between atoms: CAB_10  and  CAL_12 
REMARK    6  A    between atoms: C1_19  and  O1_20 
REMARK    7  A    between atoms: O1_20  and  CAU_21 
ROOT
ATOM      1  C2  6LA d   1      34.516   0.595 133.276  0.00  0.00     0.087 C 
ATOM      2  C3  6LA d   1      33.741   1.885 133.580  0.00  0.00     0.087 C 
ATOM      3  C4  6LA d   1      33.766   2.719 132.332  0.00  0.00     0.096 C 
ATOM      4  O4  6LA d   1      32.925   3.763 132.530  0.00  0.00    -0.336 OA
ATOM      5  CAB 6LA d   1      32.892   4.551 131.331  0.00  0.00     0.252 C 
ATOM      6  O6  6LA d   1      32.471   3.840 130.164  0.00  0.00    -0.344 OA
ATOM      7  C6  6LA d   1      33.295   2.713 129.882  0.00  0.00     0.050 C 
ATOM      8  C5  6LA d   1      33.260   1.899 131.130  0.00  0.00     0.089 C 
ATOM      9  O5  6LA d   1      34.140   0.753 130.915  0.00  0.00    -0.349 OA
ATOM     10  C1  6LA d   1      34.025  -0.107 132.065  0.00  0.00     0.152 C 
ATOM     11  H5  6LA d   1      34.436  -0.077 134.143  0.00  0.00     0.084 H 
ATOM     12  H6  6LA d   1      32.697   1.651 133.836  0.00  0.00     0.090 H 
ATOM     13  H8  6LA d   1      34.787   3.078 132.136  0.00  0.00     0.091 H 
ATOM     14  H12 6LA d   1      34.323   3.031 129.655  0.00  0.00     0.078 H 
ATOM     15  H13 6LA d   1      32.892   2.140 129.034  0.00  0.00     0.078 H 
ATOM     16  H14 6LA d   1      32.233   1.558 131.327  0.00  0.00     0.090 H 
ATOM     17  H15 6LA d   1      32.973  -0.398 132.198  0.00  0.00     0.132 H 
ENDROOT
BRANCH   1  18
ATOM     18  N2  6LA d   1      35.931   0.920 133.017  0.00  0.00    -0.349 N 
ATOM     19  C7  6LA d   1      36.883   0.462 133.816  0.00  0.00     0.214 C 
ATOM     20  O7  6LA d   1      36.633  -0.182 134.819  0.00  0.00    -0.274 OA
ATOM     21  H4  6LA d   1      36.174   1.490 132.232  0.00  0.00     0.163 HD
BRANCH  19  22
ATOM     22  C8  6LA d   1      38.296   0.845 133.420  0.00  0.00    -0.003 C 
ATOM     23  H1  6LA d   1      38.271   1.421 132.483  0.00  0.00     0.040 H 
ATOM     24  H2  6LA d   1      38.896  -0.066 133.274  0.00  0.00     0.040 H 
ATOM     25  H3  6LA d   1      38.746   1.457 134.215  0.00  0.00     0.040 H 
ENDBRANCH  19  22
ENDBRANCH   1  18
BRANCH   2  26
ATOM     26  O3  6LA d   1      34.393   2.543 134.751  0.00  0.00    -0.391 OA
ATOM     27  H7  6LA d   1      35.297   2.743 134.538  0.00  0.00     0.210 HD
ENDBRANCH   2  26
BRANCH  10  28
ATOM     28  O1  6LA d   1      34.839  -1.275 131.902  0.00  0.00    -0.364 OA
BRANCH  28  29
ATOM     29  CAU 6LA d   1      34.485  -2.052 130.747  0.00  0.00     0.007 C 
ATOM     30  H16 6LA d   1      35.144  -2.930 130.680  0.00  0.00     0.066 H 
ATOM     31  H17 6LA d   1      34.600  -1.437 129.842  0.00  0.00     0.066 H 
ATOM     32  H18 6LA d   1      33.440  -2.384 130.835  0.00  0.00     0.066 H 
ENDBRANCH  28  29
ENDBRANCH  10  28
BRANCH   5  33
ATOM     33  CAK 6LA d   1      31.896   5.695 131.560  0.00  0.00    -0.015 C 
ATOM     34  H9  6LA d   1      31.845   6.322 130.658  0.00  0.00     0.035 H 
ATOM     35  H10 6LA d   1      32.228   6.305 132.413  0.00  0.00     0.035 H 
ATOM     36  H11 6LA d   1      30.901   5.278 131.774  0.00  0.00     0.035 H 
ENDBRANCH   5  33
BRANCH   5  37
ATOM     37  CAL 6LA d   1      34.268   5.158 131.177  0.00  0.00     0.238 C 
ATOM     38  OAN 6LA d   1      34.716   5.477 130.031  0.00  0.00    -0.644 OA
ATOM     39  OAM 6LA d   1      34.800   5.440 132.297  0.00  0.00    -0.644 OA
ENDBRANCH   5  37
TORSDOF 7
