REMARK  6 active torsions:
REMARK  status: ('A' for Active; 'I' for Inactive)
REMARK    1  A    between atoms: C2_1  and  C12_8 
REMARK    2  A    between atoms: C3_2  and  C11_7 
REMARK    3  A    between atoms: N1_18  and  C3_2 
REMARK    4  A    between atoms: C3_2  and  C4_23 
REMARK    5  A    between atoms: C7_4  and  C10_6 
REMARK    6  A    between atoms: C12_8  and  C13_9 
ROOT
ATOM      1  C2  FKV d   1      32.813  -6.865  14.382  0.00  0.00     0.083 A 
ATOM      2  C15 FKV d   1      31.562  -6.479  10.513  0.00  0.00     0.328 A 
ATOM      3  O1  FKV d   1      34.333  -8.147  11.923  0.00  0.00    -0.267 OA
ATOM      4  C14 FKV d   1      33.284  -7.499  11.856  0.00  0.00     0.265 A 
ATOM      5  C1  FKV d   1      32.611  -6.901  12.983  0.00  0.00     0.104 A 
ATOM      6  N2  FKV d   1      32.683  -7.250  10.623  0.00  0.00    -0.275 N 
ATOM      7  O   FKV d   1      31.116  -6.267   9.321  0.00  0.00    -0.247 OA
ATOM      8  N3  FKV d   1      30.931  -5.925  11.527  0.00  0.00    -0.292 N 
ATOM      9  C   FKV d   1      31.453  -6.136  12.746  0.00  0.00     0.146 A 
ATOM     10  N1  FKV d   1      31.014  -5.691  13.948  0.00  0.00    -0.244 N 
ATOM     11  N   FKV d   1      31.866  -6.122  14.947  0.00  0.00    -0.173 NA
ATOM     12  H9  FKV d   1      33.084  -7.647   9.797  0.00  0.00     0.173 HD
ATOM     13  H10 FKV d   1      30.106  -5.376  11.396  0.00  0.00     0.172 HD
ENDROOT
BRANCH  10  14
ATOM     14  C3  FKV d   1      29.753  -4.931  14.268  0.00  0.00     0.058 C 
ATOM     15  H1  FKV d   1      29.208  -4.821  13.319  0.00  0.00     0.083 H 
BRANCH  14  16
ATOM     16  C11 FKV d   1      28.825  -5.745  15.169  0.00  0.00    -0.051 C 
ATOM     17  H4  FKV d   1      27.917  -5.162  15.382  0.00  0.00     0.030 H 
ATOM     18  H5  FKV d   1      29.341  -5.978  16.112  0.00  0.00     0.030 H 
ATOM     19  H6  FKV d   1      28.549  -6.681  14.661  0.00  0.00     0.030 H 
ENDBRANCH  14  16
BRANCH  14  20
ATOM     20  C4  FKV d   1      30.076  -3.513  14.710  0.00  0.00    -0.034 A 
ATOM     21  C5  FKV d   1      29.816  -3.061  16.001  0.00  0.00    -0.074 A 
ATOM     22  C6  FKV d   1      30.130  -1.763  16.379  0.00  0.00    -0.068 A 
ATOM     23  H2  FKV d   1      29.362  -3.732  16.721  0.00  0.00     0.084 H 
ATOM     24  C7  FKV d   1      30.731  -0.889  15.478  0.00  0.00     0.047 A 
ATOM     25  H12 FKV d   1      29.905  -1.427  17.385  0.00  0.00     0.084 H 
ATOM     26  C8  FKV d   1      30.988  -1.336  14.188  0.00  0.00    -0.068 A 
ATOM     27  C9  FKV d   1      30.664  -2.630  13.809  0.00  0.00    -0.074 A 
ATOM     28  H11 FKV d   1      31.447  -0.666  13.470  0.00  0.00     0.084 H 
ATOM     29  H3  FKV d   1      30.872  -2.958  12.797  0.00  0.00     0.084 H 
BRANCH  24  30
ATOM     30  C10 FKV d   1      31.148   0.480  15.913  0.00  0.00     0.417 C 
ATOM     31  F2  FKV d   1      30.293   1.392  15.593  0.00  0.00    -0.166 F 
ATOM     32  F1  FKV d   1      31.265   0.572  17.231  0.00  0.00    -0.166 F 
ATOM     33  F   FKV d   1      32.312   0.872  15.375  0.00  0.00    -0.166 F 
ENDBRANCH  24  30
ENDBRANCH  14  20
ENDBRANCH  10  14
BRANCH   1  34
ATOM     34  C12 FKV d   1      33.859  -7.586  15.186  0.00  0.00     0.068 C 
ATOM     35  H7  FKV d   1      34.260  -8.410  14.577  0.00  0.00     0.055 H 
ATOM     36  H8  FKV d   1      33.383  -7.996  16.089  0.00  0.00     0.055 H 
BRANCH  34  37
ATOM     37  C13 FKV d   1      34.987  -6.716  15.602  0.00  0.00     0.393 C 
ATOM     38  F5  FKV d   1      35.531  -6.076  14.586  0.00  0.00    -0.171 F 
ATOM     39  F4  FKV d   1      35.960  -7.436  16.156  0.00  0.00    -0.171 F 
ATOM     40  F3  FKV d   1      34.607  -5.790  16.497  0.00  0.00    -0.171 F 
ENDBRANCH  34  37
ENDBRANCH   1  34
TORSDOF 6
