REMARK  6 active torsions:
REMARK  status: ('A' for Active; 'I' for Inactive)
REMARK    1  A    between atoms: C2_1  and  C12_8 
REMARK    2  A    between atoms: C3_2  and  C11_7 
REMARK    3  A    between atoms: N1_17  and  C3_2 
REMARK    4  A    between atoms: C3_2  and  C4_20 
REMARK    5  A    between atoms: C7_4  and  C10_6 
REMARK    6  A    between atoms: C12_8  and  O_19 
ROOT
ATOM      1  C3  FKJ d   1      29.820  -4.933  14.268  0.00  0.00     0.058 C 
ATOM      2  H1  FKJ d   1      29.268  -4.870  13.319  0.00  0.00     0.083 H 
ENDROOT
BRANCH   1   3
ATOM      3  C11 FKJ d   1      28.935  -5.728  15.224  0.00  0.00    -0.051 C 
ATOM      4  H4  FKJ d   1      28.000  -5.176  15.403  0.00  0.00     0.030 H 
ATOM      5  H5  FKJ d   1      29.463  -5.873  16.178  0.00  0.00     0.030 H 
ATOM      6  H6  FKJ d   1      28.703  -6.707  14.780  0.00  0.00     0.030 H 
ENDBRANCH   1   3
BRANCH   1   7
ATOM      7  N1  FKJ d   1      31.111  -5.640  13.988  0.00  0.00    -0.243 N 
ATOM      8  C   FKJ d   1      31.568  -6.138  12.815  0.00  0.00     0.146 A 
ATOM      9  C1  FKJ d   1      32.769  -6.841  13.097  0.00  0.00     0.106 A 
ATOM     10  N3  FKJ d   1      31.028  -6.021  11.588  0.00  0.00    -0.292 N 
ATOM     11  C2  FKJ d   1      32.969  -6.709  14.498  0.00  0.00     0.097 A 
ATOM     12  C13 FKJ d   1      33.433  -7.474  11.980  0.00  0.00     0.265 A 
ATOM     13  N   FKJ d   1      31.982  -5.973  15.015  0.00  0.00    -0.171 NA
ATOM     14  O2  FKJ d   1      34.492  -8.085  12.059  0.00  0.00    -0.267 OA
ATOM     15  N2  FKJ d   1      32.803  -7.331  10.743  0.00  0.00    -0.275 N 
ATOM     16  C14 FKJ d   1      31.658  -6.612  10.593  0.00  0.00     0.328 A 
ATOM     17  H9  FKJ d   1      33.206  -7.771   9.941  0.00  0.00     0.173 HD
ATOM     18  O1  FKJ d   1      31.216  -6.471   9.387  0.00  0.00    -0.247 OA
ATOM     19  H10 FKJ d   1      30.184  -5.507  11.438  0.00  0.00     0.172 HD
BRANCH  11  20
ATOM     20  C12 FKJ d   1      34.054  -7.393  15.291  0.00  0.00     0.059 C 
ATOM     21  H7  FKJ d   1      34.218  -8.397  14.872  0.00  0.00     0.083 H 
ATOM     22  H8  FKJ d   1      33.725  -7.481  16.337  0.00  0.00     0.083 H 
BRANCH  20  23
ATOM     23  O   FKJ d   1      35.279  -6.681  15.258  0.00  0.00    -0.395 OA
ATOM     24  H11 FKJ d   1      35.929  -7.148  15.769  0.00  0.00     0.209 HD
ENDBRANCH  20  23
ENDBRANCH  11  20
ENDBRANCH   1   7
BRANCH   1  25
ATOM     25  C4  FKJ d   1      30.114  -3.506  14.697  0.00  0.00    -0.034 A 
ATOM     26  C5  FKJ d   1      29.864  -3.067  15.993  0.00  0.00    -0.074 A 
ATOM     27  C6  FKJ d   1      30.161  -1.773  16.377  0.00  0.00    -0.068 A 
ATOM     28  H2  FKJ d   1      29.429  -3.751  16.713  0.00  0.00     0.084 H 
ATOM     29  C7  FKJ d   1      30.746  -0.887  15.480  0.00  0.00     0.047 A 
ATOM     30  H13 FKJ d   1      29.936  -1.446  17.386  0.00  0.00     0.084 H 
ATOM     31  C8  FKJ d   1      31.001  -1.323  14.186  0.00  0.00    -0.068 A 
ATOM     32  C9  FKJ d   1      30.676  -2.610  13.796  0.00  0.00    -0.074 A 
ATOM     33  H12 FKJ d   1      31.460  -0.647  13.474  0.00  0.00     0.084 H 
ATOM     34  H3  FKJ d   1      30.862  -2.923  12.775  0.00  0.00     0.084 H 
BRANCH  29  35
ATOM     35  C10 FKJ d   1      31.114   0.492  15.912  0.00  0.00     0.417 C 
ATOM     36  F2  FKJ d   1      31.239   0.595  17.204  0.00  0.00    -0.166 F 
ATOM     37  F1  FKJ d   1      30.226   1.377  15.594  0.00  0.00    -0.166 F 
ATOM     38  F   FKJ d   1      32.236   0.906  15.390  0.00  0.00    -0.166 F 
ENDBRANCH  29  35
ENDBRANCH   1  25
TORSDOF 6
