REMARK  7 active torsions:
REMARK  status: ('A' for Active; 'I' for Inactive)
REMARK    1  A    between atoms: C2_1  and  C12_8 
REMARK    2  A    between atoms: C3_2  and  C11_7 
REMARK    3  A    between atoms: N1_17  and  C3_2 
REMARK    4  A    between atoms: C3_2  and  C4_20 
REMARK    5  A    between atoms: C7_4  and  C10_6 
REMARK    6  A    between atoms: C12_8  and  O_19 
REMARK    7  A    between atoms: C14_14  and  C15_10 
ROOT
ATOM      1  C2  FKG d   1      33.463  -7.190  14.094  0.00  0.00     0.098 A 
ATOM      2  C13 FKG d   1      34.024  -8.178  11.641  0.00  0.00     0.263 A 
ATOM      3  O1  FKG d   1      35.054  -8.829  11.761  0.00  0.00    -0.267 OA
ATOM      4  C1  FKG d   1      33.359  -7.453  12.694  0.00  0.00     0.108 A 
ATOM      5  N2  FKG d   1      33.402  -8.107  10.408  0.00  0.00    -0.311 N 
ATOM      6  C14 FKG d   1      32.265  -7.422  10.173  0.00  0.00     0.105 A 
ATOM      7  N3  FKG d   1      31.600  -6.723  11.099  0.00  0.00    -0.215 NA
ATOM      8  C   FKG d   1      32.171  -6.781  12.322  0.00  0.00     0.166 A 
ATOM      9  N1  FKG d   1      31.661  -6.219  13.446  0.00  0.00    -0.242 N 
ATOM     10  N   FKG d   1      32.459  -6.456  14.538  0.00  0.00    -0.171 NA
ATOM     11  H12 FKG d   1      33.822  -8.595   9.643  0.00  0.00     0.170 HD
ENDROOT
BRANCH   9  12
ATOM     12  C3  FKG d   1      30.349  -5.535  13.591  0.00  0.00     0.058 C 
ATOM     13  H1  FKG d   1      29.888  -5.505  12.593  0.00  0.00     0.083 H 
BRANCH  12  14
ATOM     14  C11 FKG d   1      29.401  -6.363  14.459  0.00  0.00    -0.051 C 
ATOM     15  H4  FKG d   1      28.438  -5.839  14.553  0.00  0.00     0.030 H 
ATOM     16  H5  FKG d   1      29.843  -6.500  15.457  0.00  0.00     0.030 H 
ATOM     17  H6  FKG d   1      29.240  -7.346  13.992  0.00  0.00     0.030 H 
ENDBRANCH  12  14
BRANCH  12  18
ATOM     18  C4  FKG d   1      30.567  -4.084  13.992  0.00  0.00    -0.034 A 
ATOM     19  C5  FKG d   1      30.967  -3.156  13.039  0.00  0.00    -0.074 A 
ATOM     20  C6  FKG d   1      31.185  -1.831  13.380  0.00  0.00    -0.068 A 
ATOM     21  H2  FKG d   1      31.111  -3.473  12.012  0.00  0.00     0.084 H 
ATOM     22  C7  FKG d   1      31.009  -1.398  14.688  0.00  0.00     0.047 A 
ATOM     23  H15 FKG d   1      31.496  -1.125  12.618  0.00  0.00     0.084 H 
ATOM     24  C8  FKG d   1      30.585  -2.317  15.641  0.00  0.00    -0.068 A 
ATOM     25  C9  FKG d   1      30.372  -3.644  15.298  0.00  0.00    -0.074 A 
ATOM     26  H14 FKG d   1      30.419  -1.993  16.662  0.00  0.00     0.084 H 
ATOM     27  H3  FKG d   1      30.049  -4.348  16.057  0.00  0.00     0.084 H 
BRANCH  22  28
ATOM     28  C10 FKG d   1      31.304   0.015  15.064  0.00  0.00     0.417 C 
ATOM     29  F2  FKG d   1      30.355   0.839  14.709  0.00  0.00    -0.166 F 
ATOM     30  F1  FKG d   1      31.500   0.192  16.363  0.00  0.00    -0.166 F 
ATOM     31  F   FKG d   1      32.366   0.464  14.487  0.00  0.00    -0.166 F 
ENDBRANCH  22  28
ENDBRANCH  12  18
ENDBRANCH   9  12
BRANCH   1  32
ATOM     32  C12 FKG d   1      34.569  -7.743  14.927  0.00  0.00     0.059 C 
ATOM     33  H7  FKG d   1      34.889  -8.704  14.498  0.00  0.00     0.083 H 
ATOM     34  H8  FKG d   1      34.197  -7.903  15.950  0.00  0.00     0.083 H 
BRANCH  32  35
ATOM     35  O   FKG d   1      35.686  -6.872  14.979  0.00  0.00    -0.395 OA
ATOM     36  H13 FKG d   1      36.365  -7.261  15.518  0.00  0.00     0.209 HD
ENDBRANCH  32  35
ENDBRANCH   1  32
BRANCH   6  37
ATOM     37  C15 FKG d   1      31.717  -7.474   8.790  0.00  0.00    -0.021 C 
ATOM     38  H9  FKG d   1      32.377  -8.084   8.157  0.00  0.00     0.037 H 
ATOM     39  H10 FKG d   1      31.656  -6.455   8.381  0.00  0.00     0.037 H 
ATOM     40  H11 FKG d   1      30.712  -7.921   8.810  0.00  0.00     0.037 H 
ENDBRANCH   6  37
TORSDOF 7
