REMARK  8 active torsions:
REMARK  status: ('A' for Active; 'I' for Inactive)
REMARK    1  A    between atoms: O53_1  and  C52_2 
REMARK    2  A    between atoms: C52_2  and  C51_3 
REMARK    3  A    between atoms: C51_3  and  N5'_4 
REMARK       I    between atoms: N5'_4  and  C5'_5 
REMARK    4  A    between atoms: C5'_5  and  C4'_7 
REMARK    5  A    between atoms: C3'_9  and  O3'_10 
REMARK    6  A    between atoms: C2'_11  and  O2'_12 
REMARK    7  A    between atoms: C1'_13  and  N9_14 
REMARK    8  A    between atoms: C6_22  and  N6_23 
ROOT
ATOM      1  C4' N5O d   1      -1.920 125.096  49.903  0.00  0.00     0.144 C 
ATOM      2  O4' N5O d   1      -1.087 124.047  50.601  0.00  0.00    -0.346 OA
ATOM      3  C3' N5O d   1      -0.896 126.256  49.596  0.00  0.00     0.098 C 
ATOM      4  C2' N5O d   1      -0.092 126.185  50.528  0.00  0.00     0.105 C 
ATOM      5  C1' N5O d   1       0.035 124.587  50.884  0.00  0.00     0.140 C 
ATOM      6  H7  N5O d   1      -2.707 125.474  50.572  0.00  0.00     0.102 H 
ATOM      7  H8  N5O d   1      -0.389 126.087  48.635  0.00  0.00     0.091 H 
ATOM      8  H10 N5O d   1       0.881 126.598  50.223  0.00  0.00     0.093 H 
ATOM      9  H12 N5O d   1       0.250 124.451  51.954  0.00  0.00     0.123 H 
ENDROOT
BRANCH   5  10
ATOM     10  N9  N5O d   1       1.107 124.035  50.112  0.00  0.00    -0.294 N 
ATOM     11  C8  N5O d   1       1.032 123.525  48.850  0.00  0.00     0.071 A 
ATOM     12  N7  N5O d   1       2.266 123.138  48.478  0.00  0.00    -0.236 NA
ATOM     13  H13 N5O d   1       0.129 123.445  48.247  0.00  0.00     0.144 H 
ATOM     14  C5  N5O d   1       3.138 123.408  49.512  0.00  0.00     0.149 A 
ATOM     15  C4  N5O d   1       2.406 123.976  50.539  0.00  0.00     0.167 A 
ATOM     16  C6  N5O d   1       4.512 123.206  49.700  0.00  0.00     0.155 A 
ATOM     17  N3  N5O d   1       3.034 124.344  51.712  0.00  0.00    -0.222 NA
ATOM     18  C2  N5O d   1       4.346 124.147  51.868  0.00  0.00     0.091 A 
ATOM     19  N1  N5O d   1       5.079 123.589  50.860  0.00  0.00    -0.222 NA
ATOM     20  H14 N5O d   1       4.829 124.430  52.796  0.00  0.00     0.146 H 
BRANCH  16  21
ATOM     21  N6  N5O d   1       5.329 122.662  48.689  0.00  0.00    -0.382 N 
ATOM     22  H15 N5O d   1       6.336 122.526  48.858  0.00  0.00     0.157 HD
ATOM     23  H16 N5O d   1       4.919 122.400  47.781  0.00  0.00     0.157 HD
ENDBRANCH  16  21
ENDBRANCH   5  10
BRANCH   4  24
ATOM     24  O2' N5O d   1      -0.585 126.902  51.741  0.00  0.00    -0.388 OA
ATOM     25  H11 N5O d   1      -0.721 127.819  51.532  0.00  0.00     0.210 HD
ENDBRANCH   4  24
BRANCH   1  26
ATOM     26  C5' N5O d   1      -2.559 124.497  48.736  0.00  0.00     0.249 C 
ATOM     27  N5' N5O d   1      -3.918 124.080  48.804  0.00  0.00    -0.357 N 
ATOM     28  H6  N5O d   1      -4.455 124.216  49.637  0.00  0.00     0.162 HD
ATOM     29  O5' N5O d   1      -1.933 124.315  47.732  0.00  0.00    -0.271 OA
BRANCH  27  30
ATOM     30  C51 N5O d   1      -4.521 123.435  47.602  0.00  0.00     0.015 C 
ATOM     31  H4  N5O d   1      -3.733 122.937  47.018  0.00  0.00     0.067 H 
ATOM     32  H5  N5O d   1      -5.267 122.692  47.920  0.00  0.00     0.067 H 
BRANCH  30  33
ATOM     33  C52 N5O d   1      -5.184 124.480  46.758  0.00  0.00     0.031 C 
ATOM     34  H2  N5O d   1      -4.486 125.312  46.581  0.00  0.00     0.076 H 
ATOM     35  H3  N5O d   1      -5.485 124.043  45.795  0.00  0.00     0.076 H 
BRANCH  33  36
ATOM     36  O53 N5O d   1      -6.339 124.958  47.454  0.00  0.00    -0.399 OA
ATOM     37  H1  N5O d   1      -6.074 125.332  48.286  0.00  0.00     0.209 HD
ENDBRANCH  33  36
ENDBRANCH  30  33
ENDBRANCH  27  30
ENDBRANCH   1  26
BRANCH   3  38
ATOM     38  O3' N5O d   1      -1.608 127.605  49.556  0.00  0.00    -0.390 OA
ATOM     39  H9  N5O d   1      -2.018 127.770  50.397  0.00  0.00     0.210 HD
ENDBRANCH   3  38
TORSDOF 8
