REMARK  8 active torsions:
REMARK  status: ('A' for Active; 'I' for Inactive)
REMARK    1  A    between atoms: N53_1  and  C52_2 
REMARK    2  A    between atoms: C52_2  and  C51_3 
REMARK    3  A    between atoms: C51_3  and  N5'_4 
REMARK       I    between atoms: N5'_4  and  C5'_5 
REMARK    4  A    between atoms: C5'_5  and  C4'_7 
REMARK    5  A    between atoms: C3'_9  and  O3'_10 
REMARK    6  A    between atoms: C2'_11  and  O2'_12 
REMARK    7  A    between atoms: C1'_13  and  N9_14 
REMARK    8  A    between atoms: C6_22  and  N6_23 
ROOT
ATOM      1  C4' N5A d   1      62.368 213.613  49.640  0.00  0.00     0.144 C 
ATOM      2  O4' N5A d   1      63.173 212.348  50.353  0.00  0.00    -0.346 OA
ATOM      3  C3' N5A d   1      63.343 214.423  49.216  0.00  0.00     0.098 C 
ATOM      4  C2' N5A d   1      64.346 214.334  50.414  0.00  0.00     0.105 C 
ATOM      5  C1' N5A d   1      64.331 212.797  50.760  0.00  0.00     0.140 C 
ATOM      6  H9  N5A d   1      61.724 214.146  50.355  0.00  0.00     0.102 H 
ATOM      7  H10 N5A d   1      63.786 214.070  48.273  0.00  0.00     0.091 H 
ATOM      8  H12 N5A d   1      65.351 214.672  50.121  0.00  0.00     0.093 H 
ATOM      9  H14 N5A d   1      64.460 212.626  51.839  0.00  0.00     0.123 H 
ENDROOT
BRANCH   1  10
ATOM     10  C5' N5A d   1      61.556 213.018  48.606  0.00  0.00     0.249 C 
ATOM     11  N5' N5A d   1      60.225 213.547  48.447  0.00  0.00    -0.357 N 
ATOM     12  H8  N5A d   1      59.934 214.297  49.042  0.00  0.00     0.162 HD
ATOM     13  O5' N5A d   1      61.928 212.064  47.881  0.00  0.00    -0.271 OA
BRANCH  11  14
ATOM     14  C51 N5A d   1      59.304 213.048  47.478  0.00  0.00     0.017 C 
ATOM     15  H6  N5A d   1      59.285 213.710  46.599  0.00  0.00     0.066 H 
ATOM     16  H7  N5A d   1      59.596 212.034  47.167  0.00  0.00     0.066 H 
BRANCH  14  17
ATOM     17  C52 N5A d   1      57.893 213.017  48.158  0.00  0.00     0.094 C 
ATOM     18  H4  N5A d   1      57.767 213.925  48.765  0.00  0.00     0.077 H 
ATOM     19  H5  N5A d   1      57.119 212.988  47.377  0.00  0.00     0.077 H 
BRANCH  17  20
ATOM     20  N53 N5A d   1      57.751 211.883  48.990  0.00  0.00    -0.078 N 
ATOM     21  H1  N5A d   1      56.836 211.889  49.413  0.00  0.00     0.274 HD
ATOM     22  H2  N5A d   1      58.455 211.905  49.711  0.00  0.00     0.274 HD
ATOM     23  H3  N5A d   1      57.861 211.046  48.439  0.00  0.00     0.274 HD
ENDBRANCH  17  20
ENDBRANCH  14  17
ENDBRANCH  11  14
ENDBRANCH   1  10
BRANCH   3  24
ATOM     24  O3' N5A d   1      62.884 215.795  49.071  0.00  0.00    -0.390 OA
ATOM     25  H11 N5A d   1      62.575 216.115  49.910  0.00  0.00     0.210 HD
ENDBRANCH   3  24
BRANCH   5  26
ATOM     26  N9  N5A d   1      65.416 212.166  50.007  0.00  0.00    -0.294 N 
ATOM     27  C8  N5A d   1      65.349 211.511  48.809  0.00  0.00     0.071 A 
ATOM     28  N7  N5A d   1      66.597 211.104  48.453  0.00  0.00    -0.236 NA
ATOM     29  H15 N5A d   1      64.441 211.342  48.232  0.00  0.00     0.144 H 
ATOM     30  C5  N5A d   1      67.473 211.498  49.447  0.00  0.00     0.149 A 
ATOM     31  C4  N5A d   1      66.723 212.170  50.411  0.00  0.00     0.167 A 
ATOM     32  C6  N5A d   1      68.851 211.384  49.656  0.00  0.00     0.155 A 
ATOM     33  N3  N5A d   1      67.320 212.703  51.565  0.00  0.00    -0.222 NA
ATOM     34  C2  N5A d   1      68.620 212.565  51.727  0.00  0.00     0.091 A 
ATOM     35  N1  N5A d   1      69.388 211.914  50.794  0.00  0.00    -0.222 NA
ATOM     36  H16 N5A d   1      69.092 212.973  52.614  0.00  0.00     0.146 H 
BRANCH  32  37
ATOM     37  N6  N5A d   1      69.730 210.716  48.696  0.00  0.00    -0.382 N 
ATOM     38  H17 N5A d   1      70.741 210.650  48.882  0.00  0.00     0.157 HD
ATOM     39  H18 N5A d   1      69.338 210.311  47.834  0.00  0.00     0.157 HD
ENDBRANCH  32  37
ENDBRANCH   5  26
BRANCH   4  40
ATOM     40  O2' N5A d   1      63.905 215.062  51.474  0.00  0.00    -0.388 OA
ATOM     41  H13 N5A d   1      64.529 214.992  52.187  0.00  0.00     0.210 HD
ENDBRANCH   4  40
TORSDOF 8
