REMARK  8 active torsions:
REMARK  status: ('A' for Active; 'I' for Inactive)
REMARK    1  A    between atoms: O53_1  and  C52_2 
REMARK    2  A    between atoms: C52_2  and  C51_3 
REMARK    3  A    between atoms: C51_3  and  N5'_4 
REMARK       I    between atoms: N5'_4  and  C5'_5 
REMARK    4  A    between atoms: C5'_5  and  C4'_7 
REMARK    5  A    between atoms: C3'_9  and  O3'_10 
REMARK    6  A    between atoms: C2'_11  and  O2'_12 
REMARK    7  A    between atoms: C1'_13  and  N9_14 
REMARK    8  A    between atoms: C6_22  and  N6_23 
ROOT
ATOM      1  C4' N5O d   1      19.561  34.687  -9.922  0.00  0.00     0.144 C 
ATOM      2  O4' N5O d   1      19.941  33.976  -8.872  0.00  0.00    -0.346 OA
ATOM      3  C3' N5O d   1      19.001  33.682 -10.909  0.00  0.00     0.098 C 
ATOM      4  C2' N5O d   1      19.897  32.440 -10.632  0.00  0.00     0.105 C 
ATOM      5  C1' N5O d   1      20.169  32.458  -9.384  0.00  0.00     0.140 C 
ATOM      6  H7  N5O d   1      20.379  35.288 -10.345  0.00  0.00     0.102 H 
ATOM      7  H8  N5O d   1      17.939  33.470 -10.714  0.00  0.00     0.091 H 
ATOM      8  H10 N5O d   1      19.364  31.510 -10.878  0.00  0.00     0.093 H 
ATOM      9  H12 N5O d   1      21.196  32.114  -9.191  0.00  0.00     0.123 H 
ENDROOT
BRANCH   5  10
ATOM     10  N9  N5O d   1      19.223  31.656  -8.719  0.00  0.00    -0.294 N 
ATOM     11  C8  N5O d   1      18.006  32.006  -8.226  0.00  0.00     0.071 A 
ATOM     12  N7  N5O d   1      17.435  30.902  -7.671  0.00  0.00    -0.236 NA
ATOM     13  H13 N5O d   1      17.563  33.000  -8.268  0.00  0.00     0.144 H 
ATOM     14  C5  N5O d   1      18.299  29.873  -7.844  0.00  0.00     0.149 A 
ATOM     15  C4  N5O d   1      19.400  30.324  -8.485  0.00  0.00     0.167 A 
ATOM     16  C6  N5O d   1      18.207  28.562  -7.486  0.00  0.00     0.155 A 
ATOM     17  N3  N5O d   1      20.429  29.473  -8.776  0.00  0.00    -0.222 NA
ATOM     18  C2  N5O d   1      20.336  28.171  -8.415  0.00  0.00     0.091 A 
ATOM     19  N1  N5O d   1      19.215  27.704  -7.756  0.00  0.00    -0.222 NA
ATOM     20  H14 N5O d   1      21.147  27.490  -8.645  0.00  0.00     0.146 H 
BRANCH  16  21
ATOM     21  N6  N5O d   1      17.325  27.678  -6.877  0.00  0.00    -0.382 N 
ATOM     22  H15 N5O d   1      17.588  26.689  -6.756  0.00  0.00     0.157 HD
ATOM     23  H16 N5O d   1      16.408  28.011  -6.546  0.00  0.00     0.157 HD
ENDBRANCH  16  21
ENDBRANCH   5  10
BRANCH   4  24
ATOM     24  O2' N5O d   1      21.106  32.568 -11.508  0.00  0.00    -0.388 OA
ATOM     25  H11 N5O d   1      21.679  31.824 -11.366  0.00  0.00     0.210 HD
ENDBRANCH   4  24
BRANCH   1  26
ATOM     26  C5' N5O d   1      18.399  35.530  -9.476  0.00  0.00     0.249 C 
ATOM     27  N5' N5O d   1      18.592  36.984  -9.265  0.00  0.00    -0.357 N 
ATOM     28  H6  N5O d   1      19.484  37.407  -9.422  0.00  0.00     0.162 HD
ATOM     29  O5' N5O d   1      17.272  34.992  -9.263  0.00  0.00    -0.271 OA
BRANCH  27  30
ATOM     30  C51 N5O d   1      17.499  37.757  -8.841  0.00  0.00     0.015 C 
ATOM     31  H4  N5O d   1      16.797  37.125  -8.277  0.00  0.00     0.067 H 
ATOM     32  H5  N5O d   1      17.854  38.576  -8.198  0.00  0.00     0.067 H 
BRANCH  30  33
ATOM     33  C52 N5O d   1      16.789  38.341 -10.075  0.00  0.00     0.031 C 
ATOM     34  H2  N5O d   1      16.199  37.552 -10.565  0.00  0.00     0.076 H 
ATOM     35  H3  N5O d   1      16.122  39.157  -9.761  0.00  0.00     0.076 H 
BRANCH  33  36
ATOM     36  O53 N5O d   1      17.733  38.834 -10.968  0.00  0.00    -0.399 OA
ATOM     37  H1  N5O d   1      18.309  38.129 -11.239  0.00  0.00     0.209 HD
ENDBRANCH  33  36
ENDBRANCH  30  33
ENDBRANCH  27  30
ENDBRANCH   1  26
BRANCH   3  38
ATOM     38  O3' N5O d   1      19.158  34.109 -12.182  0.00  0.00    -0.390 OA
ATOM     39  H9  N5O d   1      20.083  34.230 -12.363  0.00  0.00     0.210 HD
ENDBRANCH   3  38
TORSDOF 8
