REMARK  8 active torsions:
REMARK  status: ('A' for Active; 'I' for Inactive)
REMARK    1  A    between atoms: O3A_8  and  PB_1 
REMARK    2  A    between atoms: PA_5  and  O3A_8 
REMARK    3  A    between atoms: PA_5  and  O5'_9 
REMARK    4  A    between atoms: O5'_9  and  C5'_10 
REMARK    5  A    between atoms: C5'_10  and  C4'_11 
REMARK    6  A    between atoms: C3'_13  and  O3'_14 
REMARK    7  A    between atoms: C2'_15  and  O2'_16 
REMARK    8  A    between atoms: C1'_17  and  N9_18 
ROOT
ATOM      1  C4' ADP d   1      -0.783 -36.778  21.463  0.00  0.00     0.089 C 
ATOM      2  O4' ADP d   1       0.265 -36.023  20.837  0.00  0.00    -0.353 OA
ATOM      3  C3' ADP d   1      -0.468 -36.816  22.958  0.00  0.00     0.091 C 
ATOM      4  C2' ADP d   1       1.010 -36.443  23.054  0.00  0.00     0.105 C 
ATOM      5  C1' ADP d   1       1.403 -35.848  21.705  0.00  0.00     0.139 C 
ATOM      6  H3  ADP d   1      -0.797 -37.803  21.063  0.00  0.00     0.090 H 
ATOM      7  H4  ADP d   1      -1.066 -36.053  23.479  0.00  0.00     0.091 H 
ATOM      8  H6  ADP d   1       1.176 -35.721  23.867  0.00  0.00     0.093 H 
ATOM      9  H8  ADP d   1       2.270 -36.389  21.299  0.00  0.00     0.122 H 
ENDROOT
BRANCH   5  10
ATOM     10  N9  ADP d   1       1.754 -34.395  21.832  0.00  0.00    -0.294 N 
ATOM     11  C8  ADP d   1       1.272 -33.394  21.051  0.00  0.00     0.071 A 
ATOM     12  N7  ADP d   1       1.784 -32.179  21.422  0.00  0.00    -0.236 NA
ATOM     13  H9  ADP d   1       0.568 -33.539  20.233  0.00  0.00     0.144 H 
ATOM     14  C5  ADP d   1       2.634 -32.387  22.453  0.00  0.00     0.149 A 
ATOM     15  C6  ADP d   1       3.513 -31.538  23.320  0.00  0.00     0.155 A 
ATOM     16  C4  ADP d   1       2.609 -33.851  22.716  0.00  0.00     0.167 A 
ATOM     17  N6  ADP d   1       3.602 -30.195  23.176  0.00  0.00    -0.382 N 
ATOM     18  N1  ADP d   1       4.233 -32.160  24.288  0.00  0.00    -0.222 NA
ATOM     19  H10 ADP d   1       4.220 -29.651  23.795  0.00  0.00     0.157 HD
ATOM     20  H11 ADP d   1       3.052 -29.718  22.448  0.00  0.00     0.157 HD
ATOM     21  C2  ADP d   1       4.163 -33.503  24.461  0.00  0.00     0.091 A 
ATOM     22  N3  ADP d   1       3.387 -34.336  23.724  0.00  0.00    -0.222 NA
ATOM     23  H12 ADP d   1       4.771 -33.942  25.244  0.00  0.00     0.146 H 
ENDBRANCH   5  10
BRANCH   4  24
ATOM     24  O2' ADP d   1       1.796 -37.619  23.263  0.00  0.00    -0.388 OA
ATOM     25  H7  ADP d   1       1.525 -38.040  24.070  0.00  0.00     0.210 HD
ENDBRANCH   4  24
BRANCH   1  26
ATOM     26  C5' ADP d   1      -2.129 -36.122  21.190  0.00  0.00     0.058 C 
ATOM     27  H1  ADP d   1      -2.447 -36.348  20.162  0.00  0.00     0.079 H 
ATOM     28  H2  ADP d   1      -2.877 -36.508  21.898  0.00  0.00     0.079 H 
BRANCH  26  29
ATOM     29  O5' ADP d   1      -2.003 -34.712  21.351  0.00  0.00    -0.287 OA
BRANCH  29  30
ATOM     30  PA  ADP d   1      -3.177 -33.767  20.790  0.00  0.00     0.418 P 
ATOM     31  O1A ADP d   1      -3.454 -34.247  19.397  0.00  0.00    -0.624 OA
ATOM     32  O2A ADP d   1      -2.700 -32.362  21.065  0.00  0.00    -0.624 OA
BRANCH  30  33
ATOM     33  O3A ADP d   1      -4.470 -34.107  21.730  0.00  0.00    -0.173 OA
BRANCH  33  34
ATOM     34  PB  ADP d   1      -6.037 -33.801  21.437  0.00  0.00     0.431 P 
ATOM     35  O1B ADP d   1      -6.230 -33.938  19.942  0.00  0.00    -0.616 OA
ATOM     36  O2B ADP d   1      -6.241 -32.396  21.965  0.00  0.00    -0.616 OA
ATOM     37  O3B ADP d   1      -6.820 -34.832  22.216  0.00  0.00    -0.616 OA
ENDBRANCH  33  34
ENDBRANCH  30  33
ENDBRANCH  29  30
ENDBRANCH  26  29
ENDBRANCH   1  26
BRANCH   3  38
ATOM     38  O3' ADP d   1      -0.786 -38.099  23.543  0.00  0.00    -0.390 OA
ATOM     39  H5  ADP d   1      -0.277 -38.776  23.114  0.00  0.00     0.210 HD
ENDBRANCH   3  38
TORSDOF 8
