REMARK  4 active torsions:
REMARK  status: ('A' for Active; 'I' for Inactive)
REMARK    1  A    between atoms: C1_3  and  O1_4 
REMARK    2  A    between atoms: C4_6  and  C6_10 
REMARK    3  A    between atoms: N1_14  and  C10_15 
REMARK    4  A    between atoms: C8_16  and  C11_18 
ROOT
ATOM      1  C6  38E d   1      -7.363  12.451  -6.941  0.00  0.00    -0.040 C 
ATOM      2  C7  38E d   1      -8.596  12.233  -7.519  0.00  0.00     0.127 A 
ATOM      3  C9  38E d   1      -9.180  10.878  -7.609  0.00  0.00     0.277 A 
ATOM      4  O   38E d   1      -8.698   9.840  -7.204  0.00  0.00    -0.265 OA
ATOM      5  N1  38E d   1     -10.361  11.039  -8.220  0.00  0.00    -0.305 N 
ATOM      6  C8  38E d   1     -10.539  12.371  -8.484  0.00  0.00     0.105 A 
ATOM      7  N   38E d   1      -9.520  13.087  -8.088  0.00  0.00    -0.230 NA
ATOM      8  H4  38E d   1      -6.869  11.592  -6.489  0.00  0.00     0.088 H 
ENDROOT
BRANCH   1   9
ATOM      9  C4  38E d   1      -6.665  13.718  -6.880  0.00  0.00    -0.028 A 
ATOM     10  C3  38E d   1      -7.190  14.932  -7.335  0.00  0.00    -0.033 A 
ATOM     11  C2  38E d   1      -6.427  16.083  -7.271  0.00  0.00     0.153 A 
ATOM     12  H2  38E d   1      -8.196  14.970  -7.738  0.00  0.00     0.089 H 
ATOM     13  F1  38E d   1      -6.920  17.263  -7.669  0.00  0.00    -0.203 F 
ATOM     14  C1  38E d   1      -5.134  16.043  -6.798  0.00  0.00     0.143 A 
ATOM     15  C   38E d   1      -4.606  14.839  -6.381  0.00  0.00     0.153 A 
ATOM     16  C5  38E d   1      -5.349  13.680  -6.426  0.00  0.00    -0.033 A 
ATOM     17  F   38E d   1      -3.353  14.827  -5.920  0.00  0.00    -0.203 F 
ATOM     18  H3  38E d   1      -4.910  12.741  -6.109  0.00  0.00     0.089 H 
BRANCH  14  19
ATOM     19  O1  38E d   1      -4.390  17.169  -6.742  0.00  0.00    -0.355 OA
ATOM     20  H1  38E d   1      -4.300  17.532  -7.615  0.00  0.00     0.218 HD
ENDBRANCH  14  19
ENDBRANCH   1   9
BRANCH   5  21
ATOM     21  C10 38E d   1     -11.303   9.969  -8.520  0.00  0.00    -0.010 C 
ATOM     22  H5  38E d   1     -10.882   9.007  -8.191  0.00  0.00     0.057 H 
ATOM     23  H6  38E d   1     -11.489   9.937  -9.604  0.00  0.00     0.057 H 
ATOM     24  H7  38E d   1     -12.249  10.155  -7.991  0.00  0.00     0.057 H 
ENDBRANCH   5  21
BRANCH   6  25
ATOM     25  C11 38E d   1     -11.795  12.874  -9.152  0.00  0.00    -0.021 C 
ATOM     26  H8  38E d   1     -11.735  13.966  -9.270  0.00  0.00     0.037 H 
ATOM     27  H9  38E d   1     -12.667  12.619  -8.532  0.00  0.00     0.037 H 
ATOM     28  H10 38E d   1     -11.898  12.403 -10.141  0.00  0.00     0.037 H 
ENDBRANCH   6  25
TORSDOF 4
