REMARK  7 active torsions:
REMARK  status: ('A' for Active; 'I' for Inactive)
REMARK    1  A    between atoms: C6_6  and  C3_3 
REMARK    2  A    between atoms: N_11  and  C6_6 
REMARK    3  A    between atoms: C_12  and  C17_13 
REMARK    4  A    between atoms: C17_13  and  O2_14 
REMARK    5  A    between atoms: C17_13  and  C18_15 
REMARK    6  A    between atoms: C15_19  and  C16_20 
REMARK    7  A    between atoms: C13_23  and  C14_24 
ROOT
ATOM      1  C7  FP7 d   1     -13.219  -3.020   8.296  0.00  0.00    -0.006 A 
ATOM      2  C12 FP7 d   1     -12.534  -4.765   9.905  0.00  0.00     0.033 A 
ATOM      3  O   FP7 d   1     -14.732   0.116   8.712  0.00  0.00    -0.268 OA
ATOM      4  C11 FP7 d   1     -14.212  -1.023   9.004  0.00  0.00     0.247 A 
ATOM      5  N   FP7 d   1     -13.736  -1.851   7.995  0.00  0.00    -0.320 N 
ATOM      6  C10 FP7 d   1     -14.048  -1.448  10.319  0.00  0.00    -0.016 A 
ATOM      7  C9  FP7 d   1     -13.550  -2.686  10.648  0.00  0.00    -0.066 A 
ATOM      8  C8  FP7 d   1     -13.104  -3.477   9.607  0.00  0.00    -0.005 A 
ATOM      9  C15 FP7 d   1     -11.419  -5.188  10.758  0.00  0.00     0.072 A 
ATOM     10  N1  FP7 d   1     -11.248  -6.505  10.691  0.00  0.00    -0.133 NA
ATOM     11  O1  FP7 d   1     -12.179  -7.065   9.812  0.00  0.00    -0.217 OA
ATOM     12  C13 FP7 d   1     -12.939  -6.040   9.329  0.00  0.00     0.088 A 
ATOM     13  H7  FP7 d   1     -12.866  -3.658   7.488  0.00  0.00     0.113 H 
ATOM     14  H13 FP7 d   1     -14.327  -0.769  11.123  0.00  0.00     0.092 H 
ATOM     15  H14 FP7 d   1     -13.509  -3.027  11.681  0.00  0.00     0.085 H 
ENDROOT
BRANCH   5  16
ATOM     16  C6  FP7 d   1     -13.781  -1.340   6.589  0.00  0.00     0.026 C 
ATOM     17  H5  FP7 d   1     -14.005  -2.178   5.912  0.00  0.00     0.072 H 
ATOM     18  H6  FP7 d   1     -14.575  -0.583   6.510  0.00  0.00     0.072 H 
BRANCH  16  19
ATOM     19  C3  FP7 d   1     -12.477  -0.722   6.183  0.00  0.00    -0.040 A 
ATOM     20  C2  FP7 d   1     -11.838   0.315   6.831  0.00  0.00    -0.075 A 
ATOM     21  C1  FP7 d   1     -10.671   0.847   6.357  0.00  0.00    -0.074 A 
ATOM     22  H2  FP7 d   1     -12.272   0.718   7.739  0.00  0.00     0.084 H 
ATOM     23  C   FP7 d   1     -10.084   0.327   5.175  0.00  0.00    -0.030 A 
ATOM     24  H1  FP7 d   1     -10.195   1.666   6.884  0.00  0.00     0.084 H 
ATOM     25  C5  FP7 d   1     -10.704  -0.694   4.551  0.00  0.00    -0.074 A 
ATOM     26  C4  FP7 d   1     -11.888  -1.234   5.061  0.00  0.00    -0.075 A 
ATOM     27  H4  FP7 d   1     -10.279  -1.102   3.641  0.00  0.00     0.084 H 
ATOM     28  H3  FP7 d   1     -12.348  -2.076   4.556  0.00  0.00     0.084 H 
BRANCH  23  29
ATOM     29  C17 FP7 d   1      -8.731   0.849   4.704  0.00  0.00     0.057 C 
ATOM     30  H8  FP7 d   1      -8.645   1.872   5.098  0.00  0.00     0.089 H 
BRANCH  29  31
ATOM     31  O2  FP7 d   1      -8.757   0.930   3.233  0.00  0.00    -0.391 OA
ATOM     32  H9  FP7 d   1      -9.449   1.522   2.962  0.00  0.00     0.210 HD
ENDBRANCH  29  31
BRANCH  29  33
ATOM     33  C18 FP7 d   1      -7.393   0.080   5.181  0.00  0.00    -0.049 C 
ATOM     34  H10 FP7 d   1      -6.511   0.581   4.756  0.00  0.00     0.031 H 
ATOM     35  H11 FP7 d   1      -7.426  -0.963   4.833  0.00  0.00     0.031 H 
ATOM     36  H12 FP7 d   1      -7.331   0.098   6.279  0.00  0.00     0.031 H 
ENDBRANCH  29  33
ENDBRANCH  23  29
ENDBRANCH  16  19
ENDBRANCH   5  16
BRANCH   9  37
ATOM     37  C16 FP7 d   1     -10.603  -4.265  11.593  0.00  0.00    -0.033 C 
ATOM     38  H15 FP7 d   1      -9.835  -4.840  12.132  0.00  0.00     0.035 H 
ATOM     39  H16 FP7 d   1     -11.254  -3.754  12.318  0.00  0.00     0.035 H 
ATOM     40  H17 FP7 d   1     -10.117  -3.519  10.947  0.00  0.00     0.035 H 
ENDBRANCH   9  37
BRANCH  12  41
ATOM     41  C14 FP7 d   1     -14.007  -6.382   8.358  0.00  0.00    -0.028 C 
ATOM     42  H18 FP7 d   1     -13.998  -7.466   8.169  0.00  0.00     0.036 H 
ATOM     43  H19 FP7 d   1     -13.831  -5.844   7.415  0.00  0.00     0.036 H 
ATOM     44  H20 FP7 d   1     -14.984  -6.090   8.770  0.00  0.00     0.036 H 
ENDBRANCH  12  41
TORSDOF 7
