REMARK  6 active torsions:
REMARK  status: ('A' for Active; 'I' for Inactive)
REMARK    1  A    between atoms: O2_1  and  C15_2 
REMARK    2  A    between atoms: N2_3  and  C8_4 
REMARK    3  A    between atoms: C8_4  and  C9_5 
REMARK    4  A    between atoms: C6_12  and  C5_15 
REMARK    5  A    between atoms: C2_16  and  C1_17 
REMARK    6  A    between atoms: C3_20  and  C4_21 
ROOT
ATOM      1  C15 FOY d   1      -7.856  -6.586  -0.249  0.00  0.00     0.138 A 
ATOM      2  N2  FOY d   1      -8.641  -6.511   0.901  0.00  0.00    -0.334 N 
ATOM      3  C7  FOY d   1      -9.854  -5.949   0.778  0.00  0.00    -0.011 A 
ATOM      4  C6  FOY d   1     -10.311  -5.476  -0.435  0.00  0.00    -0.024 A 
ATOM      5  C17 FOY d   1      -9.527  -5.546  -1.609  0.00  0.00    -0.020 A 
ATOM      6  C16 FOY d   1      -8.271  -6.116  -1.528  0.00  0.00    -0.050 A 
ATOM      7  H9  FOY d   1     -10.492  -5.864   1.656  0.00  0.00     0.112 H 
ATOM      8  H10 FOY d   1      -9.394  -4.516  -1.973  0.00  0.00     0.046 H 
ATOM      9  H11 FOY d   1     -10.100  -6.125  -2.348  0.00  0.00     0.046 H 
ATOM     10  H12 FOY d   1      -7.628  -6.202  -2.402  0.00  0.00     0.084 H 
ENDROOT
BRANCH   2  11
ATOM     11  C8  FOY d   1      -8.242  -7.032   2.233  0.00  0.00     0.025 C 
ATOM     12  H2  FOY d   1      -7.364  -7.686   2.122  0.00  0.00     0.072 H 
ATOM     13  H3  FOY d   1      -9.075  -7.606   2.665  0.00  0.00     0.072 H 
BRANCH  11  14
ATOM     14  C9  FOY d   1      -7.894  -5.870   3.159  0.00  0.00    -0.040 A 
ATOM     15  C10 FOY d   1      -7.029  -4.869   2.736  0.00  0.00    -0.075 A 
ATOM     16  C11 FOY d   1      -6.724  -3.770   3.522  0.00  0.00    -0.082 A 
ATOM     17  H4  FOY d   1      -6.576  -4.951   1.755  0.00  0.00     0.084 H 
ATOM     18  C12 FOY d   1      -7.301  -3.681   4.782  0.00  0.00    -0.083 A 
ATOM     19  H5  FOY d   1      -6.052  -2.999   3.163  0.00  0.00     0.083 H 
ATOM     20  C13 FOY d   1      -8.198  -4.666   5.180  0.00  0.00    -0.082 A 
ATOM     21  H6  FOY d   1      -7.056  -2.858   5.444  0.00  0.00     0.083 H 
ATOM     22  C14 FOY d   1      -8.515  -5.746   4.394  0.00  0.00    -0.075 A 
ATOM     23  H7  FOY d   1      -8.667  -4.577   6.153  0.00  0.00     0.083 H 
ATOM     24  H8  FOY d   1      -9.234  -6.485   4.730  0.00  0.00     0.084 H 
ENDBRANCH  11  14
ENDBRANCH   2  11
BRANCH   1  25
ATOM     25  O2  FOY d   1      -6.638  -7.092  -0.103  0.00  0.00    -0.346 OA
ATOM     26  H1  FOY d   1      -6.195  -7.096  -0.943  0.00  0.00     0.219 HD
ENDBRANCH   1  25
BRANCH   4  27
ATOM     27  C5  FOY d   1     -11.663  -4.859  -0.482  0.00  0.00     0.030 A 
ATOM     28  C2  FOY d   1     -12.824  -5.345   0.030  0.00  0.00     0.087 A 
ATOM     29  O1  FOY d   1     -13.835  -4.444  -0.223  0.00  0.00    -0.217 OA
ATOM     30  N1  FOY d   1     -13.304  -3.368  -0.874  0.00  0.00    -0.133 NA
ATOM     31  C3  FOY d   1     -12.002  -3.565  -1.063  0.00  0.00     0.071 A 
BRANCH  28  32
ATOM     32  C1  FOY d   1     -13.124  -6.617   0.755  0.00  0.00    -0.028 C 
ATOM     33  H13 FOY d   1     -14.193  -6.649   1.012  0.00  0.00     0.036 H 
ATOM     34  H14 FOY d   1     -12.524  -6.665   1.676  0.00  0.00     0.036 H 
ATOM     35  H15 FOY d   1     -12.876  -7.473   0.111  0.00  0.00     0.036 H 
ENDBRANCH  28  32
BRANCH  31  36
ATOM     36  C4  FOY d   1     -11.079  -2.653  -1.762  0.00  0.00    -0.033 C 
ATOM     37  H16 FOY d   1     -11.626  -1.756  -2.087  0.00  0.00     0.035 H 
ATOM     38  H17 FOY d   1     -10.655  -3.162  -2.640  0.00  0.00     0.035 H 
ATOM     39  H18 FOY d   1     -10.267  -2.360  -1.081  0.00  0.00     0.035 H 
ENDBRANCH  31  36
ENDBRANCH   4  27
TORSDOF 6
