REMARK WARNING: 32 MAX_TORS EXCEEDED!!!
REMARK  47 active torsions:
REMARK  status: ('A' for Active; 'I' for Inactive)
REMARK    1  A    between atoms: N_1  and  CA_2 
REMARK    2  A    between atoms: CA_2  and  C_3 
REMARK    3  A    between atoms: CA_2  and  CB_5 
REMARK       I    between atoms: C_3  and  N_10 
REMARK    4  A    between atoms: CB_5  and  CG_6 
REMARK    5  A    between atoms: CG_6  and  CD_7 
REMARK    6  A    between atoms: CD_7  and  CE_8 
REMARK    7  A    between atoms: CE_8  and  NZ_9 
REMARK    8  A    between atoms: N_10  and  CA_11 
REMARK    9  A    between atoms: CA_11  and  C_12 
REMARK   10  A    between atoms: CA_11  and  CB_14 
REMARK       I    between atoms: C_12  and  N_19 
REMARK   11  A    between atoms: CB_14  and  CG_15 
REMARK   12  A    between atoms: CG_15  and  CD_16 
REMARK       I    between atoms: CD_16  and  NE2_18 
REMARK   13  A    between atoms: N_19  and  CA_20 
REMARK   14  A    between atoms: CA_20  and  C_21 
REMARK   15  A    between atoms: CA_20  and  CB_23 
REMARK       I    between atoms: C_21  and  N_26 
REMARK   16  A    between atoms: CB_23  and  OG1_24 
REMARK   17  A    between atoms: CB_23  and  CG2_25 
REMARK   18  A    between atoms: N_26  and  CA_27 
REMARK   19  A    between atoms: CA_27  and  C_28 
REMARK   20  A    between atoms: CA_27  and  CB_30 
REMARK       I    between atoms: C_28  and  N_31 
REMARK   21  A    between atoms: N_31  and  CA_32 
REMARK   22  A    between atoms: CA_32  and  C_33 
REMARK   23  A    between atoms: CA_32  and  CB_35 
REMARK       I    between atoms: C_33  and  N_42 
REMARK   24  A    between atoms: CB_35  and  CG_36 
REMARK   25  A    between atoms: CG_36  and  CD_37 
REMARK   26  A    between atoms: CD_37  and  NE_38 
REMARK       I    between atoms: NE_38  and  CZ_39 
REMARK       I    between atoms: CZ_39  and  NH1_40 
REMARK   27  A    between atoms: N_42  and  CA_43 
REMARK   28  A    between atoms: CA_43  and  CB_44 
REMARK   29  A    between atoms: CA_43  and  C_49 
REMARK   30  A    between atoms: CB_44  and  CG_45 
REMARK   31  A    between atoms: CG_45  and  CD_46 
REMARK   32  A    between atoms: CD_46  and  CE_47 
REMARK   33  A    between atoms: CE_47  and  NZ_48 
REMARK   34  A    between atoms: NZ_48  and  CM1_51 
REMARK   35  A    between atoms: NZ_48  and  CM2_52 
REMARK   36  A    between atoms: NZ_48  and  CM3_53 
REMARK       I    between atoms: C_49  and  N_54 
REMARK   37  A    between atoms: N_54  and  CA_55 
REMARK   38  A    between atoms: CA_55  and  C_56 
REMARK   39  A    between atoms: CA_55  and  CB_58 
REMARK       I    between atoms: C_56  and  N_60 
REMARK   40  A    between atoms: CB_58  and  OG_59 
REMARK   41  A    between atoms: N_60  and  CA_61 
REMARK   42  A    between atoms: CA_61  and  C_62 
REMARK   43  A    between atoms: CA_61  and  CB_64 
REMARK       I    between atoms: C_62  and  N_67 
REMARK   44  A    between atoms: CB_64  and  OG1_65 
REMARK   45  A    between atoms: CB_64  and  CG2_66 
REMARK   46  A    between atoms: N_67  and  CA_68 
REMARK   47  A    between atoms: CA_68  and  C_69 
ROOT
ATOM      1  CA  LYS d   1      12.696  11.721  10.630  0.00  0.00     0.089 C 
ATOM      2  H37 LYS d   1      12.520  12.666  10.095  0.00  0.00     0.087 H 
ENDROOT
BRANCH   1   3
ATOM      3  N   LYS d   1      13.770  11.924  11.590  0.00  0.00    -0.346 N 
ATOM      4  C   LYS d   1      13.994  13.119  12.119  0.00  0.00     0.240 C 
ATOM      5  O   LYS d   1      13.409  14.143  11.755  0.00  0.00    -0.271 OA
ATOM      6  H36 LYS d   1      14.347  11.152  11.855  0.00  0.00     0.163 HD
BRANCH   4   7
ATOM      7  CA  LYS d   1      15.046  13.160  13.215  0.00  0.00     0.086 C 
ATOM      8  H32 LYS d   1      15.861  12.469  12.953  0.00  0.00     0.086 H 
BRANCH   7   9
ATOM      9  N   LYS d   1      15.584  14.510  13.282  0.00  0.00    -0.346 N 
ATOM     10  C   LYS d   1      16.764  14.780  13.833  0.00  0.00     0.243 C 
ATOM     11  O   LYS d   1      17.431  13.943  14.446  0.00  0.00    -0.271 OA
ATOM     12  H31 LYS d   1      15.047  15.262  12.900  0.00  0.00     0.163 HD
BRANCH  10  13
ATOM     13  CA  LYS d   1      17.248  16.211  13.645  0.00  0.00     0.113 C 
ATOM     14  H25 LYS d   1      16.468  16.899  14.004  0.00  0.00     0.091 H 
BRANCH  13  15
ATOM     15  N   LYS d   1      18.455  16.437  14.424  0.00  0.00    -0.344 N 
ATOM     16  C   LYS d   1      18.559  17.416  15.315  0.00  0.00     0.241 C 
ATOM     17  O   LYS d   1      17.636  18.201  15.559  0.00  0.00    -0.271 OA
ATOM     18  H24 LYS d   1      19.238  15.831  14.283  0.00  0.00     0.163 HD
BRANCH  16  19
ATOM     19  CA  LYS d   1      19.896  17.543  16.036  0.00  0.00     0.090 C 
ATOM     20  H17 LYS d   1      20.505  16.652  15.820  0.00  0.00     0.087 H 
BRANCH  19  21
ATOM     21  N   LYS d   1      20.583  18.725  15.530  0.00  0.00    -0.346 N 
ATOM     22  C   LYS d   1      21.392  18.686  14.475  0.00  0.00     0.248 C 
ATOM     23  O   LYS d   1      21.636  17.655  13.855  0.00  0.00    -0.271 OA
ATOM     24  H16 LYS d   1      20.441  19.599  15.994  0.00  0.00     0.163 HD
BRANCH  22  25
ATOM     25  CA  LYS d   1      22.023  20.014  14.069  0.00  0.00     0.176 C 
ATOM     26  H4  LYS d   1      22.127  20.634  14.972  0.00  0.00     0.099 H 
BRANCH  25  27
ATOM     27  N   LYS d   1      23.351  19.825  13.495  0.00  0.00    -0.067 N 
ATOM     28  H1  LYS d   1      23.737  20.720  13.239  0.00  0.00     0.275 HD
ATOM     29  H2  LYS d   1      23.283  19.242  12.676  0.00  0.00     0.275 HD
ATOM     30  H3  LYS d   1      23.951  19.383  14.174  0.00  0.00     0.275 HD
ENDBRANCH  25  27
BRANCH  25  31
ATOM     31  CB  LYS d   1      21.114  20.750  13.082  0.00  0.00    -0.030 C 
ATOM     32  H5  LYS d   1      21.150  21.825  13.315  0.00  0.00     0.036 H 
ATOM     33  H6  LYS d   1      20.087  20.380  13.216  0.00  0.00     0.036 H 
BRANCH  31  34
ATOM     34  CG  LYS d   1      21.501  20.565  11.625  0.00  0.00    -0.061 C 
ATOM     35  H7  LYS d   1      21.422  19.499  11.365  0.00  0.00     0.033 H 
ATOM     36  H8  LYS d   1      22.539  20.901  11.484  0.00  0.00     0.033 H 
BRANCH  34  37
ATOM     37  CD  LYS d   1      20.590  21.369  10.708  0.00  0.00    -0.043 C 
ATOM     38  H9  LYS d   1      20.520  22.399  11.087  0.00  0.00     0.035 H 
ATOM     39  H10 LYS d   1      19.590  20.910  10.706  0.00  0.00     0.035 H 
BRANCH  37  40
ATOM     40  CE  LYS d   1      21.122  21.402   9.284  0.00  0.00     0.080 C 
ATOM     41  H11 LYS d   1      20.405  21.942   8.648  0.00  0.00     0.075 H 
ATOM     42  H12 LYS d   1      21.230  20.370   8.920  0.00  0.00     0.075 H 
BRANCH  40  43
ATOM     43  NZ  LYS d   1      22.447  22.084   9.206  0.00  0.00    -0.079 N 
ATOM     44  H13 LYS d   1      22.768  22.087   8.250  0.00  0.00     0.274 HD
ATOM     45  H14 LYS d   1      23.112  21.593   9.782  0.00  0.00     0.274 HD
ATOM     46  H15 LYS d   1      22.356  23.033   9.533  0.00  0.00     0.274 HD
ENDBRANCH  40  43
ENDBRANCH  37  40
ENDBRANCH  34  37
ENDBRANCH  31  34
ENDBRANCH  25  31
ENDBRANCH  22  25
ENDBRANCH  19  21
BRANCH  19  47
ATOM     47  CB  LYS d   1      19.702  17.645  17.547  0.00  0.00    -0.030 C 
ATOM     48  H18 LYS d   1      19.358  16.668  17.918  0.00  0.00     0.037 H 
ATOM     49  H19 LYS d   1      18.932  18.405  17.746  0.00  0.00     0.037 H 
BRANCH  47  50
ATOM     50  CG  LYS d   1      20.964  18.030  18.309  0.00  0.00     0.011 C 
ATOM     51  H20 LYS d   1      20.710  18.150  19.372  0.00  0.00     0.047 H 
ATOM     52  H21 LYS d   1      21.337  18.985  17.911  0.00  0.00     0.047 H 
BRANCH  50  53
ATOM     53  CD  LYS d   1      22.064  16.991  18.188  0.00  0.00     0.215 C 
ATOM     54  OE1 LYS d   1      21.995  15.926  18.799  0.00  0.00    -0.274 OA
ATOM     55  NE2 LYS d   1      23.087  17.297  17.396  0.00  0.00    -0.370 N 
ATOM     56  H22 LYS d   1      23.840  16.649  17.279  0.00  0.00     0.159 HD
ATOM     57  H23 LYS d   1      23.104  18.175  16.917  0.00  0.00     0.159 HD
ENDBRANCH  50  53
ENDBRANCH  47  50
ENDBRANCH  19  47
ENDBRANCH  16  19
ENDBRANCH  13  15
BRANCH  13  58
ATOM     58  CB  LYS d   1      17.486  16.479  12.153  0.00  0.00     0.060 C 
ATOM     59  H26 LYS d   1      16.529  16.397  11.618  0.00  0.00     0.086 H 
BRANCH  58  60
ATOM     60  OG1 LYS d   1      18.400  15.503  11.638  0.00  0.00    -0.393 OA
ATOM     61  H27 LYS d   1      18.032  14.635  11.751  0.00  0.00     0.210 HD
ENDBRANCH  58  60
BRANCH  58  62
ATOM     62  CG2 LYS d   1      18.057  17.878  11.935  0.00  0.00    -0.050 C 
ATOM     63  H28 LYS d   1      18.218  18.045  10.860  0.00  0.00     0.031 H 
ATOM     64  H29 LYS d   1      19.015  17.970  12.468  0.00  0.00     0.031 H 
ATOM     65  H30 LYS d   1      17.349  18.627  12.320  0.00  0.00     0.031 H 
ENDBRANCH  58  62
ENDBRANCH  13  58
ENDBRANCH  10  13
ENDBRANCH   7   9
BRANCH   7  66
ATOM     66  CB  LYS d   1      14.450  12.712  14.555  0.00  0.00    -0.049 C 
ATOM     67  H33 LYS d   1      14.057  11.689  14.458  0.00  0.00     0.030 H 
ATOM     68  H34 LYS d   1      13.634  13.393  14.839  0.00  0.00     0.030 H 
ATOM     69  H35 LYS d   1      15.231  12.732  15.329  0.00  0.00     0.030 H 
ENDBRANCH   7  66
ENDBRANCH   4   7
ENDBRANCH   1   3
BRANCH   1  70
ATOM     70  C   LYS d   1      11.423  11.339  11.373  0.00  0.00     0.241 C 
ATOM     71  O   LYS d   1      11.430  10.440  12.215  0.00  0.00    -0.271 OA
ATOM     72  N   LYS d   1      10.340  12.046  11.077  0.00  0.00    -0.346 N 
ATOM     73  H49 LYS d   1      10.411  12.791  10.414  0.00  0.00     0.163 HD
BRANCH  72  74
ATOM     74  CA  LYS d   1       9.064  11.768  11.686  0.00  0.00     0.089 C 
ATOM     75  H50 LYS d   1       9.252  11.329  12.677  0.00  0.00     0.087 H 
BRANCH  74  76
ATOM     76  CB  LYS d   1       8.222  13.040  11.871  0.00  0.00    -0.038 C 
ATOM     77  H51 LYS d   1       7.819  13.347  10.895  0.00  0.00     0.036 H 
ATOM     78  H52 LYS d   1       8.864  13.839  12.270  0.00  0.00     0.036 H 
BRANCH  76  79
ATOM     79  CG  LYS d   1       7.073  12.811  12.826  0.00  0.00    -0.061 C 
ATOM     80  H53 LYS d   1       7.456  12.794  13.857  0.00  0.00     0.033 H 
ATOM     81  H54 LYS d   1       6.597  11.846  12.596  0.00  0.00     0.033 H 
BRANCH  79  82
ATOM     82  CD  LYS d   1       6.045  13.922  12.691  0.00  0.00    -0.042 C 
ATOM     83  H55 LYS d   1       5.178  13.707  13.333  0.00  0.00     0.035 H 
ATOM     84  H56 LYS d   1       5.716  14.000  11.644  0.00  0.00     0.035 H 
BRANCH  82  85
ATOM     85  CE  LYS d   1       6.695  15.229  13.125  0.00  0.00     0.084 C 
ATOM     86  H57 LYS d   1       7.461  15.478  12.376  0.00  0.00     0.076 H 
ATOM     87  H58 LYS d   1       7.177  15.048  14.097  0.00  0.00     0.076 H 
BRANCH  85  88
ATOM     88  NZ  LYS d   1       5.805  16.446  13.282  0.00  0.00    -0.079 N 
BRANCH  88  89
ATOM     89  CM1 LYS d   1       4.752  16.231  14.318  0.00  0.00     0.067 C 
ATOM     90  H59 LYS d   1       4.130  17.134  14.401  0.00  0.00     0.068 H 
ATOM     91  H60 LYS d   1       5.228  16.024  15.287  0.00  0.00     0.068 H 
ATOM     92  H61 LYS d   1       4.122  15.377  14.029  0.00  0.00     0.068 H 
ENDBRANCH  88  89
BRANCH  88  93
ATOM     93  CM2 LYS d   1       5.161  16.833  11.992  0.00  0.00     0.067 C 
ATOM     94  H62 LYS d   1       5.936  16.992  11.228  0.00  0.00     0.068 H 
ATOM     95  H63 LYS d   1       4.589  17.762  12.132  0.00  0.00     0.068 H 
ATOM     96  H64 LYS d   1       4.483  16.031  11.665  0.00  0.00     0.068 H 
ENDBRANCH  88  93
BRANCH  88  97
ATOM     97  CM3 LYS d   1       6.687  17.572  13.725  0.00  0.00     0.067 C 
ATOM     98  H65 LYS d   1       7.172  17.306  14.676  0.00  0.00     0.068 H 
ATOM     99  H66 LYS d   1       6.081  18.480  13.864  0.00  0.00     0.068 H 
ATOM    100  H67 LYS d   1       7.456  17.758  12.961  0.00  0.00     0.068 H 
ENDBRANCH  88  97
ENDBRANCH  85  88
ENDBRANCH  82  85
ENDBRANCH  79  82
ENDBRANCH  76  79
ENDBRANCH  74  76
BRANCH  74 101
ATOM    101  C   LYS d   1       8.260  10.773  10.862  0.00  0.00     0.241 C 
ATOM    102  O   LYS d   1       8.006  10.939   9.667  0.00  0.00    -0.271 OA
ATOM    103  N   LYS d   1       7.858   9.694  11.529  0.00  0.00    -0.344 N 
ATOM    104  H68 LYS d   1       8.071   9.616  12.503  0.00  0.00     0.163 HD
BRANCH 103 105
ATOM    105  CA  LYS d   1       7.114   8.621  10.877  0.00  0.00     0.109 C 
ATOM    106  H69 LYS d   1       7.714   8.248  10.034  0.00  0.00     0.090 H 
BRANCH 105 107
ATOM    107  C   LYS d   1       5.789   9.139  10.330  0.00  0.00     0.243 C 
ATOM    108  O   LYS d   1       5.007   9.756  11.052  0.00  0.00    -0.271 OA
ATOM    109  N   LYS d   1       5.551   8.884   9.046  0.00  0.00    -0.344 N 
ATOM    110  H73 LYS d   1       6.193   8.304   8.544  0.00  0.00     0.163 HD
BRANCH 109 111
ATOM    111  CA  LYS d   1       4.392   9.417   8.345  0.00  0.00     0.113 C 
ATOM    112  H74 LYS d   1       4.068  10.336   8.855  0.00  0.00     0.091 H 
BRANCH 111 113
ATOM    113  C   LYS d   1       3.242   8.418   8.366  0.00  0.00     0.243 C 
ATOM    114  O   LYS d   1       3.433   7.225   8.115  0.00  0.00    -0.271 OA
ATOM    115  N   LYS d   1       2.046   8.915   8.665  0.00  0.00    -0.349 N 
ATOM    116  H80 LYS d   1       1.960   9.892   8.858  0.00  0.00     0.163 HD
BRANCH 115 117
ATOM    117  CA  LYS d   1       0.861   8.079   8.719  0.00  0.00     0.075 C 
ATOM    118  H81 LYS d   1       0.966   7.274   7.976  0.00  0.00     0.080 H 
ATOM    119  H82 LYS d   1      -0.015   8.696   8.469  0.00  0.00     0.080 H 
BRANCH 117 120
ATOM    120  C   LYS d   1       0.636   7.452  10.081  0.00  0.00     0.191 C 
ATOM    121  O   LYS d   1       1.430   7.646  11.001  0.00  0.00    -0.647 OA
ATOM    122  OXT LYS d   1      -0.345   6.738  10.290  0.00  0.00    -0.647 OA
ENDBRANCH 117 120
ENDBRANCH 115 117
ENDBRANCH 111 113
BRANCH 111 123
ATOM    123  CB  LYS d   1       4.756   9.763   6.899  0.00  0.00     0.060 C 
ATOM    124  H75 LYS d   1       4.968   8.833   6.351  0.00  0.00     0.086 H 
BRANCH 123 125
ATOM    125  OG1 LYS d   1       5.924  10.597   6.884  0.00  0.00    -0.393 OA
ATOM    126  H76 LYS d   1       5.747  11.396   7.366  0.00  0.00     0.210 HD
ENDBRANCH 123 125
BRANCH 123 127
ATOM    127  CG2 LYS d   1       3.602  10.494   6.213  0.00  0.00    -0.050 C 
ATOM    128  H77 LYS d   1       3.884  10.733   5.177  0.00  0.00     0.031 H 
ATOM    129  H78 LYS d   1       3.382  11.424   6.757  0.00  0.00     0.031 H 
ATOM    130  H79 LYS d   1       2.710   9.851   6.211  0.00  0.00     0.031 H 
ENDBRANCH 123 127
ENDBRANCH 111 123
ENDBRANCH 109 111
ENDBRANCH 105 107
BRANCH 105 131
ATOM    131  CB  LYS d   1       6.876   7.463  11.849  0.00  0.00     0.044 C 
ATOM    132  H70 LYS d   1       6.245   6.706  11.360  0.00  0.00     0.077 H 
ATOM    133  H71 LYS d   1       6.364   7.844  12.745  0.00  0.00     0.077 H 
BRANCH 131 134
ATOM    134  OG  LYS d   1       8.102   6.865  12.235  0.00  0.00    -0.398 OA
ATOM    135  H72 LYS d   1       8.649   7.514  12.661  0.00  0.00     0.209 HD
ENDBRANCH 131 134
ENDBRANCH 105 131
ENDBRANCH 103 105
ENDBRANCH  74 101
ENDBRANCH  72  74
ENDBRANCH   1  70
BRANCH   1 136
ATOM    136  CB  LYS d   1      13.071  10.651   9.602  0.00  0.00    -0.036 C 
ATOM    137  H38 LYS d   1      12.163  10.363   9.051  0.00  0.00     0.036 H 
ATOM    138  H39 LYS d   1      13.467   9.776  10.138  0.00  0.00     0.036 H 
BRANCH 136 139
ATOM    139  CG  LYS d   1      14.116  11.116   8.599  0.00  0.00    -0.048 C 
ATOM    140  H40 LYS d   1      15.019  11.428   9.144  0.00  0.00     0.035 H 
ATOM    141  H41 LYS d   1      13.714  11.971   8.036  0.00  0.00     0.035 H 
BRANCH 139 142
ATOM    142  CD  LYS d   1      14.488  10.016   7.622  0.00  0.00     0.009 C 
ATOM    143  H42 LYS d   1      15.222  10.412   6.905  0.00  0.00     0.064 H 
ATOM    144  H43 LYS d   1      13.583   9.699   7.083  0.00  0.00     0.064 H 
BRANCH 142 145
ATOM    145  NE  LYS d   1      15.065   8.857   8.295  0.00  0.00    -0.227 N 
ATOM    146  CZ  LYS d   1      16.350   8.745   8.616  0.00  0.00     0.665 C 
ATOM    147  NH1 LYS d   1      17.192   9.728   8.330  0.00  0.00    -0.235 N 
ATOM    148  NH2 LYS d   1      16.792   7.651   9.223  0.00  0.00    -0.235 N 
ATOM    149  H45 LYS d   1      18.188   9.642   8.579  0.00  0.00     0.174 HD
ATOM    150  H46 LYS d   1      16.850  10.578   7.859  0.00  0.00     0.174 HD
ATOM    151  H47 LYS d   1      16.139   6.886   9.446  0.00  0.00     0.174 HD
ATOM    152  H48 LYS d   1      17.788   7.566   9.471  0.00  0.00     0.174 HD
ATOM    153  H44 LYS d   1      14.437   8.077   8.536  0.00  0.00     0.177 HD
ENDBRANCH 142 145
ENDBRANCH 139 142
ENDBRANCH 136 139
ENDBRANCH   1 136
TORSDOF 47
