REMARK WARNING: 32 MAX_TORS EXCEEDED!!!
REMARK  42 active torsions:
REMARK  status: ('A' for Active; 'I' for Inactive)
REMARK    1  A    between atoms: N_1  and  CA_2 
REMARK    2  A    between atoms: CA_2  and  C_3 
REMARK    3  A    between atoms: CA_2  and  CB_5 
REMARK       I    between atoms: C_3  and  N_6 
REMARK    4  A    between atoms: N_6  and  CA_7 
REMARK    5  A    between atoms: CA_7  and  C_8 
REMARK    6  A    between atoms: CA_7  and  CB_10 
REMARK       I    between atoms: C_8  and  N_15 
REMARK    7  A    between atoms: CB_10  and  CG_11 
REMARK    8  A    between atoms: CG_11  and  CD_12 
REMARK    9  A    between atoms: CD_12  and  CE_13 
REMARK   10  A    between atoms: CE_13  and  NZ_14 
REMARK   11  A    between atoms: N_15  and  CA_16 
REMARK   12  A    between atoms: CA_16  and  C_17 
REMARK   13  A    between atoms: CA_16  and  CB_19 
REMARK       I    between atoms: C_17  and  N_24 
REMARK   14  A    between atoms: CB_19  and  CG_20 
REMARK   15  A    between atoms: CG_20  and  CD_21 
REMARK       I    between atoms: CD_21  and  NE2_23 
REMARK   16  A    between atoms: N_24  and  CA_25 
REMARK   17  A    between atoms: CA_25  and  C_26 
REMARK   18  A    between atoms: CA_25  and  CB_28 
REMARK       I    between atoms: C_26  and  N_31 
REMARK   19  A    between atoms: CB_28  and  OG1_29 
REMARK   20  A    between atoms: CB_28  and  CG2_30 
REMARK   21  A    between atoms: N_31  and  CA_32 
REMARK   22  A    between atoms: CA_32  and  C_33 
REMARK   23  A    between atoms: CA_32  and  CB_35 
REMARK       I    between atoms: C_33  and  N_36 
REMARK   24  A    between atoms: N_36  and  CA_37 
REMARK   25  A    between atoms: CA_37  and  C_38 
REMARK   26  A    between atoms: CA_37  and  CB_40 
REMARK       I    between atoms: C_38  and  N_47 
REMARK   27  A    between atoms: CB_40  and  CG_41 
REMARK   28  A    between atoms: CG_41  and  CD_42 
REMARK   29  A    between atoms: CD_42  and  NE_43 
REMARK       I    between atoms: NE_43  and  CZ_44 
REMARK       I    between atoms: CZ_44  and  NH1_45 
REMARK   30  A    between atoms: N_47  and  CA_48 
REMARK   31  A    between atoms: CA_48  and  C_49 
REMARK   32  A    between atoms: CA_48  and  CB_51 
REMARK       I    between atoms: C_49  and  N_63 
REMARK   33  A    between atoms: CB_51  and  CG_52 
REMARK   34  A    between atoms: CG_52  and  CD_53 
REMARK   35  A    between atoms: CD_53  and  CE_54 
REMARK   36  A    between atoms: CE_54  and  NZ_55 
REMARK   37  A    between atoms: NZ_55  and  CH_56 
REMARK   38  A    between atoms: CH_56  and  C1_57 
REMARK   39  A    between atoms: N_63  and  CA_64 
REMARK   40  A    between atoms: CA_64  and  C_65 
REMARK   41  A    between atoms: CA_64  and  CB_67 
REMARK   42  A    between atoms: CB_67  and  OG_68 
ROOT
ATOM      1  CA  THR d   1      -1.399 -24.100   0.250  0.00  0.00     0.086 C 
ATOM      2  H37 THR d   1      -1.468 -24.137   1.347  0.00  0.00     0.086 H 
ENDROOT
BRANCH   1   3
ATOM      3  N   THR d   1      -2.307 -25.092  -0.302  0.00  0.00    -0.346 N 
ATOM      4  C   THR d   1      -2.407 -26.306   0.232  0.00  0.00     0.243 C 
ATOM      5  O   THR d   1      -1.680 -26.697   1.149  0.00  0.00    -0.271 OA
ATOM      6  H36 THR d   1      -2.866 -24.858  -1.097  0.00  0.00     0.163 HD
BRANCH   4   7
ATOM      7  CA  THR d   1      -3.489 -27.197  -0.361  0.00  0.00     0.113 C 
ATOM      8  H30 THR d   1      -3.399 -27.185  -1.457  0.00  0.00     0.091 H 
BRANCH   7   9
ATOM      9  N   THR d   1      -3.300 -28.563   0.101  0.00  0.00    -0.344 N 
ATOM     10  C   THR d   1      -3.171 -29.591  -0.733  0.00  0.00     0.241 C 
ATOM     11  O   THR d   1      -3.182 -29.458  -1.959  0.00  0.00    -0.271 OA
ATOM     12  H29 THR d   1      -3.266 -28.736   1.085  0.00  0.00     0.163 HD
BRANCH  10  13
ATOM     13  CA  THR d   1      -3.023 -30.967  -0.097  0.00  0.00     0.090 C 
ATOM     14  H22 THR d   1      -2.796 -30.845   0.972  0.00  0.00     0.087 H 
BRANCH  13  15
ATOM     15  N   THR d   1      -4.300 -31.661  -0.242  0.00  0.00    -0.346 N 
ATOM     16  C   THR d   1      -5.253 -31.599   0.684  0.00  0.00     0.241 C 
ATOM     17  O   THR d   1      -5.115 -30.991   1.750  0.00  0.00    -0.271 OA
ATOM     18  H21 THR d   1      -4.464 -32.202  -1.067  0.00  0.00     0.163 HD
BRANCH  16  19
ATOM     19  CA  THR d   1      -6.550 -32.335   0.368  0.00  0.00     0.089 C 
ATOM     20  H9  THR d   1      -6.417 -32.898  -0.567  0.00  0.00     0.087 H 
BRANCH  19  21
ATOM     21  N   THR d   1      -6.868 -33.272   1.437  0.00  0.00    -0.346 N 
ATOM     22  C   THR d   1      -6.169 -34.392   1.596  0.00  0.00     0.248 C 
ATOM     23  O   THR d   1      -5.214 -34.695   0.882  0.00  0.00    -0.271 OA
ATOM     24  H8  THR d   1      -7.623 -33.070   2.061  0.00  0.00     0.163 HD
BRANCH  22  25
ATOM     25  CA  THR d   1      -6.613 -35.306   2.732  0.00  0.00     0.172 C 
ATOM     26  H4  THR d   1      -7.684 -35.525   2.608  0.00  0.00     0.098 H 
BRANCH  25  27
ATOM     27  N   THR d   1      -5.885 -36.568   2.696  0.00  0.00    -0.067 N 
ATOM     28  H1  THR d   1      -6.194 -37.156   3.454  0.00  0.00     0.275 HD
ATOM     29  H2  THR d   1      -4.897 -36.389   2.790  0.00  0.00     0.275 HD
ATOM     30  H3  THR d   1      -6.060 -37.032   1.819  0.00  0.00     0.275 HD
ENDBRANCH  25  27
BRANCH  25  31
ATOM     31  CB  THR d   1      -6.418 -34.577   4.075  0.00  0.00    -0.042 C 
ATOM     32  H5  THR d   1      -6.981 -33.632   4.064  0.00  0.00     0.030 H 
ATOM     33  H6  THR d   1      -5.349 -34.365   4.226  0.00  0.00     0.030 H 
ATOM     34  H7  THR d   1      -6.785 -35.213   4.894  0.00  0.00     0.030 H 
ENDBRANCH  25  31
ENDBRANCH  22  25
ENDBRANCH  19  21
BRANCH  19  35
ATOM     35  CB  THR d   1      -7.694 -31.341   0.181  0.00  0.00    -0.038 C 
ATOM     36  H10 THR d   1      -7.492 -30.462   0.811  0.00  0.00     0.036 H 
ATOM     37  H11 THR d   1      -8.626 -31.823   0.511  0.00  0.00     0.036 H 
BRANCH  35  38
ATOM     38  CG  THR d   1      -7.887 -30.865  -1.248  0.00  0.00    -0.061 C 
ATOM     39  H12 THR d   1      -7.973 -31.739  -1.911  0.00  0.00     0.033 H 
ATOM     40  H13 THR d   1      -7.017 -30.262  -1.548  0.00  0.00     0.033 H 
BRANCH  38  41
ATOM     41  CD  THR d   1      -9.145 -30.021  -1.372  0.00  0.00    -0.043 C 
ATOM     42  H14 THR d   1      -8.919 -28.991  -1.059  0.00  0.00     0.035 H 
ATOM     43  H15 THR d   1      -9.924 -30.440  -0.719  0.00  0.00     0.035 H 
BRANCH  41  44
ATOM     44  CE  THR d   1      -9.655 -30.003  -2.803  0.00  0.00     0.080 C 
ATOM     45  H16 THR d   1      -9.862 -31.036  -3.120  0.00  0.00     0.075 H 
ATOM     46  H17 THR d   1      -8.880 -29.569  -3.451  0.00  0.00     0.075 H 
BRANCH  44  47
ATOM     47  NZ  THR d   1     -10.901 -29.199  -2.939  0.00  0.00    -0.079 N 
ATOM     48  H18 THR d   1     -11.206 -29.212  -3.900  0.00  0.00     0.274 HD
ATOM     49  H19 THR d   1     -10.720 -28.248  -2.657  0.00  0.00     0.274 HD
ATOM     50  H20 THR d   1     -11.620 -29.592  -2.353  0.00  0.00     0.274 HD
ENDBRANCH  44  47
ENDBRANCH  41  44
ENDBRANCH  38  41
ENDBRANCH  35  38
ENDBRANCH  19  35
ENDBRANCH  16  19
ENDBRANCH  13  15
BRANCH  13  51
ATOM     51  CB  THR d   1      -1.897 -31.769  -0.739  0.00  0.00    -0.030 C 
ATOM     52  H23 THR d   1      -0.940 -31.302  -0.463  0.00  0.00     0.037 H 
ATOM     53  H24 THR d   1      -2.023 -31.729  -1.831  0.00  0.00     0.037 H 
BRANCH  51  54
ATOM     54  CG  THR d   1      -1.855 -33.232  -0.316  0.00  0.00     0.011 C 
ATOM     55  H25 THR d   1      -1.061 -33.739  -0.884  0.00  0.00     0.047 H 
ATOM     56  H26 THR d   1      -2.825 -33.693  -0.552  0.00  0.00     0.047 H 
BRANCH  54  57
ATOM     57  CD  THR d   1      -1.581 -33.413   1.165  0.00  0.00     0.215 C 
ATOM     58  OE1 THR d   1      -0.520 -33.039   1.663  0.00  0.00    -0.274 OA
ATOM     59  NE2 THR d   1      -2.539 -33.993   1.877  0.00  0.00    -0.370 N 
ATOM     60  H27 THR d   1      -2.414 -34.139   2.858  0.00  0.00     0.159 HD
ATOM     61  H28 THR d   1      -3.386 -34.285   1.432  0.00  0.00     0.159 HD
ENDBRANCH  54  57
ENDBRANCH  51  54
ENDBRANCH  13  51
ENDBRANCH  10  13
ENDBRANCH   7   9
BRANCH   7  62
ATOM     62  CB  THR d   1      -4.875 -26.650   0.019  0.00  0.00     0.060 C 
ATOM     63  H31 THR d   1      -5.023 -25.679  -0.477  0.00  0.00     0.086 H 
BRANCH  62  64
ATOM     64  OG1 THR d   1      -4.947 -26.472   1.439  0.00  0.00    -0.393 OA
ATOM     65  H32 THR d   1      -5.804 -26.134   1.672  0.00  0.00     0.210 HD
ENDBRANCH  62  64
BRANCH  62  66
ATOM     66  CG2 THR d   1      -5.976 -27.604  -0.421  0.00  0.00    -0.050 C 
ATOM     67  H33 THR d   1      -6.955 -27.190  -0.138  0.00  0.00     0.031 H 
ATOM     68  H34 THR d   1      -5.835 -28.578   0.069  0.00  0.00     0.031 H 
ATOM     69  H35 THR d   1      -5.935 -27.733  -1.513  0.00  0.00     0.031 H 
ENDBRANCH  62  66
ENDBRANCH   7  62
ENDBRANCH   4   7
ENDBRANCH   1   3
BRANCH   1  70
ATOM     70  C   THR d   1      -1.825 -22.723  -0.224  0.00  0.00     0.240 C 
ATOM     71  O   THR d   1      -2.379 -22.570  -1.315  0.00  0.00    -0.271 OA
ATOM     72  N   THR d   1      -1.553 -21.727   0.610  0.00  0.00    -0.346 N 
ATOM     73  H41 THR d   1      -1.159 -21.938   1.504  0.00  0.00     0.163 HD
BRANCH  72  74
ATOM     74  CA  THR d   1      -1.811 -20.340   0.263  0.00  0.00     0.089 C 
ATOM     75  H42 THR d   1      -2.766 -20.280  -0.280  0.00  0.00     0.087 H 
BRANCH  74  76
ATOM     76  C   THR d   1      -0.696 -19.835  -0.645  0.00  0.00     0.241 C 
ATOM     77  O   THR d   1       0.470 -20.186  -0.461  0.00  0.00    -0.271 OA
ATOM     78  N   THR d   1      -1.054 -19.019  -1.630  0.00  0.00    -0.346 N 
ATOM     79  H54 THR d   1      -2.014 -18.755  -1.725  0.00  0.00     0.163 HD
BRANCH  78  80
ATOM     80  CA  THR d   1      -0.048 -18.490  -2.598  0.00  0.00     0.089 C 
ATOM     81  H55 THR d   1       0.922 -18.967  -2.394  0.00  0.00     0.087 H 
BRANCH  80  82
ATOM     82  C   THR d   1       0.100 -17.006  -2.420  0.00  0.00     0.241 C 
ATOM     83  O   THR d   1      -0.859 -16.254  -2.590  0.00  0.00    -0.271 OA
ATOM     84  N   THR d   1       1.307 -16.573  -2.068  0.00  0.00    -0.343 N 
ATOM     85  H73 THR d   1       2.036 -17.239  -1.907  0.00  0.00     0.163 HD
BRANCH  84  86
ATOM     86  CA  THR d   1       1.596 -15.151  -1.910  0.00  0.00     0.116 C 
ATOM     87  H74 THR d   1       0.662 -14.639  -1.635  0.00  0.00     0.093 H 
BRANCH  86  88
ATOM     88  C   THR d   1       2.107 -14.550  -3.214  0.00  0.00     0.198 C 
ATOM     89  O   THR d   1       2.638 -15.259  -4.067  0.00  0.00    -0.646 OA
ATOM     90  OXT THR d   1       1.997 -13.345  -3.436  0.00  0.00    -0.646 OA
ENDBRANCH  86  88
BRANCH  86  91
ATOM     91  CB  THR d   1       2.618 -14.926  -0.794  0.00  0.00     0.045 C 
ATOM     92  H75 THR d   1       2.987 -13.891  -0.849  0.00  0.00     0.077 H 
ATOM     93  H76 THR d   1       3.458 -15.623  -0.931  0.00  0.00     0.077 H 
BRANCH  91  94
ATOM     94  OG  THR d   1       2.039 -15.144   0.481  0.00  0.00    -0.398 OA
ATOM     95  H77 THR d   1       2.693 -14.998   1.154  0.00  0.00     0.209 HD
ENDBRANCH  91  94
ENDBRANCH  86  91
ENDBRANCH  84  86
ENDBRANCH  80  82
BRANCH  80  96
ATOM     96  CB  THR d   1      -0.462 -18.824  -4.030  0.00  0.00    -0.038 C 
ATOM     97  H56 THR d   1      -1.442 -18.368  -4.233  0.00  0.00     0.036 H 
ATOM     98  H57 THR d   1      -0.537 -19.916  -4.133  0.00  0.00     0.036 H 
BRANCH  96  99
ATOM     99  CG  THR d   1       0.546 -18.300  -5.047  0.00  0.00    -0.061 C 
ATOM    100  H58 THR d   1       1.473 -18.887  -4.966  0.00  0.00     0.033 H 
ATOM    101  H59 THR d   1       0.760 -17.244  -4.826  0.00  0.00     0.033 H 
BRANCH  99 102
ATOM    102  CD  THR d   1       0.013 -18.409  -6.475  0.00  0.00    -0.042 C 
ATOM    103  H60 THR d   1       0.711 -17.897  -7.155  0.00  0.00     0.035 H 
ATOM    104  H61 THR d   1      -0.972 -17.921  -6.525  0.00  0.00     0.035 H 
BRANCH 102 105
ATOM    105  CE  THR d   1      -0.133 -19.859  -6.920  0.00  0.00     0.082 C 
ATOM    106  H62 THR d   1      -0.878 -20.351  -6.277  0.00  0.00     0.075 H 
ATOM    107  H63 THR d   1       0.839 -20.361  -6.806  0.00  0.00     0.075 H 
BRANCH 105 108
ATOM    108  NZ  THR d   1      -0.560 -19.983  -8.304  0.00  0.00    -0.071 N 
ATOM    109  H64 THR d   1       0.150 -19.609  -8.915  0.00  0.00     0.277 HD
ATOM    110  H65 THR d   1      -1.422 -19.478  -8.442  0.00  0.00     0.277 HD
BRANCH 108 111
ATOM    111  CH  THR d   1      -0.764 -21.390  -8.592  0.00  0.00     0.105 C 
ATOM    112  H66 THR d   1      -1.622 -21.740  -7.999  0.00  0.00     0.083 H 
ATOM    113  H67 THR d   1       0.140 -21.937  -8.286  0.00  0.00     0.083 H 
BRANCH 111 114
ATOM    114  C1  THR d   1      -1.036 -21.706 -10.047  0.00  0.00    -0.033 A 
ATOM    115  C2  THR d   1      -1.712 -22.877 -10.374  0.00  0.00    -0.075 A 
ATOM    116  C3  THR d   1      -1.971 -23.189 -11.703  0.00  0.00    -0.082 A 
ATOM    117  H68 THR d   1      -2.038 -23.549  -9.588  0.00  0.00     0.084 H 
ATOM    118  C4  THR d   1      -1.553 -22.330 -12.713  0.00  0.00    -0.083 A 
ATOM    119  H69 THR d   1      -2.499 -24.102 -11.952  0.00  0.00     0.083 H 
ATOM    120  C5  THR d   1      -0.875 -21.160 -12.388  0.00  0.00    -0.082 A 
ATOM    121  H70 THR d   1      -1.755 -22.571 -13.750  0.00  0.00     0.083 H 
ATOM    122  C6  THR d   1      -0.616 -20.848 -11.057  0.00  0.00    -0.075 A 
ATOM    123  H71 THR d   1      -0.547 -20.489 -13.174  0.00  0.00     0.083 H 
ATOM    124  H72 THR d   1      -0.086 -19.936 -10.807  0.00  0.00     0.084 H 
ENDBRANCH 111 114
ENDBRANCH 108 111
ENDBRANCH 105 108
ENDBRANCH 102 105
ENDBRANCH  99 102
ENDBRANCH  96  99
ENDBRANCH  80  96
ENDBRANCH  78  80
ENDBRANCH  74  76
BRANCH  74 125
ATOM    125  CB  THR d   1      -1.915 -19.484   1.527  0.00  0.00    -0.036 C 
ATOM    126  H43 THR d   1      -0.924 -19.454   2.003  0.00  0.00     0.036 H 
ATOM    127  H44 THR d   1      -2.634 -19.964   2.207  0.00  0.00     0.036 H 
BRANCH 125 128
ATOM    128  CG  THR d   1      -2.369 -18.057   1.292  0.00  0.00    -0.048 C 
ATOM    129  H45 THR d   1      -3.300 -18.067   0.706  0.00  0.00     0.035 H 
ATOM    130  H46 THR d   1      -1.589 -17.518   0.733  0.00  0.00     0.035 H 
BRANCH 128 131
ATOM    131  CD  THR d   1      -2.620 -17.342   2.612  0.00  0.00     0.009 C 
ATOM    132  H47 THR d   1      -1.691 -17.347   3.201  0.00  0.00     0.064 H 
ATOM    133  H48 THR d   1      -3.406 -17.879   3.163  0.00  0.00     0.064 H 
BRANCH 131 134
ATOM    134  NE  THR d   1      -3.044 -15.960   2.414  0.00  0.00    -0.227 N 
ATOM    135  CZ  THR d   1      -2.212 -14.926   2.355  0.00  0.00     0.665 C 
ATOM    136  NH1 THR d   1      -2.684 -13.701   2.171  0.00  0.00    -0.235 N 
ATOM    137  NH2 THR d   1      -0.905 -15.117   2.481  0.00  0.00    -0.235 N 
ATOM    138  H50 THR d   1      -2.037 -12.901   2.126  0.00  0.00     0.174 HD
ATOM    139  H51 THR d   1      -3.698 -13.549   2.073  0.00  0.00     0.174 HD
ATOM    140  H52 THR d   1      -0.535 -16.067   2.624  0.00  0.00     0.174 HD
ATOM    141  H53 THR d   1      -0.261 -14.315   2.436  0.00  0.00     0.174 HD
ATOM    142  H49 THR d   1      -4.052 -15.774   2.314  0.00  0.00     0.177 HD
ENDBRANCH 131 134
ENDBRANCH 128 131
ENDBRANCH 125 128
ENDBRANCH  74 125
ENDBRANCH  72  74
ENDBRANCH   1  70
BRANCH   1 143
ATOM    143  CB  THR d   1       0.057 -24.358  -0.148  0.00  0.00    -0.049 C 
ATOM    144  H38 THR d   1       0.701 -23.583   0.293  0.00  0.00     0.030 H 
ATOM    145  H39 THR d   1       0.148 -24.330  -1.244  0.00  0.00     0.030 H 
ATOM    146  H40 THR d   1       0.368 -25.346   0.221  0.00  0.00     0.030 H 
ENDBRANCH   1 143
TORSDOF 42
