REMARK  4 active torsions:
REMARK  status: ('A' for Active; 'I' for Inactive)
REMARK    1  A    between atoms: C3_5  and  S2_16 
REMARK    2  A    between atoms: SE9_17  and  C8_6 
REMARK    3  A    between atoms: C10_12  and  SE9_17 
REMARK    4  A    between atoms: S2_16  and  N16_13 
ROOT
ATOM      1  C13 FQY d   1       2.492  10.014  84.590  0.00  0.00    -0.065 C 
ATOM      2  C12 FQY d   1       2.903   9.230  83.363  0.00  0.00    -0.065 C 
ATOM      3  C14 FQY d   1       1.872   9.069  85.583  0.00  0.00    -0.065 C 
ATOM      4  C11 FQY d   1       1.743   8.434  82.779  0.00  0.00    -0.061 C 
ATOM      5  C15 FQY d   1       0.694   8.328  85.012  0.00  0.00    -0.061 C 
ATOM      6  C10 FQY d   1       1.072   7.522  83.795  0.00  0.00    -0.051 C 
ATOM      7  H5  FQY d   1       1.761  10.786  84.308  0.00  0.00     0.033 H 
ATOM      8  H6  FQY d   1       3.376  10.492  85.037  0.00  0.00     0.033 H 
ATOM      9  H7  FQY d   1       3.708   8.533  83.640  0.00  0.00     0.033 H 
ATOM     10  H8  FQY d   1       3.272   9.932  82.600  0.00  0.00     0.033 H 
ATOM     11  H9  FQY d   1       1.536   9.646  86.457  0.00  0.00     0.033 H 
ATOM     12  H10 FQY d   1       2.631   8.337  85.896  0.00  0.00     0.033 H 
ATOM     13  H11 FQY d   1       2.124   7.816  81.952  0.00  0.00     0.033 H 
ATOM     14  H12 FQY d   1       0.993   9.140  82.394  0.00  0.00     0.033 H 
ATOM     15  H13 FQY d   1      -0.081   9.056  84.730  0.00  0.00     0.033 H 
ATOM     16  H14 FQY d   1       0.296   7.648  85.779  0.00  0.00     0.033 H 
ATOM     17  H15 FQY d   1       1.783   6.740  84.100  0.00  0.00     0.040 H 
ENDROOT
BRANCH   6  18
ATOM     18 SE9  FQY d   1      -0.468   6.670  82.985  0.00  0.00     0.000 Se
BRANCH  18  19
ATOM     19  C8  FQY d   1      -0.928   5.251  84.212  0.00  0.00    -0.026 A 
ATOM     20  C5  FQY d   1      -0.057   4.240  84.575  0.00  0.00    -0.071 A 
ATOM     21  C4  FQY d   1      -0.500   3.216  85.398  0.00  0.00    -0.059 A 
ATOM     22  H3  FQY d   1       0.967   4.248  84.218  0.00  0.00     0.084 H 
ATOM     23  C3  FQY d   1      -1.809   3.221  85.849  0.00  0.00     0.079 A 
ATOM     24  H1  FQY d   1       0.174   2.417  85.686  0.00  0.00     0.085 H 
ATOM     25  C6  FQY d   1      -2.678   4.244  85.505  0.00  0.00    -0.059 A 
ATOM     26  C7  FQY d   1      -2.229   5.253  84.679  0.00  0.00    -0.071 A 
ATOM     27  H2  FQY d   1      -3.695   4.251  85.879  0.00  0.00     0.085 H 
ATOM     28  H4  FQY d   1      -2.902   6.054  84.394  0.00  0.00     0.084 H 
BRANCH  23  29
ATOM     29  S2  FQY d   1      -2.391   1.875  86.877  0.00  0.00     0.256 S 
ATOM     30  O1  FQY d   1      -1.810   2.037  88.185  0.00  0.00    -0.201 OA
ATOM     31  O17 FQY d   1      -3.846   1.977  86.792  0.00  0.00    -0.201 OA
BRANCH  29  32
ATOM     32  N16 FQY d   1      -1.913   0.471  86.182  0.00  0.00    -0.324 N 
ATOM     33  H16 FQY d   1      -2.144  -0.403  86.610  0.00  0.00     0.169 HD
ATOM     34  H17 FQY d   1      -1.390   0.488  85.330  0.00  0.00     0.169 HD
ENDBRANCH  29  32
ENDBRANCH  23  29
ENDBRANCH  18  19
ENDBRANCH   6  18
TORSDOF 4
