REMARK  8 active torsions:
REMARK  status: ('A' for Active; 'I' for Inactive)
REMARK       I    between atoms: C5'_1  and  N5'_3 
REMARK    1  A    between atoms: C5'_1  and  C4'_7 
REMARK    2  A    between atoms: N5'_3  and  C51_4 
REMARK    3  A    between atoms: C51_4  and  C52_5 
REMARK    4  A    between atoms: C52_5  and  C53_6 
REMARK    5  A    between atoms: C3'_9  and  O3'_10 
REMARK    6  A    between atoms: C2'_11  and  O2'_12 
REMARK    7  A    between atoms: C1'_13  and  N9_14 
REMARK    8  A    between atoms: C6_18  and  N6_19 
ROOT
ATOM      1  C4' PA7 d   1      25.323  15.454  21.651  0.00  0.00     0.144 C 
ATOM      2  O4' PA7 d   1      24.840  16.127  22.780  0.00  0.00    -0.346 OA
ATOM      3  C3' PA7 d   1      25.656  16.459  20.572  0.00  0.00     0.098 C 
ATOM      4  C2' PA7 d   1      24.694  17.556  20.992  0.00  0.00     0.105 C 
ATOM      5  C1' PA7 d   1      24.542  17.471  22.550  0.00  0.00     0.140 C 
ATOM      6  H9  PA7 d   1      24.532  14.797  21.262  0.00  0.00     0.102 H 
ATOM      7  H10 PA7 d   1      26.697  16.805  20.652  0.00  0.00     0.091 H 
ATOM      8  H12 PA7 d   1      25.057  18.551  20.695  0.00  0.00     0.093 H 
ATOM      9  H14 PA7 d   1      23.522  17.723  22.876  0.00  0.00     0.123 H 
ENDROOT
BRANCH   1  10
ATOM     10  C5' PA7 d   1      26.462  14.597  22.071  0.00  0.00     0.249 C 
ATOM     11  O5' PA7 d   1      27.531  15.092  22.459  0.00  0.00    -0.271 OA
ATOM     12  N5' PA7 d   1      26.248  13.280  22.012  0.00  0.00    -0.359 N 
ATOM     13  H1  PA7 d   1      25.361  12.942  21.697  0.00  0.00     0.162 HD
BRANCH  12  14
ATOM     14  C51 PA7 d   1      27.262  12.341  22.390  0.00  0.00    -0.005 C 
ATOM     15  H2  PA7 d   1      26.817  11.525  22.978  0.00  0.00     0.064 H 
ATOM     16  H3  PA7 d   1      28.035  12.845  22.988  0.00  0.00     0.064 H 
BRANCH  14  17
ATOM     17  C52 PA7 d   1      27.878  11.782  21.104  0.00  0.00    -0.054 C 
ATOM     18  H4  PA7 d   1      28.108  10.716  21.245  0.00  0.00     0.034 H 
ATOM     19  H5  PA7 d   1      28.804  12.330  20.877  0.00  0.00     0.034 H 
BRANCH  17  20
ATOM     20  C53 PA7 d   1      26.898  11.938  19.936  0.00  0.00    -0.075 C 
ATOM     21  H6  PA7 d   1      27.352  11.533  19.020  0.00  0.00     0.027 H 
ATOM     22  H7  PA7 d   1      26.667  13.004  19.791  0.00  0.00     0.027 H 
ATOM     23  H8  PA7 d   1      25.971  11.389  20.159  0.00  0.00     0.027 H 
ENDBRANCH  17  20
ENDBRANCH  14  17
ENDBRANCH  12  14
ENDBRANCH   1  10
BRANCH   3  24
ATOM     24  O3' PA7 d   1      25.472  15.935  19.279  0.00  0.00    -0.390 OA
ATOM     25  H11 PA7 d   1      24.565  15.675  19.170  0.00  0.00     0.210 HD
ENDBRANCH   3  24
BRANCH   5  26
ATOM     26  N9  PA7 d   1      25.513  18.355  23.216  0.00  0.00    -0.294 N 
ATOM     27  C8  PA7 d   1      26.724  18.098  23.825  0.00  0.00     0.071 A 
ATOM     28  N7  PA7 d   1      27.270  19.189  24.308  0.00  0.00    -0.236 NA
ATOM     29  H15 PA7 d   1      27.173  17.108  23.896  0.00  0.00     0.144 H 
ATOM     30  C5  PA7 d   1      26.347  20.192  23.991  0.00  0.00     0.149 A 
ATOM     31  C6  PA7 d   1      26.279  21.605  24.217  0.00  0.00     0.155 A 
ATOM     32  C4  PA7 d   1      25.251  19.693  23.321  0.00  0.00     0.167 A 
ATOM     33  N1  PA7 d   1      25.175  22.282  23.757  0.00  0.00    -0.222 NA
ATOM     34  C2  PA7 d   1      24.185  21.642  23.109  0.00  0.00     0.091 A 
ATOM     35  N3  PA7 d   1      24.113  20.333  22.838  0.00  0.00    -0.222 NA
ATOM     36  H18 PA7 d   1      23.356  22.252  22.770  0.00  0.00     0.146 H 
BRANCH  31  37
ATOM     37  N6  PA7 d   1      27.260  22.270  24.826  0.00  0.00    -0.382 N 
ATOM     38  H16 PA7 d   1      27.179  23.286  24.973  0.00  0.00     0.157 HD
ATOM     39  H17 PA7 d   1      28.099  21.768  25.150  0.00  0.00     0.157 HD
ENDBRANCH  31  37
ENDBRANCH   5  26
BRANCH   4  40
ATOM     40  O2' PA7 d   1      23.460  17.244  20.332  0.00  0.00    -0.388 OA
ATOM     41  H13 PA7 d   1      23.597  17.239  19.392  0.00  0.00     0.210 HD
ENDBRANCH   4  40
TORSDOF 8
