REMARK  7 active torsions:
REMARK  status: ('A' for Active; 'I' for Inactive)
REMARK       I    between atoms: C5'_1  and  N5'_3 
REMARK    1  A    between atoms: C5'_1  and  C4'_6 
REMARK    2  A    between atoms: N5'_3  and  C51_4 
REMARK    3  A    between atoms: C51_4  and  C52_5 
REMARK    4  A    between atoms: C3'_8  and  O3'_9 
REMARK    5  A    between atoms: C2'_10  and  O2'_11 
REMARK    6  A    between atoms: C1'_12  and  N9_13 
REMARK    7  A    between atoms: C6_17  and  N6_18 
ROOT
ATOM      1  C4' NEC d   1      19.594 -15.435  53.083  0.00  0.00     0.132 C 
ATOM      2  O4' NEC d   1      19.919 -16.146  54.255  0.00  0.00    -0.347 OA
ATOM      3  C3' NEC d   1      19.197 -16.490  52.081  0.00  0.00     0.097 C 
ATOM      4  C2' NEC d   1      20.239 -17.574  52.397  0.00  0.00     0.105 C 
ATOM      5  C1' NEC d   1      20.306 -17.488  53.955  0.00  0.00     0.140 C 
ATOM      6  H7  NEC d   1      20.427 -14.824  52.705  0.00  0.00     0.101 H 
ATOM      7  H8  NEC d   1      18.186 -16.865  52.300  0.00  0.00     0.091 H 
ATOM      8  H10 NEC d   1      19.925 -18.572  52.056  0.00  0.00     0.093 H 
ATOM      9  H12 NEC d   1      21.312 -17.725  54.331  0.00  0.00     0.123 H 
ENDROOT
BRANCH   5  10
ATOM     10  N9  NEC d   1      19.281 -18.383  54.565  0.00  0.00    -0.294 N 
ATOM     11  C8  NEC d   1      18.019 -18.089  55.062  0.00  0.00     0.071 A 
ATOM     12  N7  NEC d   1      17.438 -19.135  55.593  0.00  0.00    -0.236 NA
ATOM     13  H13 NEC d   1      17.564 -17.101  55.016  0.00  0.00     0.144 H 
ATOM     14  C5  NEC d   1      18.357 -20.162  55.432  0.00  0.00     0.149 A 
ATOM     15  C6  NEC d   1      18.336 -21.538  55.755  0.00  0.00     0.155 A 
ATOM     16  C4  NEC d   1      19.519 -19.705  54.814  0.00  0.00     0.167 A 
ATOM     17  N1  NEC d   1      19.458 -22.274  55.464  0.00  0.00    -0.222 NA
ATOM     18  C2  NEC d   1      20.516 -21.698  54.849  0.00  0.00     0.091 A 
ATOM     19  N3  NEC d   1      20.642 -20.408  54.456  0.00  0.00    -0.222 NA
ATOM     20  H16 NEC d   1      21.362 -22.345  54.647  0.00  0.00     0.146 H 
BRANCH  15  21
ATOM     21  N6  NEC d   1      17.288 -22.164  56.323  0.00  0.00    -0.382 N 
ATOM     22  H14 NEC d   1      17.341 -23.171  56.532  0.00  0.00     0.157 HD
ATOM     23  H15 NEC d   1      16.433 -21.636  56.549  0.00  0.00     0.157 HD
ENDBRANCH  15  21
ENDBRANCH   5  10
BRANCH   4  24
ATOM     24  O2' NEC d   1      21.482 -17.206  51.785  0.00  0.00    -0.388 OA
ATOM     25  H11 NEC d   1      22.135 -17.869  51.974  0.00  0.00     0.210 HD
ENDBRANCH   4  24
BRANCH   1  26
ATOM     26  C5' NEC d   1      18.442 -14.585  53.510  0.00  0.00     0.183 C 
ATOM     27  O5' NEC d   1      17.292 -15.149  53.991  0.00  0.00    -0.174 OA
ATOM     28  N5' NEC d   1      18.544 -13.169  53.504  0.00  0.00    -0.370 N 
ATOM     29  H1  NEC d   1      19.377 -12.713  53.191  0.00  0.00     0.161 HD
BRANCH  28  30
ATOM     30  C51 NEC d   1      17.410 -12.412  53.962  0.00  0.00    -0.009 C 
ATOM     31  H2  NEC d   1      17.718 -11.634  54.675  0.00  0.00     0.063 H 
ATOM     32  H3  NEC d   1      16.664 -13.068  54.434  0.00  0.00     0.063 H 
BRANCH  30  33
ATOM     33  C52 NEC d   1      16.857 -11.789  52.676  0.00  0.00    -0.061 C 
ATOM     34  H4  NEC d   1      15.973 -11.179  52.915  0.00  0.00     0.029 H 
ATOM     35  H5  NEC d   1      16.573 -12.587  51.974  0.00  0.00     0.029 H 
ATOM     36  H6  NEC d   1      17.628 -11.153  52.216  0.00  0.00     0.029 H 
ENDBRANCH  30  33
ENDBRANCH  28  30
ENDBRANCH   1  26
BRANCH   3  37
ATOM     37  O3' NEC d   1      19.198 -16.020  50.733  0.00  0.00    -0.390 OA
ATOM     38  H9  NEC d   1      18.941 -16.727  50.152  0.00  0.00     0.210 HD
ENDBRANCH   3  37
TORSDOF 7
