REMARK  4 active torsions:
REMARK  status: ('A' for Active; 'I' for Inactive)
REMARK       I    between atoms: CAN_2  and  N_3 
REMARK    1  A    between atoms: CA_5  and  C_6 
REMARK       I    between atoms: C_6  and  NAA_8 
REMARK    2  A    between atoms: CAO_11  and  NAK_12 
REMARK    3  A    between atoms: NAK_12  and  OAL_13 
REMARK    4  A    between atoms: OAL_13  and  SAR_14 
ROOT
ATOM      1  OAC NXL d   1      99.809  12.909 162.099  0.00  0.00    -0.284 OA
ATOM      2  CAN NXL d   1      99.632  12.413 160.968  0.00  0.00     0.171 C 
ATOM      3  N   NXL d   1      98.330  12.311 160.401  0.00  0.00    -0.344 N 
ATOM      4  CAJ NXL d   1      98.078  11.773 159.096  0.00  0.00     0.027 C 
ATOM      5  CA  NXL d   1      97.186  12.783 161.116  0.00  0.00     0.091 C 
ATOM      6  CB  NXL d   1      96.450  13.847 160.301  0.00  0.00    -0.036 C 
ATOM      7  CAH NXL d   1      96.424  13.644 158.786  0.00  0.00    -0.032 C 
ATOM      8  CAO NXL d   1      97.596  12.869 158.170  0.00  0.00     0.147 C 
ATOM      9  H1  NXL d   1     100.490  12.051 160.404  0.00  0.00     0.180 H 
ATOM     10  H2  NXL d   1      97.308  10.991 159.167  0.00  0.00     0.067 H 
ATOM     11  H3  NXL d   1      99.006  11.339 158.695  0.00  0.00     0.067 H 
ATOM     12  H4  NXL d   1      97.539  13.271 162.036  0.00  0.00     0.087 H 
ATOM     13  H7  NXL d   1      96.933  14.815 160.501  0.00  0.00     0.036 H 
ATOM     14  H8  NXL d   1      95.408  13.877 160.653  0.00  0.00     0.036 H 
ATOM     15  H9  NXL d   1      96.401  14.639 158.318  0.00  0.00     0.036 H 
ATOM     16  H10 NXL d   1      95.500  13.101 158.539  0.00  0.00     0.036 H 
ATOM     17  H11 NXL d   1      97.246  12.396 157.240  0.00  0.00     0.091 H 
ENDROOT
BRANCH   8  18
ATOM     18  NAK NXL d   1      98.671  13.794 157.834  0.00  0.00     0.061 N 
ATOM     19  H12 NXL d   1      98.562  14.075 156.872  0.00  0.00     0.316 HD
ATOM     20  H13 NXL d   1      99.551  13.316 157.947  0.00  0.00     0.316 HD
BRANCH  18  21
ATOM     21  OAL NXL d   1      98.683  14.958 158.644  0.00  0.00    -0.054 OA
BRANCH  21  22
ATOM     22  SAR NXL d   1     100.081  15.486 158.957  0.00  0.00     0.279 S 
ATOM     23  OAD NXL d   1     100.078  16.331 160.217  0.00  0.00    -0.571 OA
ATOM     24  OAE NXL d   1     100.725  16.325 157.826  0.00  0.00    -0.571 OA
ATOM     25  OAG NXL d   1     101.024  14.377 159.331  0.00  0.00    -0.571 OA
ENDBRANCH  21  22
ENDBRANCH  18  21
ENDBRANCH   8  18
BRANCH   5  26
ATOM     26  C   NXL d   1      96.313  11.581 161.545  0.00  0.00     0.238 C 
ATOM     27  O   NXL d   1      96.726  10.432 161.467  0.00  0.00    -0.271 OA
ATOM     28  NAA NXL d   1      95.015  11.755 162.061  0.00  0.00    -0.368 N 
ATOM     29  H5  NXL d   1      94.473  10.959 162.330  0.00  0.00     0.159 HD
ATOM     30  H6  NXL d   1      94.635  12.675 162.158  0.00  0.00     0.159 HD
ENDBRANCH   5  26
TORSDOF 4
