REMARK  27 active torsions:
REMARK  status: ('A' for Active; 'I' for Inactive)
REMARK    1  A    between atoms: CA_6  and  CB_9 
REMARK    2  A    between atoms: CB_9  and  CG_10 
REMARK    3  A    between atoms: CG_10  and  CD_11 
REMARK    4  A    between atoms: CD_11  and  NE_12 
REMARK       I    between atoms: NE_12  and  CZ_13 
REMARK       I    between atoms: CZ_13  and  NH1_14 
REMARK    5  A    between atoms: CA_23  and  CB_26 
REMARK    6  A    between atoms: CB_26  and  CG_27 
REMARK    7  A    between atoms: CZ_32  and  OH_33 
REMARK    8  A    between atoms: CA_35  and  CB_38 
REMARK    9  A    between atoms: CB_38  and  CG_39 
REMARK   10  A    between atoms: CG_39  and  CD_40 
REMARK   11  A    between atoms: CD_40  and  CE_41 
REMARK   12  A    between atoms: CE_41  and  NZ_42 
REMARK   13  A    between atoms: CA_44  and  CB_47 
REMARK   14  A    between atoms: CB_47  and  OG_48 
REMARK   15  A    between atoms: CA_50  and  CB_53 
REMARK   16  A    between atoms: CB_53  and  CG_54 
REMARK   17  A    between atoms: CG_54  and  CD_55 
REMARK   18  A    between atoms: CD_55  and  CE_56 
REMARK   19  A    between atoms: CE_56  and  NZ_57 
REMARK   20  A    between atoms: CA_73  and  CB_76 
REMARK   21  A    between atoms: CB_76  and  CG1_77 
REMARK   22  A    between atoms: CB_76  and  CG2_78 
REMARK   23  A    between atoms: CG1_77  and  CD1_79 
REMARK   24  A    between atoms: CA_87  and  CB_90 
REMARK   25  A    between atoms: CB_90  and  CG_91 
REMARK   26  A    between atoms: CA_105  and  CB_108 
REMARK   27  A    between atoms: CB_108  and  CG_109 
ROOT
ATOM      1  N   GLY d   1      -0.569  -6.050  40.014  0.00  0.00    -0.084 NA
ATOM      2  CA  GLY d   1      -1.858  -6.631  40.344  0.00  0.00     0.215 A 
ATOM      3  C   GLY d   1      -2.928  -6.448  39.283  0.00  0.00     0.266 C 
ATOM      4  O   GLY d   1      -4.047  -6.944  39.423  0.00  0.00    -0.269 OA
ATOM      5  N   GLY d   1      -2.582  -5.724  38.223  0.00  0.00    -0.344 N 
ATOM      6  CA  GLY d   1      -3.510  -5.473  37.122  0.00  0.00     0.089 C 
ATOM      7  C   GLY d   1      -3.712  -6.757  36.311  0.00  0.00     0.241 C 
ATOM      8  O   GLY d   1      -2.741  -7.390  35.889  0.00  0.00    -0.271 OA
ATOM      9  N   GLY d   1      -4.972  -7.182  36.145  0.00  0.00    -0.345 N 
ATOM     10  CA  GLY d   1      -5.301  -8.377  35.366  0.00  0.00     0.098 C 
ATOM     11  C   GLY d   1      -6.339  -7.998  34.319  0.00  0.00     0.242 C 
ATOM     12  O   GLY d   1      -7.415  -7.504  34.670  0.00  0.00    -0.271 OA
ATOM     13  CB  GLY d   1      -5.843  -9.519  36.244  0.00  0.00     0.013 C 
ATOM     14  SG  GLY d   1      -4.579 -10.401  37.250  0.00  0.00    -0.095 SA
ATOM     15  N   GLY d   1      -6.007  -8.212  33.043  0.00  0.00    -0.346 N 
ATOM     16  CA  GLY d   1      -6.964  -8.029  31.957  0.00  0.00     0.093 C 
ATOM     17  C   GLY d   1      -7.903  -9.220  31.920  0.00  0.00     0.241 C 
ATOM     18  O   GLY d   1      -7.470 -10.369  32.029  0.00  0.00    -0.271 OA
ATOM     19  N   GLY d   1      -9.197  -8.942  31.765  0.00  0.00    -0.346 N 
ATOM     20  CA  GLY d   1     -10.237  -9.911  32.108  0.00  0.00     0.089 C 
ATOM     21  C   GLY d   1     -10.600 -10.837  30.952  0.00  0.00     0.241 C 
ATOM     22  O   GLY d   1     -11.770 -11.205  30.781  0.00  0.00    -0.271 OA
ATOM     23  N   GLY d   1      -9.620 -11.216  30.137  0.00  0.00    -0.344 N 
ATOM     24  CA  GLY d   1      -9.828 -12.282  29.174  0.00  0.00     0.109 C 
ATOM     25  C   GLY d   1      -9.766 -13.637  29.882  0.00  0.00     0.243 C 
ATOM     26  O   GLY d   1      -9.441 -13.734  31.071  0.00  0.00    -0.271 OA
ATOM     27  N   GLY d   1     -10.085 -14.691  29.141  0.00  0.00    -0.346 N 
ATOM     28  CA  GLY d   1      -9.980 -16.054  29.658  0.00  0.00     0.089 C 
ATOM     29  C   GLY d   1      -9.019 -16.846  28.786  0.00  0.00     0.243 C 
ATOM     30  O   GLY d   1      -9.350 -17.148  27.624  0.00  0.00    -0.271 OA
ATOM     31  N   GLY d   1      -7.807 -17.180  29.261  0.00  0.00    -0.337 N 
ATOM     32  CA  GLY d   1      -7.251 -16.811  30.566  0.00  0.00     0.092 C 
ATOM     33  C   GLY d   1      -6.858 -15.334  30.617  0.00  0.00     0.243 C 
ATOM     34  O   GLY d   1      -6.693 -14.700  29.567  0.00  0.00    -0.271 OA
ATOM     35  CB  GLY d   1      -6.026 -17.721  30.690  0.00  0.00    -0.036 C 
ATOM     36  CG  GLY d   1      -5.574 -17.907  29.280  0.00  0.00    -0.048 C 
ATOM     37  CD  GLY d   1      -6.832 -17.913  28.434  0.00  0.00    -0.001 C 
ATOM     38  N   GLY d   1      -6.765 -14.779  31.819  0.00  0.00    -0.337 N 
ATOM     39  CA  GLY d   1      -6.420 -13.366  31.955  0.00  0.00     0.091 C 
ATOM     40  C   GLY d   1      -4.939 -13.132  31.702  0.00  0.00     0.241 C 
ATOM     41  O   GLY d   1      -4.118 -14.053  31.710  0.00  0.00    -0.271 OA
ATOM     42  CB  GLY d   1      -6.784 -13.063  33.412  0.00  0.00    -0.036 C 
ATOM     43  CG  GLY d   1      -6.546 -14.365  34.105  0.00  0.00    -0.048 C 
ATOM     44  CD  GLY d   1      -7.077 -15.387  33.126  0.00  0.00    -0.001 C 
ATOM     45  N   GLY d   1      -4.606 -11.872  31.455  0.00  0.00    -0.346 N 
ATOM     46  CA  GLY d   1      -3.217 -11.433  31.367  0.00  0.00     0.092 C 
ATOM     47  C   GLY d   1      -2.953 -10.588  32.605  0.00  0.00     0.241 C 
ATOM     48  O   GLY d   1      -3.533  -9.506  32.758  0.00  0.00    -0.271 OA
ATOM     49  N   GLY d   1      -2.091 -11.080  33.496  0.00  0.00    -0.345 N 
ATOM     50  CA  GLY d   1      -1.855 -10.457  34.788  0.00  0.00     0.098 C 
ATOM     51  C   GLY d   1      -0.443  -9.891  34.873  0.00  0.00     0.242 C 
ATOM     52  O   GLY d   1       0.504 -10.456  34.320  0.00  0.00    -0.271 OA
ATOM     53  CB  GLY d   1      -2.084 -11.464  35.919  0.00  0.00     0.013 C 
ATOM     54  SG  GLY d   1      -3.826 -11.903  36.066  0.00  0.00    -0.095 SA
ATOM     55  N   GLY d   1      -0.309  -8.786  35.593  0.00  0.00    -0.346 N 
ATOM     56  CA  GLY d   1       0.938  -8.044  35.681  0.00  0.00     0.093 C 
ATOM     57  C   GLY d   1       1.331  -7.834  37.135  0.00  0.00     0.243 C 
ATOM     58  O   GLY d   1       0.490  -7.925  38.039  0.00  0.00    -0.271 OA
ATOM     59  N   GLY d   1       2.614  -7.575  37.396  0.00  0.00    -0.337 N 
ATOM     60  CA  GLY d   1       3.100  -7.575  38.788  0.00  0.00     0.091 C 
ATOM     61  C   GLY d   1       2.452  -6.537  39.690  0.00  0.00     0.241 C 
ATOM     62  O   GLY d   1       2.480  -6.705  40.915  0.00  0.00    -0.271 OA
ATOM     63  CB  GLY d   1       4.604  -7.310  38.628  0.00  0.00    -0.036 C 
ATOM     64  CG  GLY d   1       4.931  -7.841  37.296  0.00  0.00    -0.048 C 
ATOM     65  CD  GLY d   1       3.727  -7.545  36.430  0.00  0.00    -0.001 C 
ATOM     66  N   GLY d   1       1.871  -5.476  39.147  0.00  0.00    -0.346 N 
ATOM     67  CA  GLY d   1       1.272  -4.466  40.009  0.00  0.00     0.096 C 
ATOM     68  C   GLY d   1      -0.174  -4.838  40.345  0.00  0.00     0.249 C 
ATOM     69  O   GLY d   1      -0.819  -4.188  41.170  0.00  0.00    -0.275 OA
ATOM     70  OXT GLY d   1      -0.724  -5.796  39.798  0.00  0.00    -0.260 OA
ATOM     71  H1  GLY d   1      -2.179  -7.014  41.324  0.00  0.00     0.131 H 
ATOM     72  H2  GLY d   1      -1.660  -5.340  38.178  0.00  0.00     0.163 HD
ATOM     73  H3  GLY d   1      -4.484  -5.170  37.535  0.00  0.00     0.087 H 
ATOM     74  H15 GLY d   1      -5.715  -6.664  36.569  0.00  0.00     0.163 HD
ATOM     75  H16 GLY d   1      -4.390  -8.730  34.861  0.00  0.00     0.088 H 
ATOM     76  H17 GLY d   1      -6.327 -10.255  35.585  0.00  0.00     0.053 H 
ATOM     77  H18 GLY d   1      -6.590  -9.095  36.931  0.00  0.00     0.053 H 
ATOM     78  H19 GLY d   1      -5.076  -8.506  32.826  0.00  0.00     0.163 HD
ATOM     79  H20 GLY d   1      -7.553  -7.121  32.152  0.00  0.00     0.088 H 
ATOM     80  H28 GLY d   1      -9.464  -8.048  31.405  0.00  0.00     0.163 HD
ATOM     81  H29 GLY d   1      -9.851 -10.542  32.923  0.00  0.00     0.087 H 
ATOM     82  H41 GLY d   1      -8.730 -10.762  30.188  0.00  0.00     0.163 HD
ATOM     83  H42 GLY d   1     -10.827 -12.164  28.729  0.00  0.00     0.090 H 
ATOM     84  H46 GLY d   1     -10.406 -14.549  28.204  0.00  0.00     0.163 HD
ATOM     85  H47 GLY d   1      -9.578 -16.014  30.681  0.00  0.00     0.087 H 
ATOM     86  H59 GLY d   1      -7.973 -17.018  31.369  0.00  0.00     0.087 H 
ATOM     87  H60 GLY d   1      -6.299 -18.685  31.144  0.00  0.00     0.036 H 
ATOM     88  H61 GLY d   1      -5.241 -17.241  31.293  0.00  0.00     0.036 H 
ATOM     89  H62 GLY d   1      -5.038 -18.861  29.174  0.00  0.00     0.035 H 
ATOM     90  H63 GLY d   1      -4.915 -17.080  28.978  0.00  0.00     0.035 H 
ATOM     91  H64 GLY d   1      -6.664 -17.399  27.476  0.00  0.00     0.064 H 
ATOM     92  H65 GLY d   1      -7.173 -18.941  28.244  0.00  0.00     0.064 H 
ATOM     93  H66 GLY d   1      -7.011 -12.748  31.263  0.00  0.00     0.087 H 
ATOM     94  H67 GLY d   1      -7.837 -12.757  33.499  0.00  0.00     0.036 H 
ATOM     95  H68 GLY d   1      -6.138 -12.274  33.824  0.00  0.00     0.036 H 
ATOM     96  H69 GLY d   1      -7.095 -14.410  35.057  0.00  0.00     0.035 H 
ATOM     97  H70 GLY d   1      -5.473 -14.520  34.293  0.00  0.00     0.035 H 
ATOM     98  H71 GLY d   1      -6.566 -16.354  33.246  0.00  0.00     0.064 H 
ATOM     99  H72 GLY d   1      -8.161 -15.528  33.249  0.00  0.00     0.064 H 
ATOM    100  H73 GLY d   1      -5.333 -11.198  31.324  0.00  0.00     0.163 HD
ATOM    101  H74 GLY d   1      -2.558 -12.314  31.381  0.00  0.00     0.088 H 
ATOM    102  H84 GLY d   1      -1.586 -11.912  33.266  0.00  0.00     0.163 HD
ATOM    103  H85 GLY d   1      -2.569  -9.629  34.908  0.00  0.00     0.088 H 
ATOM    104  H86 GLY d   1      -1.746 -11.021  36.867  0.00  0.00     0.053 H 
ATOM    105  H87 GLY d   1      -1.502 -12.374  35.711  0.00  0.00     0.053 H 
ATOM    106  H88 GLY d   1      -1.102  -8.447  36.099  0.00  0.00     0.163 HD
ATOM    107  H89 GLY d   1       1.728  -8.632  35.190  0.00  0.00     0.088 H 
ATOM    108  H97 GLY d   1       2.933  -8.566  39.236  0.00  0.00     0.087 H 
ATOM    109  H98 GLY d   1       5.176  -7.835  39.407  0.00  0.00     0.036 H 
ATOM    110  H99 GLY d   1       4.817  -6.232  38.680  0.00  0.00     0.036 H 
ATOM    111 0H10 GLY d   1       5.108  -8.925  37.348  0.00  0.00     0.035 H 
ATOM    112 1H10 GLY d   1       5.825  -7.342  36.893  0.00  0.00     0.035 H 
ATOM    113 2H10 GLY d   1       3.814  -6.556  35.956  0.00  0.00     0.064 H 
ATOM    114 3H10 GLY d   1       3.599  -8.314  35.654  0.00  0.00     0.064 H 
ATOM    115 4H10 GLY d   1       1.844  -5.370  38.153  0.00  0.00     0.163 HD
ATOM    116 5H10 GLY d   1       1.846  -4.425  40.946  0.00  0.00     0.087 H 
ENDROOT
BRANCH   6 117
ATOM    117  CB  GLY d   1      -2.961  -4.318  36.275  0.00  0.00    -0.036 C 
ATOM    118  H4  GLY d   1      -1.871  -4.298  36.420  0.00  0.00     0.036 H 
ATOM    119  H5  GLY d   1      -3.400  -3.389  36.668  0.00  0.00     0.036 H 
BRANCH 117 120
ATOM    120  CG  GLY d   1      -3.214  -4.337  34.782  0.00  0.00    -0.048 C 
ATOM    121  H6  GLY d   1      -4.288  -4.492  34.601  0.00  0.00     0.035 H 
ATOM    122  H7  GLY d   1      -2.644  -5.163  34.331  0.00  0.00     0.035 H 
BRANCH 120 123
ATOM    123  CD  GLY d   1      -2.778  -3.005  34.127  0.00  0.00     0.009 C 
ATOM    124  H8  GLY d   1      -3.197  -2.173  34.712  0.00  0.00     0.064 H 
ATOM    125  H9  GLY d   1      -3.177  -2.970  33.102  0.00  0.00     0.064 H 
BRANCH 123 126
ATOM    126  NE  GLY d   1      -1.319  -2.848  34.067  0.00  0.00    -0.227 N 
ATOM    127  CZ  GLY d   1      -0.621  -2.622  32.951  0.00  0.00     0.665 C 
ATOM    128  NH1 GLY d   1       0.706  -2.497  33.009  0.00  0.00    -0.235 N 
ATOM    129  NH2 GLY d   1      -1.242  -2.517  31.776  0.00  0.00    -0.235 N 
ATOM    130  H11 GLY d   1       1.245  -2.323  32.149  0.00  0.00     0.174 HD
ATOM    131  H12 GLY d   1       1.192  -2.575  33.914  0.00  0.00     0.174 HD
ATOM    132  H13 GLY d   1      -2.266  -2.612  31.724  0.00  0.00     0.174 HD
ATOM    133  H14 GLY d   1      -0.698  -2.340  30.920  0.00  0.00     0.174 HD
ATOM    134  H10 GLY d   1      -0.795  -2.917  34.951  0.00  0.00     0.177 HD
ENDBRANCH 123 126
ENDBRANCH 120 123
ENDBRANCH 117 120
ENDBRANCH   6 117
BRANCH  67 135
ATOM    135  CB  GLY d   1       1.334  -3.093  39.347  0.00  0.00     0.042 C 
ATOM    136 6H10 GLY d   1       2.300  -2.994  38.831  0.00  0.00     0.052 H 
ATOM    137 7H10 GLY d   1       1.254  -2.321  40.127  0.00  0.00     0.052 H 
BRANCH 135 138
ATOM    138  CG  GLY d   1       0.224  -2.885  38.343  0.00  0.00     0.175 C 
ATOM    139  OD1 GLY d   1      -0.085  -3.833  37.582  0.00  0.00    -0.648 OA
ATOM    140  OD2 GLY d   1      -0.338  -1.770  38.315  0.00  0.00    -0.648 OA
ENDBRANCH 135 138
ENDBRANCH  67 135
BRANCH  16 141
ATOM    141  CB  GLY d   1      -6.233  -7.855  30.618  0.00  0.00    -0.014 C 
ATOM    142  H21 GLY d   1      -6.963  -7.921  29.797  0.00  0.00     0.043 H 
ATOM    143  H22 GLY d   1      -5.485  -8.654  30.509  0.00  0.00     0.043 H 
BRANCH 141 144
ATOM    144  CG  GLY d   1      -5.540  -6.517  30.557  0.00  0.00    -0.056 A 
ATOM    145  CD1 GLY d   1      -4.306  -6.319  31.175  0.00  0.00    -0.074 A 
ATOM    146  CE1 GLY d   1      -3.695  -5.087  31.160  0.00  0.00    -0.051 A 
ATOM    147  H23 GLY d   1      -3.821  -7.149  31.675  0.00  0.00     0.084 H 
ATOM    148  CZ  GLY d   1      -4.315  -4.024  30.541  0.00  0.00     0.065 A 
ATOM    149  H25 GLY d   1      -2.729  -4.953  31.634  0.00  0.00     0.087 H 
ATOM    150  CE2 GLY d   1      -5.534  -4.190  29.926  0.00  0.00    -0.051 A 
ATOM    151  CD2 GLY d   1      -6.149  -5.427  29.955  0.00  0.00    -0.074 A 
ATOM    152  H26 GLY d   1      -6.009  -3.356  29.422  0.00  0.00     0.087 H 
ATOM    153  H24 GLY d   1      -7.125  -5.547  29.499  0.00  0.00     0.084 H 
BRANCH 148 154
ATOM    154  OH  GLY d   1      -3.707  -2.793  30.517  0.00  0.00    -0.361 OA
ATOM    155  H27 GLY d   1      -3.552  -2.535  29.616  0.00  0.00     0.217 HD
ENDBRANCH 148 154
ENDBRANCH 141 144
ENDBRANCH  16 141
BRANCH  20 156
ATOM    156  CB  GLY d   1     -11.461  -9.163  32.627  0.00  0.00    -0.038 C 
ATOM    157  H30 GLY d   1     -12.309  -9.862  32.681  0.00  0.00     0.036 H 
ATOM    158  H31 GLY d   1     -11.702  -8.348  31.929  0.00  0.00     0.036 H 
BRANCH 156 159
ATOM    159  CG  GLY d   1     -11.216  -8.565  34.029  0.00  0.00    -0.061 C 
ATOM    160  H32 GLY d   1     -10.240  -8.057  34.025  0.00  0.00     0.033 H 
ATOM    161  H33 GLY d   1     -11.199  -9.387  34.760  0.00  0.00     0.033 H 
BRANCH 159 162
ATOM    162  CD  GLY d   1     -12.284  -7.558  34.458  0.00  0.00    -0.043 C 
ATOM    163  H34 GLY d   1     -13.263  -8.059  34.483  0.00  0.00     0.035 H 
ATOM    164  H35 GLY d   1     -12.313  -6.732  33.732  0.00  0.00     0.035 H 
BRANCH 162 165
ATOM    165  CE  GLY d   1     -11.970  -6.991  35.857  0.00  0.00     0.080 C 
ATOM    166  H36 GLY d   1     -10.941  -6.603  35.856  0.00  0.00     0.075 H 
ATOM    167  H37 GLY d   1     -12.054  -7.804  36.593  0.00  0.00     0.075 H 
BRANCH 165 168
ATOM    168  NZ  GLY d   1     -12.901  -5.882  36.259  0.00  0.00    -0.079 N 
ATOM    169  H38 GLY d   1     -12.651  -5.550  37.178  0.00  0.00     0.274 HD
ATOM    170  H39 GLY d   1     -13.848  -6.227  36.272  0.00  0.00     0.274 HD
ATOM    171  H40 GLY d   1     -12.828  -5.125  35.597  0.00  0.00     0.274 HD
ENDBRANCH 165 168
ENDBRANCH 162 165
ENDBRANCH 159 162
ENDBRANCH 156 159
ENDBRANCH  20 156
BRANCH  46 172
ATOM    172  CB  GLY d   1      -2.937 -10.648  30.078  0.00  0.00    -0.030 C 
ATOM    173  H75 GLY d   1      -3.463  -9.684  30.138  0.00  0.00     0.043 H 
BRANCH 172 174
ATOM    174  CG1 GLY d   1      -3.466 -11.405  28.852  0.00  0.00    -0.063 C 
ATOM    175  H76 GLY d   1      -4.415 -11.888  29.128  0.00  0.00     0.033 H 
ATOM    176  H77 GLY d   1      -2.729 -12.175  28.577  0.00  0.00     0.033 H 
BRANCH 174 177
ATOM    177  CD1 GLY d   1      -3.716 -10.517  27.623  0.00  0.00    -0.076 C 
ATOM    178  H81 GLY d   1      -4.092 -11.135  26.794  0.00  0.00     0.027 H 
ATOM    179  H82 GLY d   1      -2.775 -10.034  27.322  0.00  0.00     0.027 H 
ATOM    180  H83 GLY d   1      -4.460  -9.747  27.872  0.00  0.00     0.027 H 
ENDBRANCH 174 177
ENDBRANCH 172 174
BRANCH 172 181
ATOM    181  CG2 GLY d   1      -1.447 -10.371  29.954  0.00  0.00    -0.071 C 
ATOM    182  H78 GLY d   1      -1.099  -9.829  30.846  0.00  0.00     0.028 H 
ATOM    183  H79 GLY d   1      -1.261  -9.761  29.058  0.00  0.00     0.028 H 
ATOM    184  H80 GLY d   1      -0.903 -11.323  29.869  0.00  0.00     0.028 H 
ENDBRANCH 172 181
ENDBRANCH  46 172
BRANCH  56 185
ATOM    185  CB  GLY d   1       0.812  -6.697  34.952  0.00  0.00    -0.014 C 
ATOM    186  H90 GLY d   1       1.682  -6.077  35.214  0.00  0.00     0.043 H 
ATOM    187  H91 GLY d   1      -0.108  -6.201  35.294  0.00  0.00     0.043 H 
BRANCH 185 188
ATOM    188  CG  GLY d   1       0.754  -6.830  33.449  0.00  0.00    -0.056 A 
ATOM    189  CD1 GLY d   1       1.908  -7.073  32.719  0.00  0.00    -0.077 A 
ATOM    190  CE1 GLY d   1       1.864  -7.195  31.334  0.00  0.00    -0.082 A 
ATOM    191  H92 GLY d   1       2.857  -7.169  33.234  0.00  0.00     0.084 H 
ATOM    192  CZ  GLY d   1       0.653  -7.088  30.670  0.00  0.00    -0.083 A 
ATOM    193  H94 GLY d   1       2.776  -7.373  30.775  0.00  0.00     0.083 H 
ATOM    194  CE2 GLY d   1      -0.508  -6.858  31.388  0.00  0.00    -0.082 A 
ATOM    195  H96 GLY d   1       0.615  -7.184  29.591  0.00  0.00     0.083 H 
ATOM    196  CD2 GLY d   1      -0.452  -6.728  32.772  0.00  0.00    -0.077 A 
ATOM    197  H95 GLY d   1      -1.459  -6.779  30.873  0.00  0.00     0.083 H 
ATOM    198  H93 GLY d   1      -1.364  -6.544  33.329  0.00  0.00     0.084 H 
ENDBRANCH 185 188
ENDBRANCH  56 185
BRANCH  24 199
ATOM    199  CB  GLY d   1      -8.789 -12.203  28.055  0.00  0.00     0.044 C 
ATOM    200  H43 GLY d   1      -8.931 -11.264  27.499  0.00  0.00     0.077 H 
ATOM    201  H44 GLY d   1      -8.929 -13.056  27.375  0.00  0.00     0.077 H 
BRANCH 199 202
ATOM    202  OG  GLY d   1      -7.462 -12.237  28.577  0.00  0.00    -0.398 OA
ATOM    203  H45 GLY d   1      -7.332 -13.048  29.055  0.00  0.00     0.209 HD
ENDBRANCH 199 202
ENDBRANCH  24 199
BRANCH  28 204
ATOM    204  CB  GLY d   1     -11.353 -16.727  29.706  0.00  0.00    -0.038 C 
ATOM    205  H48 GLY d   1     -11.704 -16.872  28.674  0.00  0.00     0.036 H 
ATOM    206  H49 GLY d   1     -12.047 -16.060  30.239  0.00  0.00     0.036 H 
BRANCH 204 207
ATOM    207  CG  GLY d   1     -11.356 -18.076  30.405  0.00  0.00    -0.061 C 
ATOM    208  H50 GLY d   1     -10.779 -17.996  31.338  0.00  0.00     0.033 H 
ATOM    209  H51 GLY d   1     -10.886 -18.821  29.746  0.00  0.00     0.033 H 
BRANCH 207 210
ATOM    210  CD  GLY d   1     -12.768 -18.531  30.735  0.00  0.00    -0.043 C 
ATOM    211  H52 GLY d   1     -13.428 -18.302  29.885  0.00  0.00     0.035 H 
ATOM    212  H53 GLY d   1     -13.120 -17.994  31.628  0.00  0.00     0.035 H 
BRANCH 210 213
ATOM    213  CE  GLY d   1     -12.808 -20.026  31.006  0.00  0.00     0.080 C 
ATOM    214  H54 GLY d   1     -12.464 -20.559  30.107  0.00  0.00     0.075 H 
ATOM    215  H55 GLY d   1     -13.844 -20.318  31.231  0.00  0.00     0.075 H 
BRANCH 213 216
ATOM    216  NZ  GLY d   1     -11.937 -20.412  32.158  0.00  0.00    -0.079 N 
ATOM    217  H56 GLY d   1     -11.993 -21.408  32.303  0.00  0.00     0.274 HD
ATOM    218  H57 GLY d   1     -12.248 -19.934  32.989  0.00  0.00     0.274 HD
ATOM    219  H58 GLY d   1     -10.983 -20.154  31.959  0.00  0.00     0.274 HD
ENDBRANCH 213 216
ENDBRANCH 210 213
ENDBRANCH 207 210
ENDBRANCH 204 207
ENDBRANCH  28 204
TORSDOF 26
