REMARK  26 active torsions:
REMARK  status: ('A' for Active; 'I' for Inactive)
REMARK    1  A    between atoms: CA_6  and  CB_9 
REMARK    2  A    between atoms: CB_9  and  CG_10 
REMARK    3  A    between atoms: CG_10  and  CD_11 
REMARK    4  A    between atoms: CD_11  and  NE_12 
REMARK       I    between atoms: NE_12  and  CZ_13 
REMARK       I    between atoms: CZ_13  and  NH1_14 
REMARK       I    between atoms: CZ_13  and  NH2_15 
REMARK    5  A    between atoms: CA_23  and  CB_26 
REMARK    6  A    between atoms: CB_26  and  OG1_27 
REMARK    7  A    between atoms: CB_26  and  CG2_28 
REMARK    8  A    between atoms: CA_30  and  CB_33 
REMARK    9  A    between atoms: CB_33  and  CG_34 
REMARK   10  A    between atoms: CG_34  and  CD_35 
REMARK   11  A    between atoms: CD_35  and  CE_36 
REMARK   12  A    between atoms: CE_36  and  NZ_37 
REMARK   13  A    between atoms: CA_39  and  CB_42 
REMARK   14  A    between atoms: CB_42  and  OG_43 
REMARK   15  A    between atoms: CA_45  and  CB_48 
REMARK   16  A    between atoms: CB_48  and  CG_49 
REMARK   17  A    between atoms: CG_49  and  CD_50 
REMARK   18  A    between atoms: CD_50  and  NE_51 
REMARK       I    between atoms: NE_51  and  CZ_52 
REMARK       I    between atoms: CZ_52  and  NH1_53 
REMARK   19  A    between atoms: CA_70  and  CB_73 
REMARK   20  A    between atoms: CB_73  and  CG1_74 
REMARK   21  A    between atoms: CB_73  and  CG2_75 
REMARK   22  A    between atoms: CG1_74  and  CD1_76 
REMARK   23  A    between atoms: CA_84  and  CB_87 
REMARK   24  A    between atoms: CB_87  and  CG_88 
REMARK   25  A    between atoms: CA_102  and  CB_105 
REMARK   26  A    between atoms: CB_105  and  CG_106 
ROOT
ATOM      1  N   GLY d   1       0.035   8.795  41.552  0.00  0.00    -0.084 NA
ATOM      2  CA  GLY d   1       0.929   9.142  40.465  0.00  0.00     0.215 A 
ATOM      3  C   GLY d   1       0.382   8.936  39.063  0.00  0.00     0.266 C 
ATOM      4  O   GLY d   1       0.998   9.388  38.095  0.00  0.00    -0.269 OA
ATOM      5  N   GLY d   1      -0.752   8.249  38.929  0.00  0.00    -0.344 N 
ATOM      6  CA  GLY d   1      -1.356   8.084  37.609  0.00  0.00     0.089 C 
ATOM      7  C   GLY d   1      -1.899   9.424  37.139  0.00  0.00     0.241 C 
ATOM      8  O   GLY d   1      -2.567  10.130  37.901  0.00  0.00    -0.271 OA
ATOM      9  N   GLY d   1      -1.634   9.771  35.878  0.00  0.00    -0.345 N 
ATOM     10  CA  GLY d   1      -2.259  10.927  35.249  0.00  0.00     0.098 C 
ATOM     11  C   GLY d   1      -2.793  10.514  33.889  0.00  0.00     0.242 C 
ATOM     12  O   GLY d   1      -2.091   9.863  33.107  0.00  0.00    -0.271 OA
ATOM     13  CB  GLY d   1      -1.304  12.125  35.068  0.00  0.00     0.013 C 
ATOM     14  SG  GLY d   1      -0.844  13.024  36.580  0.00  0.00    -0.095 SA
ATOM     15  N   GLY d   1      -4.036  10.896  33.608  0.00  0.00    -0.344 N 
ATOM     16  CA  GLY d   1      -4.544  10.680  32.265  0.00  0.00     0.113 C 
ATOM     17  C   GLY d   1      -3.842  11.603  31.279  0.00  0.00     0.243 C 
ATOM     18  O   GLY d   1      -3.201  12.592  31.648  0.00  0.00    -0.271 OA
ATOM     19  N   GLY d   1      -3.984  11.275  29.995  0.00  0.00    -0.346 N 
ATOM     20  CA  GLY d   1      -3.318  12.007  28.926  0.00  0.00     0.089 C 
ATOM     21  C   GLY d   1      -4.256  12.974  28.214  0.00  0.00     0.241 C 
ATOM     22  O   GLY d   1      -4.136  13.207  27.008  0.00  0.00    -0.271 OA
ATOM     23  N   GLY d   1      -5.202  13.537  28.955  0.00  0.00    -0.344 N 
ATOM     24  CA  GLY d   1      -6.091  14.571  28.457  0.00  0.00     0.109 C 
ATOM     25  C   GLY d   1      -5.504  15.956  28.733  0.00  0.00     0.243 C 
ATOM     26  O   GLY d   1      -4.566  16.123  29.515  0.00  0.00    -0.271 OA
ATOM     27  N   GLY d   1      -6.080  16.961  28.082  0.00  0.00    -0.346 N 
ATOM     28  CA  GLY d   1      -5.777  18.355  28.391  0.00  0.00     0.089 C 
ATOM     29  C   GLY d   1      -6.997  18.984  29.048  0.00  0.00     0.243 C 
ATOM     30  O   GLY d   1      -8.026  19.167  28.381  0.00  0.00    -0.271 OA
ATOM     31  N   GLY d   1      -6.963  19.293  30.354  0.00  0.00    -0.337 N 
ATOM     32  CA  GLY d   1      -5.853  19.052  31.280  0.00  0.00     0.092 C 
ATOM     33  C   GLY d   1      -5.860  17.611  31.784  0.00  0.00     0.243 C 
ATOM     34  O   GLY d   1      -6.866  16.918  31.619  0.00  0.00    -0.271 OA
ATOM     35  CB  GLY d   1      -6.158  20.021  32.427  0.00  0.00    -0.036 C 
ATOM     36  CG  GLY d   1      -7.646  20.052  32.471  0.00  0.00    -0.048 C 
ATOM     37  CD  GLY d   1      -8.116  19.915  31.032  0.00  0.00    -0.001 C 
ATOM     38  N   GLY d   1      -4.745  17.159  32.355  0.00  0.00    -0.337 N 
ATOM     39  CA  GLY d   1      -4.688  15.791  32.884  0.00  0.00     0.091 C 
ATOM     40  C   GLY d   1      -5.521  15.651  34.145  0.00  0.00     0.241 C 
ATOM     41  O   GLY d   1      -5.677  16.591  34.930  0.00  0.00    -0.271 OA
ATOM     42  CB  GLY d   1      -3.202  15.605  33.210  0.00  0.00    -0.036 C 
ATOM     43  CG  GLY d   1      -2.720  16.983  33.471  0.00  0.00    -0.048 C 
ATOM     44  CD  GLY d   1      -3.458  17.860  32.504  0.00  0.00    -0.001 C 
ATOM     45  N   GLY d   1      -6.052  14.449  34.330  0.00  0.00    -0.346 N 
ATOM     46  CA  GLY d   1      -6.720  14.053  35.563  0.00  0.00     0.092 C 
ATOM     47  C   GLY d   1      -5.726  13.196  36.329  0.00  0.00     0.241 C 
ATOM     48  O   GLY d   1      -5.253  12.179  35.812  0.00  0.00    -0.271 OA
ATOM     49  N   GLY d   1      -5.382  13.608  37.550  0.00  0.00    -0.345 N 
ATOM     50  CA  GLY d   1      -4.295  12.974  38.282  0.00  0.00     0.098 C 
ATOM     51  C   GLY d   1      -4.781  12.380  39.596  0.00  0.00     0.242 C 
ATOM     52  O   GLY d   1      -5.780  12.819  40.182  0.00  0.00    -0.271 OA
ATOM     53  CB  GLY d   1      -3.128  13.937  38.543  0.00  0.00     0.013 C 
ATOM     54  SG  GLY d   1      -2.268  14.466  37.027  0.00  0.00    -0.095 SA
ATOM     55  N   GLY d   1      -4.042  11.384  40.062  0.00  0.00    -0.346 N 
ATOM     56  CA  GLY d   1      -4.385  10.615  41.245  0.00  0.00     0.093 C 
ATOM     57  C   GLY d   1      -3.220  10.617  42.224  0.00  0.00     0.243 C 
ATOM     58  O   GLY d   1      -2.069  10.819  41.830  0.00  0.00    -0.271 OA
ATOM     59  N   GLY d   1      -3.494  10.412  43.512  0.00  0.00    -0.337 N 
ATOM     60  CA  GLY d   1      -2.408  10.466  44.508  0.00  0.00     0.091 C 
ATOM     61  C   GLY d   1      -1.294   9.458  44.280  0.00  0.00     0.241 C 
ATOM     62  O   GLY d   1      -0.157   9.703  44.709  0.00  0.00    -0.271 OA
ATOM     63  CB  GLY d   1      -3.141  10.225  45.837  0.00  0.00    -0.036 C 
ATOM     64  CG  GLY d   1      -4.527  10.709  45.577  0.00  0.00    -0.048 C 
ATOM     65  CD  GLY d   1      -4.823  10.354  44.144  0.00  0.00    -0.001 C 
ATOM     66  N   GLY d   1      -1.578   8.332  43.631  0.00  0.00    -0.346 N 
ATOM     67  CA  GLY d   1      -0.550   7.317  43.384  0.00  0.00     0.096 C 
ATOM     68  C   GLY d   1       0.310   7.643  42.169  0.00  0.00     0.249 C 
ATOM     69  O   GLY d   1       1.239   6.897  41.856  0.00  0.00    -0.275 OA
ATOM     70  OXT GLY d   1       0.074   8.652  41.502  0.00  0.00    -0.260 OA
ATOM     71  H1  GLY d   1       1.954   9.540  40.509  0.00  0.00     0.131 H 
ATOM     72  H2  GLY d   1      -1.190   7.846  39.733  0.00  0.00     0.163 HD
ATOM     73  H3  GLY d   1      -0.597   7.719  36.902  0.00  0.00     0.087 H 
ATOM     74  H15 GLY d   1      -0.987   9.221  35.349  0.00  0.00     0.163 HD
ATOM     75  H16 GLY d   1      -3.098  11.251  35.883  0.00  0.00     0.088 H 
ATOM     76  H17 GLY d   1      -1.789  12.840  34.387  0.00  0.00     0.053 H 
ATOM     77  H18 GLY d   1      -0.379  11.749  34.607  0.00  0.00     0.053 H 
ATOM     78  H19 GLY d   1      -4.609  11.323  34.307  0.00  0.00     0.163 HD
ATOM     79  H20 GLY d   1      -4.353   9.635  31.979  0.00  0.00     0.091 H 
ATOM     80  H26 GLY d   1      -4.568  10.499  29.757  0.00  0.00     0.163 HD
ATOM     81  H27 GLY d   1      -2.541  12.626  29.397  0.00  0.00     0.087 H 
ATOM     82  H39 GLY d   1      -5.308  13.234  29.902  0.00  0.00     0.163 HD
ATOM     83  H40 GLY d   1      -6.211  14.447  27.371  0.00  0.00     0.090 H 
ATOM     84  H44 GLY d   1      -6.740  16.756  27.359  0.00  0.00     0.163 HD
ATOM     85  H45 GLY d   1      -4.928  18.396  29.089  0.00  0.00     0.087 H 
ATOM     86  H57 GLY d   1      -4.884  19.277  30.810  0.00  0.00     0.087 H 
ATOM     87  H58 GLY d   1      -5.750  21.021  32.216  0.00  0.00     0.036 H 
ATOM     88  H59 GLY d   1      -5.745  19.649  33.376  0.00  0.00     0.036 H 
ATOM     89  H60 GLY d   1      -7.995  21.004  32.897  0.00  0.00     0.035 H 
ATOM     90  H61 GLY d   1      -8.027  19.217  33.078  0.00  0.00     0.035 H 
ATOM     91  H62 GLY d   1      -9.005  19.270  30.968  0.00  0.00     0.064 H 
ATOM     92  H63 GLY d   1      -8.345  20.899  30.597  0.00  0.00     0.064 H 
ATOM     93  H64 GLY d   1      -5.027  15.062  32.133  0.00  0.00     0.087 H 
ATOM     94  H65 GLY d   1      -2.667  15.158  32.359  0.00  0.00     0.036 H 
ATOM     95  H66 GLY d   1      -3.073  14.970  34.099  0.00  0.00     0.036 H 
ATOM     96  H67 GLY d   1      -1.636  17.049  33.298  0.00  0.00     0.035 H 
ATOM     97  H68 GLY d   1      -2.945  17.279  34.506  0.00  0.00     0.035 H 
ATOM     98  H69 GLY d   1      -3.601  18.871  32.914  0.00  0.00     0.064 H 
ATOM     99  H70 GLY d   1      -2.928  17.926  31.543  0.00  0.00     0.064 H 
ATOM    100  H71 GLY d   1      -5.991  13.783  33.587  0.00  0.00     0.163 HD
ATOM    101  H72 GLY d   1      -6.985  14.943  36.153  0.00  0.00     0.088 H 
ATOM    102  H82 GLY d   1      -5.880  14.367  37.970  0.00  0.00     0.163 HD
ATOM    103  H83 GLY d   1      -3.916  12.150  37.659  0.00  0.00     0.088 H 
ATOM    104  H84 GLY d   1      -2.401  13.434  39.198  0.00  0.00     0.053 H 
ATOM    105  H85 GLY d   1      -3.521  14.831  39.050  0.00  0.00     0.053 H 
ATOM    106  H86 GLY d   1      -3.202  11.149  39.572  0.00  0.00     0.163 HD
ATOM    107  H87 GLY d   1      -5.261  11.071  41.730  0.00  0.00     0.088 H 
ATOM    108  H95 GLY d   1      -1.958  11.470  44.505  0.00  0.00     0.087 H 
ATOM    109  H96 GLY d   1      -2.673  10.798  46.651  0.00  0.00     0.036 H 
ATOM    110  H97 GLY d   1      -3.142   9.156  46.095  0.00  0.00     0.036 H 
ATOM    111  H98 GLY d   1      -4.586  11.798  45.722  0.00  0.00     0.035 H 
ATOM    112  H99 GLY d   1      -5.240  10.210  46.250  0.00  0.00     0.035 H 
ATOM    113 0H10 GLY d   1      -5.255   9.345  44.067  0.00  0.00     0.064 H 
ATOM    114 1H10 GLY d   1      -5.510  11.083  43.689  0.00  0.00     0.064 H 
ATOM    115 2H10 GLY d   1      -2.510   8.175  43.306  0.00  0.00     0.163 HD
ATOM    116 3H10 GLY d   1       0.110   7.295  44.263  0.00  0.00     0.087 H 
ENDROOT
BRANCH   6 117
ATOM    117  CB  GLY d   1      -2.520   7.087  37.674  0.00  0.00    -0.036 C 
ATOM    118  H4  GLY d   1      -3.045   7.115  36.708  0.00  0.00     0.036 H 
ATOM    119  H5  GLY d   1      -3.203   7.415  38.472  0.00  0.00     0.036 H 
BRANCH 117 120
ATOM    120  CG  GLY d   1      -2.131   5.650  37.953  0.00  0.00    -0.048 C 
ATOM    121  H6  GLY d   1      -2.007   5.520  39.038  0.00  0.00     0.035 H 
ATOM    122  H7  GLY d   1      -1.178   5.435  37.447  0.00  0.00     0.035 H 
BRANCH 120 123
ATOM    123  CD  GLY d   1      -3.192   4.659  37.453  0.00  0.00     0.009 C 
ATOM    124  H8  GLY d   1      -2.925   3.656  37.817  0.00  0.00     0.064 H 
ATOM    125  H9  GLY d   1      -3.178   4.665  36.353  0.00  0.00     0.064 H 
BRANCH 123 126
ATOM    126  NE  GLY d   1      -4.557   4.960  37.896  0.00  0.00    -0.227 N 
ATOM    127  CZ  GLY d   1      -5.602   5.124  37.087  0.00  0.00     0.665 C 
ATOM    128  NH1 GLY d   1      -5.452   5.044  35.767  0.00  0.00    -0.235 N 
ATOM    129  NH2 GLY d   1      -6.807   5.369  37.594  0.00  0.00    -0.235 N 
ATOM    130  H11 GLY d   1      -6.265   5.172  35.148  0.00  0.00     0.174 HD
ATOM    131  H12 GLY d   1      -4.523   4.854  35.365  0.00  0.00     0.174 HD
ATOM    132  H13 GLY d   1      -6.933   5.433  38.614  0.00  0.00     0.174 HD
ATOM    133  H14 GLY d   1      -7.614   5.495  36.966  0.00  0.00     0.174 HD
ATOM    134  H10 GLY d   1      -4.720   5.051  38.909  0.00  0.00     0.177 HD
ENDBRANCH 123 126
ENDBRANCH 120 123
ENDBRANCH 117 120
ENDBRANCH   6 117
BRANCH  67 135
ATOM    135  CB  GLY d   1      -1.176   5.925  43.230  0.00  0.00     0.042 C 
ATOM    136 4H10 GLY d   1      -1.982   5.819  43.971  0.00  0.00     0.052 H 
ATOM    137 5H10 GLY d   1      -0.400   5.169  43.421  0.00  0.00     0.052 H 
BRANCH 135 138
ATOM    138  CG  GLY d   1      -1.759   5.683  41.839  0.00  0.00     0.175 C 
ATOM    139  OD1 GLY d   1      -2.196   6.648  41.166  0.00  0.00    -0.648 OA
ATOM    140  OD2 GLY d   1      -1.783   4.500  41.429  0.00  0.00    -0.648 OA
ENDBRANCH 135 138
ENDBRANCH  67 135
BRANCH  16 141
ATOM    141  CB  GLY d   1      -6.045  10.945  32.205  0.00  0.00     0.060 C 
ATOM    142  H21 GLY d   1      -6.412  10.652  31.210  0.00  0.00     0.086 H 
BRANCH 141 143
ATOM    143  OG1 GLY d   1      -6.296  12.345  32.387  0.00  0.00    -0.393 OA
ATOM    144  H22 GLY d   1      -5.861  12.835  31.699  0.00  0.00     0.210 HD
ENDBRANCH 141 143
BRANCH 141 145
ATOM    145  CG2 GLY d   1      -6.786  10.115  33.251  0.00  0.00    -0.050 C 
ATOM    146  H23 GLY d   1      -7.864  10.323  33.188  0.00  0.00     0.031 H 
ATOM    147  H24 GLY d   1      -6.420  10.378  34.254  0.00  0.00     0.031 H 
ATOM    148  H25 GLY d   1      -6.608   9.046  33.064  0.00  0.00     0.031 H 
ENDBRANCH 141 145
ENDBRANCH  16 141
BRANCH  20 149
ATOM    149  CB  GLY d   1      -2.598  11.037  27.998  0.00  0.00    -0.038 C 
ATOM    150  H28 GLY d   1      -2.240  11.574  27.107  0.00  0.00     0.036 H 
ATOM    151  H29 GLY d   1      -3.288  10.237  27.692  0.00  0.00     0.036 H 
BRANCH 149 152
ATOM    152  CG  GLY d   1      -1.404  10.430  28.750  0.00  0.00    -0.061 C 
ATOM    153  H30 GLY d   1      -1.781   9.944  29.662  0.00  0.00     0.033 H 
ATOM    154  H31 GLY d   1      -0.719  11.245  29.026  0.00  0.00     0.033 H 
BRANCH 152 155
ATOM    155  CD  GLY d   1      -0.635   9.418  27.963  0.00  0.00    -0.043 C 
ATOM    156  H32 GLY d   1      -0.185   9.901  27.083  0.00  0.00     0.035 H 
ATOM    157  H33 GLY d   1      -1.312   8.615  27.635  0.00  0.00     0.035 H 
BRANCH 155 158
ATOM    158  CE  GLY d   1       0.460   8.833  28.835  0.00  0.00     0.080 C 
ATOM    159  H34 GLY d   1       0.003   8.366  29.720  0.00  0.00     0.075 H 
ATOM    160  H35 GLY d   1       1.135   9.641  29.154  0.00  0.00     0.075 H 
BRANCH 158 161
ATOM    161  NZ  GLY d   1       1.236   7.821  28.107  0.00  0.00    -0.079 N 
ATOM    162  H36 GLY d   1       1.954   7.451  28.710  0.00  0.00     0.274 HD
ATOM    163  H37 GLY d   1       1.662   8.243  27.297  0.00  0.00     0.274 HD
ATOM    164  H38 GLY d   1       0.625   7.075  27.815  0.00  0.00     0.274 HD
ENDBRANCH 158 161
ENDBRANCH 155 158
ENDBRANCH 152 155
ENDBRANCH 149 152
ENDBRANCH  20 149
BRANCH  46 165
ATOM    165  CB  GLY d   1      -7.994  13.257  35.247  0.00  0.00    -0.030 C 
ATOM    166  H73 GLY d   1      -7.722  12.421  34.586  0.00  0.00     0.043 H 
BRANCH 165 167
ATOM    167  CG1 GLY d   1      -8.999  14.147  34.509  0.00  0.00    -0.063 C 
ATOM    168  H74 GLY d   1      -8.438  14.839  33.864  0.00  0.00     0.033 H 
ATOM    169  H75 GLY d   1      -9.565  14.721  35.257  0.00  0.00     0.033 H 
BRANCH 167 170
ATOM    170  CD1 GLY d   1      -9.986  13.390  33.646  0.00  0.00    -0.076 C 
ATOM    171  H79 GLY d   1     -10.666  14.102  33.156  0.00  0.00     0.027 H 
ATOM    172  H80 GLY d   1     -10.568  12.700  34.274  0.00  0.00     0.027 H 
ATOM    173  H81 GLY d   1      -9.441  12.818  32.881  0.00  0.00     0.027 H 
ENDBRANCH 167 170
ENDBRANCH 165 167
BRANCH 165 174
ATOM    174  CG2 GLY d   1      -8.609  12.677  36.511  0.00  0.00    -0.071 C 
ATOM    175  H76 GLY d   1      -7.869  12.043  37.021  0.00  0.00     0.028 H 
ATOM    176  H77 GLY d   1      -9.489  12.072  36.246  0.00  0.00     0.028 H 
ATOM    177  H78 GLY d   1      -8.914  13.496  37.179  0.00  0.00     0.028 H 
ENDBRANCH 165 174
ENDBRANCH  46 165
BRANCH  56 178
ATOM    178  CB  GLY d   1      -4.728   9.173  40.838  0.00  0.00    -0.014 C 
ATOM    179  H88 GLY d   1      -4.917   8.588  41.750  0.00  0.00     0.043 H 
ATOM    180  H89 GLY d   1      -3.867   8.748  40.301  0.00  0.00     0.043 H 
BRANCH 178 181
ATOM    181  CG  GLY d   1      -5.944   9.077  39.947  0.00  0.00    -0.056 A 
ATOM    182  CD1 GLY d   1      -7.211   8.959  40.488  0.00  0.00    -0.077 A 
ATOM    183  CE1 GLY d   1      -8.334   8.886  39.657  0.00  0.00    -0.082 A 
ATOM    184  H90 GLY d   1      -7.335   8.923  41.564  0.00  0.00     0.084 H 
ATOM    185  CZ  GLY d   1      -8.181   8.947  38.288  0.00  0.00    -0.083 A 
ATOM    186  H92 GLY d   1      -9.323   8.782  40.089  0.00  0.00     0.083 H 
ATOM    187  CE2 GLY d   1      -6.923   9.080  37.747  0.00  0.00    -0.082 A 
ATOM    188  H94 GLY d   1      -9.049   8.890  37.641  0.00  0.00     0.083 H 
ATOM    189  CD2 GLY d   1      -5.817   9.145  38.572  0.00  0.00    -0.077 A 
ATOM    190  H93 GLY d   1      -6.800   9.134  36.671  0.00  0.00     0.083 H 
ATOM    191  H91 GLY d   1      -4.832   9.251  38.133  0.00  0.00     0.084 H 
ENDBRANCH 178 181
ENDBRANCH  56 178
BRANCH  24 192
ATOM    192  CB  GLY d   1      -7.461  14.431  29.130  0.00  0.00     0.044 C 
ATOM    193  H41 GLY d   1      -7.956  13.524  28.753  0.00  0.00     0.077 H 
ATOM    194  H42 GLY d   1      -8.073  15.311  28.885  0.00  0.00     0.077 H 
BRANCH 192 195
ATOM    195  OG  GLY d   1      -7.328  14.334  30.556  0.00  0.00    -0.398 OA
ATOM    196  H43 GLY d   1      -6.904  15.117  30.887  0.00  0.00     0.209 HD
ENDBRANCH 192 195
ENDBRANCH  24 192
BRANCH  28 197
ATOM    197  CB  GLY d   1      -5.407  19.115  27.112  0.00  0.00    -0.036 C 
ATOM    198  H46 GLY d   1      -6.257  19.059  26.416  0.00  0.00     0.036 H 
ATOM    199  H47 GLY d   1      -4.530  18.629  26.660  0.00  0.00     0.036 H 
BRANCH 197 200
ATOM    200  CG  GLY d   1      -5.075  20.582  27.351  0.00  0.00    -0.048 C 
ATOM    201  H48 GLY d   1      -4.172  20.645  27.976  0.00  0.00     0.035 H 
ATOM    202  H49 GLY d   1      -5.918  21.056  27.875  0.00  0.00     0.035 H 
BRANCH 200 203
ATOM    203  CD  GLY d   1      -4.824  21.328  26.050  0.00  0.00     0.009 C 
ATOM    204  H50 GLY d   1      -4.166  20.718  25.413  0.00  0.00     0.064 H 
ATOM    205  H51 GLY d   1      -4.330  22.284  26.279  0.00  0.00     0.064 H 
BRANCH 203 206
ATOM    206  NE  GLY d   1      -6.061  21.600  25.325  0.00  0.00    -0.227 N 
ATOM    207  CZ  GLY d   1      -6.894  22.596  25.611  0.00  0.00     0.665 C 
ATOM    208  NH1 GLY d   1      -6.627  23.424  26.615  0.00  0.00    -0.235 N 
ATOM    209  NH2 GLY d   1      -7.993  22.767  24.892  0.00  0.00    -0.235 N 
ATOM    210  H53 GLY d   1      -7.275  24.194  26.833  0.00  0.00     0.174 HD
ATOM    211  H54 GLY d   1      -5.772  23.296  27.175  0.00  0.00     0.174 HD
ATOM    212  H55 GLY d   1      -8.203  22.127  24.113  0.00  0.00     0.174 HD
ATOM    213  H56 GLY d   1      -8.637  23.540  25.112  0.00  0.00     0.174 HD
ATOM    214  H52 GLY d   1      -6.305  20.979  24.540  0.00  0.00     0.177 HD
ENDBRANCH 203 206
ENDBRANCH 200 203
ENDBRANCH 197 200
ENDBRANCH  28 197
TORSDOF 26
