REMARK  26 active torsions:
REMARK  status: ('A' for Active; 'I' for Inactive)
REMARK    1  A    between atoms: CA_6  and  CB_9 
REMARK    2  A    between atoms: CB_9  and  CG_10 
REMARK    3  A    between atoms: CG_10  and  CD_11 
REMARK    4  A    between atoms: CD_11  and  NE_12 
REMARK       I    between atoms: NE_12  and  CZ_13 
REMARK       I    between atoms: CZ_13  and  NH1_14 
REMARK       I    between atoms: CZ_13  and  NH2_15 
REMARK    5  A    between atoms: CA_23  and  CB_26 
REMARK    6  A    between atoms: CB_26  and  CG_27 
REMARK    7  A    between atoms: CZ_32  and  OH_33 
REMARK    8  A    between atoms: CA_35  and  CB_38 
REMARK    9  A    between atoms: CB_38  and  CG_39 
REMARK   10  A    between atoms: CG_39  and  CD_40 
REMARK   11  A    between atoms: CD_40  and  CE_41 
REMARK   12  A    between atoms: CE_41  and  NZ_42 
REMARK   13  A    between atoms: CA_44  and  CB_47 
REMARK   14  A    between atoms: CB_47  and  OG_48 
REMARK   15  A    between atoms: CA_50  and  CB_53 
REMARK   16  A    between atoms: CB_53  and  CG_54 
REMARK   17  A    between atoms: CG_54  and  CD_55 
REMARK   18  A    between atoms: CD_55  and  NE_56 
REMARK       I    between atoms: NE_56  and  CZ_57 
REMARK       I    between atoms: CZ_57  and  NH1_58 
REMARK   19  A    between atoms: CA_75  and  CB_78 
REMARK   20  A    between atoms: CB_78  and  CG1_79 
REMARK   21  A    between atoms: CB_78  and  CG2_80 
REMARK   22  A    between atoms: CG1_79  and  CD1_81 
REMARK   23  A    between atoms: CA_89  and  CB_92 
REMARK   24  A    between atoms: CB_92  and  CG_93 
REMARK   25  A    between atoms: CA_107  and  CB_110 
REMARK   26  A    between atoms: CB_110  and  CG_111 
REMARK       I    between atoms: CG_111  and  ND2_113 
ROOT
ATOM      1  N   GLY d   1     -13.346  93.682   4.883  0.00  0.00    -0.084 NA
ATOM      2  CA  GLY d   1     -12.896  92.970   6.066  0.00  0.00     0.215 A 
ATOM      3  C   GLY d   1     -11.407  93.099   6.361  0.00  0.00     0.266 C 
ATOM      4  O   GLY d   1     -10.930  92.634   7.413  0.00  0.00    -0.269 OA
ATOM      5  N   GLY d   1     -10.677  93.720   5.431  0.00  0.00    -0.344 N 
ATOM      6  CA  GLY d   1      -9.249  93.967   5.616  0.00  0.00     0.089 C 
ATOM      7  C   GLY d   1      -9.001  94.802   6.861  0.00  0.00     0.241 C 
ATOM      8  O   GLY d   1      -9.610  95.859   7.040  0.00  0.00    -0.271 OA
ATOM      9  N   GLY d   1      -8.089  94.347   7.710  0.00  0.00    -0.345 N 
ATOM     10  CA  GLY d   1      -7.525  95.196   8.751  0.00  0.00     0.098 C 
ATOM     11  C   GLY d   1      -6.024  95.234   8.542  0.00  0.00     0.242 C 
ATOM     12  O   GLY d   1      -5.355  94.198   8.628  0.00  0.00    -0.271 OA
ATOM     13  CB  GLY d   1      -7.854  94.698  10.162  0.00  0.00     0.013 C 
ATOM     14  SG  GLY d   1      -9.534  95.046  10.746  0.00  0.00    -0.095 SA
ATOM     15  N   GLY d   1      -5.504  96.416   8.251  0.00  0.00    -0.346 N 
ATOM     16  CA  GLY d   1      -4.067  96.616   8.193  0.00  0.00     0.093 C 
ATOM     17  C   GLY d   1      -3.533  96.680   9.616  0.00  0.00     0.241 C 
ATOM     18  O   GLY d   1      -4.182  97.238  10.505  0.00  0.00    -0.271 OA
ATOM     19  N   GLY d   1      -2.354  96.088   9.839  0.00  0.00    -0.346 N 
ATOM     20  CA  GLY d   1      -1.985  95.637  11.177  0.00  0.00     0.089 C 
ATOM     21  C   GLY d   1      -1.179  96.660  11.989  0.00  0.00     0.241 C 
ATOM     22  O   GLY d   1      -0.389  96.260  12.862  0.00  0.00    -0.271 OA
ATOM     23  N   GLY d   1      -1.364  97.960  11.757  0.00  0.00    -0.344 N 
ATOM     24  CA  GLY d   1      -0.810  98.960  12.676  0.00  0.00     0.109 C 
ATOM     25  C   GLY d   1      -1.553  98.928  14.019  0.00  0.00     0.243 C 
ATOM     26  O   GLY d   1      -2.529  98.190  14.206  0.00  0.00    -0.271 OA
ATOM     27  N   GLY d   1      -1.102  99.752  14.962  0.00  0.00    -0.346 N 
ATOM     28  CA  GLY d   1      -1.814  99.962  16.228  0.00  0.00     0.089 C 
ATOM     29  C   GLY d   1      -2.109 101.447  16.420  0.00  0.00     0.243 C 
ATOM     30  O   GLY d   1      -1.166 102.247  16.571  0.00  0.00    -0.271 OA
ATOM     31  N   GLY d   1      -3.380 101.878  16.423  0.00  0.00    -0.337 N 
ATOM     32  CA  GLY d   1      -4.568 101.061  16.123  0.00  0.00     0.092 C 
ATOM     33  C   GLY d   1      -4.596 100.584  14.653  0.00  0.00     0.243 C 
ATOM     34  O   GLY d   1      -3.906 101.176  13.821  0.00  0.00    -0.271 OA
ATOM     35  CB  GLY d   1      -5.742 102.011  16.431  0.00  0.00    -0.036 C 
ATOM     36  CG  GLY d   1      -5.153 103.389  16.476  0.00  0.00    -0.048 C 
ATOM     37  CD  GLY d   1      -3.722 103.243  16.871  0.00  0.00    -0.001 C 
ATOM     38  N   GLY d   1      -5.349  99.526  14.351  0.00  0.00    -0.337 N 
ATOM     39  CA  GLY d   1      -5.394  99.016  12.971  0.00  0.00     0.091 C 
ATOM     40  C   GLY d   1      -6.256  99.881  12.060  0.00  0.00     0.241 C 
ATOM     41  O   GLY d   1      -7.139 100.614  12.506  0.00  0.00    -0.271 OA
ATOM     42  CB  GLY d   1      -6.003  97.614  13.126  0.00  0.00    -0.036 C 
ATOM     43  CG  GLY d   1      -6.811  97.680  14.397  0.00  0.00    -0.048 C 
ATOM     44  CD  GLY d   1      -6.108  98.679  15.296  0.00  0.00    -0.001 C 
ATOM     45  N   GLY d   1      -5.987  99.774  10.757  0.00  0.00    -0.346 N 
ATOM     46  CA  GLY d   1      -6.793 100.419   9.720  0.00  0.00     0.092 C 
ATOM     47  C   GLY d   1      -7.699  99.354   9.107  0.00  0.00     0.241 C 
ATOM     48  O   GLY d   1      -7.234  98.493   8.347  0.00  0.00    -0.271 OA
ATOM     49  N   GLY d   1      -8.998  99.422   9.421  0.00  0.00    -0.345 N 
ATOM     50  CA  GLY d   1      -9.969  98.401   9.042  0.00  0.00     0.098 C 
ATOM     51  C   GLY d   1     -11.002  98.966   8.076  0.00  0.00     0.242 C 
ATOM     52  O   GLY d   1     -11.284 100.170   8.068  0.00  0.00    -0.271 OA
ATOM     53  CB  GLY d   1     -10.674  97.829  10.272  0.00  0.00     0.013 C 
ATOM     54  SG  GLY d   1      -9.537  96.987  11.394  0.00  0.00    -0.095 SA
ATOM     55  N   GLY d   1     -11.572  98.079   7.271  0.00  0.00    -0.346 N 
ATOM     56  CA  GLY d   1     -12.491  98.445   6.205  0.00  0.00     0.093 C 
ATOM     57  C   GLY d   1     -13.660  97.474   6.196  0.00  0.00     0.243 C 
ATOM     58  O   GLY d   1     -13.580  96.390   6.789  0.00  0.00    -0.271 OA
ATOM     59  N   GLY d   1     -14.777  97.845   5.553  0.00  0.00    -0.337 N 
ATOM     60  CA  GLY d   1     -15.897  96.896   5.441  0.00  0.00     0.091 C 
ATOM     61  C   GLY d   1     -15.581  95.682   4.577  0.00  0.00     0.241 C 
ATOM     62  O   GLY d   1     -16.152  94.611   4.817  0.00  0.00    -0.271 OA
ATOM     63  CB  GLY d   1     -17.024  97.747   4.831  0.00  0.00    -0.036 C 
ATOM     64  CG  GLY d   1     -16.634  99.167   5.097  0.00  0.00    -0.048 C 
ATOM     65  CD  GLY d   1     -15.137  99.178   5.035  0.00  0.00    -0.001 C 
ATOM     66  N   GLY d   1     -14.682  95.806   3.597  0.00  0.00    -0.346 N 
ATOM     67  CA  GLY d   1     -14.307  94.677   2.737  0.00  0.00     0.094 C 
ATOM     68  C   GLY d   1     -13.654  93.537   3.530  0.00  0.00     0.249 C 
ATOM     69  O   GLY d   1     -13.111  92.595   2.944  0.00  0.00    -0.275 OA
ATOM     70  OXT GLY d   1     -13.663  93.546   4.765  0.00  0.00    -0.260 OA
ATOM     71  H1  GLY d   1     -13.443  92.617   6.953  0.00  0.00     0.131 H 
ATOM     72  H2  GLY d   1     -11.119  94.023   4.587  0.00  0.00     0.163 HD
ATOM     73  H3  GLY d   1      -8.735  93.000   5.722  0.00  0.00     0.087 H 
ATOM     74  H15 GLY d   1      -7.781  93.399   7.634  0.00  0.00     0.163 HD
ATOM     75  H16 GLY d   1      -7.933  96.212   8.640  0.00  0.00     0.088 H 
ATOM     76  H17 GLY d   1      -7.149  95.171  10.861  0.00  0.00     0.053 H 
ATOM     77  H18 GLY d   1      -7.710  93.608  10.178  0.00  0.00     0.053 H 
ATOM     78  H19 GLY d   1      -6.114  97.187   8.067  0.00  0.00     0.163 HD
ATOM     79  H20 GLY d   1      -3.603  95.760   7.680  0.00  0.00     0.088 H 
ATOM     80  H28 GLY d   1      -1.718  95.953   9.079  0.00  0.00     0.163 HD
ATOM     81  H29 GLY d   1      -2.920  95.460  11.729  0.00  0.00     0.087 H 
ATOM     82  H41 GLY d   1      -1.882  98.254  10.954  0.00  0.00     0.163 HD
ATOM     83  H42 GLY d   1       0.247  98.716  12.857  0.00  0.00     0.090 H 
ATOM     84  H46 GLY d   1      -0.247 100.246  14.802  0.00  0.00     0.163 HD
ATOM     85  H47 GLY d   1      -2.769  99.418  16.179  0.00  0.00     0.087 H 
ATOM     86  H59 GLY d   1      -4.602 100.180  16.781  0.00  0.00     0.087 H 
ATOM     87  H60 GLY d   1      -6.196 101.757  17.400  0.00  0.00     0.036 H 
ATOM     88  H61 GLY d   1      -6.504 101.946  15.641  0.00  0.00     0.036 H 
ATOM     89  H62 GLY d   1      -5.687 104.004  17.215  0.00  0.00     0.035 H 
ATOM     90  H63 GLY d   1      -5.224 103.862  15.486  0.00  0.00     0.035 H 
ATOM     91  H64 GLY d   1      -3.096 103.992  16.364  0.00  0.00     0.064 H 
ATOM     92  H65 GLY d   1      -3.603 103.341  17.960  0.00  0.00     0.064 H 
ATOM     93  H66 GLY d   1      -4.379  98.956  12.551  0.00  0.00     0.087 H 
ATOM     94  H67 GLY d   1      -5.211  96.855  13.210  0.00  0.00     0.036 H 
ATOM     95  H68 GLY d   1      -6.649  97.376  12.268  0.00  0.00     0.036 H 
ATOM     96  H69 GLY d   1      -6.845  96.692  14.879  0.00  0.00     0.035 H 
ATOM     97  H70 GLY d   1      -7.835  98.017  14.180  0.00  0.00     0.035 H 
ATOM     98  H71 GLY d   1      -6.837  99.278  15.862  0.00  0.00     0.064 H 
ATOM     99  H72 GLY d   1      -5.431  98.168  15.996  0.00  0.00     0.064 H 
ATOM    100  H73 GLY d   1      -5.198  99.228  10.476  0.00  0.00     0.163 HD
ATOM    101  H74 GLY d   1      -7.418 101.195  10.187  0.00  0.00     0.088 H 
ATOM    102  H84 GLY d   1      -9.320 100.213   9.942  0.00  0.00     0.163 HD
ATOM    103  H85 GLY d   1      -9.431  97.585   8.539  0.00  0.00     0.088 H 
ATOM    104  H86 GLY d   1     -11.437  97.110   9.938  0.00  0.00     0.053 H 
ATOM    105  H87 GLY d   1     -11.159  98.653  10.815  0.00  0.00     0.053 H 
ATOM    106  H88 GLY d   1     -11.359  97.111   7.404  0.00  0.00     0.163 HD
ATOM    107  H89 GLY d   1     -12.873  99.458   6.399  0.00  0.00     0.088 H 
ATOM    108  H97 GLY d   1     -16.187  96.541   6.441  0.00  0.00     0.087 H 
ATOM    109  H98 GLY d   1     -17.986  97.515   5.312  0.00  0.00     0.036 H 
ATOM    110  H99 GLY d   1     -17.102  97.565   3.749  0.00  0.00     0.036 H 
ATOM    111 0H10 GLY d   1     -16.982  99.483   6.091  0.00  0.00     0.035 H 
ATOM    112 1H10 GLY d   1     -17.057  99.834   4.331  0.00  0.00     0.035 H 
ATOM    113 2H10 GLY d   1     -14.785  99.309   4.001  0.00  0.00     0.064 H 
ATOM    114 3H10 GLY d   1     -14.720  99.975   5.669  0.00  0.00     0.064 H 
ATOM    115 4H10 GLY d   1     -14.251  96.695   3.444  0.00  0.00     0.163 HD
ATOM    116 5H10 GLY d   1     -15.228  94.285   2.281  0.00  0.00     0.087 H 
ENDROOT
BRANCH   6 117
ATOM    117  CB  GLY d   1      -8.673  94.714   4.414  0.00  0.00    -0.036 C 
ATOM    118  H4  GLY d   1      -7.668  95.067   4.688  0.00  0.00     0.036 H 
ATOM    119  H5  GLY d   1      -9.323  95.578   4.212  0.00  0.00     0.036 H 
BRANCH 117 120
ATOM    120  CG  GLY d   1      -8.552  93.927   3.149  0.00  0.00    -0.048 C 
ATOM    121  H6  GLY d   1      -9.550  93.788   2.708  0.00  0.00     0.035 H 
ATOM    122  H7  GLY d   1      -8.109  92.945   3.371  0.00  0.00     0.035 H 
BRANCH 120 123
ATOM    123  CD  GLY d   1      -7.662  94.672   2.161  0.00  0.00     0.009 C 
ATOM    124  H8  GLY d   1      -6.606  94.454   2.380  0.00  0.00     0.064 H 
ATOM    125  H9  GLY d   1      -7.839  95.754   2.250  0.00  0.00     0.064 H 
BRANCH 123 126
ATOM    126  NE  GLY d   1      -7.977  94.238   0.813  0.00  0.00    -0.227 N 
ATOM    127  CZ  GLY d   1      -7.074  94.003  -0.122  0.00  0.00     0.665 C 
ATOM    128  NH1 GLY d   1      -5.789  94.180   0.159  0.00  0.00    -0.235 N 
ATOM    129  NH2 GLY d   1      -7.459  93.592  -1.332  0.00  0.00    -0.235 N 
ATOM    130  H11 GLY d   1      -5.075  94.000  -0.561  0.00  0.00     0.174 HD
ATOM    131  H12 GLY d   1      -5.506  94.497   1.097  0.00  0.00     0.174 HD
ATOM    132  H13 GLY d   1      -8.460  93.459  -1.536  0.00  0.00     0.174 HD
ATOM    133  H14 GLY d   1      -6.755  93.408  -2.061  0.00  0.00     0.174 HD
ATOM    134  H10 GLY d   1      -8.969  94.105   0.569  0.00  0.00     0.177 HD
ENDBRANCH 123 126
ENDBRANCH 120 123
ENDBRANCH 117 120
ENDBRANCH   6 117
BRANCH  67 135
ATOM    135  CB  GLY d   1     -13.369  95.137   1.599  0.00  0.00     0.035 C 
ATOM    136 6H10 GLY d   1     -13.891  95.902   1.005  0.00  0.00     0.051 H 
ATOM    137 7H10 GLY d   1     -13.142  94.269   0.962  0.00  0.00     0.051 H 
BRANCH 135 138
ATOM    138  CG  GLY d   1     -12.042  95.732   2.103  0.00  0.00     0.217 C 
ATOM    139  OD1 GLY d   1     -11.548  95.388   3.178  0.00  0.00    -0.274 OA
ATOM    140  ND2 GLY d   1     -11.461  96.625   1.306  0.00  0.00    -0.370 N 
ATOM    141 8H10 GLY d   1     -10.597  97.049   1.576  0.00  0.00     0.159 HD
ATOM    142 9H10 GLY d   1     -11.889  96.873   0.437  0.00  0.00     0.159 HD
ENDBRANCH 135 138
ENDBRANCH  67 135
BRANCH  16 143
ATOM    143  CB  GLY d   1      -3.751  97.880   7.402  0.00  0.00    -0.014 C 
ATOM    144  H21 GLY d   1      -2.705  98.170   7.579  0.00  0.00     0.043 H 
ATOM    145  H22 GLY d   1      -4.417  98.692   7.729  0.00  0.00     0.043 H 
BRANCH 143 146
ATOM    146  CG  GLY d   1      -3.959  97.623   5.922  0.00  0.00    -0.056 A 
ATOM    147  CD1 GLY d   1      -5.234  97.686   5.357  0.00  0.00    -0.074 A 
ATOM    148  CE1 GLY d   1      -5.437  97.413   4.022  0.00  0.00    -0.051 A 
ATOM    149  H23 GLY d   1      -6.080  97.955   5.980  0.00  0.00     0.084 H 
ATOM    150  CZ  GLY d   1      -4.358  97.055   3.219  0.00  0.00     0.065 A 
ATOM    151  H25 GLY d   1      -6.433  97.477   3.599  0.00  0.00     0.087 H 
ATOM    152  CE2 GLY d   1      -3.084  96.969   3.753  0.00  0.00    -0.051 A 
ATOM    153  CD2 GLY d   1      -2.891  97.249   5.106  0.00  0.00    -0.074 A 
ATOM    154  H26 GLY d   1      -2.245  96.687   3.127  0.00  0.00     0.087 H 
ATOM    155  H24 GLY d   1      -1.896  97.175   5.530  0.00  0.00     0.084 H 
BRANCH 150 156
ATOM    156  OH  GLY d   1      -4.556  96.782   1.883  0.00  0.00    -0.361 OA
ATOM    157  H27 GLY d   1      -4.042  97.384   1.358  0.00  0.00     0.217 HD
ENDBRANCH 150 156
ENDBRANCH 143 146
ENDBRANCH  16 143
BRANCH  20 158
ATOM    158  CB  GLY d   1      -1.246  94.302  11.074  0.00  0.00    -0.038 C 
ATOM    159  H30 GLY d   1      -0.620  94.170  11.969  0.00  0.00     0.036 H 
ATOM    160  H31 GLY d   1      -0.608  94.315  10.178  0.00  0.00     0.036 H 
BRANCH 158 161
ATOM    161  CG  GLY d   1      -2.222  93.128  10.972  0.00  0.00    -0.061 C 
ATOM    162  H32 GLY d   1      -2.968  93.359  10.197  0.00  0.00     0.033 H 
ATOM    163  H33 GLY d   1      -2.726  93.006  11.942  0.00  0.00     0.033 H 
BRANCH 161 164
ATOM    164  CD  GLY d   1      -1.538  91.814  10.612  0.00  0.00    -0.043 C 
ATOM    165  H34 GLY d   1      -0.945  91.468  11.471  0.00  0.00     0.035 H 
ATOM    166  H35 GLY d   1      -0.874  91.976   9.750  0.00  0.00     0.035 H 
BRANCH 164 167
ATOM    167  CE  GLY d   1      -2.581  90.743  10.253  0.00  0.00     0.080 C 
ATOM    168  H36 GLY d   1      -3.037  90.998   9.285  0.00  0.00     0.075 H 
ATOM    169  H37 GLY d   1      -3.358  90.725  11.031  0.00  0.00     0.075 H 
BRANCH 167 170
ATOM    170  NZ  GLY d   1      -1.964  89.398  10.156  0.00  0.00    -0.079 N 
ATOM    171  H38 GLY d   1      -2.672  88.720   9.920  0.00  0.00     0.274 HD
ATOM    172  H39 GLY d   1      -1.548  89.155  11.041  0.00  0.00     0.274 HD
ATOM    173  H40 GLY d   1      -1.254  89.405   9.441  0.00  0.00     0.274 HD
ENDBRANCH 167 170
ENDBRANCH 164 167
ENDBRANCH 161 164
ENDBRANCH 158 161
ENDBRANCH  20 158
BRANCH  46 174
ATOM    174  CB  GLY d   1      -5.922 101.089   8.646  0.00  0.00    -0.030 C 
ATOM    175  H75 GLY d   1      -5.487 100.298   8.018  0.00  0.00     0.043 H 
BRANCH 174 176
ATOM    176  CG1 GLY d   1      -4.774 101.873   9.282  0.00  0.00    -0.063 C 
ATOM    177  H76 GLY d   1      -4.130 101.169   9.830  0.00  0.00     0.033 H 
ATOM    178  H77 GLY d   1      -5.197 102.606   9.985  0.00  0.00     0.033 H 
BRANCH 176 179
ATOM    179  CD1 GLY d   1      -3.929 102.610   8.267  0.00  0.00    -0.076 C 
ATOM    180  H81 GLY d   1      -3.124 103.152   8.785  0.00  0.00     0.027 H 
ATOM    181  H82 GLY d   1      -4.558 103.325   7.717  0.00  0.00     0.027 H 
ATOM    182  H83 GLY d   1      -3.491 101.889   7.562  0.00  0.00     0.027 H 
ENDBRANCH 176 179
ENDBRANCH 174 176
BRANCH 174 183
ATOM    183  CG2 GLY d   1      -6.769 101.995   7.750  0.00  0.00    -0.071 C 
ATOM    184  H78 GLY d   1      -7.587 101.409   7.305  0.00  0.00     0.028 H 
ATOM    185  H79 GLY d   1      -6.139 102.412   6.950  0.00  0.00     0.028 H 
ATOM    186  H80 GLY d   1      -7.190 102.815   8.351  0.00  0.00     0.028 H 
ENDBRANCH 174 183
ENDBRANCH  46 174
BRANCH  56 187
ATOM    187  CB  GLY d   1     -11.775  98.447   4.847  0.00  0.00    -0.014 C 
ATOM    188  H90 GLY d   1     -12.514  98.671   4.064  0.00  0.00     0.043 H 
ATOM    189  H91 GLY d   1     -11.351  97.447   4.675  0.00  0.00     0.043 H 
BRANCH 187 190
ATOM    190  CG  GLY d   1     -10.665  99.457   4.758  0.00  0.00    -0.056 A 
ATOM    191  CD1 GLY d   1      -9.379  99.132   5.165  0.00  0.00    -0.077 A 
ATOM    192  CE1 GLY d   1      -8.355 100.066   5.096  0.00  0.00    -0.082 A 
ATOM    193  H92 GLY d   1      -9.172  98.137   5.541  0.00  0.00     0.084 H 
ATOM    194  CZ  GLY d   1      -8.613 101.340   4.623  0.00  0.00    -0.083 A 
ATOM    195  H94 GLY d   1      -7.354  99.797   5.412  0.00  0.00     0.083 H 
ATOM    196  CE2 GLY d   1      -9.892 101.678   4.217  0.00  0.00    -0.082 A 
ATOM    197  H96 GLY d   1      -7.815 102.072   4.571  0.00  0.00     0.083 H 
ATOM    198  CD2 GLY d   1     -10.912 100.739   4.287  0.00  0.00    -0.077 A 
ATOM    199  H95 GLY d   1     -10.097 102.675   3.845  0.00  0.00     0.083 H 
ATOM    200  H93 GLY d   1     -11.913 101.010   3.970  0.00  0.00     0.084 H 
ENDBRANCH 187 190
ENDBRANCH  56 187
BRANCH  24 201
ATOM    201  CB  GLY d   1      -0.885 100.363  12.066  0.00  0.00     0.044 C 
ATOM    202  H43 GLY d   1      -0.253 100.391  11.166  0.00  0.00     0.077 H 
ATOM    203  H44 GLY d   1      -0.508 101.089  12.802  0.00  0.00     0.077 H 
BRANCH 201 204
ATOM    204  OG  GLY d   1      -2.215 100.726  11.704  0.00  0.00    -0.398 OA
ATOM    205  H45 GLY d   1      -2.768 100.711  12.477  0.00  0.00     0.209 HD
ENDBRANCH 201 204
ENDBRANCH  24 201
BRANCH  28 206
ATOM    206  CB  GLY d   1      -1.022  99.433  17.426  0.00  0.00    -0.036 C 
ATOM    207  H48 GLY d   1      -0.069  99.979  17.485  0.00  0.00     0.036 H 
ATOM    208  H49 GLY d   1      -0.822  98.363  17.269  0.00  0.00     0.036 H 
BRANCH 206 209
ATOM    209  CG  GLY d   1      -1.769  99.602  18.768  0.00  0.00    -0.048 C 
ATOM    210  H50 GLY d   1      -2.175  98.625  19.068  0.00  0.00     0.035 H 
ATOM    211  H51 GLY d   1      -2.595 100.313  18.621  0.00  0.00     0.035 H 
BRANCH 209 212
ATOM    212  CD  GLY d   1      -0.881 100.119  19.886  0.00  0.00     0.009 C 
ATOM    213  H52 GLY d   1      -0.645 101.176  19.692  0.00  0.00     0.064 H 
ATOM    214  H53 GLY d   1       0.050  99.532  19.901  0.00  0.00     0.064 H 
BRANCH 212 215
ATOM    215  NE  GLY d   1      -1.529 100.011  21.196  0.00  0.00    -0.227 N 
ATOM    216  CZ  GLY d   1      -0.928 100.252  22.362  0.00  0.00     0.665 C 
ATOM    217  NH1 GLY d   1      -1.601 100.125  23.498  0.00  0.00    -0.235 N 
ATOM    218  NH2 GLY d   1       0.348 100.620  22.395  0.00  0.00    -0.235 N 
ATOM    219  H55 GLY d   1      -1.134 100.312  24.397  0.00  0.00     0.174 HD
ATOM    220  H56 GLY d   1      -2.591  99.840  23.481  0.00  0.00     0.174 HD
ATOM    221  H57 GLY d   1       0.878 100.721  21.517  0.00  0.00     0.174 HD
ATOM    222  H58 GLY d   1       0.808 100.804  23.298  0.00  0.00     0.174 HD
ATOM    223  H54 GLY d   1      -2.519  99.729  21.218  0.00  0.00     0.177 HD
ENDBRANCH 212 215
ENDBRANCH 209 212
ENDBRANCH 206 209
ENDBRANCH  28 206
TORSDOF 25
