REMARK  26 active torsions:
REMARK  status: ('A' for Active; 'I' for Inactive)
REMARK    1  A    between atoms: CA_6  and  CB_9 
REMARK    2  A    between atoms: CB_9  and  CG_10 
REMARK    3  A    between atoms: CG_10  and  CD_11 
REMARK    4  A    between atoms: CD_11  and  NE_12 
REMARK       I    between atoms: NE_12  and  CZ_13 
REMARK       I    between atoms: CZ_13  and  NH1_14 
REMARK    5  A    between atoms: CA_23  and  CB_26 
REMARK    6  A    between atoms: CB_26  and  CG_27 
REMARK    7  A    between atoms: CZ_32  and  OH_33 
REMARK    8  A    between atoms: CA_35  and  CB_38 
REMARK    9  A    between atoms: CB_38  and  CG_39 
REMARK   10  A    between atoms: CG_39  and  CD_40 
REMARK   11  A    between atoms: CD_40  and  CE_41 
REMARK   12  A    between atoms: CE_41  and  NZ_42 
REMARK   13  A    between atoms: CA_44  and  CB_47 
REMARK   14  A    between atoms: CB_47  and  OG_48 
REMARK   15  A    between atoms: CA_50  and  CB_53 
REMARK   16  A    between atoms: CB_53  and  CG1_54 
REMARK   17  A    between atoms: CB_53  and  CG2_55 
REMARK   18  A    between atoms: CG1_54  and  CD1_56 
REMARK   19  A    between atoms: CA_72  and  CB_75 
REMARK   20  A    between atoms: CB_75  and  CG1_76 
REMARK   21  A    between atoms: CB_75  and  CG2_77 
REMARK   22  A    between atoms: CG1_76  and  CD1_78 
REMARK   23  A    between atoms: CA_86  and  CB_89 
REMARK   24  A    between atoms: CB_89  and  CG_90 
REMARK   25  A    between atoms: CA_104  and  CB_107 
REMARK   26  A    between atoms: CB_107  and  CG_108 
ROOT
ATOM      1  N   GLY d   1      58.628  15.766 115.736  0.00  0.00    -0.084 NA
ATOM      2  CA  GLY d   1      59.580  16.122 114.702  0.00  0.00     0.215 A 
ATOM      3  C   GLY d   1      59.012  16.010 113.300  0.00  0.00     0.266 C 
ATOM      4  O   GLY d   1      59.554  16.588 112.359  0.00  0.00    -0.269 OA
ATOM      5  N   GLY d   1      57.920  15.261 113.162  0.00  0.00    -0.344 N 
ATOM      6  CA  GLY d   1      57.288  15.095 111.857  0.00  0.00     0.089 C 
ATOM      7  C   GLY d   1      56.696  16.411 111.380  0.00  0.00     0.241 C 
ATOM      8  O   GLY d   1      56.028  17.125 112.131  0.00  0.00    -0.271 OA
ATOM      9  N   GLY d   1      56.919  16.726 110.111  0.00  0.00    -0.345 N 
ATOM     10  CA  GLY d   1      56.241  17.855 109.493  0.00  0.00     0.098 C 
ATOM     11  C   GLY d   1      55.653  17.396 108.172  0.00  0.00     0.242 C 
ATOM     12  O   GLY d   1      56.359  16.811 107.343  0.00  0.00    -0.271 OA
ATOM     13  CB  GLY d   1      57.185  19.038 109.260  0.00  0.00     0.013 C 
ATOM     14  SG  GLY d   1      57.691  19.900 110.754  0.00  0.00    -0.095 SA
ATOM     15  N   GLY d   1      54.359  17.635 107.999  0.00  0.00    -0.346 N 
ATOM     16  CA  GLY d   1      53.726  17.415 106.707  0.00  0.00     0.093 C 
ATOM     17  C   GLY d   1      54.124  18.552 105.779  0.00  0.00     0.241 C 
ATOM     18  O   GLY d   1      54.235  19.704 106.201  0.00  0.00    -0.271 OA
ATOM     19  N   GLY d   1      54.353  18.218 104.505  0.00  0.00    -0.346 N 
ATOM     20  CA  GLY d   1      55.026  19.112 103.552  0.00  0.00     0.089 C 
ATOM     21  C   GLY d   1      54.088  20.048 102.787  0.00  0.00     0.241 C 
ATOM     22  O   GLY d   1      54.294  20.306 101.597  0.00  0.00    -0.271 OA
ATOM     23  N   GLY d   1      53.047  20.562 103.437  0.00  0.00    -0.344 N 
ATOM     24  CA  GLY d   1      52.207  21.616 102.892  0.00  0.00     0.109 C 
ATOM     25  C   GLY d   1      52.829  22.990 103.154  0.00  0.00     0.243 C 
ATOM     26  O   GLY d   1      53.840  23.124 103.855  0.00  0.00    -0.271 OA
ATOM     27  N   GLY d   1      52.211  24.026 102.586  0.00  0.00    -0.346 N 
ATOM     28  CA  GLY d   1      52.507  25.416 102.910  0.00  0.00     0.092 C 
ATOM     29  C   GLY d   1      51.264  26.015 103.570  0.00  0.00     0.243 C 
ATOM     30  O   GLY d   1      50.230  26.165 102.906  0.00  0.00    -0.271 OA
ATOM     31  N   GLY d   1      51.311  26.376 104.863  0.00  0.00    -0.337 N 
ATOM     32  CA  GLY d   1      52.430  26.171 105.787  0.00  0.00     0.092 C 
ATOM     33  C   GLY d   1      52.512  24.709 106.218  0.00  0.00     0.243 C 
ATOM     34  O   GLY d   1      51.518  23.985 106.089  0.00  0.00    -0.271 OA
ATOM     35  CB  GLY d   1      52.063  27.067 106.978  0.00  0.00    -0.036 C 
ATOM     36  CG  GLY d   1      50.578  27.115 106.961  0.00  0.00    -0.048 C 
ATOM     37  CD  GLY d   1      50.188  27.084 105.502  0.00  0.00    -0.001 C 
ATOM     38  N   GLY d   1      53.679  24.270 106.682  0.00  0.00    -0.337 N 
ATOM     39  CA  GLY d   1      53.792  22.895 107.172  0.00  0.00     0.091 C 
ATOM     40  C   GLY d   1      52.943  22.702 108.416  0.00  0.00     0.241 C 
ATOM     41  O   GLY d   1      52.683  23.638 109.175  0.00  0.00    -0.271 OA
ATOM     42  CB  GLY d   1      55.283  22.758 107.501  0.00  0.00    -0.036 C 
ATOM     43  CG  GLY d   1      55.731  24.169 107.776  0.00  0.00    -0.048 C 
ATOM     44  CD  GLY d   1      54.955  25.000 106.786  0.00  0.00    -0.001 C 
ATOM     45  N   GLY d   1      52.488  21.468 108.603  0.00  0.00    -0.346 N 
ATOM     46  CA  GLY d   1      51.825  21.041 109.830  0.00  0.00     0.092 C 
ATOM     47  C   GLY d   1      52.824  20.166 110.572  0.00  0.00     0.241 C 
ATOM     48  O   GLY d   1      53.232  19.115 110.065  0.00  0.00    -0.271 OA
ATOM     49  N   GLY d   1      53.236  20.603 111.762  0.00  0.00    -0.345 N 
ATOM     50  CA  GLY d   1      54.344  19.974 112.466  0.00  0.00     0.098 C 
ATOM     51  C   GLY d   1      53.904  19.421 113.813  0.00  0.00     0.242 C 
ATOM     52  O   GLY d   1      52.937  19.890 114.421  0.00  0.00    -0.271 OA
ATOM     53  CB  GLY d   1      55.521  20.942 112.641  0.00  0.00     0.013 C 
ATOM     54  SG  GLY d   1      56.310  21.379 111.071  0.00  0.00    -0.095 SA
ATOM     55  N   GLY d   1      54.647  18.429 114.280  0.00  0.00    -0.346 N 
ATOM     56  CA  GLY d   1      54.330  17.698 115.496  0.00  0.00     0.093 C 
ATOM     57  C   GLY d   1      55.527  17.669 116.430  0.00  0.00     0.243 C 
ATOM     58  O   GLY d   1      56.672  17.835 115.998  0.00  0.00    -0.271 OA
ATOM     59  N   GLY d   1      55.290  17.475 117.730  0.00  0.00    -0.337 N 
ATOM     60  CA  GLY d   1      56.400  17.529 118.696  0.00  0.00     0.091 C 
ATOM     61  C   GLY d   1      57.490  16.501 118.447  0.00  0.00     0.241 C 
ATOM     62  O   GLY d   1      58.622  16.705 118.904  0.00  0.00    -0.271 OA
ATOM     63  CB  GLY d   1      55.707  17.302 120.049  0.00  0.00    -0.036 C 
ATOM     64  CG  GLY d   1      54.271  17.654 119.808  0.00  0.00    -0.048 C 
ATOM     65  CD  GLY d   1      53.990  17.273 118.386  0.00  0.00    -0.001 C 
ATOM     66  N   GLY d   1      57.194  15.411 117.741  0.00  0.00    -0.346 N 
ATOM     67  CA  GLY d   1      58.178  14.355 117.511  0.00  0.00     0.096 C 
ATOM     68  C   GLY d   1      58.987  14.589 116.232  0.00  0.00     0.249 C 
ATOM     69  O   GLY d   1      59.902  13.823 115.920  0.00  0.00    -0.275 OA
ATOM     70  OXT GLY d   1      58.734  15.547 115.497  0.00  0.00    -0.260 OA
ATOM     71  H1  GLY d   1      60.629  16.438 114.797  0.00  0.00     0.131 H 
ATOM     72  H2  GLY d   1      57.528  14.807 113.962  0.00  0.00     0.163 HD
ATOM     73  H3  GLY d   1      58.043  14.749 111.136  0.00  0.00     0.087 H 
ATOM     74  H15 GLY d   1      57.561  16.181 109.572  0.00  0.00     0.163 HD
ATOM     75  H16 GLY d   1      55.427  18.184 110.156  0.00  0.00     0.088 H 
ATOM     76  H17 GLY d   1      56.675  19.759 108.604  0.00  0.00     0.053 H 
ATOM     77  H18 GLY d   1      58.089  18.662 108.759  0.00  0.00     0.053 H 
ATOM     78  H19 GLY d   1      53.812  17.971 108.766  0.00  0.00     0.163 HD
ATOM     79  H20 GLY d   1      54.083  16.465 106.282  0.00  0.00     0.088 H 
ATOM     80  H28 GLY d   1      54.053  17.319 104.186  0.00  0.00     0.163 HD
ATOM     81  H29 GLY d   1      55.694  19.758 104.140  0.00  0.00     0.087 H 
ATOM     82  H41 GLY d   1      52.832  20.205 104.346  0.00  0.00     0.163 HD
ATOM     83  H42 GLY d   1      52.109  21.469 101.806  0.00  0.00     0.090 H 
ATOM     84  H46 GLY d   1      51.507  23.839 101.901  0.00  0.00     0.163 HD
ATOM     85  H47 GLY d   1      53.342  25.440 103.625  0.00  0.00     0.088 H 
ATOM     86  H57 GLY d   1      53.384  26.480 105.334  0.00  0.00     0.087 H 
ATOM     87  H58 GLY d   1      52.486  28.074 106.852  0.00  0.00     0.036 H 
ATOM     88  H59 GLY d   1      52.428  26.631 107.920  0.00  0.00     0.036 H 
ATOM     89  H60 GLY d   1      50.218  28.040 107.435  0.00  0.00     0.035 H 
ATOM     90  H61 GLY d   1      50.160  26.245 107.489  0.00  0.00     0.035 H 
ATOM     91  H62 GLY d   1      49.245  26.537 105.358  0.00  0.00     0.064 H 
ATOM     92  H63 GLY d   1      50.086  28.103 105.100  0.00  0.00     0.064 H 
ATOM     93  H64 GLY d   1      53.489  22.172 106.400  0.00  0.00     0.087 H 
ATOM     94  H65 GLY d   1      55.833  22.333 106.649  0.00  0.00     0.036 H 
ATOM     95  H66 GLY d   1      55.431  22.122 108.386  0.00  0.00     0.036 H 
ATOM     96  H67 GLY d   1      56.813  24.274 107.611  0.00  0.00     0.035 H 
ATOM     97  H68 GLY d   1      55.487  24.462 108.808  0.00  0.00     0.035 H 
ATOM     98  H69 GLY d   1      54.798  26.022 107.162  0.00  0.00     0.064 H 
ATOM     99  H70 GLY d   1      55.469  25.042 105.814  0.00  0.00     0.064 H 
ATOM    100  H71 GLY d   1      52.606  20.800 107.868  0.00  0.00     0.163 HD
ATOM    101  H72 GLY d   1      51.581  21.921 110.443  0.00  0.00     0.088 H 
ATOM    102  H82 GLY d   1      52.772  21.383 112.182  0.00  0.00     0.163 HD
ATOM    103  H83 GLY d   1      54.692  19.130 111.853  0.00  0.00     0.088 H 
ATOM    104  H84 GLY d   1      56.271  20.469 113.292  0.00  0.00     0.053 H 
ATOM    105  H85 GLY d   1      55.151  21.862 113.117  0.00  0.00     0.053 H 
ATOM    106  H86 GLY d   1      55.468  18.170 113.770  0.00  0.00     0.163 HD
ATOM    107  H87 GLY d   1      53.497  18.203 116.007  0.00  0.00     0.088 H 
ATOM    108  H95 GLY d   1      56.862  18.527 118.671  0.00  0.00     0.087 H 
ATOM    109  H96 GLY d   1      56.141  17.954 120.821  0.00  0.00     0.036 H 
ATOM    110  H97 GLY d   1      55.801  16.251 120.361  0.00  0.00     0.036 H 
ATOM    111  H98 GLY d   1      54.111  18.733 119.954  0.00  0.00     0.035 H 
ATOM    112  H99 GLY d   1      53.619  17.091 120.491  0.00  0.00     0.035 H 
ATOM    113 0H10 GLY d   1      53.669  16.224 118.313  0.00  0.00     0.064 H 
ATOM    114 1H10 GLY d   1      53.219  17.924 117.947  0.00  0.00     0.064 H 
ATOM    115 2H10 GLY d   1      56.275  15.313 117.359  0.00  0.00     0.163 HD
ATOM    116 3H10 GLY d   1      58.879  14.361 118.358  0.00  0.00     0.087 H 
ENDROOT
BRANCH   6 117
ATOM    117  CB  GLY d   1      56.152  14.073 111.935  0.00  0.00    -0.036 C 
ATOM    118  H4  GLY d   1      55.638  14.064 110.963  0.00  0.00     0.036 H 
ATOM    119  H5  GLY d   1      55.452  14.404 112.716  0.00  0.00     0.036 H 
BRANCH 117 120
ATOM    120  CG  GLY d   1      56.568  12.650 112.255  0.00  0.00    -0.048 C 
ATOM    121  H6  GLY d   1      56.711  12.549 113.341  0.00  0.00     0.035 H 
ATOM    122  H7  GLY d   1      57.512  12.422 111.738  0.00  0.00     0.035 H 
BRANCH 120 123
ATOM    123  CD  GLY d   1      55.492  11.671 111.795  0.00  0.00     0.009 C 
ATOM    124  H8  GLY d   1      55.788  10.653 112.088  0.00  0.00     0.064 H 
ATOM    125  H9  GLY d   1      55.405  11.727 110.700  0.00  0.00     0.064 H 
BRANCH 123 126
ATOM    126  NE  GLY d   1      54.192  11.974 112.389  0.00  0.00    -0.227 N 
ATOM    127  CZ  GLY d   1      53.061  12.088 111.701  0.00  0.00     0.665 C 
ATOM    128  NH1 GLY d   1      53.063  11.914 110.383  0.00  0.00    -0.235 N 
ATOM    129  NH2 GLY d   1      51.925  12.367 112.334  0.00  0.00    -0.235 N 
ATOM    130  H11 GLY d   1      52.186  12.003 109.850  0.00  0.00     0.174 HD
ATOM    131  H12 GLY d   1      53.942  11.691 109.894  0.00  0.00     0.174 HD
ATOM    132  H13 GLY d   1      51.924  12.502 113.355  0.00  0.00     0.174 HD
ATOM    133  H14 GLY d   1      51.046  12.448 111.803  0.00  0.00     0.174 HD
ATOM    134  H10 GLY d   1      54.149  12.108 113.409  0.00  0.00     0.177 HD
ENDBRANCH 123 126
ENDBRANCH 120 123
ENDBRANCH 117 120
ENDBRANCH   6 117
BRANCH  67 135
ATOM    135  CB  GLY d   1      57.499  12.981 117.465  0.00  0.00     0.042 C 
ATOM    136 4H10 GLY d   1      56.667  12.976 118.184  0.00  0.00     0.052 H 
ATOM    137 5H10 GLY d   1      58.235  12.216 117.752  0.00  0.00     0.052 H 
BRANCH 135 138
ATOM    138  CG  GLY d   1      56.952  12.637 116.086  0.00  0.00     0.175 C 
ATOM    139  OD1 GLY d   1      56.379  13.525 115.413  0.00  0.00    -0.648 OA
ATOM    140  OD2 GLY d   1      57.100  11.468 115.672  0.00  0.00    -0.648 OA
ENDBRANCH 135 138
ENDBRANCH  67 135
BRANCH  16 141
ATOM    141  CB  GLY d   1      52.207  17.334 106.884  0.00  0.00    -0.014 C 
ATOM    142  H21 GLY d   1      51.732  17.390 105.894  0.00  0.00     0.043 H 
ATOM    143  H22 GLY d   1      51.876  18.185 107.498  0.00  0.00     0.043 H 
BRANCH 141 144
ATOM    144  CG  GLY d   1      51.774  16.044 107.562  0.00  0.00    -0.056 A 
ATOM    145  CD1 GLY d   1      51.735  15.944 108.945  0.00  0.00    -0.074 A 
ATOM    146  CE1 GLY d   1      51.364  14.766 109.570  0.00  0.00    -0.051 A 
ATOM    147  H23 GLY d   1      52.000  16.805 109.548  0.00  0.00     0.084 H 
ATOM    148  CZ  GLY d   1      51.021  13.667 108.825  0.00  0.00     0.065 A 
ATOM    149  H25 GLY d   1      51.344  14.712 110.653  0.00  0.00     0.087 H 
ATOM    150  CE2 GLY d   1      51.057  13.731 107.442  0.00  0.00    -0.051 A 
ATOM    151  CD2 GLY d   1      51.432  14.919 106.821  0.00  0.00    -0.074 A 
ATOM    152  H26 GLY d   1      50.795  12.863 106.848  0.00  0.00     0.087 H 
ATOM    153  H24 GLY d   1      51.458  14.968 105.738  0.00  0.00     0.084 H 
BRANCH 148 154
ATOM    154  OH  GLY d   1      50.658  12.512 109.489  0.00  0.00    -0.361 OA
ATOM    155  H27 GLY d   1      49.774  12.269 109.239  0.00  0.00     0.217 HD
ENDBRANCH 148 154
ENDBRANCH 141 144
ENDBRANCH  16 141
BRANCH  20 156
ATOM    156  CB  GLY d   1      55.904  18.287 102.611  0.00  0.00    -0.038 C 
ATOM    157  H30 GLY d   1      56.304  18.944 101.825  0.00  0.00     0.036 H 
ATOM    158  H31 GLY d   1      55.294  17.495 102.152  0.00  0.00     0.036 H 
BRANCH 156 159
ATOM    159  CG  GLY d   1      57.072  17.643 103.367  0.00  0.00    -0.061 C 
ATOM    160  H32 GLY d   1      56.673  17.133 104.257  0.00  0.00     0.033 H 
ATOM    161  H33 GLY d   1      57.766  18.437 103.680  0.00  0.00     0.033 H 
BRANCH 159 162
ATOM    162  CD  GLY d   1      57.842  16.630 102.535  0.00  0.00    -0.043 C 
ATOM    163  H34 GLY d   1      58.174  17.105 101.600  0.00  0.00     0.035 H 
ATOM    164  H35 GLY d   1      57.186  15.779 102.301  0.00  0.00     0.035 H 
BRANCH 162 165
ATOM    165  CE  GLY d   1      59.070  16.125 103.311  0.00  0.00     0.080 C 
ATOM    166  H36 GLY d   1      58.747  15.730 104.285  0.00  0.00     0.075 H 
ATOM    167  H37 GLY d   1      59.769  16.960 103.467  0.00  0.00     0.075 H 
BRANCH 165 168
ATOM    168  NZ  GLY d   1      59.756  15.045 102.546  0.00  0.00    -0.079 N 
ATOM    169  H38 GLY d   1      60.558  14.723 103.065  0.00  0.00     0.274 HD
ATOM    170  H39 GLY d   1      60.056  15.404 101.653  0.00  0.00     0.274 HD
ATOM    171  H40 GLY d   1      59.118  14.277 102.403  0.00  0.00     0.274 HD
ENDBRANCH 165 168
ENDBRANCH 162 165
ENDBRANCH 159 162
ENDBRANCH 156 159
ENDBRANCH  20 156
BRANCH  46 172
ATOM    172  CB  GLY d   1      50.523  20.281 109.525  0.00  0.00    -0.030 C 
ATOM    173  H73 GLY d   1      50.777  19.397 108.922  0.00  0.00     0.043 H 
BRANCH 172 174
ATOM    174  CG1 GLY d   1      49.582  21.165 108.692  0.00  0.00    -0.063 C 
ATOM    175  H74 GLY d   1      50.194  21.747 107.987  0.00  0.00     0.033 H 
ATOM    176  H75 GLY d   1      49.061  21.850 109.377  0.00  0.00     0.033 H 
BRANCH 174 177
ATOM    177  CD1 GLY d   1      48.535  20.406 107.895  0.00  0.00    -0.076 C 
ATOM    178  H79 GLY d   1      47.913  21.119 107.335  0.00  0.00     0.027 H 
ATOM    179  H80 GLY d   1      47.901  19.826 108.582  0.00  0.00     0.027 H 
ATOM    180  H81 GLY d   1      49.034  19.723 107.192  0.00  0.00     0.027 H 
ENDBRANCH 174 177
ENDBRANCH 172 174
BRANCH 172 181
ATOM    181  CG2 GLY d   1      49.864  19.790 110.809  0.00  0.00    -0.071 C 
ATOM    182  H76 GLY d   1      50.574  19.164 111.369  0.00  0.00     0.028 H 
ATOM    183  H77 GLY d   1      48.971  19.198 110.560  0.00  0.00     0.028 H 
ATOM    184  H78 GLY d   1      49.572  20.654 111.425  0.00  0.00     0.028 H 
ENDBRANCH 172 181
ENDBRANCH  46 172
BRANCH  56 185
ATOM    185  CB  GLY d   1      53.898  16.268 115.135  0.00  0.00    -0.014 C 
ATOM    186  H88 GLY d   1      53.766  15.697 116.066  0.00  0.00     0.043 H 
ATOM    187  H89 GLY d   1      54.692  15.805 114.530  0.00  0.00     0.043 H 
BRANCH 185 188
ATOM    188  CG  GLY d   1      52.618  16.217 114.360  0.00  0.00    -0.056 A 
ATOM    189  CD1 GLY d   1      52.610  16.446 112.993  0.00  0.00    -0.077 A 
ATOM    190  CE1 GLY d   1      51.429  16.421 112.281  0.00  0.00    -0.082 A 
ATOM    191  H90 GLY d   1      53.542  16.647 112.478  0.00  0.00     0.084 H 
ATOM    192  CZ  GLY d   1      50.237  16.163 112.930  0.00  0.00    -0.083 A 
ATOM    193  H92 GLY d   1      51.436  16.604 111.213  0.00  0.00     0.083 H 
ATOM    194  CE2 GLY d   1      50.231  15.939 114.280  0.00  0.00    -0.082 A 
ATOM    195  H94 GLY d   1      49.309  16.138 112.371  0.00  0.00     0.083 H 
ATOM    196  CD2 GLY d   1      51.416  15.972 114.997  0.00  0.00    -0.077 A 
ATOM    197  H93 GLY d   1      49.296  15.735 114.790  0.00  0.00     0.083 H 
ATOM    198  H91 GLY d   1      51.400  15.804 116.068  0.00  0.00     0.084 H 
ENDBRANCH 185 188
ENDBRANCH  56 185
BRANCH  24 199
ATOM    199  CB  GLY d   1      50.821  21.553 103.535  0.00  0.00     0.044 C 
ATOM    200  H43 GLY d   1      50.288  20.666 103.163  0.00  0.00     0.077 H 
ATOM    201  H44 GLY d   1      50.256  22.458 103.269  0.00  0.00     0.077 H 
BRANCH 199 202
ATOM    202  OG  GLY d   1      50.939  21.471 104.958  0.00  0.00    -0.398 OA
ATOM    203  H45 GLY d   1      51.398  22.238 105.281  0.00  0.00     0.209 HD
ENDBRANCH 199 202
ENDBRANCH  24 199
BRANCH  28 204
ATOM    204  CB  GLY d   1      52.909  26.240 101.678  0.00  0.00    -0.030 C 
ATOM    205  H48 GLY d   1      52.114  26.148 100.923  0.00  0.00     0.043 H 
BRANCH 204 206
ATOM    206  CG1 GLY d   1      54.219  25.725 101.073  0.00  0.00    -0.063 C 
ATOM    207  H49 GLY d   1      54.127  24.641 100.910  0.00  0.00     0.033 H 
ATOM    208  H50 GLY d   1      55.035  25.921 101.784  0.00  0.00     0.033 H 
BRANCH 206 209
ATOM    209  CD1 GLY d   1      54.561  26.385  99.752  0.00  0.00    -0.076 C 
ATOM    210  H54 GLY d   1      55.508  25.974  99.371  0.00  0.00     0.027 H 
ATOM    211  H55 GLY d   1      54.665  27.470  99.900  0.00  0.00     0.027 H 
ATOM    212  H56 GLY d   1      53.758  26.190  99.026  0.00  0.00     0.027 H 
ENDBRANCH 206 209
ENDBRANCH 204 206
BRANCH 204 213
ATOM    213  CG2 GLY d   1      53.063  27.714 102.054  0.00  0.00    -0.071 C 
ATOM    214  H51 GLY d   1      52.122  28.082 102.488  0.00  0.00     0.028 H 
ATOM    215  H52 GLY d   1      53.305  28.299 101.154  0.00  0.00     0.028 H 
ATOM    216  H53 GLY d   1      53.873  27.822 102.790  0.00  0.00     0.028 H 
ENDBRANCH 204 213
ENDBRANCH  28 204
TORSDOF 25
