REMARK  6 active torsions:
REMARK  status: ('A' for Active; 'I' for Inactive)
REMARK    1  A    between atoms: C07_7  and  C10_1 
REMARK    2  A    between atoms: C02_4  and  O01_27 
REMARK    3  A    between atoms: C03_5  and  O04_28 
REMARK    4  A    between atoms: N13_24  and  C05_6 
REMARK    5  A    between atoms: C08_8  and  O09_30 
REMARK    6  A    between atoms: C19_11  and  N16_25 
ROOT
ATOM      1  C15 FUV d   1      20.770 -84.261 -12.317  0.00  0.00     0.109 C 
ATOM      2  C14 FUV d   1      21.478 -82.975 -11.923  0.00  0.00     0.109 C 
ATOM      3  C17 FUV d   1      18.817 -82.896 -12.843  0.00  0.00     0.109 C 
ATOM      4  C18 FUV d   1      19.683 -81.630 -12.613  0.00  0.00     0.109 C 
ATOM      5  N13 FUV d   1      20.610 -81.901 -11.531  0.00  0.00    -0.039 N 
ATOM      6  N16 FUV d   1      19.620 -84.086 -13.225  0.00  0.00    -0.043 N 
ATOM      7  H1  FUV d   1      20.409 -84.747 -11.399  0.00  0.00     0.078 H 
ATOM      8  H2  FUV d   1      21.501 -84.915 -12.815  0.00  0.00     0.078 H 
ATOM      9  H3  FUV d   1      22.074 -82.636 -12.783  0.00  0.00     0.078 H 
ATOM     10  H4  FUV d   1      22.147 -83.198 -11.079  0.00  0.00     0.078 H 
ATOM     11  H10 FUV d   1      18.096 -82.686 -13.647  0.00  0.00     0.078 H 
ATOM     12  H11 FUV d   1      18.274 -83.123 -11.914  0.00  0.00     0.078 H 
ATOM     13  H12 FUV d   1      19.037 -80.781 -12.345  0.00  0.00     0.078 H 
ATOM     14  H13 FUV d   1      20.242 -81.390 -13.530  0.00  0.00     0.078 H 
ATOM     15  H22 FUV d   1      20.055 -82.225 -10.754  0.00  0.00     0.283 HD
ATOM     16  H23 FUV d   1      20.178 -83.548 -13.870  0.00  0.00     0.282 HD
ENDROOT
BRANCH   6  17
ATOM     17  C19 FUV d   1      19.239 -85.001 -14.355  0.00  0.00     0.197 C 
ATOM     18  C25 FUV d   1      20.169 -86.310 -14.816  0.00  0.00     0.027 A 
ATOM     19  C24 FUV d   1      19.773 -87.574 -15.465  0.00  0.00     0.086 A 
ATOM     20  C26 FUV d   1      21.548 -86.140 -14.626  0.00  0.00    -0.049 A 
ATOM     21  C30 FUV d   1      20.723 -88.536 -15.822  0.00  0.00    -0.048 A 
ATOM     22  O23 FUV d   1      18.402 -88.025 -15.861  0.00  0.00    -0.308 OA
ATOM     23  C29 FUV d   1      22.093 -88.327 -15.573  0.00  0.00    -0.059 A 
ATOM     24  H17 FUV d   1      20.400 -89.455 -16.297  0.00  0.00     0.087 H 
ATOM     25  C27 FUV d   1      22.513 -87.111 -14.961  0.00  0.00     0.034 A 
ATOM     26  H16 FUV d   1      22.820 -89.084 -15.844  0.00  0.00     0.086 H 
ATOM     27 CL1  FUV d   1      24.249 -86.818 -14.632  0.00  0.00    -0.084 Cl
ATOM     28  C22 FUV d   1      17.767 -86.838 -16.140  0.00  0.00     0.102 C 
ATOM     29  C21 FUV d   1      17.882 -85.599 -16.042  0.00  0.00     0.064 C 
ATOM     30  C31 FUV d   1      17.362 -87.548 -17.276  0.00  0.00    -0.048 C 
ATOM     31  C34 FUV d   1      17.098 -84.601 -16.626  0.00  0.00    -0.055 C 
ATOM     32  N20 FUV d   1      18.057 -84.626 -15.104  0.00  0.00    -0.356 N 
ATOM     33  C33 FUV d   1      16.530 -85.226 -17.749  0.00  0.00    -0.081 C 
ATOM     34  H21 FUV d   1      16.960 -83.580 -16.290  0.00  0.00     0.087 H 
ATOM     35  C32 FUV d   1      16.648 -86.619 -18.053  0.00  0.00    -0.080 C 
ATOM     36  H20 FUV d   1      15.961 -84.608 -18.434  0.00  0.00     0.083 H 
ATOM     37  H19 FUV d   1      16.152 -86.984 -18.945  0.00  0.00     0.083 H 
ATOM     38  H24 FUV d   1      17.469 -83.793 -14.957  0.00  0.00     0.162 HD
ATOM     39  H18 FUV d   1      17.557 -88.589 -17.507  0.00  0.00     0.087 H 
ATOM     40  H15 FUV d   1      21.892 -85.206 -14.196  0.00  0.00     0.087 H 
ATOM     41  H14 FUV d   1      18.653 -85.641 -13.679  0.00  0.00     0.127 H 
ENDBRANCH   6  17
BRANCH   5  42
ATOM     42  C05 FUV d   1      21.405 -80.731 -11.016  0.00  0.00     0.222 C 
ATOM     43  C03 FUV d   1      22.025 -81.053  -9.627  0.00  0.00     0.112 C 
ATOM     44  C02 FUV d   1      23.512 -81.015  -9.511  0.00  0.00     0.092 C 
ATOM     45  H6  FUV d   1      21.708 -82.072  -9.360  0.00  0.00     0.093 H 
ATOM     46  C08 FUV d   1      24.169 -81.476 -10.741  0.00  0.00     0.097 C 
ATOM     47  H5  FUV d   1      23.802 -79.969  -9.335  0.00  0.00     0.091 H 
ATOM     48  C07 FUV d   1      23.810 -80.507 -11.881  0.00  0.00     0.151 C 
ATOM     49  H9  FUV d   1      23.789 -82.477 -10.993  0.00  0.00     0.091 H 
ATOM     50  O06 FUV d   1      22.350 -80.264 -12.056  0.00  0.00    -0.338 OA
ATOM     51  H8  FUV d   1      24.276 -79.540 -11.641  0.00  0.00     0.104 H 
ATOM     52  H7  FUV d   1      20.698 -79.904 -10.850  0.00  0.00     0.134 H 
BRANCH  43  53
ATOM     53  O04 FUV d   1      21.484 -80.148  -8.696  0.00  0.00    -0.388 OA
ATOM     54  H26 FUV d   1      21.700 -79.260  -8.957  0.00  0.00     0.210 HD
ENDBRANCH  43  53
BRANCH  44  55
ATOM     55  O01 FUV d   1      23.995 -81.794  -8.432  0.00  0.00    -0.390 OA
ATOM     56  H25 FUV d   1      24.936 -81.685  -8.360  0.00  0.00     0.210 HD
ENDBRANCH  44  55
BRANCH  46  57
ATOM     57  O09 FUV d   1      25.567 -81.564 -10.565  0.00  0.00    -0.390 OA
ATOM     58  H27 FUV d   1      25.967 -81.879 -11.367  0.00  0.00     0.210 HD
ENDBRANCH  46  57
BRANCH  48  59
ATOM     59  C10 FUV d   1      24.397 -81.006 -13.219  0.00  0.00     0.206 C 
ATOM     60  O11 FUV d   1      23.748 -81.872 -13.891  0.00  0.00    -0.646 OA
ATOM     61  O12 FUV d   1      25.510 -80.523 -13.628  0.00  0.00    -0.646 OA
ENDBRANCH  48  59
ENDBRANCH   5  42
TORSDOF 6
