REMARK  3 active torsions:
REMARK  status: ('A' for Active; 'I' for Inactive)
REMARK    1  A    between atoms: C02_9  and  C03_10 
REMARK       I    between atoms: N10_17  and  C02_9 
REMARK    2  A    between atoms: S16_22  and  N13_20 
REMARK    3  A    between atoms: S16_22  and  C19_25 
ROOT
ATOM      1  C15 FWG d   1     133.770  15.212   4.418  0.00  0.00     0.013 C 
ATOM      2  O01 FWG d   1     133.048  12.019   2.811  0.00  0.00    -0.273 OA
ATOM      3  C02 FWG d   1     133.630  13.097   2.945  0.00  0.00     0.224 C 
ATOM      4  N10 FWG d   1     133.237  13.921   4.086  0.00  0.00    -0.349 N 
ATOM      5  C11 FWG d   1     132.221  13.396   4.955  0.00  0.00     0.013 C 
ATOM      6  C12 FWG d   1     131.110  14.375   5.315  0.00  0.00     0.020 C 
ATOM      7  N13 FWG d   1     131.574  15.753   5.472  0.00  0.00    -0.304 N 
ATOM      8  C14 FWG d   1     133.022  15.935   5.542  0.00  0.00     0.020 C 
ATOM      9  H1  FWG d   1     133.731  15.842   3.518  0.00  0.00     0.066 H 
ATOM     10  H2  FWG d   1     134.817  15.082   4.729  0.00  0.00     0.066 H 
ATOM     11  H21 FWG d   1     132.705  13.071   5.888  0.00  0.00     0.066 H 
ATOM     12  H22 FWG d   1     131.763  12.528   4.458  0.00  0.00     0.066 H 
ATOM     13  H23 FWG d   1     130.654  14.051   6.262  0.00  0.00     0.067 H 
ATOM     14  H24 FWG d   1     130.353  14.351   4.517  0.00  0.00     0.067 H 
ATOM     15  H25 FWG d   1     133.244  17.010   5.476  0.00  0.00     0.067 H 
ATOM     16  H26 FWG d   1     133.378  15.546   6.507  0.00  0.00     0.067 H 
ENDROOT
BRANCH   3  17
ATOM     17  C03 FWG d   1     134.682  13.437   1.895  0.00  0.00     0.024 C 
ATOM     18  C04 FWG d   1     134.107  14.434   0.903  0.00  0.00    -0.054 C 
ATOM     19  C05 FWG d   1     134.600  14.110  -0.519  0.00  0.00    -0.064 C 
ATOM     20  H9  FWG d   1     134.431  15.449   1.178  0.00  0.00     0.034 H 
ATOM     21  H10 FWG d   1     133.009  14.380   0.928  0.00  0.00     0.034 H 
ATOM     22  C06 FWG d   1     135.980  14.727  -0.776  0.00  0.00    -0.065 C 
ATOM     23  H11 FWG d   1     133.883  14.515  -1.249  0.00  0.00     0.033 H 
ATOM     24  H12 FWG d   1     134.667  13.018  -0.637  0.00  0.00     0.033 H 
ATOM     25  C07 FWG d   1     137.029  14.246   0.172  0.00  0.00    -0.065 C 
ATOM     26  H13 FWG d   1     135.897  15.820  -0.680  0.00  0.00     0.033 H 
ATOM     27  H14 FWG d   1     136.291  14.472  -1.800  0.00  0.00     0.033 H 
ATOM     28  C08 FWG d   1     136.875  14.765   1.588  0.00  0.00    -0.064 C 
ATOM     29  H15 FWG d   1     138.010  14.567  -0.208  0.00  0.00     0.033 H 
ATOM     30  H16 FWG d   1     136.989  13.147   0.202  0.00  0.00     0.033 H 
ATOM     31  C09 FWG d   1     136.027  13.824   2.489  0.00  0.00    -0.054 C 
ATOM     32  H17 FWG d   1     136.385  15.749   1.550  0.00  0.00     0.033 H 
ATOM     33  H18 FWG d   1     137.875  14.870   2.034  0.00  0.00     0.033 H 
ATOM     34  H19 FWG d   1     136.603  12.904   2.666  0.00  0.00     0.034 H 
ATOM     35  H20 FWG d   1     135.847  14.334   3.447  0.00  0.00     0.034 H 
ATOM     36  H8  FWG d   1     134.868  12.513   1.328  0.00  0.00     0.054 H 
ENDBRANCH   3  17
BRANCH   7  37
ATOM     37  S16 FWG d   1     130.537  16.778   6.343  0.00  0.00     0.261 S 
ATOM     38  O17 FWG d   1     129.910  16.052   7.428  0.00  0.00    -0.200 OA
ATOM     39  O18 FWG d   1     131.276  17.891   6.924  0.00  0.00    -0.200 OA
BRANCH  37  40
ATOM     40  C19 FWG d   1     129.260  17.341   5.188  0.00  0.00     0.090 A 
ATOM     41  C20 FWG d   1     129.510  18.416   4.275  0.00  0.00     0.000 A 
ATOM     42  C21 FWG d   1     130.741  19.088   4.210  0.00  0.00    -0.054 A 
ATOM     43  C25 FWG d   1     128.503  18.812   3.400  0.00  0.00    -0.007 A 
ATOM     44  C22 FWG d   1     130.942  20.152   3.289  0.00  0.00     0.003 A 
ATOM     45  H3  FWG d   1     131.548  18.792   4.870  0.00  0.00     0.087 H 
ATOM     46  N23 FWG d   1     129.939  20.536   2.439  0.00  0.00    -0.272 NA
ATOM     47  H4  FWG d   1     131.897  20.664   3.259  0.00  0.00     0.114 H 
ATOM     48  C24 FWG d   1     128.739  19.895   2.465  0.00  0.00     0.013 A 
ATOM     49  H5  FWG d   1     127.953  20.196   1.782  0.00  0.00     0.116 H 
ATOM     50  C26 FWG d   1     127.228  18.141   3.417  0.00  0.00    -0.071 A 
ATOM     51  C27 FWG d   1     126.994  17.110   4.302  0.00  0.00    -0.081 A 
ATOM     52  H6  FWG d   1     126.448  18.449   2.730  0.00  0.00     0.084 H 
ATOM     53  C28 FWG d   1     128.036  16.695   5.214  0.00  0.00    -0.059 A 
ATOM     54  H27 FWG d   1     126.031  16.612   4.314  0.00  0.00     0.083 H 
ATOM     55  H7  FWG d   1     127.860  15.885   5.912  0.00  0.00     0.085 H 
ENDBRANCH  37  40
ENDBRANCH   7  37
TORSDOF 3
