REMARK  4 active torsions:
REMARK  status: ('A' for Active; 'I' for Inactive)
REMARK       I    between atoms: N12_2  and  C10_1 
REMARK    1  A    between atoms: C10_1  and  C08_17 
REMARK    2  A    between atoms: S18_23  and  C21_5 
REMARK    3  A    between atoms: C04_13  and  N02_11 
REMARK    4  A    between atoms: N15_21  and  S18_23 
ROOT
ATOM      1  C10 FWY d   1      12.843 -44.055   3.389  0.00  0.00     0.253 C 
ATOM      2  N12 FWY d   1      13.536 -43.534   4.578  0.00  0.00    -0.346 N 
ATOM      3  C13 FWY d   1      12.938 -42.522   5.364  0.00  0.00     0.010 C 
ATOM      4  C17 FWY d   1      14.823 -43.990   5.016  0.00  0.00     0.010 C 
ATOM      5  O11 FWY d   1      11.767 -43.597   3.096  0.00  0.00    -0.267 OA
ATOM      6  C14 FWY d   1      13.950 -41.552   5.949  0.00  0.00     0.008 C 
ATOM      7  N15 FWY d   1      15.296 -41.572   5.347  0.00  0.00    -0.203 NA
ATOM      8  C16 FWY d   1      15.846 -42.870   5.009  0.00  0.00     0.008 C 
ATOM      9  H1  FWY d   1      12.389 -42.998   6.190  0.00  0.00     0.066 H 
ATOM     10  H2  FWY d   1      12.235 -41.958   4.734  0.00  0.00     0.066 H 
ATOM     11  H3  FWY d   1      15.166 -44.790   4.344  0.00  0.00     0.066 H 
ATOM     12  H4  FWY d   1      14.733 -44.384   6.039  0.00  0.00     0.066 H 
ATOM     13  H12 FWY d   1      14.058 -41.784   7.019  0.00  0.00     0.059 H 
ATOM     14  H13 FWY d   1      13.546 -40.535   5.833  0.00  0.00     0.059 H 
ATOM     15  H14 FWY d   1      16.286 -42.809   4.003  0.00  0.00     0.059 H 
ATOM     16  H15 FWY d   1      16.632 -43.114   5.739  0.00  0.00     0.059 H 
ENDROOT
BRANCH   7  17
ATOM     17  S18 FWY d   1      16.400 -40.562   6.118  0.00  0.00     0.244 S 
ATOM     18  O19 FWY d   1      17.457 -41.345   6.703  0.00  0.00    -0.206 OA
ATOM     19  O20 FWY d   1      15.775 -39.964   7.245  0.00  0.00    -0.206 OA
BRANCH  17  20
ATOM     20  C21 FWY d   1      16.955 -39.339   5.005  0.00  0.00     0.086 A 
ATOM     21  C22 FWY d   1      18.058 -39.580   4.042  0.00  0.00    -0.000 A 
ATOM     22  C23 FWY d   1      18.743 -40.820   3.944  0.00  0.00    -0.054 A 
ATOM     23  C27 FWY d   1      18.451 -38.561   3.186  0.00  0.00    -0.007 A 
ATOM     24  C24 FWY d   1      19.792 -40.982   3.024  0.00  0.00     0.003 A 
ATOM     25  H16 FWY d   1      18.455 -41.647   4.583  0.00  0.00     0.087 H 
ATOM     26  N25 FWY d   1      20.161 -39.961   2.201  0.00  0.00    -0.272 NA
ATOM     27  H5  FWY d   1      20.314 -41.930   2.968  0.00  0.00     0.114 H 
ATOM     28  C26 FWY d   1      19.512 -38.763   2.258  0.00  0.00     0.013 A 
ATOM     29  H6  FWY d   1      19.806 -37.959   1.593  0.00  0.00     0.116 H 
ATOM     30  C28 FWY d   1      17.824 -37.337   3.215  0.00  0.00    -0.071 A 
ATOM     31  C29 FWY d   1      16.749 -37.107   4.146  0.00  0.00    -0.081 A 
ATOM     32  H7  FWY d   1      18.137 -36.549   2.540  0.00  0.00     0.084 H 
ATOM     33  C30 FWY d   1      16.339 -38.141   5.029  0.00  0.00    -0.060 A 
ATOM     34  H17 FWY d   1      16.253 -36.144   4.173  0.00  0.00     0.083 H 
ATOM     35  H18 FWY d   1      15.527 -37.966   5.725  0.00  0.00     0.085 H 
ENDBRANCH  17  20
ENDBRANCH   7  17
BRANCH   1  36
ATOM     36  C08 FWY d   1      13.467 -45.146   2.473  0.00  0.00     0.034 A 
ATOM     37  C07 FWY d   1      14.035 -46.319   2.907  0.00  0.00    -0.068 A 
ATOM     38  C06 FWY d   1      14.585 -47.248   1.948  0.00  0.00    -0.080 A 
ATOM     39  H10 FWY d   1      14.070 -46.547   3.966  0.00  0.00     0.085 H 
ATOM     40  C05 FWY d   1      14.539 -46.970   0.583  0.00  0.00    -0.051 A 
ATOM     41  H9  FWY d   1      15.038 -48.170   2.293  0.00  0.00     0.083 H 
ATOM     42  C04 FWY d   1      13.952 -45.762   0.168  0.00  0.00     0.103 A 
ATOM     43  H8  FWY d   1      14.946 -47.668  -0.140  0.00  0.00     0.087 H 
ATOM     44  C09 FWY d   1      13.426 -44.862   1.091  0.00  0.00    -0.036 A 
ATOM     45  H11 FWY d   1      12.981 -43.936   0.745  0.00  0.00     0.088 H 
BRANCH  42  46
ATOM     46  N02 FWY d   1      13.840 -45.362  -1.168  0.00  0.00    -0.116 N 
ATOM     47  O01 FWY d   1      14.035 -46.245  -2.199  0.00  0.00    -0.532 OA
ATOM     48  O03 FWY d   1      13.524 -44.198  -1.411  0.00  0.00    -0.532 OA
ENDBRANCH  42  46
ENDBRANCH   1  36
TORSDOF 4
