REMARK  3 active torsions:
REMARK  status: ('A' for Active; 'I' for Inactive)
REMARK       I    between atoms: N12_2  and  C10_1 
REMARK       I    between atoms: C10_1  and  N09_18 
REMARK    1  A    between atoms: S18_23  and  C21_5 
REMARK    2  A    between atoms: N09_18  and  C06_15 
REMARK    3  A    between atoms: N15_21  and  S18_23 
ROOT
ATOM      1  C10 FWV d   1     133.362  76.809  -6.309  0.00  0.00     0.323 C 
ATOM      2  N12 FWV d   1     132.957  75.975  -7.475  0.00  0.00    -0.331 N 
ATOM      3  C13 FWV d   1     131.858  76.354  -8.289  0.00  0.00     0.015 C 
ATOM      4  C17 FWV d   1     133.616  74.773  -7.816  0.00  0.00     0.015 C 
ATOM      5  N09 FWV d   1     134.463  76.377  -5.520  0.00  0.00    -0.307 N 
ATOM      6  O11 FWV d   1     132.729  77.871  -6.029  0.00  0.00    -0.247 OA
ATOM      7  C14 FWV d   1     130.801  75.274  -8.203  0.00  0.00     0.020 C 
ATOM      8  N15 FWV d   1     131.405  74.007  -8.540  0.00  0.00    -0.304 N 
ATOM      9  C16 FWV d   1     132.602  73.639  -7.776  0.00  0.00     0.020 C 
ATOM     10  H1  FWV d   1     132.190  76.466  -9.332  0.00  0.00     0.067 H 
ATOM     11  H2  FWV d   1     131.443  77.308  -7.932  0.00  0.00     0.067 H 
ATOM     12  H3  FWV d   1     134.423  74.575  -7.095  0.00  0.00     0.067 H 
ATOM     13  H4  FWV d   1     134.040  74.856  -8.828  0.00  0.00     0.067 H 
ATOM     14  H11 FWV d   1     134.931  75.524  -5.751  0.00  0.00     0.170 HD
ATOM     15  H12 FWV d   1     129.987  75.496  -8.909  0.00  0.00     0.067 H 
ATOM     16  H13 FWV d   1     130.398  75.231  -7.181  0.00  0.00     0.067 H 
ATOM     17  H14 FWV d   1     132.320  73.439  -6.732  0.00  0.00     0.067 H 
ATOM     18  H15 FWV d   1     133.050  72.735  -8.214  0.00  0.00     0.067 H 
ENDROOT
BRANCH   8  19
ATOM     19  S18 FWV d   1     130.446  72.854  -9.275  0.00  0.00     0.261 S 
ATOM     20  O19 FWV d   1     129.795  73.433 -10.441  0.00  0.00    -0.200 OA
ATOM     21  O20 FWV d   1     131.239  71.802  -9.769  0.00  0.00    -0.200 OA
BRANCH  19  22
ATOM     22  C21 FWV d   1     129.216  72.338  -8.120  0.00  0.00     0.090 A 
ATOM     23  C22 FWV d   1     129.438  71.278  -7.157  0.00  0.00     0.000 A 
ATOM     24  C23 FWV d   1     130.658  70.569  -7.059  0.00  0.00    -0.054 A 
ATOM     25  C27 FWV d   1     128.443  70.930  -6.295  0.00  0.00    -0.007 A 
ATOM     26  C24 FWV d   1     130.811  69.551  -6.119  0.00  0.00     0.003 A 
ATOM     27  H16 FWV d   1     131.480  70.819  -7.720  0.00  0.00     0.087 H 
ATOM     28  N25 FWV d   1     129.803  69.226  -5.273  0.00  0.00    -0.272 NA
ATOM     29  H5  FWV d   1     131.750  69.011  -6.064  0.00  0.00     0.114 H 
ATOM     30  C26 FWV d   1     128.638  69.876  -5.331  0.00  0.00     0.013 A 
ATOM     31  H6  FWV d   1     127.837  69.610  -4.651  0.00  0.00     0.116 H 
ATOM     32  C28 FWV d   1     127.214  71.595  -6.325  0.00  0.00    -0.071 A 
ATOM     33  C29 FWV d   1     127.004  72.619  -7.251  0.00  0.00    -0.081 A 
ATOM     34  H7  FWV d   1     126.427  71.317  -5.633  0.00  0.00     0.084 H 
ATOM     35  C30 FWV d   1     128.021  72.978  -8.140  0.00  0.00    -0.059 A 
ATOM     36  H17 FWV d   1     126.052  73.136  -7.280  0.00  0.00     0.083 H 
ATOM     37  H18 FWV d   1     127.853  73.777  -8.853  0.00  0.00     0.085 H 
ENDBRANCH  19  22
ENDBRANCH   8  19
BRANCH   5  38
ATOM     38  C06 FWV d   1     134.901  77.134  -4.420  0.00  0.00     0.059 A 
ATOM     39  C05 FWV d   1     135.220  78.453  -4.538  0.00  0.00    -0.055 A 
ATOM     40  C04 FWV d   1     135.683  79.183  -3.378  0.00  0.00    -0.079 A 
ATOM     41  H10 FWV d   1     135.127  78.953  -5.495  0.00  0.00     0.087 H 
ATOM     42  C03 FWV d   1     135.811  78.542  -2.150  0.00  0.00    -0.060 A 
ATOM     43  H9  FWV d   1     135.931  80.234  -3.466  0.00  0.00     0.083 H 
ATOM     44  C02 FWV d   1     135.477  77.197  -2.056  0.00  0.00     0.058 A 
ATOM     45  H8  FWV d   1     136.166  79.083  -1.280  0.00  0.00     0.086 H 
ATOM     46 CL01 FWV d   1     135.619  76.292  -0.535  0.00  0.00    -0.082 Cl
ATOM     47  C07 FWV d   1     135.028  76.485  -3.176  0.00  0.00     0.082 A 
ATOM     48 CL08 FWV d   1     134.606  74.797  -3.020  0.00  0.00    -0.080 Cl
ENDBRANCH   5  38
TORSDOF 3
