REMARK  4 active torsions:
REMARK  status: ('A' for Active; 'I' for Inactive)
REMARK    1  A    between atoms: C02_6  and  C01_5 
REMARK    2  A    between atoms: S20_23  and  N04_8 
REMARK       I    between atoms: N07_11  and  C08_12 
REMARK       I    between atoms: C08_12  and  N10_14 
REMARK    3  A    between atoms: N10_14  and  C11_15 
REMARK    4  A    between atoms: S20_23  and  C23_26 
ROOT
ATOM      1  C02 FWS d   1      42.393 164.523  -7.385  0.00  0.00     0.029 C 
ATOM      2  C03 FWS d   1      41.290 163.491  -7.472  0.00  0.00     0.024 C 
ATOM      3  N04 FWS d   1      41.749 162.138  -7.669  0.00  0.00    -0.303 N 
ATOM      4  C05 FWS d   1      43.052 161.724  -7.161  0.00  0.00     0.020 C 
ATOM      5  C06 FWS d   1      44.057 162.870  -7.084  0.00  0.00     0.015 C 
ATOM      6  N07 FWS d   1      43.426 163.983  -6.562  0.00  0.00    -0.326 N 
ATOM      7  C08 FWS d   1      43.726 164.496  -5.254  0.00  0.00     0.323 C 
ATOM      8  O09 FWS d   1      43.164 165.416  -4.832  0.00  0.00    -0.247 OA
ATOM      9  N10 FWS d   1      44.806 163.829  -4.511  0.00  0.00    -0.309 N 
ATOM     10  H6  FWS d   1      42.000 165.437  -6.916  0.00  0.00     0.074 H 
ATOM     11  H7  FWS d   1      40.636 163.758  -8.315  0.00  0.00     0.068 H 
ATOM     12  H8  FWS d   1      40.714 163.525  -6.536  0.00  0.00     0.068 H 
ATOM     13  H9  FWS d   1      43.457 160.948  -7.827  0.00  0.00     0.067 H 
ATOM     14  H10 FWS d   1      42.918 161.308  -6.152  0.00  0.00     0.067 H 
ATOM     15  H11 FWS d   1      44.435 163.098  -8.091  0.00  0.00     0.067 H 
ATOM     16  H12 FWS d   1      44.896 162.582  -6.434  0.00  0.00     0.067 H 
ATOM     17  H13 FWS d   1      45.300 163.081  -4.955  0.00  0.00     0.170 HD
ENDROOT
BRANCH   3  18
ATOM     18  S20 FWS d   1      40.760 161.049  -8.456  0.00  0.00     0.261 S 
ATOM     19  O21 FWS d   1      41.577 159.935  -9.040  0.00  0.00    -0.200 OA
ATOM     20  O22 FWS d   1      40.115 161.696  -9.541  0.00  0.00    -0.200 OA
BRANCH  18  21
ATOM     21  C23 FWS d   1      39.470 160.482  -7.290  0.00  0.00     0.090 A 
ATOM     22  C24 FWS d   1      39.708 159.412  -6.358  0.00  0.00     0.000 A 
ATOM     23  C25 FWS d   1      40.931 158.753  -6.276  0.00  0.00    -0.054 A 
ATOM     24  C29 FWS d   1      38.714 159.029  -5.525  0.00  0.00    -0.007 A 
ATOM     25  C26 FWS d   1      41.107 157.713  -5.357  0.00  0.00     0.003 A 
ATOM     26  H19 FWS d   1      41.748 159.046  -6.925  0.00  0.00     0.087 H 
ATOM     27  N27 FWS d   1      40.096 157.340  -4.526  0.00  0.00    -0.272 NA
ATOM     28  H1  FWS d   1      42.060 157.198  -5.306  0.00  0.00     0.114 H 
ATOM     29  C28 FWS d   1      38.936 157.941  -4.561  0.00  0.00     0.013 A 
ATOM     30  H2  FWS d   1      38.144 157.640  -3.885  0.00  0.00     0.116 H 
ATOM     31  C30 FWS d   1      37.415 159.706  -5.550  0.00  0.00    -0.071 A 
ATOM     32  C31 FWS d   1      37.194 160.738  -6.454  0.00  0.00    -0.081 A 
ATOM     33  H20 FWS d   1      36.630 159.403  -4.867  0.00  0.00     0.084 H 
ATOM     34  C32 FWS d   1      38.211 161.135  -7.331  0.00  0.00    -0.059 A 
ATOM     35  H21 FWS d   1      36.232 161.237  -6.480  0.00  0.00     0.083 H 
ATOM     36  H22 FWS d   1      38.037 161.938  -8.038  0.00  0.00     0.085 H 
ENDBRANCH  18  21
ENDBRANCH   3  18
BRANCH   1  37
ATOM     37  C01 FWS d   1      42.913 164.878  -8.783  0.00  0.00    -0.056 C 
ATOM     38  H3  FWS d   1      42.091 165.290  -9.386  0.00  0.00     0.030 H 
ATOM     39  H4  FWS d   1      43.306 163.973  -9.269  0.00  0.00     0.030 H 
ATOM     40  H5  FWS d   1      43.715 165.626  -8.697  0.00  0.00     0.030 H 
ENDBRANCH   1  37
BRANCH   9  41
ATOM     41  C11 FWS d   1      45.190 164.209  -3.156  0.00  0.00     0.039 A 
ATOM     42  C12 FWS d   1      45.404 165.505  -2.722  0.00  0.00    -0.022 A 
ATOM     43  C13 FWS d   1      45.748 165.708  -1.332  0.00  0.00     0.107 A 
ATOM     44  H14 FWS d   1      45.316 166.343  -3.404  0.00  0.00     0.091 H 
ATOM     45  C14 FWS d   1      45.847 164.670  -0.483  0.00  0.00     0.105 A 
ATOM     46  O17 FWS d   1      46.036 166.903  -0.622  0.00  0.00    -0.323 OA
ATOM     47  O15 FWS d   1      46.190 165.135   0.816  0.00  0.00    -0.323 OA
ATOM     48  C18 FWS d   1      45.608 163.327  -0.943  0.00  0.00    -0.046 A 
ATOM     49  C16 FWS d   1      46.095 166.574   0.762  0.00  0.00     0.115 C 
ATOM     50  H15 FWS d   1      46.978 167.035   1.229  0.00  0.00     0.118 H 
ATOM     51  H16 FWS d   1      45.186 166.918   1.277  0.00  0.00     0.118 H 
ATOM     52  C19 FWS d   1      45.280 163.132  -2.264  0.00  0.00    -0.054 A 
ATOM     53  H17 FWS d   1      45.685 162.487  -0.262  0.00  0.00     0.087 H 
ATOM     54  H18 FWS d   1      45.088 162.127  -2.622  0.00  0.00     0.087 H 
ENDBRANCH   9  41
TORSDOF 4
