REMARK  8 active torsions:
REMARK  status: ('A' for Active; 'I' for Inactive)
REMARK    1  A    between atoms: O02_9  and  C01_8 
REMARK    2  A    between atoms: C03_10  and  O02_9 
REMARK    3  A    between atoms: C05_12  and  O31_31 
REMARK    4  A    between atoms: C07_14  and  C06_13 
REMARK    5  A    between atoms: C08_15  and  C07_14 
REMARK       I    between atoms: N10_17  and  C08_15 
REMARK    6  A    between atoms: S16_22  and  N13_20 
REMARK    7  A    between atoms: S16_22  and  C19_25 
REMARK    8  A    between atoms: O31_31  and  C32_32 
ROOT
ATOM      1  C15 FWP d   1      14.682 -43.886   3.014  0.00  0.00     0.013 C 
ATOM      2  C08 FWP d   1      13.016 -43.583   1.238  0.00  0.00     0.224 C 
ATOM      3  O09 FWP d   1      12.048 -43.010   0.822  0.00  0.00    -0.273 OA
ATOM      4  N10 FWP d   1      13.534 -43.261   2.485  0.00  0.00    -0.349 N 
ATOM      5  C11 FWP d   1      12.987 -42.260   3.289  0.00  0.00     0.013 C 
ATOM      6  C12 FWP d   1      14.000 -41.140   3.329  0.00  0.00     0.020 C 
ATOM      7  N13 FWP d   1      15.279 -41.644   3.772  0.00  0.00    -0.304 N 
ATOM      8  C14 FWP d   1      15.773 -42.856   3.155  0.00  0.00     0.020 C 
ATOM      9  H1  FWP d   1      15.014 -44.686   2.335  0.00  0.00     0.066 H 
ATOM     10  H2  FWP d   1      14.449 -44.315   4.000  0.00  0.00     0.066 H 
ATOM     11  H14 FWP d   1      12.805 -42.644   4.303  0.00  0.00     0.066 H 
ATOM     12  H15 FWP d   1      12.041 -41.901   2.858  0.00  0.00     0.066 H 
ATOM     13  H16 FWP d   1      13.655 -40.362   4.025  0.00  0.00     0.067 H 
ATOM     14  H17 FWP d   1      14.107 -40.710   2.322  0.00  0.00     0.067 H 
ATOM     15  H18 FWP d   1      16.168 -42.614   2.157  0.00  0.00     0.067 H 
ATOM     16  H19 FWP d   1      16.579 -43.272   3.778  0.00  0.00     0.067 H 
ENDROOT
BRANCH   2  17
ATOM     17  C07 FWP d   1      13.706 -44.674   0.437  0.00  0.00     0.036 C 
ATOM     18  H12 FWP d   1      14.700 -44.312   0.134  0.00  0.00     0.054 H 
ATOM     19  H13 FWP d   1      13.819 -45.561   1.078  0.00  0.00     0.054 H 
BRANCH  17  20
ATOM     20  C06 FWP d   1      12.926 -45.077  -0.825  0.00  0.00    -0.016 A 
ATOM     21  C05 FWP d   1      11.630 -45.572  -0.696  0.00  0.00     0.077 A 
ATOM     22  C04 FWP d   1      10.913 -45.946  -1.841  0.00  0.00    -0.018 A 
ATOM     23  C03 FWP d   1      11.497 -45.813  -3.090  0.00  0.00     0.070 A 
ATOM     24  H11 FWP d   1       9.906 -46.337  -1.749  0.00  0.00     0.092 H 
ATOM     25  C30 FWP d   1      12.819 -45.313  -3.212  0.00  0.00    -0.050 A 
ATOM     26  C29 FWP d   1      13.525 -44.947  -2.082  0.00  0.00    -0.071 A 
ATOM     27  H22 FWP d   1      13.275 -45.218  -4.191  0.00  0.00     0.087 H 
ATOM     28  H21 FWP d   1      14.535 -44.562  -2.169  0.00  0.00     0.084 H 
BRANCH  21  29
ATOM     29  O31 FWP d   1      11.051 -45.697   0.611  0.00  0.00    -0.355 OA
BRANCH  29  30
ATOM     30  C32 FWP d   1       9.617 -45.927   0.630  0.00  0.00     0.010 C 
ATOM     31  H23 FWP d   1       9.272 -46.008   1.671  0.00  0.00     0.066 H 
ATOM     32  H24 FWP d   1       9.388 -46.860   0.095  0.00  0.00     0.066 H 
ATOM     33  H25 FWP d   1       9.104 -45.087   0.138  0.00  0.00     0.066 H 
ENDBRANCH  29  30
ENDBRANCH  21  29
BRANCH  23  34
ATOM     34  O02 FWP d   1      10.779 -46.192  -4.246  0.00  0.00    -0.356 OA
BRANCH  34  35
ATOM     35  C01 FWP d   1      11.486 -46.005  -5.460  0.00  0.00     0.010 C 
ATOM     36  H8  FWP d   1      10.856 -46.324  -6.304  0.00  0.00     0.066 H 
ATOM     37  H9  FWP d   1      12.408 -46.605  -5.444  0.00  0.00     0.066 H 
ATOM     38  H10 FWP d   1      11.742 -44.941  -5.575  0.00  0.00     0.066 H 
ENDBRANCH  34  35
ENDBRANCH  23  34
ENDBRANCH  17  20
ENDBRANCH   2  17
BRANCH   7  39
ATOM     39  S16 FWP d   1      16.353 -40.582   4.539  0.00  0.00     0.261 S 
ATOM     40  O17 FWP d   1      15.655 -39.925   5.618  0.00  0.00    -0.200 OA
ATOM     41  O18 FWP d   1      17.390 -41.362   5.195  0.00  0.00    -0.200 OA
BRANCH  39  42
ATOM     42  C19 FWP d   1      16.939 -39.352   3.385  0.00  0.00     0.090 A 
ATOM     43  C20 FWP d   1      18.010 -39.608   2.476  0.00  0.00     0.000 A 
ATOM     44  C21 FWP d   1      18.689 -40.879   2.419  0.00  0.00    -0.054 A 
ATOM     45  C25 FWP d   1      18.421 -38.627   1.604  0.00  0.00    -0.007 A 
ATOM     46  C22 FWP d   1      19.741 -41.067   1.519  0.00  0.00     0.003 A 
ATOM     47  H3  FWP d   1      18.384 -41.687   3.074  0.00  0.00     0.087 H 
ATOM     48  N23 FWP d   1      20.137 -40.071   0.664  0.00  0.00    -0.272 NA
ATOM     49  H4  FWP d   1      20.255 -42.021   1.496  0.00  0.00     0.114 H 
ATOM     50  C24 FWP d   1      19.511 -38.862   0.677  0.00  0.00     0.013 A 
ATOM     51  H5  FWP d   1      19.826 -38.078  -0.003  0.00  0.00     0.116 H 
ATOM     52  C26 FWP d   1      17.784 -37.368   1.610  0.00  0.00    -0.071 A 
ATOM     53  C27 FWP d   1      16.740 -37.119   2.494  0.00  0.00    -0.081 A 
ATOM     54  H6  FWP d   1      18.109 -36.594   0.924  0.00  0.00     0.084 H 
ATOM     55  C28 FWP d   1      16.314 -38.114   3.387  0.00  0.00    -0.059 A 
ATOM     56  H20 FWP d   1      16.253 -36.151   2.493  0.00  0.00     0.083 H 
ATOM     57  H7  FWP d   1      15.500 -37.916   4.075  0.00  0.00     0.085 H 
ENDBRANCH  39  42
ENDBRANCH   7  39
TORSDOF 8
