REMARK  4 active torsions:
REMARK  status: ('A' for Active; 'I' for Inactive)
REMARK    1  A    between atoms: C02_9  and  C03_10 
REMARK       I    between atoms: N10_17  and  C02_9 
REMARK    2  A    between atoms: C03_10  and  C04_11 
REMARK    3  A    between atoms: S16_22  and  N13_20 
REMARK    4  A    between atoms: S16_22  and  C19_25 
ROOT
ATOM      1  C15 FWM d   1     134.220  15.494   4.480  0.00  0.00     0.009 C 
ATOM      2  O01 FWM d   1     134.687  12.106   3.672  0.00  0.00    -0.273 OA
ATOM      3  C02 FWM d   1     134.897  13.274   3.738  0.00  0.00     0.220 C 
ATOM      4  N10 FWM d   1     133.979  14.087   4.402  0.00  0.00    -0.350 N 
ATOM      5  C11 FWM d   1     132.827  13.523   4.964  0.00  0.00     0.009 C 
ATOM      6  C12 FWM d   1     131.627  14.409   5.106  0.00  0.00     0.008 C 
ATOM      7  N13 FWM d   1     131.902  15.848   5.093  0.00  0.00    -0.203 NA
ATOM      8  C14 FWM d   1     133.261  16.214   5.345  0.00  0.00     0.008 C 
ATOM      9  H1  FWM d   1     134.156  15.914   3.466  0.00  0.00     0.066 H 
ATOM     10  H2  FWM d   1     135.233  15.651   4.879  0.00  0.00     0.066 H 
ATOM     11  H21 FWM d   1     133.092  13.162   5.969  0.00  0.00     0.066 H 
ATOM     12  H22 FWM d   1     132.535  12.670   4.333  0.00  0.00     0.066 H 
ATOM     13  H23 FWM d   1     131.137  14.166   6.060  0.00  0.00     0.059 H 
ATOM     14  H24 FWM d   1     130.941  14.187   4.275  0.00  0.00     0.059 H 
ATOM     15  H25 FWM d   1     133.372  17.294   5.169  0.00  0.00     0.059 H 
ATOM     16  H26 FWM d   1     133.497  15.987   6.395  0.00  0.00     0.059 H 
ENDROOT
BRANCH   3  17
ATOM     17  C03 FWM d   1     136.171  13.922   3.115  0.00  0.00     0.013 C 
ATOM     18  H8  FWM d   1     137.060  13.404   3.504  0.00  0.00     0.047 H 
ATOM     19  H9  FWM d   1     136.209  14.982   3.405  0.00  0.00     0.047 H 
BRANCH  17  20
ATOM     20  C04 FWM d   1     136.171  13.827   1.602  0.00  0.00    -0.046 C 
ATOM     21  C05 FWM d   1     134.801  14.206   1.063  0.00  0.00    -0.061 C 
ATOM     22  C06 FWM d   1     134.741  14.321  -0.460  0.00  0.00    -0.065 C 
ATOM     23  H11 FWM d   1     134.516  15.177   1.494  0.00  0.00     0.033 H 
ATOM     24  H12 FWM d   1     134.080  13.438   1.380  0.00  0.00     0.033 H 
ATOM     25  C07 FWM d   1     136.124  14.226  -1.123  0.00  0.00    -0.065 C 
ATOM     26  H13 FWM d   1     134.293  15.291  -0.721  0.00  0.00     0.033 H 
ATOM     27  H14 FWM d   1     134.109  13.509  -0.849  0.00  0.00     0.033 H 
ATOM     28  C08 FWM d   1     137.140  15.082  -0.407  0.00  0.00    -0.065 C 
ATOM     29  H15 FWM d   1     136.044  14.564  -2.167  0.00  0.00     0.033 H 
ATOM     30  H16 FWM d   1     136.460  13.179  -1.101  0.00  0.00     0.033 H 
ATOM     31  C09 FWM d   1     137.330  14.676   1.052  0.00  0.00    -0.061 C 
ATOM     32  H17 FWM d   1     136.804  16.129  -0.440  0.00  0.00     0.033 H 
ATOM     33  H18 FWM d   1     138.106  14.991  -0.926  0.00  0.00     0.033 H 
ATOM     34  H19 FWM d   1     138.260  14.094   1.134  0.00  0.00     0.033 H 
ATOM     35  H20 FWM d   1     137.414  15.588   1.660  0.00  0.00     0.033 H 
ATOM     36  H10 FWM d   1     136.360  12.781   1.317  0.00  0.00     0.040 H 
ENDBRANCH  17  20
ENDBRANCH   3  17
BRANCH   7  37
ATOM     37  S16 FWM d   1     130.781  16.813   5.936  0.00  0.00     0.244 S 
ATOM     38  O17 FWM d   1     131.491  17.900   6.571  0.00  0.00    -0.206 OA
ATOM     39  O18 FWM d   1     130.180  16.088   7.058  0.00  0.00    -0.206 OA
BRANCH  37  40
ATOM     40  C19 FWM d   1     129.482  17.388   4.798  0.00  0.00     0.086 A 
ATOM     41  C20 FWM d   1     129.735  18.462   3.897  0.00  0.00    -0.000 A 
ATOM     42  C21 FWM d   1     131.000  19.123   3.846  0.00  0.00    -0.054 A 
ATOM     43  C25 FWM d   1     128.728  18.887   3.042  0.00  0.00    -0.007 A 
ATOM     44  C22 FWM d   1     131.200  20.196   2.949  0.00  0.00     0.003 A 
ATOM     45  H3  FWM d   1     131.806  18.802   4.495  0.00  0.00     0.087 H 
ATOM     46  N23 FWM d   1     130.197  20.600   2.116  0.00  0.00    -0.272 NA
ATOM     47  H4  FWM d   1     132.158  20.703   2.922  0.00  0.00     0.114 H 
ATOM     48  C24 FWM d   1     128.961  19.970   2.129  0.00  0.00     0.013 A 
ATOM     49  H5  FWM d   1     128.177  20.293   1.454  0.00  0.00     0.116 H 
ATOM     50  C26 FWM d   1     127.433  18.226   3.067  0.00  0.00    -0.071 A 
ATOM     51  C27 FWM d   1     127.199  17.182   3.933  0.00  0.00    -0.081 A 
ATOM     52  H6  FWM d   1     126.646  18.558   2.399  0.00  0.00     0.084 H 
ATOM     53  C28 FWM d   1     128.227  16.748   4.822  0.00  0.00    -0.060 A 
ATOM     54  H27 FWM d   1     126.233  16.689   3.939  0.00  0.00     0.083 H 
ATOM     55  H7  FWM d   1     128.044  15.931   5.511  0.00  0.00     0.085 H 
ENDBRANCH  37  40
ENDBRANCH   7  37
TORSDOF 4
