REMARK  4 active torsions:
REMARK  status: ('A' for Active; 'I' for Inactive)
REMARK    1  A    between atoms: S15_20  and  N12_2 
REMARK    2  A    between atoms: C06_14  and  C05_13 
REMARK    3  A    between atoms: C07_15  and  C06_14 
REMARK       I    between atoms: N09_17  and  C07_15 
REMARK    4  A    between atoms: C18_23  and  S15_20 
ROOT
ATOM      1  C10 FWJ d   1     120.069   1.781  -6.320  0.00  0.00     0.013 C 
ATOM      2  N12 FWJ d   1     117.784   2.600  -6.208  0.00  0.00    -0.304 N 
ATOM      3  C13 FWJ d   1     117.325   1.354  -5.641  0.00  0.00     0.020 C 
ATOM      4  C07 FWJ d   1     120.500  -0.400  -5.176  0.00  0.00     0.224 C 
ATOM      5  O08 FWJ d   1     121.604  -0.097  -5.029  0.00  0.00    -0.273 OA
ATOM      6  N09 FWJ d   1     119.611   0.520  -5.840  0.00  0.00    -0.349 N 
ATOM      7  C11 FWJ d   1     119.149   2.941  -5.923  0.00  0.00     0.020 C 
ATOM      8  C14 FWJ d   1     118.270   0.208  -6.054  0.00  0.00     0.013 C 
ATOM      9  H1  FWJ d   1     120.127   1.739  -7.418  0.00  0.00     0.066 H 
ATOM     10  H2  FWJ d   1     121.071   1.971  -5.907  0.00  0.00     0.066 H 
ATOM     11  H3  FWJ d   1     116.310   1.139  -6.007  0.00  0.00     0.067 H 
ATOM     12  H4  FWJ d   1     117.310   1.436  -4.544  0.00  0.00     0.067 H 
ATOM     13  H13 FWJ d   1     119.427   3.839  -6.493  0.00  0.00     0.067 H 
ATOM     14  H14 FWJ d   1     119.258   3.142  -4.847  0.00  0.00     0.067 H 
ATOM     15  H15 FWJ d   1     118.123  -0.003  -7.124  0.00  0.00     0.066 H 
ATOM     16  H16 FWJ d   1     118.018  -0.687  -5.466  0.00  0.00     0.066 H 
ENDROOT
BRANCH   2  17
ATOM     17  S15 FWJ d   1     116.792   3.617  -7.055  0.00  0.00     0.261 S 
ATOM     18  O16 FWJ d   1     117.514   4.192  -8.215  0.00  0.00    -0.200 OA
ATOM     19  O17 FWJ d   1     115.758   2.868  -7.630  0.00  0.00    -0.200 OA
BRANCH  17  20
ATOM     20  C18 FWJ d   1     116.221   4.931  -5.994  0.00  0.00     0.090 A 
ATOM     21  C19 FWJ d   1     115.103   4.711  -5.036  0.00  0.00     0.000 A 
ATOM     22  C20 FWJ d   1     114.439   3.449  -4.906  0.00  0.00    -0.054 A 
ATOM     23  C24 FWJ d   1     114.696   5.739  -4.233  0.00  0.00    -0.007 A 
ATOM     24  C21 FWJ d   1     113.387   3.297  -3.995  0.00  0.00     0.003 A 
ATOM     25  H5  FWJ d   1     114.752   2.609  -5.515  0.00  0.00     0.087 H 
ATOM     26  N22 FWJ d   1     112.985   4.349  -3.192  0.00  0.00    -0.272 NA
ATOM     27  H6  FWJ d   1     112.880   2.342  -3.918  0.00  0.00     0.114 H 
ATOM     28  C23 FWJ d   1     113.596   5.544  -3.282  0.00  0.00     0.013 A 
ATOM     29  H17 FWJ d   1     113.275   6.365  -2.651  0.00  0.00     0.116 H 
ATOM     30  C25 FWJ d   1     115.354   7.033  -4.321  0.00  0.00    -0.071 A 
ATOM     31  C26 FWJ d   1     116.446   7.244  -5.269  0.00  0.00    -0.081 A 
ATOM     32  H18 FWJ d   1     115.033   7.846  -3.680  0.00  0.00     0.084 H 
ATOM     33  C27 FWJ d   1     116.861   6.200  -6.085  0.00  0.00    -0.059 A 
ATOM     34  H7  FWJ d   1     116.930   8.212  -5.335  0.00  0.00     0.083 H 
ATOM     35  H19 FWJ d   1     117.671   6.351  -6.790  0.00  0.00     0.085 H 
ENDBRANCH  17  20
ENDBRANCH   2  17
BRANCH   4  36
ATOM     36  C06 FWJ d   1     119.974  -1.733  -4.695  0.00  0.00     0.033 C 
ATOM     37  H11 FWJ d   1     119.080  -1.999  -5.278  0.00  0.00     0.054 H 
ATOM     38  H12 FWJ d   1     120.749  -2.500  -4.842  0.00  0.00     0.054 H 
BRANCH  36  39
ATOM     39  C05 FWJ d   1     119.606  -1.673  -3.218  0.00  0.00    -0.049 A 
ATOM     40  C28 FWJ d   1     120.229  -0.730  -2.431  0.00  0.00    -0.073 A 
ATOM     41  C29 FWJ d   1     119.914  -0.628  -1.025  0.00  0.00    -0.045 A 
ATOM     42  H8  FWJ d   1     120.960  -0.060  -2.869  0.00  0.00     0.084 H 
ATOM     43  C02 FWJ d   1     119.005  -1.462  -0.480  0.00  0.00     0.116 A 
ATOM     44  H20 FWJ d   1     120.407   0.116  -0.410  0.00  0.00     0.088 H 
ATOM     45  F01 FWJ d   1     118.740  -1.344   0.799  0.00  0.00    -0.206 F 
ATOM     46  C03 FWJ d   1     118.350  -2.451  -1.287  0.00  0.00    -0.045 A 
ATOM     47  C04 FWJ d   1     118.653  -2.546  -2.658  0.00  0.00    -0.073 A 
ATOM     48  H9  FWJ d   1     117.624  -3.123  -0.842  0.00  0.00     0.088 H 
ATOM     49  H10 FWJ d   1     118.157  -3.284  -3.278  0.00  0.00     0.084 H 
ENDBRANCH  36  39
ENDBRANCH   4  36
TORSDOF 4
