REMARK  8 active torsions:
REMARK  status: ('A' for Active; 'I' for Inactive)
REMARK    1  A    between atoms: C4_3  and  N_16 
REMARK    2  A    between atoms: C3_27  and  C4_3 
REMARK    3  A    between atoms: C5_4  and  N4_31 
REMARK    4  A    between atoms: C7_6  and  C12_20 
REMARK    5  A    between atoms: C13_9  and  C14_21 
REMARK    6  A    between atoms: C15_10  and  C16_22 
REMARK    7  A    between atoms: C22_14  and  C23_26 
REMARK    8  A    between atoms: C1_18  and  C_17 
ROOT
ATOM      1  N1  FVJ d   1      36.529  29.392  23.389  0.00  0.00    -0.217 NA
ATOM      2  C5  FVJ d   1      35.647  28.944  22.477  0.00  0.00     0.185 A 
ATOM      3  C6  FVJ d   1      35.729  29.857  24.458  0.00  0.00     0.098 A 
ATOM      4  C7  FVJ d   1      36.116  30.464  25.652  0.00  0.00     0.011 A 
ATOM      5  C8  FVJ d   1      35.110  30.788  26.557  0.00  0.00    -0.049 A 
ATOM      6  C10 FVJ d   1      33.333  29.956  25.068  0.00  0.00    -0.034 A 
ATOM      7  N   FVJ d   1      34.303  29.111  22.886  0.00  0.00    -0.315 N 
ATOM      8  C11 FVJ d   1      34.361  29.648  24.176  0.00  0.00     0.068 A 
ATOM      9  C9  FVJ d   1      33.766  30.509  26.247  0.00  0.00     0.037 A 
ATOM     10 CL   FVJ d   1      32.555  30.843  27.465  0.00  0.00    -0.084 Cl
ATOM     11  H3  FVJ d   1      35.362  31.256  27.502  0.00  0.00     0.087 H 
ATOM     12  H4  FVJ d   1      32.287  29.775  24.849  0.00  0.00     0.089 H 
ENDROOT
BRANCH   7  13
ATOM     13  C4  FVJ d   1      33.073  28.994  22.109  0.00  0.00     0.026 C 
ATOM     14  H1  FVJ d   1      32.218  28.875  22.791  0.00  0.00     0.072 H 
ATOM     15  H2  FVJ d   1      33.139  28.118  21.447  0.00  0.00     0.072 H 
BRANCH  13  16
ATOM     16  C3  FVJ d   1      32.881  30.269  21.260  0.00  0.00    -0.039 A 
ATOM     17  C21 FVJ d   1      31.947  30.265  20.230  0.00  0.00    -0.067 A 
ATOM     18  C22 FVJ d   1      31.716  31.429  19.493  0.00  0.00    -0.022 A 
ATOM     19  H9  FVJ d   1      31.398  29.359  19.999  0.00  0.00     0.085 H 
ATOM     20  C24 FVJ d   1      32.440  32.595  19.809  0.00  0.00     0.128 A 
ATOM     21  C1  FVJ d   1      33.376  32.630  20.833  0.00  0.00    -0.022 A 
ATOM     22  F   FVJ d   1      32.219  33.694  19.086  0.00  0.00    -0.205 F 
ATOM     23  C2  FVJ d   1      33.604  31.455  21.555  0.00  0.00    -0.067 A 
ATOM     24  H23 FVJ d   1      34.341  31.449  22.349  0.00  0.00     0.085 H 
BRANCH  18  25
ATOM     25  C23 FVJ d   1      30.706  31.467  18.395  0.00  0.00    -0.048 C 
ATOM     26  H24 FVJ d   1      30.242  30.475  18.289  0.00  0.00     0.033 H 
ATOM     27  H25 FVJ d   1      31.200  31.743  17.452  0.00  0.00     0.033 H 
ATOM     28  H26 FVJ d   1      29.931  32.210  18.635  0.00  0.00     0.033 H 
ENDBRANCH  18  25
BRANCH  21  29
ATOM     29  C   FVJ d   1      34.091  33.917  21.144  0.00  0.00    -0.048 C 
ATOM     30  H10 FVJ d   1      34.790  33.756  21.978  0.00  0.00     0.033 H 
ATOM     31  H11 FVJ d   1      33.356  34.686  21.424  0.00  0.00     0.033 H 
ATOM     32  H12 FVJ d   1      34.650  34.250  20.257  0.00  0.00     0.033 H 
ENDBRANCH  21  29
ENDBRANCH  13  16
ENDBRANCH   7  13
BRANCH   2  33
ATOM     33  N4  FVJ d   1      35.900  28.335  21.212  0.00  0.00    -0.250 NA
ATOM     34  C17 FVJ d   1      37.291  28.554  20.772  0.00  0.00     0.009 C 
ATOM     35  C18 FVJ d   1      37.356  28.186  19.277  0.00  0.00     0.093 C 
ATOM     36  H5  FVJ d   1      37.570  29.609  20.914  0.00  0.00     0.059 H 
ATOM     37  H6  FVJ d   1      37.974  27.913  21.349  0.00  0.00     0.059 H 
ATOM     38  N5  FVJ d   1      36.919  26.783  19.030  0.00  0.00    -0.073 N 
ATOM     39  H19 FVJ d   1      38.392  28.302  18.927  0.00  0.00     0.077 H 
ATOM     40  H20 FVJ d   1      36.700  28.867  18.714  0.00  0.00     0.077 H 
ATOM     41  C19 FVJ d   1      35.601  26.459  19.628  0.00  0.00     0.093 C 
ATOM     42  H28 FVJ d   1      37.608  26.161  19.422  0.00  0.00     0.277 HD
ATOM     43  H29 FVJ d   1      36.862  26.637  18.034  0.00  0.00     0.277 HD
ATOM     44  C20 FVJ d   1      35.541  26.898  21.099  0.00  0.00     0.009 C 
ATOM     45  H21 FVJ d   1      34.813  26.980  19.065  0.00  0.00     0.077 H 
ATOM     46  H22 FVJ d   1      35.437  25.373  19.570  0.00  0.00     0.077 H 
ATOM     47  H7  FVJ d   1      36.250  26.297  21.688  0.00  0.00     0.059 H 
ATOM     48  H8  FVJ d   1      34.522  26.745  21.484  0.00  0.00     0.059 H 
ENDBRANCH   2  33
BRANCH   4  49
ATOM     49  C12 FVJ d   1      37.505  30.794  25.880  0.00  0.00     0.026 A 
ATOM     50  C13 FVJ d   1      38.291  31.768  25.165  0.00  0.00     0.037 A 
ATOM     51  N2  FVJ d   1      39.582  31.748  25.615  0.00  0.00    -0.282 N 
ATOM     52  N3  FVJ d   1      39.607  30.797  26.599  0.00  0.00    -0.179 NA
ATOM     53  H27 FVJ d   1      40.368  32.325  25.284  0.00  0.00     0.189 HD
ATOM     54  C15 FVJ d   1      38.376  30.197  26.799  0.00  0.00     0.064 A 
BRANCH  50  55
ATOM     55  C14 FVJ d   1      37.828  32.696  24.118  0.00  0.00    -0.035 C 
ATOM     56  H13 FVJ d   1      38.673  33.310  23.773  0.00  0.00     0.035 H 
ATOM     57  H14 FVJ d   1      37.043  33.349  24.528  0.00  0.00     0.035 H 
ATOM     58  H15 FVJ d   1      37.422  32.122  23.272  0.00  0.00     0.035 H 
ENDBRANCH  50  55
BRANCH  54  59
ATOM     59  C16 FVJ d   1      38.128  29.154  27.805  0.00  0.00    -0.033 C 
ATOM     60  H16 FVJ d   1      37.073  28.846  27.761  0.00  0.00     0.035 H 
ATOM     61  H17 FVJ d   1      38.353  29.550  28.806  0.00  0.00     0.035 H 
ATOM     62  H18 FVJ d   1      38.773  28.286  27.600  0.00  0.00     0.035 H 
ENDBRANCH  54  59
ENDBRANCH   4  49
TORSDOF 8
