REMARK  2 active torsions:
REMARK  status: ('A' for Active; 'I' for Inactive)
REMARK    1  A    between atoms: C07_13  and  N02_8 
REMARK    2  A    between atoms: C07_13  and  C09_15 
ROOT
ATOM      1  C13 FVV d   1      35.805  28.218  20.876  0.00  0.00    -0.054 A 
ATOM      2  C20 FVV d   1      37.148  27.990  20.598  0.00  0.00    -0.081 A 
ATOM      3  C21 FVV d   1      38.121  28.282  21.541  0.00  0.00    -0.081 A 
ATOM      4  C01 FVV d   1      34.433  29.603  24.049  0.00  0.00     0.683 A 
ATOM      5  N02 FVV d   1      34.263  29.067  22.641  0.00  0.00    -0.177 N 
ATOM      6  N03 FVV d   1      35.832  29.554  24.204  0.00  0.00    -0.181 N 
ATOM      7  C04 FVV d   1      35.510  28.749  22.135  0.00  0.00     0.079 A 
ATOM      8  C05 FVV d   1      36.460  29.041  23.067  0.00  0.00     0.079 A 
ATOM      9  N06 FVV d   1      33.581  30.015  24.906  0.00  0.00    -0.226 N 
ATOM     10  C08 FVV d   1      36.488  29.980  25.426  0.00  0.00     0.018 C 
ATOM     11  C12 FVV d   1      34.059  30.486  26.197  0.00  0.00     0.011 C 
ATOM     12  C14 FVV d   1      37.812  28.813  22.797  0.00  0.00    -0.054 A 
ATOM     13  C19 FVV d   1      35.544  30.847  26.267  0.00  0.00    -0.034 C 
ATOM     14  H1  FVV d   1      35.027  27.996  20.154  0.00  0.00     0.087 H 
ATOM     15  H4  FVV d   1      37.436  27.581  19.637  0.00  0.00     0.083 H 
ATOM     16  H5  FVV d   1      39.160  28.092  21.296  0.00  0.00     0.083 H 
ATOM     17  H6  FVV d   1      32.574  30.014  24.688  0.00  0.00     0.177 HD
ATOM     18  H9  FVV d   1      37.385  30.564  25.171  0.00  0.00     0.065 H 
ATOM     19  H10 FVV d   1      36.780  29.094  26.008  0.00  0.00     0.065 H 
ATOM     20  H11 FVV d   1      33.869  29.694  26.936  0.00  0.00     0.064 H 
ATOM     21  H12 FVV d   1      33.481  31.383  26.464  0.00  0.00     0.064 H 
ATOM     22  H13 FVV d   1      38.583  29.037  23.525  0.00  0.00     0.087 H 
ATOM     23  H16 FVV d   1      35.653  31.888  25.929  0.00  0.00     0.037 H 
ATOM     24  H17 FVV d   1      35.860  30.767  27.317  0.00  0.00     0.037 H 
ENDROOT
BRANCH   5  25
ATOM     25  C07 FVV d   1      33.028  28.851  21.920  0.00  0.00     0.041 C 
ATOM     26  H7  FVV d   1      32.221  28.684  22.649  0.00  0.00     0.073 H 
ATOM     27  H8  FVV d   1      33.142  27.957  21.289  0.00  0.00     0.073 H 
BRANCH  25  28
ATOM     28  C09 FVV d   1      32.647  30.014  21.040  0.00  0.00    -0.039 A 
ATOM     29  C15 FVV d   1      32.704  31.312  21.538  0.00  0.00    -0.072 A 
ATOM     30  C18 FVV d   1      32.343  32.389  20.738  0.00  0.00    -0.045 A 
ATOM     31  H2  FVV d   1      33.032  31.484  22.557  0.00  0.00     0.084 H 
ATOM     32  C10 FVV d   1      31.924  32.149  19.439  0.00  0.00     0.116 A 
ATOM     33  H15 FVV d   1      32.388  33.401  21.124  0.00  0.00     0.088 H 
ATOM     34  C17 FVV d   1      31.849  30.863  18.921  0.00  0.00    -0.045 A 
ATOM     35  F11 FVV d   1      31.578  33.185  18.674  0.00  0.00    -0.206 F 
ATOM     36  C16 FVV d   1      32.210  29.782  19.723  0.00  0.00    -0.072 A 
ATOM     37  H3  FVV d   1      31.513  30.701  17.903  0.00  0.00     0.088 H 
ATOM     38  H14 FVV d   1      32.155  28.771  19.335  0.00  0.00     0.084 H 
ENDBRANCH  25  28
ENDBRANCH   5  25
TORSDOF 2
