REMARK  5 active torsions:
REMARK  status: ('A' for Active; 'I' for Inactive)
REMARK    1  A    between atoms: C02_2  and  C01_1 
REMARK    2  A    between atoms: O03_20  and  C02_2 
REMARK    3  A    between atoms: C06_4  and  C04_3 
REMARK    4  A    between atoms: C04_3  and  O03_20 
REMARK    5  A    between atoms: N09_17  and  C22_15 
ROOT
ATOM      1  C06 FYP d   1     121.409 170.541 153.157  0.00  0.00     0.157 A 
ATOM      2  C07 FYP d   1     120.383 169.819 153.659  0.00  0.00     0.070 A 
ATOM      3  C08 FYP d   1     119.836 169.458 154.977  0.00  0.00     0.038 C 
ATOM      4  C10 FYP d   1     119.531 167.068 154.538  0.00  0.00     0.256 C 
ATOM      5  C12 FYP d   1     118.501 167.446 153.545  0.00  0.00     0.062 A 
ATOM      6  C13 FYP d   1     118.577 168.484 152.640  0.00  0.00     0.056 A 
ATOM      7  C15 FYP d   1     120.380 169.748 151.477  0.00  0.00     0.072 A 
ATOM      8  C17 FYP d   1     117.534 168.748 151.767  0.00  0.00    -0.053 A 
ATOM      9  C18 FYP d   1     116.414 167.959 151.799  0.00  0.00    -0.043 A 
ATOM     10  C19 FYP d   1     116.368 166.948 152.702  0.00  0.00     0.117 A 
ATOM     11  C20 FYP d   1     117.355 166.662 153.567  0.00  0.00    -0.028 A 
ATOM     12  F21 FYP d   1     115.264 166.168 152.744  0.00  0.00    -0.206 F 
ATOM     13  N09 FYP d   1     120.127 168.059 155.199  0.00  0.00    -0.347 N 
ATOM     14  N14 FYP d   1     119.723 169.308 152.582  0.00  0.00    -0.305 N 
ATOM     15  N16 FYP d   1     121.400 170.497 151.777  0.00  0.00    -0.235 NA
ATOM     16  O11 FYP d   1     119.767 165.895 154.716  0.00  0.00    -0.267 OA
ATOM     17  H6  FYP d   1     118.748 169.622 154.990  0.00  0.00     0.074 H 
ATOM     18  H7  FYP d   1     120.309 170.069 155.760  0.00  0.00     0.074 H 
ATOM     19  H8  FYP d   1     120.086 169.502 150.458  0.00  0.00     0.144 H 
ATOM     20  H9  FYP d   1     117.603 169.571 151.065  0.00  0.00     0.087 H 
ATOM     21  H10 FYP d   1     115.587 168.138 151.121  0.00  0.00     0.088 H 
ATOM     22  H11 FYP d   1     117.259 165.839 154.266  0.00  0.00     0.089 H 
ENDROOT
BRANCH   1  23
ATOM     23  C04 FYP d   1     122.461 171.329 153.807  0.00  0.00     0.314 C 
ATOM     24  O05 FYP d   1     122.980 172.286 153.308  0.00  0.00    -0.257 OA
BRANCH  23  25
ATOM     25  O03 FYP d   1     122.779 170.882 155.013  0.00  0.00    -0.317 OA
BRANCH  25  26
ATOM     26  C02 FYP d   1     123.607 171.774 155.817  0.00  0.00     0.026 C 
ATOM     27  H4  FYP d   1     124.517 172.048 155.264  0.00  0.00     0.074 H 
ATOM     28  H5  FYP d   1     123.046 172.685 156.074  0.00  0.00     0.074 H 
BRANCH  26  29
ATOM     29  C01 FYP d   1     123.962 171.026 157.050  0.00  0.00    -0.056 C 
ATOM     30  H1  FYP d   1     124.590 171.659 157.695  0.00  0.00     0.030 H 
ATOM     31  H2  FYP d   1     124.515 170.115 156.780  0.00  0.00     0.030 H 
ATOM     32  H3  FYP d   1     123.044 170.751 157.589  0.00  0.00     0.030 H 
ENDBRANCH  26  29
ENDBRANCH  25  26
ENDBRANCH  23  25
ENDBRANCH   1  23
BRANCH  13  33
ATOM     33  C22 FYP d   1     121.140 167.721 156.187  0.00  0.00    -0.015 C 
ATOM     34  H12 FYP d   1     121.248 166.628 156.242  0.00  0.00     0.056 H 
ATOM     35  H13 FYP d   1     120.837 168.109 157.171  0.00  0.00     0.056 H 
ATOM     36  H14 FYP d   1     122.101 168.170 155.895  0.00  0.00     0.056 H 
ENDBRANCH  13  33
TORSDOF 5
