REMARK  5 active torsions:
REMARK  status: ('A' for Active; 'I' for Inactive)
REMARK    1  A    between atoms: C02_2  and  C01_1 
REMARK    2  A    between atoms: O03_20  and  C02_2 
REMARK    3  A    between atoms: C06_4  and  C04_3 
REMARK    4  A    between atoms: C04_3  and  O03_20 
REMARK    5  A    between atoms: N09_17  and  C22_15 
ROOT
ATOM      1  C06 FYP d   1     121.600 169.358 153.087  0.00  0.00     0.157 A 
ATOM      2  C07 FYP d   1     120.643 168.567 153.627  0.00  0.00     0.070 A 
ATOM      3  C08 FYP d   1     120.250 168.071 154.957  0.00  0.00     0.038 C 
ATOM      4  C10 FYP d   1     119.673 165.746 154.360  0.00  0.00     0.256 C 
ATOM      5  C12 FYP d   1     118.645 166.235 153.411  0.00  0.00     0.062 A 
ATOM      6  C13 FYP d   1     118.731 167.347 152.601  0.00  0.00     0.056 A 
ATOM      7  C15 FYP d   1     120.390 168.742 151.465  0.00  0.00     0.072 A 
ATOM      8  C17 FYP d   1     117.702 167.702 151.749  0.00  0.00    -0.053 A 
ATOM      9  C18 FYP d   1     116.575 166.933 151.702  0.00  0.00    -0.043 A 
ATOM     10  C19 FYP d   1     116.507 165.841 152.505  0.00  0.00     0.117 A 
ATOM     11  C20 FYP d   1     117.490 165.463 153.346  0.00  0.00    -0.028 A 
ATOM     12  F21 FYP d   1     115.386 165.081 152.460  0.00  0.00    -0.206 F 
ATOM     13  N09 FYP d   1     120.400 166.632 155.055  0.00  0.00    -0.347 N 
ATOM     14  N14 FYP d   1     119.864 168.179 152.577  0.00  0.00    -0.305 N 
ATOM     15  N16 FYP d   1     121.433 169.462 151.723  0.00  0.00    -0.235 NA
ATOM     16  O11 FYP d   1     119.808 164.547 154.459  0.00  0.00    -0.267 OA
ATOM     17  H6  FYP d   1     119.198 168.333 155.139  0.00  0.00     0.074 H 
ATOM     18  H7  FYP d   1     120.884 168.549 155.718  0.00  0.00     0.074 H 
ATOM     19  H8  FYP d   1     119.981 168.604 150.465  0.00  0.00     0.144 H 
ATOM     20  H9  FYP d   1     117.789 168.583 151.124  0.00  0.00     0.087 H 
ATOM     21  H10 FYP d   1     115.755 167.188 151.040  0.00  0.00     0.088 H 
ATOM     22  H11 FYP d   1     117.383 164.576 153.959  0.00  0.00     0.089 H 
ENDROOT
BRANCH   1  23
ATOM     23  C04 FYP d   1     122.732 170.104 153.645  0.00  0.00     0.314 C 
ATOM     24  O05 FYP d   1     123.411 170.832 152.983  0.00  0.00    -0.257 OA
BRANCH  23  25
ATOM     25  O03 FYP d   1     122.927 169.915 154.940  0.00  0.00    -0.317 OA
BRANCH  25  26
ATOM     26  C02 FYP d   1     123.809 170.881 155.587  0.00  0.00     0.026 C 
ATOM     27  H4  FYP d   1     124.723 171.020 154.991  0.00  0.00     0.074 H 
ATOM     28  H5  FYP d   1     123.296 171.847 155.701  0.00  0.00     0.074 H 
BRANCH  26  29
ATOM     29  C01 FYP d   1     124.146 170.317 156.921  0.00  0.00    -0.056 C 
ATOM     30  H1  FYP d   1     124.813 171.010 157.454  0.00  0.00     0.030 H 
ATOM     31  H2  FYP d   1     124.651 169.348 156.793  0.00  0.00     0.030 H 
ATOM     32  H3  FYP d   1     123.223 170.176 157.503  0.00  0.00     0.030 H 
ENDBRANCH  26  29
ENDBRANCH  25  26
ENDBRANCH  23  25
ENDBRANCH   1  23
BRANCH  13  33
ATOM     33  C22 FYP d   1     121.411 166.116 155.981  0.00  0.00    -0.015 C 
ATOM     34  H12 FYP d   1     121.410 165.017 155.949  0.00  0.00     0.056 H 
ATOM     35  H13 FYP d   1     121.179 166.453 157.002  0.00  0.00     0.056 H 
ATOM     36  H14 FYP d   1     122.403 166.491 155.688  0.00  0.00     0.056 H 
ENDBRANCH  13  33
TORSDOF 5
