REMARK  11 active torsions:
REMARK  status: ('A' for Active; 'I' for Inactive)
REMARK    1  A    between atoms: N3_15  and  C4_1 
REMARK    2  A    between atoms: C5_3  and  N3_15 
REMARK    3  A    between atoms: N6_32  and  C6_4 
REMARK    4  A    between atoms: C10_9  and  C11_5 
REMARK       I    between atoms: N6_32  and  C9_8 
REMARK    5  A    between atoms: C9_8  and  O2_35 
REMARK    6  A    between atoms: O2_35  and  C10_9 
REMARK    7  A    between atoms: N1_12  and  C1_16 
REMARK    8  A    between atoms: C17_19  and  N6_32 
REMARK    9  A    between atoms: N7_33  and  C21_24 
REMARK   10  A    between atoms: C23_26  and  C24_27 
REMARK       I    between atoms: C23_26  and  N7_33 
REMARK   11  A    between atoms: C24_27  and  C25_28 
ROOT
ATOM      1  C9  FZP d   1      -0.938 -51.422  24.539  0.00  0.00     0.373 C 
ATOM      2  N6  FZP d   1      -0.649 -51.654  23.243  0.00  0.00    -0.241 N 
ATOM      3  O1  FZP d   1      -1.963 -50.853  24.875  0.00  0.00    -0.237 OA
ENDROOT
BRANCH   2   4
ATOM      4  C6  FZP d   1       0.156 -52.739  22.817  0.00  0.00     0.159 A 
ATOM      5  C7  FZP d   1       0.659 -53.754  23.635  0.00  0.00    -0.020 A 
ATOM      6  C8  FZP d   1       1.447 -54.756  23.046  0.00  0.00     0.025 A 
ATOM      7  H1  FZP d   1       0.446 -53.768  24.698  0.00  0.00     0.091 H 
ATOM      8  N5  FZP d   1       1.705 -54.735  21.714  0.00  0.00    -0.075 NA
ATOM      9  H2  FZP d   1       1.852 -55.552  23.660  0.00  0.00     0.115 H 
ATOM     10  C5  FZP d   1       1.197 -53.742  20.927  0.00  0.00     0.730 A 
ATOM     11  N4  FZP d   1       0.436 -52.770  21.485  0.00  0.00    -0.044 NA
BRANCH  10  12
ATOM     12  N3  FZP d   1       1.426 -53.677  19.586  0.00  0.00    -0.169 N 
ATOM     13  H8  FZP d   1       2.114 -54.371  19.261  0.00  0.00     0.186 HD
BRANCH  12  14
ATOM     14  C4  FZP d   1       0.937 -52.884  18.568  0.00  0.00     0.164 A 
ATOM     15  N2  FZP d   1       1.435 -52.885  17.308  0.00  0.00    -0.155 NA
ATOM     16  N1  FZP d   1       0.603 -51.931  16.677  0.00  0.00    -0.283 N 
ATOM     17  C2  FZP d   1      -0.320 -51.403  17.509  0.00  0.00     0.002 A 
ATOM     18  C3  FZP d   1      -0.136 -52.010  18.748  0.00  0.00    -0.020 A 
ATOM     19  H16 FZP d   1      -1.064 -50.648  17.259  0.00  0.00     0.114 H 
ATOM     20  H7  FZP d   1      -0.706 -51.840  19.660  0.00  0.00     0.091 H 
BRANCH  16  21
ATOM     21  C1  FZP d   1       0.922 -51.716  15.235  0.00  0.00     0.002 C 
ATOM     22  H9  FZP d   1       0.236 -50.965  14.816  0.00  0.00     0.059 H 
ATOM     23  H10 FZP d   1       0.806 -52.664  14.688  0.00  0.00     0.059 H 
ATOM     24  H11 FZP d   1       1.959 -51.361  15.138  0.00  0.00     0.059 H 
ENDBRANCH  16  21
ENDBRANCH  12  14
ENDBRANCH  10  12
ENDBRANCH   2   4
BRANCH   2  25
ATOM     25  C17 FZP d   1      -1.376 -50.898  22.271  0.00  0.00     0.048 A 
ATOM     26  C18 FZP d   1      -0.788 -49.888  21.465  0.00  0.00    -0.056 A 
ATOM     27  C19 FZP d   1      -1.570 -49.179  20.545  0.00  0.00    -0.079 A 
ATOM     28  H14 FZP d   1       0.268 -49.665  21.562  0.00  0.00     0.086 H 
ATOM     29  C20 FZP d   1      -2.939 -49.448  20.409  0.00  0.00    -0.057 A 
ATOM     30  H15 FZP d   1      -1.111 -48.413  19.930  0.00  0.00     0.083 H 
ATOM     31  C21 FZP d   1      -3.549 -50.450  21.194  0.00  0.00     0.036 A 
ATOM     32  H17 FZP d   1      -3.532 -48.884  19.698  0.00  0.00     0.086 H 
ATOM     33  C22 FZP d   1      -2.762 -51.139  22.107  0.00  0.00    -0.031 A 
ATOM     34  H18 FZP d   1      -3.231 -51.897  22.724  0.00  0.00     0.090 H 
BRANCH  31  35
ATOM     35  N7  FZP d   1      -4.937 -50.766  21.146  0.00  0.00    -0.327 N 
ATOM     36  C23 FZP d   1      -5.780 -50.579  20.223  0.00  0.00     0.221 C 
ATOM     37  O3  FZP d   1      -5.393 -50.096  19.168  0.00  0.00    -0.273 OA
ATOM     38  H24 FZP d   1      -5.300 -51.203  21.969  0.00  0.00     0.169 HD
BRANCH  36  39
ATOM     39  C24 FZP d   1      -7.251 -50.961  20.325  0.00  0.00     0.006 C 
ATOM     40  H19 FZP d   1      -7.869 -50.074  20.123  0.00  0.00     0.046 H 
ATOM     41  H20 FZP d   1      -7.458 -51.329  21.341  0.00  0.00     0.046 H 
BRANCH  39  42
ATOM     42  C25 FZP d   1      -7.601 -52.059  19.311  0.00  0.00    -0.068 C 
ATOM     43  H21 FZP d   1      -8.666 -52.318  19.404  0.00  0.00     0.028 H 
ATOM     44  H22 FZP d   1      -6.989 -52.951  19.510  0.00  0.00     0.028 H 
ATOM     45  H23 FZP d   1      -7.399 -51.696  18.293  0.00  0.00     0.028 H 
ENDBRANCH  39  42
ENDBRANCH  36  39
ENDBRANCH  31  35
ENDBRANCH   2  25
BRANCH   1  46
ATOM     46  O2  FZP d   1       0.001 -51.775  25.594  0.00  0.00    -0.299 OA
BRANCH  46  47
ATOM     47  C10 FZP d   1       0.004 -51.135  26.868  0.00  0.00     0.054 C 
ATOM     48  H3  FZP d   1       0.357 -50.100  26.752  0.00  0.00     0.082 H 
ATOM     49  H4  FZP d   1      -1.019 -51.131  27.273  0.00  0.00     0.082 H 
BRANCH  47  50
ATOM     50  C11 FZP d   1       0.920 -51.869  27.833  0.00  0.00    -0.034 A 
ATOM     51  C12 FZP d   1       0.375 -52.460  28.986  0.00  0.00    -0.072 A 
ATOM     52  C13 FZP d   1       1.220 -53.130  29.859  0.00  0.00    -0.045 A 
ATOM     53  H5  FZP d   1      -0.688 -52.393  29.190  0.00  0.00     0.084 H 
ATOM     54  C14 FZP d   1       2.598 -53.196  29.570  0.00  0.00     0.116 A 
ATOM     55  H6  FZP d   1       0.825 -53.598  30.753  0.00  0.00     0.088 H 
ATOM     56  C15 FZP d   1       3.163 -52.603  28.439  0.00  0.00    -0.045 A 
ATOM     57  F1  FZP d   1       3.420 -53.847  30.394  0.00  0.00    -0.206 F 
ATOM     58  C16 FZP d   1       2.303 -51.952  27.558  0.00  0.00    -0.072 A 
ATOM     59  H12 FZP d   1       4.230 -52.648  28.254  0.00  0.00     0.088 H 
ATOM     60  H13 FZP d   1       2.699 -51.505  26.653  0.00  0.00     0.084 H 
ENDBRANCH  47  50
ENDBRANCH  46  47
ENDBRANCH   1  46
TORSDOF 11
