REMARK  3 active torsions:
REMARK  status: ('A' for Active; 'I' for Inactive)
REMARK    1  A    between atoms: N_1  and  CE_6 
REMARK    2  A    between atoms: N_1  and  CF_7 
REMARK    3  A    between atoms: CA_3  and  C_8 
ROOT
ATOM      1  N   PBE d   1      47.637  56.318 136.606  0.00  0.00    -0.061 N 
ATOM      2  CD  PBE d   1      46.628  57.121 136.393  0.00  0.00     0.086 C 
ATOM      3  CA  PBE d   1      48.806  57.181 136.161  0.00  0.00     0.187 C 
ATOM      4  CB  PBE d   1      48.435  58.576 136.807  0.00  0.00    -0.027 C 
ATOM      5  CG  PBE d   1      47.173  58.612 136.800  0.00  0.00    -0.040 C 
ATOM      6  H1  PBE d   1      45.771  56.839 137.022  0.00  0.00     0.076 H 
ATOM      7  H2  PBE d   1      46.331  57.095 135.334  0.00  0.00     0.076 H 
ATOM      8  H3  PBE d   1      48.804  57.256 135.064  0.00  0.00     0.102 H 
ATOM      9  H4  PBE d   1      48.849  59.401 136.209  0.00  0.00     0.036 H 
ATOM     10  H5  PBE d   1      48.818  58.640 137.836  0.00  0.00     0.036 H 
ATOM     11  H6  PBE d   1      46.802  58.886 137.798  0.00  0.00     0.035 H 
ATOM     12  H7  PBE d   1      46.825  59.351 136.064  0.00  0.00     0.035 H 
ENDROOT
BRANCH   1  13
ATOM     13  CE  PBE d   1      47.707  55.970 138.041  0.00  0.00     0.069 C 
ATOM     14  H8  PBE d   1      46.841  55.347 138.310  0.00  0.00     0.068 H 
ATOM     15  H9  PBE d   1      47.697  56.891 138.643  0.00  0.00     0.068 H 
ATOM     16  H10 PBE d   1      48.635  55.413 138.238  0.00  0.00     0.068 H 
ENDBRANCH   1  13
BRANCH   1  17
ATOM     17  CF  PBE d   1      47.524  55.109 135.767  0.00  0.00     0.069 C 
ATOM     18  H11 PBE d   1      47.474  55.401 134.708  0.00  0.00     0.068 H 
ATOM     19  H12 PBE d   1      46.611  54.558 136.039  0.00  0.00     0.068 H 
ATOM     20  H13 PBE d   1      48.402  54.467 135.929  0.00  0.00     0.068 H 
ENDBRANCH   1  17
BRANCH   3  21
ATOM     21  C   PBE d   1      50.124  56.742 136.559  0.00  0.00     0.205 C 
ATOM     22  O   PBE d   1      51.083  57.561 136.521  0.00  0.00    -0.646 OA
ATOM     23  OXT PBE d   1      50.337  55.553 136.915  0.00  0.00    -0.646 OA
ENDBRANCH   3  21
TORSDOF 3
