REMARK WARNING: 32 MAX_TORS EXCEEDED!!!
REMARK  61 active torsions:
REMARK  status: ('A' for Active; 'I' for Inactive)
REMARK    1  A    between atoms: CA_2  and  C_3 
REMARK       I    between atoms: C_3  and  N_8 
REMARK    2  A    between atoms: N_8  and  CA_9 
REMARK    3  A    between atoms: CA_9  and  CB_10 
REMARK    4  A    between atoms: CA_9  and  C_12 
REMARK    5  A    between atoms: CB_10  and  OG_11 
REMARK    6  A    between atoms: OG_11  and  P_14 
REMARK       I    between atoms: C_12  and  N_18 
REMARK    7  A    between atoms: N_18  and  CA_19 
REMARK    8  A    between atoms: CA_19  and  CB_20 
REMARK    9  A    between atoms: CA_19  and  C_32 
REMARK   10  A    between atoms: CB_20  and  CG_21 
REMARK       I    between atoms: C_32  and  N_34 
REMARK   11  A    between atoms: N_34  and  CA_35 
REMARK   12  A    between atoms: CA_35  and  C_36 
REMARK   13  A    between atoms: CA_35  and  CB_38 
REMARK       I    between atoms: C_36  and  N_42 
REMARK   14  A    between atoms: CB_38  and  CG_39 
REMARK   15  A    between atoms: N_42  and  CA_43 
REMARK   16  A    between atoms: CA_43  and  CB_44 
REMARK   17  A    between atoms: CA_43  and  C_46 
REMARK   18  A    between atoms: CB_44  and  OG_45 
REMARK   19  A    between atoms: OG_45  and  P_48 
REMARK       I    between atoms: C_46  and  N_52 
REMARK   20  A    between atoms: N_52  and  CA_53 
REMARK   21  A    between atoms: CA_53  and  CB_54 
REMARK   22  A    between atoms: CA_53  and  C_66 
REMARK   23  A    between atoms: CB_54  and  CG_55 
REMARK       I    between atoms: C_66  and  N_68 
REMARK   24  A    between atoms: N_68  and  CA_69 
REMARK   25  A    between atoms: CA_69  and  C_70 
REMARK   26  A    between atoms: CA_69  and  CB_72 
REMARK       I    between atoms: C_70  and  N_76 
REMARK   27  A    between atoms: CB_72  and  CG_73 
REMARK   28  A    between atoms: N_76  and  CA_77 
REMARK   29  A    between atoms: CA_77  and  CB_78 
REMARK   30  A    between atoms: CA_77  and  C_90 
REMARK   31  A    between atoms: CB_78  and  CG_79 
REMARK       I    between atoms: C_90  and  N_92 
REMARK   32  A    between atoms: N_92  and  CA_93 
REMARK   33  A    between atoms: CA_93  and  C_94 
REMARK   34  A    between atoms: CA_93  and  CB_96 
REMARK       I    between atoms: C_94  and  N_101 
REMARK   35  A    between atoms: CB_96  and  CG_97 
REMARK   36  A    between atoms: CG_97  and  CD_98 
REMARK   37  A    between atoms: N_101  and  CA_102 
REMARK   38  A    between atoms: CA_102  and  C_103 
REMARK   39  A    between atoms: CA_102  and  CB_105 
REMARK       I    between atoms: C_103  and  N_109 
REMARK   40  A    between atoms: CB_105  and  CG_106 
REMARK   41  A    between atoms: N_109  and  CA_110 
REMARK   42  A    between atoms: CA_110  and  CB_111 
REMARK   43  A    between atoms: CA_110  and  C_123 
REMARK   44  A    between atoms: CB_111  and  CG_112 
REMARK       I    between atoms: C_123  and  N_125 
REMARK   45  A    between atoms: CA_126  and  C_127 
REMARK       I    between atoms: C_127  and  N_132 
REMARK   46  A    between atoms: N_132  and  CA_133 
REMARK   47  A    between atoms: CA_133  and  C_134 
REMARK   48  A    between atoms: CA_133  and  CB_136 
REMARK       I    between atoms: C_134  and  N_137 
REMARK   49  A    between atoms: N_137  and  CA_138 
REMARK   50  A    between atoms: CA_138  and  C_139 
REMARK   51  A    between atoms: CA_138  and  CB_141 
REMARK       I    between atoms: C_139  and  N_142 
REMARK   52  A    between atoms: N_142  and  CA_143 
REMARK   53  A    between atoms: CA_143  and  C_144 
REMARK   54  A    between atoms: CA_143  and  CB_146 
REMARK       I    between atoms: C_144  and  N_150 
REMARK   55  A    between atoms: CB_146  and  CG_147 
REMARK   56  A    between atoms: CG_147  and  CD1_148 
REMARK   57  A    between atoms: CG_147  and  CD2_149 
REMARK   58  A    between atoms: N_150  and  CA_151 
REMARK   59  A    between atoms: CA_151  and  C_152 
REMARK   60  A    between atoms: CA_151  and  CB_154 
REMARK       I    between atoms: C_152  and  N_164 
REMARK   61  A    between atoms: CB_154  and  CG_155 
ROOT
ATOM      1  C   PRO d   1      46.751  43.318  47.481  0.00  0.00     0.241 C 
ATOM      2  O   PRO d   1      46.859  42.482  46.565  0.00  0.00    -0.271 OA
ATOM      3  N   PRO d   1      47.717  43.569  48.358  0.00  0.00    -0.346 N 
ATOM      4  H38 PRO d   1      47.553  44.224  49.096  0.00  0.00     0.163 HD
ENDROOT
BRANCH   1   5
ATOM      5  CA  PRO d   1      45.403  44.117  47.615  0.00  0.00     0.093 C 
ATOM      6  H35 PRO d   1      45.657  45.156  47.870  0.00  0.00     0.088 H 
BRANCH   5   7
ATOM      7  N   PRO d   1      44.580  44.148  46.420  0.00  0.00    -0.346 N 
ATOM      8  C   PRO d   1      44.059  45.275  45.943  0.00  0.00     0.241 C 
ATOM      9  O   PRO d   1      44.215  46.370  46.482  0.00  0.00    -0.271 OA
ATOM     10  H34 PRO d   1      44.398  43.291  45.938  0.00  0.00     0.163 HD
BRANCH   8  11
ATOM     11  CA  PRO d   1      43.241  45.149  44.661  0.00  0.00     0.098 C 
ATOM     12  H31 PRO d   1      43.464  44.174  44.204  0.00  0.00     0.088 H 
BRANCH  11  13
ATOM     13  N   PRO d   1      41.810  45.215  44.927  0.00  0.00    -0.345 N 
ATOM     14  C   PRO d   1      40.952  44.372  44.362  0.00  0.00     0.241 C 
ATOM     15  O   PRO d   1      41.297  43.368  43.701  0.00  0.00    -0.271 OA
ATOM     16  H30 PRO d   1      41.464  45.914  45.552  0.00  0.00     0.163 HD
BRANCH  14  17
ATOM     17  CA  PRO d   1      39.430  44.683  44.544  0.00  0.00     0.093 C 
ATOM     18  H27 PRO d   1      39.287  45.085  45.558  0.00  0.00     0.088 H 
BRANCH  17  19
ATOM     19  N   PRO d   1      38.926  45.649  43.609  0.00  0.00    -0.346 N 
ATOM     20  C   PRO d   1      38.621  46.893  43.964  0.00  0.00     0.243 C 
ATOM     21  O   PRO d   1      38.623  47.296  45.162  0.00  0.00    -0.271 OA
ATOM     22  H26 PRO d   1      38.800  45.376  42.655  0.00  0.00     0.163 HD
BRANCH  20  23
ATOM     23  CA  PRO d   1      38.243  47.846  42.809  0.00  0.00     0.110 C 
ATOM     24  H23 PRO d   1      37.918  47.237  41.952  0.00  0.00     0.090 H 
BRANCH  23  25
ATOM     25  N   PRO d   1      37.131  48.749  43.165  0.00  0.00    -0.344 N 
ATOM     26  C   PRO d   1      35.952  48.300  43.580  0.00  0.00     0.241 C 
ATOM     27  O   PRO d   1      35.723  47.108  43.777  0.00  0.00    -0.271 OA
ATOM     28  H22 PRO d   1      37.271  49.736  43.091  0.00  0.00     0.163 HD
BRANCH  26  29
ATOM     29  CA  PRO d   1      34.871  49.349  43.802  0.00  0.00     0.098 C 
ATOM     30  H19 PRO d   1      34.986  50.137  43.044  0.00  0.00     0.088 H 
BRANCH  29  31
ATOM     31  N   PRO d   1      33.553  48.749  43.651  0.00  0.00    -0.345 N 
ATOM     32  C   PRO d   1      33.222  48.027  42.585  0.00  0.00     0.241 C 
ATOM     33  O   PRO d   1      34.005  47.770  41.643  0.00  0.00    -0.271 OA
ATOM     34  H18 PRO d   1      32.874  48.885  44.373  0.00  0.00     0.163 HD
BRANCH  32  35
ATOM     35  CA  PRO d   1      31.763  47.480  42.536  0.00  0.00     0.093 C 
ATOM     36  H15 PRO d   1      31.584  46.934  43.474  0.00  0.00     0.088 H 
BRANCH  35  37
ATOM     37  N   PRO d   1      30.742  48.486  42.415  0.00  0.00    -0.346 N 
ATOM     38  C   PRO d   1      29.907  48.762  43.411  0.00  0.00     0.243 C 
ATOM     39  O   PRO d   1      29.923  48.156  44.519  0.00  0.00    -0.271 OA
ATOM     40  H14 PRO d   1      30.658  48.992  41.557  0.00  0.00     0.163 HD
BRANCH  38  41
ATOM     41  CA  PRO d   1      28.884  49.884  43.148  0.00  0.00     0.110 C 
ATOM     42  H11 PRO d   1      28.776  50.009  42.060  0.00  0.00     0.090 H 
BRANCH  41  43
ATOM     43  N   PRO d   1      27.559  49.544  43.698  0.00  0.00    -0.344 N 
ATOM     44  C   PRO d   1      26.624  48.928  42.983  0.00  0.00     0.249 C 
ATOM     45  O   PRO d   1      26.773  48.618  41.801  0.00  0.00    -0.271 OA
ATOM     46  H10 PRO d   1      27.356  49.787  44.647  0.00  0.00     0.163 HD
BRANCH  44  47
ATOM     47  CA  PRO d   1      25.317  48.606  43.696  0.00  0.00     0.178 C 
ATOM     48  N   PRO d   1      24.223  48.305  42.767  0.00  0.00    -0.062 N 
ATOM     49  CD  PRO d   1      23.908  46.866  42.740  0.00  0.00     0.083 C 
ATOM     50  H1  PRO d   1      24.492  48.597  41.841  0.00  0.00     0.278 HD
ATOM     51  H2  PRO d   1      23.401  48.813  43.055  0.00  0.00     0.278 HD
ATOM     52  CG  PRO d   1      25.005  46.253  43.568  0.00  0.00    -0.040 C 
ATOM     53  H8  PRO d   1      23.928  46.478  41.711  0.00  0.00     0.075 H 
ATOM     54  H9  PRO d   1      22.922  46.670  43.187  0.00  0.00     0.075 H 
ATOM     55  CB  PRO d   1      25.447  47.316  44.506  0.00  0.00    -0.028 C 
ATOM     56  H6  PRO d   1      24.624  45.385  44.125  0.00  0.00     0.035 H 
ATOM     57  H7  PRO d   1      25.840  45.938  42.925  0.00  0.00     0.035 H 
ATOM     58  H4  PRO d   1      24.800  47.346  45.395  0.00  0.00     0.036 H 
ATOM     59  H5  PRO d   1      26.490  47.154  44.817  0.00  0.00     0.036 H 
ATOM     60  H3  PRO d   1      25.047  49.451  44.346  0.00  0.00     0.099 H 
ENDBRANCH  44  47
ENDBRANCH  41  43
BRANCH  41  61
ATOM     61  CB  PRO d   1      29.432  51.216  43.744  0.00  0.00     0.059 C 
ATOM     62  H12 PRO d   1      28.589  51.877  43.992  0.00  0.00     0.079 H 
ATOM     63  H13 PRO d   1      30.077  51.708  43.002  0.00  0.00     0.079 H 
BRANCH  61  64
ATOM     64  OG  PRO d   1      30.158  50.963  44.878  0.00  0.00    -0.280 OA
BRANCH  64  65
ATOM     65  P   PRO d   1      29.670  51.887  46.355  0.00  0.00     0.422 P 
ATOM     66  O1P PRO d   1      29.762  53.319  45.871  0.00  0.00    -0.617 OA
ATOM     67  O2P PRO d   1      28.264  51.391  46.645  0.00  0.00    -0.617 OA
ATOM     68  O3P PRO d   1      30.718  51.451  47.361  0.00  0.00    -0.617 OA
ENDBRANCH  64  65
ENDBRANCH  61  64
ENDBRANCH  41  61
ENDBRANCH  38  41
ENDBRANCH  35  37
BRANCH  35  69
ATOM     69  CB  PRO d   1      31.624  46.502  41.360  0.00  0.00    -0.008 C 
ATOM     70  H16 PRO d   1      32.398  45.726  41.449  0.00  0.00     0.044 H 
ATOM     71  H17 PRO d   1      31.764  47.054  40.419  0.00  0.00     0.044 H 
BRANCH  69  72
ATOM     72  CG  PRO d   1      30.298  45.855  41.342  0.00  0.00     0.028 A 
ATOM     73  CD1 PRO d   1      29.252  46.351  40.574  0.00  0.00     0.167 A 
ATOM     74  FD1 PRO d   1      29.435  47.449  39.818  0.00  0.00    -0.202 F 
ATOM     75  CE1 PRO d   1      28.003  45.748  40.557  0.00  0.00     0.197 A 
ATOM     76  FE1 PRO d   1      27.008  46.258  39.797  0.00  0.00    -0.199 F 
ATOM     77  CZ  PRO d   1      27.781  44.626  41.319  0.00  0.00     0.199 A 
ATOM     78  CE2 PRO d   1      28.795  44.109  42.091  0.00  0.00     0.197 A 
ATOM     79  FZ  PRO d   1      26.567  44.027  41.311  0.00  0.00    -0.199 F 
ATOM     80  CD2 PRO d   1      30.034  44.721  42.097  0.00  0.00     0.167 A 
ATOM     81  FE2 PRO d   1      28.582  43.003  42.842  0.00  0.00    -0.199 F 
ATOM     82  FD2 PRO d   1      30.991  44.175  42.870  0.00  0.00    -0.202 F 
ENDBRANCH  69  72
ENDBRANCH  35  69
ENDBRANCH  32  35
ENDBRANCH  29  31
BRANCH  29  83
ATOM     83  CB  PRO d   1      35.020  49.983  45.188  0.00  0.00     0.043 C 
ATOM     84  H20 PRO d   1      35.545  49.273  45.844  0.00  0.00     0.052 H 
ATOM     85  H21 PRO d   1      34.017  50.183  45.592  0.00  0.00     0.052 H 
BRANCH  83  86
ATOM     86  CG  PRO d   1      35.801  51.287  45.160  0.00  0.00     0.175 C 
ATOM     87  OD1 PRO d   1      36.106  51.787  44.057  0.00  0.00    -0.648 OA
ATOM     88  OD2 PRO d   1      36.110  51.813  46.249  0.00  0.00    -0.648 OA
ENDBRANCH  83  86
ENDBRANCH  29  83
ENDBRANCH  26  29
ENDBRANCH  23  25
BRANCH  23  89
ATOM     89  CB  PRO d   1      39.514  48.644  42.393  0.00  0.00     0.059 C 
ATOM     90  H24 PRO d   1      39.225  49.666  42.105  0.00  0.00     0.079 H 
ATOM     91  H25 PRO d   1      39.995  48.144  41.539  0.00  0.00     0.079 H 
BRANCH  89  92
ATOM     92  OG  PRO d   1      40.392  48.700  43.437  0.00  0.00    -0.280 OA
BRANCH  92  93
ATOM     93  P   PRO d   1      40.811  50.350  44.040  0.00  0.00     0.422 P 
ATOM     94  O1P PRO d   1      41.274  51.032  42.770  0.00  0.00    -0.617 OA
ATOM     95  O2P PRO d   1      39.507  50.871  44.618  0.00  0.00    -0.617 OA
ATOM     96  O3P PRO d   1      41.884  50.044  45.066  0.00  0.00    -0.617 OA
ENDBRANCH  92  93
ENDBRANCH  89  92
ENDBRANCH  23  89
ENDBRANCH  20  23
ENDBRANCH  17  19
BRANCH  17  97
ATOM     97  CB  PRO d   1      38.617  43.381  44.408  0.00  0.00    -0.008 C 
ATOM     98  H28 PRO d   1      38.955  42.671  45.178  0.00  0.00     0.044 H 
ATOM     99  H29 PRO d   1      38.798  42.954  43.410  0.00  0.00     0.044 H 
BRANCH  97 100
ATOM    100  CG  PRO d   1      37.162  43.604  44.573  0.00  0.00     0.028 A 
ATOM    101  CD1 PRO d   1      36.331  43.848  43.488  0.00  0.00     0.167 A 
ATOM    102  FD1 PRO d   1      36.846  43.886  42.247  0.00  0.00    -0.202 F 
ATOM    103  CE1 PRO d   1      34.965  44.058  43.638  0.00  0.00     0.197 A 
ATOM    104  FE1 PRO d   1      34.185  44.293  42.559  0.00  0.00    -0.199 F 
ATOM    105  CZ  PRO d   1      34.407  44.026  44.893  0.00  0.00     0.199 A 
ATOM    106  CE2 PRO d   1      35.202  43.785  45.990  0.00  0.00     0.197 A 
ATOM    107  FZ  PRO d   1      33.076  44.228  45.049  0.00  0.00    -0.199 F 
ATOM    108  CD2 PRO d   1      36.560  43.578  45.823  0.00  0.00     0.167 A 
ATOM    109  FE2 PRO d   1      34.656  43.753  47.229  0.00  0.00    -0.199 F 
ATOM    110  FD2 PRO d   1      37.294  43.348  46.927  0.00  0.00    -0.202 F 
ENDBRANCH  97 100
ENDBRANCH  17  97
ENDBRANCH  14  17
ENDBRANCH  11  13
BRANCH  11 111
ATOM    111  CB  PRO d   1      43.634  46.253  43.676  0.00  0.00     0.043 C 
ATOM    112  H32 PRO d   1      43.599  47.220  44.199  0.00  0.00     0.052 H 
ATOM    113  H33 PRO d   1      42.911  46.258  42.847  0.00  0.00     0.052 H 
BRANCH 111 114
ATOM    114  CG  PRO d   1      45.023  46.063  43.105  0.00  0.00     0.175 C 
ATOM    115  OD1 PRO d   1      45.551  44.933  43.169  0.00  0.00    -0.648 OA
ATOM    116  OD2 PRO d   1      45.589  47.052  42.595  0.00  0.00    -0.648 OA
ENDBRANCH 111 114
ENDBRANCH  11 111
ENDBRANCH   8  11
ENDBRANCH   5   7
BRANCH   5 117
ATOM    117  CB  PRO d   1      44.581  43.506  48.768  0.00  0.00    -0.008 C 
ATOM    118  H36 PRO d   1      45.191  43.523  49.683  0.00  0.00     0.044 H 
ATOM    119  H37 PRO d   1      44.334  42.465  48.511  0.00  0.00     0.044 H 
BRANCH 117 120
ATOM    120  CG  PRO d   1      43.326  44.240  49.023  0.00  0.00     0.028 A 
ATOM    121  CD1 PRO d   1      42.162  43.945  48.330  0.00  0.00     0.167 A 
ATOM    122  FD1 PRO d   1      42.164  42.972  47.403  0.00  0.00    -0.202 F 
ATOM    123  CE1 PRO d   1      40.977  44.624  48.557  0.00  0.00     0.197 A 
ATOM    124  FE1 PRO d   1      39.862  44.308  47.863  0.00  0.00    -0.199 F 
ATOM    125  CZ  PRO d   1      40.938  45.623  49.499  0.00  0.00     0.199 A 
ATOM    126  CE2 PRO d   1      42.074  45.943  50.209  0.00  0.00     0.197 A 
ATOM    127  FZ  PRO d   1      39.782  46.290  49.727  0.00  0.00    -0.199 F 
ATOM    128  CD2 PRO d   1      43.251  45.255  49.968  0.00  0.00     0.167 A 
ATOM    129  FE2 PRO d   1      42.039  46.928  51.140  0.00  0.00    -0.199 F 
ATOM    130  FD2 PRO d   1      44.335  45.604  50.687  0.00  0.00    -0.202 F 
ENDBRANCH 117 120
ENDBRANCH   5 117
ENDBRANCH   1   5
BRANCH   3 131
ATOM    131  CA  PRO d   1      49.015  42.905  48.263  0.00  0.00     0.090 C 
ATOM    132  H39 PRO d   1      49.398  43.054  47.243  0.00  0.00     0.087 H 
BRANCH 131 133
ATOM    133  C   PRO d   1      48.899  41.400  48.511  0.00  0.00     0.241 C 
ATOM    134  O   PRO d   1      49.716  40.624  48.014  0.00  0.00    -0.271 OA
ATOM    135  N   PRO d   1      47.888  40.991  49.273  0.00  0.00    -0.346 N 
ATOM    136  H44 PRO d   1      47.276  41.670  49.678  0.00  0.00     0.163 HD
BRANCH 135 137
ATOM    137  CA  PRO d   1      47.652  39.572  49.532  0.00  0.00     0.098 C 
ATOM    138  H45 PRO d   1      48.607  39.037  49.426  0.00  0.00     0.088 H 
BRANCH 137 139
ATOM    139  C   PRO d   1      46.659  39.001  48.524  0.00  0.00     0.241 C 
ATOM    140  O   PRO d   1      46.457  37.789  48.451  0.00  0.00    -0.271 OA
ATOM    141  N   PRO d   1      46.030  39.889  47.763  0.00  0.00    -0.346 N 
ATOM    142  H48 PRO d   1      46.189  40.863  47.926  0.00  0.00     0.163 HD
BRANCH 141 143
ATOM    143  CA  PRO d   1      45.127  39.500  46.711  0.00  0.00     0.093 C 
ATOM    144  H49 PRO d   1      45.443  38.515  46.337  0.00  0.00     0.088 H 
BRANCH 143 145
ATOM    145  CB  PRO d   1      43.704  39.374  47.298  0.00  0.00    -0.008 C 
ATOM    146  H50 PRO d   1      43.322  40.386  47.501  0.00  0.00     0.044 H 
ATOM    147  H51 PRO d   1      43.767  38.810  48.240  0.00  0.00     0.044 H 
BRANCH 145 148
ATOM    148  CG  PRO d   1      42.740  38.680  46.400  0.00  0.00     0.028 A 
ATOM    149  CD1 PRO d   1      42.910  37.351  46.024  0.00  0.00     0.167 A 
ATOM    150  FD1 PRO d   1      43.974  36.656  46.462  0.00  0.00    -0.202 F 
ATOM    151  CE1 PRO d   1      42.008  36.699  45.190  0.00  0.00     0.197 A 
ATOM    152  FE1 PRO d   1      42.206  35.408  44.841  0.00  0.00    -0.199 F 
ATOM    153  CZ  PRO d   1      40.909  37.374  44.719  0.00  0.00     0.199 A 
ATOM    154  CE2 PRO d   1      40.706  38.684  45.072  0.00  0.00     0.197 A 
ATOM    155  FZ  PRO d   1      40.023  36.752  43.906  0.00  0.00    -0.199 F 
ATOM    156  CD2 PRO d   1      41.611  39.323  45.903  0.00  0.00     0.167 A 
ATOM    157  FE2 PRO d   1      39.620  39.345  44.604  0.00  0.00    -0.199 F 
ATOM    158  FD2 PRO d   1      41.358  40.607  46.214  0.00  0.00    -0.202 F 
ENDBRANCH 145 148
ENDBRANCH 143 145
BRANCH 143 159
ATOM    159  C   PRO d   1      45.123  40.492  45.503  0.00  0.00     0.243 C 
ATOM    160  O   PRO d   1      44.106  41.182  45.282  0.00  0.00    -0.271 OA
ATOM    161  N   PRO d   1      46.241  40.558  44.765  0.00  0.00    -0.337 N 
ATOM    162  CA  PRO d   1      46.431  41.556  43.708  0.00  0.00     0.091 C 
ATOM    163  CD  PRO d   1      47.397  39.650  44.880  0.00  0.00    -0.001 C 
ATOM    164  CB  PRO d   1      47.909  41.400  43.345  0.00  0.00    -0.036 C 
ATOM    165  H52 PRO d   1      46.230  42.565  44.098  0.00  0.00     0.087 H 
ATOM    166  CG  PRO d   1      48.232  39.992  43.682  0.00  0.00    -0.048 C 
ATOM    167  H53 PRO d   1      48.529  42.092  43.934  0.00  0.00     0.036 H 
ATOM    168  H54 PRO d   1      48.067  41.589  42.273  0.00  0.00     0.036 H 
ATOM    169  H55 PRO d   1      49.301  39.892  43.921  0.00  0.00     0.035 H 
ATOM    170  H56 PRO d   1      47.981  39.330  42.840  0.00  0.00     0.035 H 
ATOM    171  H57 PRO d   1      47.076  38.599  44.848  0.00  0.00     0.064 H 
ATOM    172  H58 PRO d   1      47.952  39.836  45.812  0.00  0.00     0.064 H 
BRANCH 162 173
ATOM    173  C   PRO d   1      45.548  41.318  42.491  0.00  0.00     0.241 C 
ATOM    174  O   PRO d   1      45.353  40.178  42.073  0.00  0.00    -0.271 OA
ATOM    175  N   PRO d   1      45.018  42.401  41.932  0.00  0.00    -0.346 N 
ATOM    176  H59 PRO d   1      45.193  43.298  42.339  0.00  0.00     0.163 HD
BRANCH 175 177
ATOM    177  CA  PRO d   1      44.190  42.309  40.742  0.00  0.00     0.086 C 
ATOM    178  H60 PRO d   1      43.540  41.426  40.833  0.00  0.00     0.086 H 
BRANCH 177 179
ATOM    179  C   PRO d   1      45.064  42.149  39.506  0.00  0.00     0.240 C 
ATOM    180  O   PRO d   1      46.128  42.764  39.394  0.00  0.00    -0.271 OA
ATOM    181  N   PRO d   1      44.613  41.308  38.583  0.00  0.00    -0.346 N 
ATOM    182  H64 PRO d   1      43.788  40.774  38.765  0.00  0.00     0.163 HD
BRANCH 181 183
ATOM    183  CA  PRO d   1      45.299  41.152  37.314  0.00  0.00     0.086 C 
ATOM    184  H65 PRO d   1      46.381  41.255  37.485  0.00  0.00     0.086 H 
BRANCH 183 185
ATOM    185  C   PRO d   1      44.853  42.236  36.339  0.00  0.00     0.240 C 
ATOM    186  O   PRO d   1      43.789  42.844  36.487  0.00  0.00    -0.271 OA
ATOM    187  N   PRO d   1      45.689  42.477  35.331  0.00  0.00    -0.346 N 
ATOM    188  H69 PRO d   1      46.546  41.965  35.272  0.00  0.00     0.163 HD
BRANCH 187 189
ATOM    189  CA  PRO d   1      45.381  43.472  34.311  0.00  0.00     0.089 C 
ATOM    190  H70 PRO d   1      44.295  43.648  34.313  0.00  0.00     0.087 H 
BRANCH 189 191
ATOM    191  C   PRO d   1      45.787  42.969  32.933  0.00  0.00     0.241 C 
ATOM    192  O   PRO d   1      44.930  42.709  32.083  0.00  0.00    -0.271 OA
ATOM    193  N   PRO d   1      47.088  42.835  32.705  0.00  0.00    -0.346 N 
ATOM    194  H80 PRO d   1      47.734  43.029  33.443  0.00  0.00     0.163 HD
BRANCH 193 195
ATOM    195  CA  PRO d   1      47.598  42.412  31.408  0.00  0.00     0.093 C 
ATOM    196  H81 PRO d   1      46.898  42.754  30.632  0.00  0.00     0.088 H 
BRANCH 195 197
ATOM    197  C   PRO d   1      47.699  40.894  31.334  0.00  0.00     0.238 C 
ATOM    198  O   PRO d   1      47.697  40.208  32.358  0.00  0.00    -0.271 OA
ATOM    199  N   PRO d   1      47.792  40.375  30.114  0.00  0.00    -0.368 N 
ATOM    200  H90 PRO d   1      47.861  39.384  29.996  0.00  0.00     0.159 HD
ATOM    201  H91 PRO d   1      47.793  40.975  29.314  0.00  0.00     0.159 HD
ENDBRANCH 195 197
BRANCH 195 202
ATOM    202  CB  PRO d   1      48.968  43.036  31.138  0.00  0.00    -0.012 C 
ATOM    203  H82 PRO d   1      49.260  42.795  30.105  0.00  0.00     0.044 H 
ATOM    204  H83 PRO d   1      49.693  42.593  31.836  0.00  0.00     0.044 H 
BRANCH 202 205
ATOM    205  CG  PRO d   1      49.005  44.525  31.303  0.00  0.00    -0.028 A 
ATOM    206  CD1 PRO d   1      49.755  45.229  32.197  0.00  0.00    -0.015 A 
ATOM    207  NE1 PRO d   1      49.529  46.575  32.050  0.00  0.00    -0.365 N 
ATOM    208  H84 PRO d   1      50.436  44.787  32.923  0.00  0.00     0.112 H 
ATOM    209  CE2 PRO d   1      48.616  46.764  31.047  0.00  0.00     0.042 A 
ATOM    210  H85 PRO d   1      49.974  47.321  32.604  0.00  0.00     0.165 HD
ATOM    211  CD2 PRO d   1      48.263  45.494  30.551  0.00  0.00    -0.002 A 
ATOM    212  CZ2 PRO d   1      48.075  47.941  30.536  0.00  0.00    -0.056 A 
ATOM    213  CE3 PRO d   1      47.336  45.410  29.509  0.00  0.00    -0.070 A 
ATOM    214  CZ3 PRO d   1      46.798  46.580  29.003  0.00  0.00    -0.082 A 
ATOM    215  H86 PRO d   1      47.044  44.447  29.105  0.00  0.00     0.084 H 
ATOM    216  CH2 PRO d   1      47.170  47.829  29.517  0.00  0.00    -0.081 A 
ATOM    217  H88 PRO d   1      46.077  46.529  28.195  0.00  0.00     0.083 H 
ATOM    218  H89 PRO d   1      46.731  48.727  29.098  0.00  0.00     0.083 H 
ATOM    219  H87 PRO d   1      48.360  48.909  30.931  0.00  0.00     0.086 H 
ENDBRANCH 202 205
ENDBRANCH 195 202
ENDBRANCH 193 195
ENDBRANCH 189 191
BRANCH 189 220
ATOM    220  CB  PRO d   1      46.088  44.794  34.619  0.00  0.00    -0.035 C 
ATOM    221  H71 PRO d   1      47.166  44.589  34.699  0.00  0.00     0.037 H 
ATOM    222  H72 PRO d   1      45.712  45.159  35.586  0.00  0.00     0.037 H 
BRANCH 220 223
ATOM    223  CG  PRO d   1      45.899  45.913  33.590  0.00  0.00    -0.059 C 
ATOM    224  H73 PRO d   1      46.242  45.541  32.613  0.00  0.00     0.038 H 
BRANCH 223 225
ATOM    225  CD1 PRO d   1      44.433  46.292  33.464  0.00  0.00    -0.073 C 
ATOM    226  H74 PRO d   1      44.325  47.096  32.721  0.00  0.00     0.028 H 
ATOM    227  H75 PRO d   1      44.059  46.641  34.438  0.00  0.00     0.028 H 
ATOM    228  H76 PRO d   1      43.854  45.414  33.142  0.00  0.00     0.028 H 
ENDBRANCH 223 225
BRANCH 223 229
ATOM    229  CD2 PRO d   1      46.739  47.128  33.957  0.00  0.00    -0.073 C 
ATOM    230  H77 PRO d   1      47.795  46.831  34.043  0.00  0.00     0.028 H 
ATOM    231  H78 PRO d   1      46.393  47.536  34.918  0.00  0.00     0.028 H 
ATOM    232  H79 PRO d   1      46.636  47.895  33.175  0.00  0.00     0.028 H 
ENDBRANCH 223 229
ENDBRANCH 220 223
ENDBRANCH 189 220
ENDBRANCH 187 189
ENDBRANCH 183 185
BRANCH 183 233
ATOM    233  CB  PRO d   1      45.028  39.770  36.721  0.00  0.00    -0.049 C 
ATOM    234  H66 PRO d   1      45.556  39.673  35.761  0.00  0.00     0.030 H 
ATOM    235  H67 PRO d   1      43.947  39.646  36.559  0.00  0.00     0.030 H 
ATOM    236  H68 PRO d   1      45.386  38.996  37.416  0.00  0.00     0.030 H 
ENDBRANCH 183 233
ENDBRANCH 181 183
ENDBRANCH 177 179
BRANCH 177 237
ATOM    237  CB  PRO d   1      43.312  43.553  40.603  0.00  0.00    -0.049 C 
ATOM    238  H61 PRO d   1      42.693  43.466  39.698  0.00  0.00     0.030 H 
ATOM    239  H62 PRO d   1      43.950  44.446  40.526  0.00  0.00     0.030 H 
ATOM    240  H63 PRO d   1      42.661  43.643  41.485  0.00  0.00     0.030 H 
ENDBRANCH 177 237
ENDBRANCH 175 177
ENDBRANCH 162 173
ENDBRANCH 143 159
ENDBRANCH 141 143
ENDBRANCH 137 139
BRANCH 137 241
ATOM    241  CB  PRO d   1      47.128  39.355  50.951  0.00  0.00     0.043 C 
ATOM    242  H46 PRO d   1      47.789  39.880  51.656  0.00  0.00     0.052 H 
ATOM    243  H47 PRO d   1      47.140  38.277  51.171  0.00  0.00     0.052 H 
BRANCH 241 244
ATOM    244  CG  PRO d   1      45.718  39.871  51.132  0.00  0.00     0.175 C 
ATOM    245  OD1 PRO d   1      45.485  41.072  50.878  0.00  0.00    -0.648 OA
ATOM    246  OD2 PRO d   1      44.838  39.072  51.511  0.00  0.00    -0.648 OA
ENDBRANCH 241 244
ENDBRANCH 137 241
ENDBRANCH 135 137
ENDBRANCH 131 133
BRANCH 131 247
ATOM    247  CB  PRO d   1      50.013  43.528  49.246  0.00  0.00    -0.029 C 
ATOM    248  H40 PRO d   1      50.154  44.583  48.968  0.00  0.00     0.037 H 
ATOM    249  H41 PRO d   1      50.969  42.993  49.148  0.00  0.00     0.037 H 
BRANCH 247 250
ATOM    250  CG  PRO d   1      49.591  43.476  50.698  0.00  0.00     0.018 C 
ATOM    251  H42 PRO d   1      49.457  42.424  50.989  0.00  0.00     0.049 H 
ATOM    252  H43 PRO d   1      48.636  44.011  50.807  0.00  0.00     0.049 H 
BRANCH 250 253
ATOM    253  CD  PRO d   1      50.615  44.111  51.624  0.00  0.00     0.172 C 
ATOM    254  OE1 PRO d   1      51.491  44.857  51.135  0.00  0.00    -0.648 OA
ATOM    255  OE2 PRO d   1      50.546  43.858  52.844  0.00  0.00    -0.648 OA
ENDBRANCH 250 253
ENDBRANCH 247 250
ENDBRANCH 131 247
ENDBRANCH   3 131
TORSDOF 61
