REMARK  5 active torsions:
REMARK  status: ('A' for Active; 'I' for Inactive)
REMARK    1  A    between atoms: C7_4  and  C11_27 
REMARK    2  A    between atoms: N4_22  and  C13_7 
REMARK    3  A    between atoms: C8_8  and  C17_11 
REMARK    4  A    between atoms: C17_11  and  C18_9 
REMARK    5  A    between atoms: C18_9  and  O2_19 
ROOT
ATOM      1  C7  G4V d   1       0.027  16.550   4.408  0.00  0.00     0.019 A 
ATOM      2  C9  G4V d   1       0.846  18.591   5.413  0.00  0.00     0.084 A 
ATOM      3  C2  G4V d   1       2.359  17.162   4.199  0.00  0.00     0.026 A 
ATOM      4  C10 G4V d   1       2.135  18.298   4.960  0.00  0.00     0.115 A 
ATOM      5  F2  G4V d   1       4.092  21.048   5.495  0.00  0.00    -0.172 F 
ATOM      6  C15 G4V d   1       3.071  20.327   5.970  0.00  0.00     0.391 C 
ATOM      7  O1  G4V d   1       3.238  19.063   5.264  0.00  0.00    -0.278 OA
ATOM      8  C1  G4V d   1       1.303  16.320   3.905  0.00  0.00     0.004 A 
ATOM      9  C14 G4V d   1       1.636  20.887   5.677  0.00  0.00     0.207 C 
ATOM     10  N4  G4V d   1       0.579  19.888   5.887  0.00  0.00    -0.300 N 
ATOM     11  C3  G4V d   1      -0.186  17.690   5.176  0.00  0.00     0.021 A 
ATOM     12  F1  G4V d   1       3.212  19.976   7.252  0.00  0.00    -0.172 F 
ENDROOT
BRANCH   1  13
ATOM     13  C11 G4V d   1      -1.084  15.604   4.124  0.00  0.00     0.086 A 
ATOM     14  C6  G4V d   1      -0.944  14.193   4.198  0.00  0.00     0.051 A 
ATOM     15  C8  G4V d   1       0.020  13.201   4.611  0.00  0.00     0.004 A 
ATOM     16  C12 G4V d   1      -2.079  13.496   3.718  0.00  0.00     0.165 A 
ATOM     17  C4  G4V d   1      -0.556  11.993   4.352  0.00  0.00     0.097 A 
ATOM     18  N3  G4V d   1      -1.808  12.163   3.829  0.00  0.00    -0.226 NA
ATOM     19  N2  G4V d   1      -3.206  14.042   3.231  0.00  0.00    -0.205 NA
ATOM     20  C5  G4V d   1      -3.176  15.377   3.237  0.00  0.00     0.200 A 
ATOM     21  N1  G4V d   1      -2.206  16.186   3.669  0.00  0.00    -0.224 NA
BRANCH  15  22
ATOM     22  C17 G4V d   1       1.370  13.430   5.234  0.00  0.00     0.060 C 
BRANCH  22  23
ATOM     23  C18 G4V d   1       1.444  14.289   6.480  0.00  0.00     0.147 C 
BRANCH  23  24
ATOM     24  O2  G4V d   1       2.762  14.822   6.554  0.00  0.00    -0.351 OA
ATOM     25  C16 G4V d   1       2.969  15.711   7.645  0.00  0.00     0.174 C 
ENDBRANCH  23  24
ENDBRANCH  22  23
ENDBRANCH  15  22
ENDBRANCH   1  13
BRANCH  10  26
ATOM     26  C13 G4V d   1      -0.590  20.268   6.697  0.00  0.00     0.202 C 
ATOM     27  N   G4V d   1      -1.412  21.214   6.308  0.00  0.00    -0.126 N 
ENDBRANCH  10  26
TORSDOF 5
