REMARK  6 active torsions:
REMARK  status: ('A' for Active; 'I' for Inactive)
REMARK    1  A    between atoms: C06_2  and  C07_19 
REMARK    2  A    between atoms: N12_23  and  C13_3 
REMARK    3  A    between atoms: C20_9  and  C21_10 
REMARK    4  A    between atoms: C02_14  and  C03_15 
REMARK       I    between atoms: C02_14  and  N12_23 
REMARK    5  A    between atoms: C08_20  and  O09_21 
REMARK    6  A    between atoms: O09_21  and  C10_22 
ROOT
ATOM      1  C13 G2D d   1      36.165  20.059 -30.534  0.00  0.00     0.039 C 
ATOM      2  C18 G2D d   1      36.752  18.074 -27.460  0.00  0.00    -0.075 A 
ATOM      3  C17 G2D d   1      36.839  18.647 -28.719  0.00  0.00    -0.050 A 
ATOM      4  C16 G2D d   1      35.890  19.576 -29.140  0.00  0.00    -0.028 A 
ATOM      5  C15 G2D d   1      37.871  18.411 -29.777  0.00  0.00    -0.038 C 
ATOM      6  C19 G2D d   1      35.690  18.437 -26.613  0.00  0.00    -0.070 A 
ATOM      7  C20 G2D d   1      34.730  19.386 -27.025  0.00  0.00    -0.005 A 
ATOM      8  C14 G2D d   1      37.582  19.524 -30.801  0.00  0.00    -0.038 C 
ATOM      9  C29 G2D d   1      34.841  19.939 -28.310  0.00  0.00    -0.062 A 
ATOM     10  H2  G2D d   1      36.137  21.157 -30.600  0.00  0.00     0.080 H 
ATOM     11  H3  G2D d   1      37.494  17.355 -27.132  0.00  0.00     0.084 H 
ATOM     12  H4  G2D d   1      37.751  17.416 -30.231  0.00  0.00     0.040 H 
ATOM     13  H5  G2D d   1      38.887  18.507 -29.366  0.00  0.00     0.040 H 
ATOM     14  H6  G2D d   1      35.608  17.983 -25.632  0.00  0.00     0.084 H 
ATOM     15  H19 G2D d   1      38.315  20.336 -30.687  0.00  0.00     0.036 H 
ATOM     16  H20 G2D d   1      37.641  19.117 -31.821  0.00  0.00     0.036 H 
ATOM     17  H25 G2D d   1      34.103  20.654 -28.655  0.00  0.00     0.085 H 
ENDROOT
BRANCH   1  18
ATOM     18  N12 G2D d   1      35.186  19.489 -31.427  0.00  0.00    -0.348 N 
ATOM     19  C02 G2D d   1      33.926  20.025 -31.541  0.00  0.00     0.252 C 
ATOM     20  O01 G2D d   1      33.537  21.002 -30.915  0.00  0.00    -0.268 OA
ATOM     21  H18 G2D d   1      35.429  18.688 -31.974  0.00  0.00     0.163 HD
BRANCH  19  22
ATOM     22  C03 G2D d   1      33.015  19.333 -32.489  0.00  0.00     0.034 A 
ATOM     23  C11 G2D d   1      31.668  19.147 -32.147  0.00  0.00    -0.035 A 
ATOM     24  C08 G2D d   1      30.798  18.499 -33.027  0.00  0.00     0.075 A 
ATOM     25  H8  G2D d   1      31.299  19.508 -31.194  0.00  0.00     0.089 H 
ATOM     26  C06 G2D d   1      31.284  18.029 -34.260  0.00  0.00    -0.029 A 
ATOM     27  C05 G2D d   1      32.636  18.219 -34.592  0.00  0.00    -0.074 A 
ATOM     28  C04 G2D d   1      33.503  18.867 -33.710  0.00  0.00    -0.067 A 
ATOM     29  H1  G2D d   1      33.010  17.858 -35.543  0.00  0.00     0.084 H 
ATOM     30  H9  G2D d   1      34.546  19.007 -33.972  0.00  0.00     0.085 H 
BRANCH  24  31
ATOM     31  O09 G2D d   1      29.468  18.272 -32.782  0.00  0.00    -0.355 OA
BRANCH  31  32
ATOM     32  C10 G2D d   1      28.945  18.724 -31.540  0.00  0.00     0.010 C 
ATOM     33  H15 G2D d   1      27.875  18.476 -31.481  0.00  0.00     0.066 H 
ATOM     34  H16 G2D d   1      29.074  19.814 -31.463  0.00  0.00     0.066 H 
ATOM     35  H17 G2D d   1      29.481  18.232 -30.715  0.00  0.00     0.066 H 
ENDBRANCH  31  32
ENDBRANCH  24  31
BRANCH  26  36
ATOM     36  C07 G2D d   1      30.363  17.329 -35.222  0.00  0.00    -0.049 C 
ATOM     37  H12 G2D d   1      30.925  17.039 -36.122  0.00  0.00     0.033 H 
ATOM     38  H13 G2D d   1      29.543  18.006 -35.504  0.00  0.00     0.033 H 
ATOM     39  H14 G2D d   1      29.948  16.430 -34.743  0.00  0.00     0.033 H 
ENDBRANCH  26  36
ENDBRANCH  19  22
ENDBRANCH   1  18
BRANCH   7  40
ATOM     40  C21 G2D d   1      33.584  19.798 -26.225  0.00  0.00     0.084 A 
ATOM     41  C22 G2D d   1      32.841  18.987 -25.377  0.00  0.00     0.010 A 
ATOM     42  N23 G2D d   1      31.881  19.813 -24.920  0.00  0.00    -0.343 N 
ATOM     43  H7  G2D d   1      32.997  17.936 -25.139  0.00  0.00     0.115 H 
ATOM     44  C24 G2D d   1      32.031  21.045 -25.475  0.00  0.00     0.106 A 
ATOM     45  C27 G2D d   1      30.758  19.714 -24.015  0.00  0.00     0.001 C 
ATOM     46  C25 G2D d   1      31.002  21.990 -25.008  0.00  0.00    -0.008 C 
ATOM     47  N28 G2D d   1      33.052  21.083 -26.287  0.00  0.00    -0.233 NA
ATOM     48  C26 G2D d   1      30.233  21.161 -23.945  0.00  0.00    -0.043 C 
ATOM     49  H21 G2D d   1      30.338  22.292 -25.831  0.00  0.00     0.044 H 
ATOM     50  H22 G2D d   1      31.459  22.884 -24.559  0.00  0.00     0.044 H 
ATOM     51  H23 G2D d   1      30.412  21.577 -22.943  0.00  0.00     0.035 H 
ATOM     52  H24 G2D d   1      29.155  21.180 -24.162  0.00  0.00     0.035 H 
ATOM     53  H10 G2D d   1      31.080  19.363 -23.023  0.00  0.00     0.065 H 
ATOM     54  H11 G2D d   1      29.990  19.035 -24.413  0.00  0.00     0.065 H 
ENDBRANCH   7  40
TORSDOF 6
