REMARK WARNING: 32 MAX_TORS EXCEEDED!!!
REMARK  61 active torsions:
REMARK  status: ('A' for Active; 'I' for Inactive)
REMARK    1  A    between atoms: CA_2  and  C_3 
REMARK       I    between atoms: C_3  and  N_8 
REMARK    2  A    between atoms: N_8  and  CA_9 
REMARK    3  A    between atoms: CA_9  and  CB_10 
REMARK    4  A    between atoms: CA_9  and  C_12 
REMARK    5  A    between atoms: CB_10  and  OG_11 
REMARK    6  A    between atoms: OG_11  and  P_14 
REMARK       I    between atoms: C_12  and  N_18 
REMARK    7  A    between atoms: N_18  and  CA_19 
REMARK    8  A    between atoms: CA_19  and  CB_20 
REMARK    9  A    between atoms: CA_19  and  C_32 
REMARK   10  A    between atoms: CB_20  and  CG_21 
REMARK       I    between atoms: C_32  and  N_34 
REMARK   11  A    between atoms: N_34  and  CA_35 
REMARK   12  A    between atoms: CA_35  and  C_36 
REMARK   13  A    between atoms: CA_35  and  CB_38 
REMARK       I    between atoms: C_36  and  N_42 
REMARK   14  A    between atoms: CB_38  and  CG_39 
REMARK   15  A    between atoms: N_42  and  CA_43 
REMARK   16  A    between atoms: CA_43  and  CB_44 
REMARK   17  A    between atoms: CA_43  and  C_46 
REMARK   18  A    between atoms: CB_44  and  OG_45 
REMARK   19  A    between atoms: OG_45  and  P_48 
REMARK       I    between atoms: C_46  and  N_52 
REMARK   20  A    between atoms: N_52  and  CA_53 
REMARK   21  A    between atoms: CA_53  and  CB_54 
REMARK   22  A    between atoms: CA_53  and  C_66 
REMARK   23  A    between atoms: CB_54  and  CG_55 
REMARK       I    between atoms: C_66  and  N_68 
REMARK   24  A    between atoms: N_68  and  CA_69 
REMARK   25  A    between atoms: CA_69  and  C_70 
REMARK   26  A    between atoms: CA_69  and  CB_72 
REMARK       I    between atoms: C_70  and  N_76 
REMARK   27  A    between atoms: CB_72  and  CG_73 
REMARK   28  A    between atoms: N_76  and  CA_77 
REMARK   29  A    between atoms: CA_77  and  CB_78 
REMARK   30  A    between atoms: CA_77  and  C_90 
REMARK   31  A    between atoms: CB_78  and  CG_79 
REMARK       I    between atoms: C_90  and  N_92 
REMARK   32  A    between atoms: N_92  and  CA_93 
REMARK   33  A    between atoms: CA_93  and  C_94 
REMARK   34  A    between atoms: CA_93  and  CB_96 
REMARK       I    between atoms: C_94  and  N_101 
REMARK   35  A    between atoms: CB_96  and  CG_97 
REMARK   36  A    between atoms: CG_97  and  CD_98 
REMARK   37  A    between atoms: N_101  and  CA_102 
REMARK   38  A    between atoms: CA_102  and  C_103 
REMARK   39  A    between atoms: CA_102  and  CB_105 
REMARK       I    between atoms: C_103  and  N_109 
REMARK   40  A    between atoms: CB_105  and  CG_106 
REMARK   41  A    between atoms: N_109  and  CA_110 
REMARK   42  A    between atoms: CA_110  and  CB_111 
REMARK   43  A    between atoms: CA_110  and  C_123 
REMARK   44  A    between atoms: CB_111  and  CG_112 
REMARK       I    between atoms: C_123  and  N_125 
REMARK   45  A    between atoms: CA_126  and  C_127 
REMARK       I    between atoms: C_127  and  N_132 
REMARK   46  A    between atoms: N_132  and  CA_133 
REMARK   47  A    between atoms: CA_133  and  C_134 
REMARK   48  A    between atoms: CA_133  and  CB_136 
REMARK       I    between atoms: C_134  and  N_137 
REMARK   49  A    between atoms: N_137  and  CA_138 
REMARK   50  A    between atoms: CA_138  and  C_139 
REMARK   51  A    between atoms: CA_138  and  CB_141 
REMARK       I    between atoms: C_139  and  N_142 
REMARK   52  A    between atoms: N_142  and  CA_143 
REMARK   53  A    between atoms: CA_143  and  C_144 
REMARK   54  A    between atoms: CA_143  and  CB_146 
REMARK       I    between atoms: C_144  and  N_150 
REMARK   55  A    between atoms: CB_146  and  CG_147 
REMARK   56  A    between atoms: CG_147  and  CD1_148 
REMARK   57  A    between atoms: CG_147  and  CD2_149 
REMARK   58  A    between atoms: N_150  and  CA_151 
REMARK   59  A    between atoms: CA_151  and  C_152 
REMARK   60  A    between atoms: CA_151  and  CB_154 
REMARK       I    between atoms: C_152  and  N_164 
REMARK   61  A    between atoms: CB_154  and  CG_155 
ROOT
ATOM      1  C   PRO d   1       2.267 -42.757   8.457  0.00  0.00     0.241 C 
ATOM      2  O   PRO d   1       1.444 -41.910   8.870  0.00  0.00    -0.271 OA
ATOM      3  N   PRO d   1       3.543 -42.491   8.204  0.00  0.00    -0.346 N 
ATOM      4  H38 PRO d   1       4.139 -43.232   7.894  0.00  0.00     0.163 HD
ENDROOT
BRANCH   1   5
ATOM      5  CA  PRO d   1       1.794 -44.215   8.199  0.00  0.00     0.093 C 
ATOM      6  H35 PRO d   1       2.582 -44.890   8.563  0.00  0.00     0.088 H 
BRANCH   5   7
ATOM      7  N   PRO d   1       0.564 -44.603   8.848  0.00  0.00    -0.346 N 
ATOM      8  C   PRO d   1       0.382 -45.835   9.313  0.00  0.00     0.241 C 
ATOM      9  O   PRO d   1       1.213 -46.736   9.180  0.00  0.00    -0.271 OA
ATOM     10  H34 PRO d   1      -0.168 -43.929   8.950  0.00  0.00     0.163 HD
BRANCH   8  11
ATOM     11  CA  PRO d   1      -0.943 -46.096  10.012  0.00  0.00     0.098 C 
ATOM     12  H31 PRO d   1      -1.482 -45.142  10.112  0.00  0.00     0.088 H 
BRANCH  11  13
ATOM     13  N   PRO d   1      -1.750 -47.011   9.224  0.00  0.00    -0.345 N 
ATOM     14  C   PRO d   1      -3.007 -46.738   8.897  0.00  0.00     0.241 C 
ATOM     15  O   PRO d   1      -3.554 -45.627   9.087  0.00  0.00    -0.271 OA
ATOM     16  H30 PRO d   1      -1.346 -47.873   8.918  0.00  0.00     0.163 HD
BRANCH  14  17
ATOM     17  CA  PRO d   1      -3.814 -47.907   8.263  0.00  0.00     0.093 C 
ATOM     18  H27 PRO d   1      -3.187 -48.374   7.489  0.00  0.00     0.088 H 
BRANCH  17  19
ATOM     19  N   PRO d   1      -4.162 -48.912   9.229  0.00  0.00    -0.346 N 
ATOM     20  C   PRO d   1      -3.626 -50.127   9.217  0.00  0.00     0.243 C 
ATOM     21  O   PRO d   1      -2.948 -50.581   8.249  0.00  0.00    -0.271 OA
ATOM     22  H26 PRO d   1      -4.832 -48.688   9.936  0.00  0.00     0.163 HD
BRANCH  20  23
ATOM     23  CA  PRO d   1      -3.893 -50.996  10.465  0.00  0.00     0.110 C 
ATOM     24  H23 PRO d   1      -4.812 -50.636  10.951  0.00  0.00     0.090 H 
BRANCH  23  25
ATOM     25  N   PRO d   1      -4.075 -52.402  10.121  0.00  0.00    -0.344 N 
ATOM     26  C   PRO d   1      -4.844 -52.819   9.126  0.00  0.00     0.241 C 
ATOM     27  O   PRO d   1      -5.578 -52.072   8.478  0.00  0.00    -0.271 OA
ATOM     28  H22 PRO d   1      -3.593 -53.088  10.666  0.00  0.00     0.163 HD
BRANCH  26  29
ATOM     29  CA  PRO d   1      -4.794 -54.317   8.849  0.00  0.00     0.098 C 
ATOM     30  H19 PRO d   1      -4.723 -54.845   9.812  0.00  0.00     0.088 H 
BRANCH  29  31
ATOM     31  N   PRO d   1      -6.006 -54.765   8.174  0.00  0.00    -0.345 N 
ATOM     32  C   PRO d   1      -7.211 -54.392   8.594  0.00  0.00     0.241 C 
ATOM     33  O   PRO d   1      -7.406 -53.658   9.587  0.00  0.00    -0.271 OA
ATOM     34  H18 PRO d   1      -5.929 -55.366   7.378  0.00  0.00     0.163 HD
BRANCH  32  35
ATOM     35  CA  PRO d   1      -8.439 -54.909   7.797  0.00  0.00     0.093 C 
ATOM     36  H15 PRO d   1      -8.296 -54.623   6.745  0.00  0.00     0.088 H 
BRANCH  35  37
ATOM     37  N   PRO d   1      -8.655 -56.332   7.831  0.00  0.00    -0.346 N 
ATOM     38  C   PRO d   1      -8.795 -57.051   6.721  0.00  0.00     0.243 C 
ATOM     39  O   PRO d   1      -8.744 -56.553   5.560  0.00  0.00    -0.271 OA
ATOM     40  H14 PRO d   1      -8.701 -56.794   8.717  0.00  0.00     0.163 HD
BRANCH  38  41
ATOM     41  CA  PRO d   1      -9.027 -58.563   6.915  0.00  0.00     0.110 C 
ATOM     42  H11 PRO d   1      -9.692 -58.703   7.780  0.00  0.00     0.090 H 
BRANCH  41  43
ATOM     43  N   PRO d   1      -9.685 -59.173   5.736  0.00  0.00    -0.344 N 
ATOM     44  C   PRO d   1     -10.991 -59.419   5.694  0.00  0.00     0.249 C 
ATOM     45  O   PRO d   1     -11.765 -59.119   6.602  0.00  0.00    -0.271 OA
ATOM     46  H10 PRO d   1      -9.126 -59.409   4.941  0.00  0.00     0.163 HD
BRANCH  44  47
ATOM     47  CA  PRO d   1     -11.528 -60.087   4.434  0.00  0.00     0.178 C 
ATOM     48  N   PRO d   1     -12.820 -60.746   4.650  0.00  0.00    -0.062 N 
ATOM     49  CD  PRO d   1     -13.943 -59.912   4.184  0.00  0.00     0.083 C 
ATOM     50  H1  PRO d   1     -12.934 -60.926   5.635  0.00  0.00     0.278 HD
ATOM     51  H2  PRO d   1     -12.830 -61.618   4.145  0.00  0.00     0.278 HD
ATOM     52  CG  PRO d   1     -13.264 -58.663   3.663  0.00  0.00    -0.040 C 
ATOM     53  H8  PRO d   1     -14.625 -59.672   5.013  0.00  0.00     0.075 H 
ATOM     54  H9  PRO d   1     -14.503 -60.418   3.384  0.00  0.00     0.075 H 
ATOM     55  CB  PRO d   1     -11.850 -59.041   3.371  0.00  0.00    -0.028 C 
ATOM     56  H6  PRO d   1     -13.761 -58.314   2.746  0.00  0.00     0.035 H 
ATOM     57  H7  PRO d   1     -13.296 -57.868   4.423  0.00  0.00     0.035 H 
ATOM     58  H4  PRO d   1     -11.759 -59.467   2.361  0.00  0.00     0.036 H 
ATOM     59  H5  PRO d   1     -11.184 -58.170   3.463  0.00  0.00     0.036 H 
ATOM     60  H3  PRO d   1     -10.784 -60.808   4.065  0.00  0.00     0.099 H 
ENDBRANCH  44  47
ENDBRANCH  41  43
BRANCH  41  61
ATOM     61  CB  PRO d   1      -7.656 -59.245   7.232  0.00  0.00     0.059 C 
ATOM     62  H12 PRO d   1      -7.712 -60.313   6.976  0.00  0.00     0.079 H 
ATOM     63  H13 PRO d   1      -7.433 -59.136   8.304  0.00  0.00     0.079 H 
BRANCH  61  64
ATOM     64  OG  PRO d   1      -6.662 -58.653   6.499  0.00  0.00    -0.280 OA
BRANCH  64  65
ATOM     65  P   PRO d   1      -5.620 -59.732   5.478  0.00  0.00     0.422 P 
ATOM     66  O1P PRO d   1      -5.485 -58.908   4.213  0.00  0.00    -0.617 OA
ATOM     67  O2P PRO d   1      -6.427 -61.011   5.322  0.00  0.00    -0.617 OA
ATOM     68  O3P PRO d   1      -4.376 -59.857   6.333  0.00  0.00    -0.617 OA
ENDBRANCH  64  65
ENDBRANCH  61  64
ENDBRANCH  41  61
ENDBRANCH  38  41
ENDBRANCH  35  37
BRANCH  35  69
ATOM     69  CB  PRO d   1      -9.694 -54.204   8.340  0.00  0.00    -0.008 C 
ATOM     70  H16 PRO d   1      -9.535 -53.117   8.295  0.00  0.00     0.044 H 
ATOM     71  H17 PRO d   1      -9.845 -54.510   9.386  0.00  0.00     0.044 H 
BRANCH  69  72
ATOM     72  CG  PRO d   1     -10.909 -54.536   7.570  0.00  0.00     0.028 A 
ATOM     73  CD1 PRO d   1     -11.788 -55.537   7.972  0.00  0.00     0.167 A 
ATOM     74  FD1 PRO d   1     -11.540 -56.239   9.093  0.00  0.00    -0.202 F 
ATOM     75  CE1 PRO d   1     -12.932 -55.847   7.243  0.00  0.00     0.197 A 
ATOM     76  FE1 PRO d   1     -13.767 -56.825   7.657  0.00  0.00    -0.199 F 
ATOM     77  CZ  PRO d   1     -13.213 -55.150   6.094  0.00  0.00     0.199 A 
ATOM     78  CE2 PRO d   1     -12.365 -54.156   5.672  0.00  0.00     0.197 A 
ATOM     79  FZ  PRO d   1     -14.323 -55.438   5.374  0.00  0.00    -0.199 F 
ATOM     80  CD2 PRO d   1     -11.234 -53.857   6.399  0.00  0.00     0.167 A 
ATOM     81  FE2 PRO d   1     -12.639 -53.466   4.544  0.00  0.00    -0.199 F 
ATOM     82  FD2 PRO d   1     -10.445 -52.872   5.926  0.00  0.00    -0.202 F 
ENDBRANCH  69  72
ENDBRANCH  35  69
ENDBRANCH  32  35
ENDBRANCH  29  31
BRANCH  29  83
ATOM     83  CB  PRO d   1      -3.550 -54.655   8.020  0.00  0.00     0.043 C 
ATOM     84  H20 PRO d   1      -2.738 -53.971   8.308  0.00  0.00     0.052 H 
ATOM     85  H21 PRO d   1      -3.787 -54.515   6.955  0.00  0.00     0.052 H 
BRANCH  83  86
ATOM     86  CG  PRO d   1      -3.081 -56.083   8.230  0.00  0.00     0.175 C 
ATOM     87  OD1 PRO d   1      -3.489 -56.974   7.451  0.00  0.00    -0.648 OA
ATOM     88  OD2 PRO d   1      -2.310 -56.311   9.187  0.00  0.00    -0.648 OA
ENDBRANCH  83  86
ENDBRANCH  29  83
ENDBRANCH  26  29
ENDBRANCH  23  25
BRANCH  23  89
ATOM     89  CB  PRO d   1      -2.708 -50.842  11.455  0.00  0.00     0.059 C 
ATOM     90  H24 PRO d   1      -3.039 -51.099  12.472  0.00  0.00     0.079 H 
ATOM     91  H25 PRO d   1      -2.344 -49.804  11.439  0.00  0.00     0.079 H 
BRANCH  89  92
ATOM     92  OG  PRO d   1      -1.706 -51.687  11.070  0.00  0.00    -0.280 OA
BRANCH  92  93
ATOM     93  P   PRO d   1      -0.132 -51.499  11.890  0.00  0.00     0.422 P 
ATOM     94  O1P PRO d   1       0.445 -50.298  11.169  0.00  0.00    -0.617 OA
ATOM     95  O2P PRO d   1       0.575 -52.814  11.603  0.00  0.00    -0.617 OA
ATOM     96  O3P PRO d   1      -0.553 -51.286  13.328  0.00  0.00    -0.617 OA
ENDBRANCH  92  93
ENDBRANCH  89  92
ENDBRANCH  23  89
ENDBRANCH  20  23
ENDBRANCH  17  19
BRANCH  17  97
ATOM     97  CB  PRO d   1      -5.095 -47.374   7.603  0.00  0.00    -0.008 C 
ATOM     98  H28 PRO d   1      -4.824 -46.643   6.827  0.00  0.00     0.044 H 
ATOM     99  H29 PRO d   1      -5.718 -46.885   8.366  0.00  0.00     0.044 H 
BRANCH  97 100
ATOM    100  CG  PRO d   1      -5.859 -48.474   6.987  0.00  0.00     0.028 A 
ATOM    101  CD1 PRO d   1      -6.869 -49.139   7.667  0.00  0.00     0.167 A 
ATOM    102  FD1 PRO d   1      -7.184 -48.772   8.918  0.00  0.00    -0.202 F 
ATOM    103  CE1 PRO d   1      -7.584 -50.181   7.093  0.00  0.00     0.197 A 
ATOM    104  FE1 PRO d   1      -8.566 -50.800   7.787  0.00  0.00    -0.199 F 
ATOM    105  CZ  PRO d   1      -7.288 -50.581   5.813  0.00  0.00     0.199 A 
ATOM    106  CE2 PRO d   1      -6.289 -49.946   5.112  0.00  0.00     0.197 A 
ATOM    107  FZ  PRO d   1      -7.979 -51.597   5.244  0.00  0.00    -0.199 F 
ATOM    108  CD2 PRO d   1      -5.588 -48.911   5.700  0.00  0.00     0.167 A 
ATOM    109  FE2 PRO d   1      -5.989 -50.333   3.848  0.00  0.00    -0.199 F 
ATOM    110  FD2 PRO d   1      -4.621 -48.324   4.975  0.00  0.00    -0.202 F 
ENDBRANCH  97 100
ENDBRANCH  17  97
ENDBRANCH  14  17
ENDBRANCH  11  13
BRANCH  11 111
ATOM    111  CB  PRO d   1      -0.714 -46.681  11.410  0.00  0.00     0.043 C 
ATOM    112  H32 PRO d   1      -0.132 -47.609  11.310  0.00  0.00     0.052 H 
ATOM    113  H33 PRO d   1      -1.692 -46.908  11.860  0.00  0.00     0.052 H 
BRANCH 111 114
ATOM    114  CG  PRO d   1       0.033 -45.740  12.330  0.00  0.00     0.175 C 
ATOM    115  OD1 PRO d   1       0.051 -44.519  12.067  0.00  0.00    -0.648 OA
ATOM    116  OD2 PRO d   1       0.609 -46.232  13.320  0.00  0.00    -0.648 OA
ENDBRANCH 111 114
ENDBRANCH  11 111
ENDBRANCH   8  11
ENDBRANCH   5   7
BRANCH   5 117
ATOM    117  CB  PRO d   1       1.649 -44.392   6.683  0.00  0.00    -0.008 C 
ATOM    118  H36 PRO d   1       2.620 -44.183   6.210  0.00  0.00     0.044 H 
ATOM    119  H37 PRO d   1       0.900 -43.675   6.315  0.00  0.00     0.044 H 
BRANCH 117 120
ATOM    120  CG  PRO d   1       1.226 -45.746   6.308  0.00  0.00     0.028 A 
ATOM    121  CD1 PRO d   1      -0.100 -46.043   6.019  0.00  0.00     0.167 A 
ATOM    122  FD1 PRO d   1      -1.040 -45.081   6.077  0.00  0.00    -0.202 F 
ATOM    123  CE1 PRO d   1      -0.504 -47.315   5.663  0.00  0.00     0.197 A 
ATOM    124  FE1 PRO d   1      -1.803 -47.561   5.393  0.00  0.00    -0.199 F 
ATOM    125  CZ  PRO d   1       0.423 -48.324   5.588  0.00  0.00     0.199 A 
ATOM    126  CE2 PRO d   1       1.745 -48.065   5.872  0.00  0.00     0.197 A 
ATOM    127  FZ  PRO d   1       0.035 -49.573   5.242  0.00  0.00    -0.199 F 
ATOM    128  CD2 PRO d   1       2.135 -46.790   6.227  0.00  0.00     0.167 A 
ATOM    129  FE2 PRO d   1       2.666 -49.054   5.809  0.00  0.00    -0.199 F 
ATOM    130  FD2 PRO d   1       3.441 -46.590   6.499  0.00  0.00    -0.202 F 
ENDBRANCH 117 120
ENDBRANCH   5 117
ENDBRANCH   1   5
BRANCH   3 131
ATOM    131  CA  PRO d   1       4.104 -41.156   8.363  0.00  0.00     0.090 C 
ATOM    132  H39 PRO d   1       4.103 -40.907   9.434  0.00  0.00     0.087 H 
BRANCH 131 133
ATOM    133  C   PRO d   1       3.268 -40.099   7.629  0.00  0.00     0.241 C 
ATOM    134  O   PRO d   1       3.041 -39.007   8.153  0.00  0.00    -0.271 OA
ATOM    135  N   PRO d   1       2.803 -40.428   6.426  0.00  0.00    -0.346 N 
ATOM    136  H44 PRO d   1       2.975 -41.347   6.071  0.00  0.00     0.163 HD
BRANCH 135 137
ATOM    137  CA  PRO d   1       2.046 -39.476   5.611  0.00  0.00     0.098 C 
ATOM    138  H45 PRO d   1       2.367 -38.461   5.886  0.00  0.00     0.088 H 
BRANCH 137 139
ATOM    139  C   PRO d   1       0.544 -39.587   5.864  0.00  0.00     0.241 C 
ATOM    140  O   PRO d   1      -0.244 -38.797   5.342  0.00  0.00    -0.271 OA
ATOM    141  N   PRO d   1       0.159 -40.577   6.662  0.00  0.00    -0.346 N 
ATOM    142  H48 PRO d   1       0.848 -41.217   7.002  0.00  0.00     0.163 HD
BRANCH 141 143
ATOM    143  CA  PRO d   1      -1.218 -40.764   7.057  0.00  0.00     0.093 C 
ATOM    144  H49 PRO d   1      -1.684 -39.771   7.144  0.00  0.00     0.088 H 
BRANCH 143 145
ATOM    145  CB  PRO d   1      -1.954 -41.561   5.946  0.00  0.00    -0.008 C 
ATOM    146  H50 PRO d   1      -1.623 -42.609   5.989  0.00  0.00     0.044 H 
ATOM    147  H51 PRO d   1      -1.686 -41.131   4.970  0.00  0.00     0.044 H 
BRANCH 145 148
ATOM    148  CG  PRO d   1      -3.428 -41.526   6.088  0.00  0.00     0.028 A 
ATOM    149  CD1 PRO d   1      -4.135 -40.331   6.034  0.00  0.00     0.167 A 
ATOM    150  FD1 PRO d   1      -3.484 -39.172   5.849  0.00  0.00    -0.202 F 
ATOM    151  CE1 PRO d   1      -5.513 -40.280   6.167  0.00  0.00     0.197 A 
ATOM    152  FE1 PRO d   1      -6.154 -39.091   6.112  0.00  0.00    -0.199 F 
ATOM    153  CZ  PRO d   1      -6.220 -41.446   6.358  0.00  0.00     0.199 A 
ATOM    154  CE2 PRO d   1      -5.557 -42.647   6.415  0.00  0.00     0.197 A 
ATOM    155  FZ  PRO d   1      -7.568 -41.420   6.489  0.00  0.00    -0.199 F 
ATOM    156  CD2 PRO d   1      -4.181 -42.682   6.280  0.00  0.00     0.167 A 
ATOM    157  FE2 PRO d   1      -6.255 -43.792   6.599  0.00  0.00    -0.199 F 
ATOM    158  FD2 PRO d   1      -3.589 -43.889   6.343  0.00  0.00    -0.202 F 
ENDBRANCH 145 148
ENDBRANCH 143 145
BRANCH 143 159
ATOM    159  C   PRO d   1      -1.377 -41.492   8.447  0.00  0.00     0.243 C 
ATOM    160  O   PRO d   1      -1.833 -42.657   8.484  0.00  0.00    -0.271 OA
ATOM    161  N   PRO d   1      -0.999 -40.810   9.540  0.00  0.00    -0.337 N 
ATOM    162  CA  PRO d   1      -0.960 -41.411  10.877  0.00  0.00     0.091 C 
ATOM    163  CD  PRO d   1      -0.651 -39.378   9.576  0.00  0.00    -0.001 C 
ATOM    164  CB  PRO d   1      -0.269 -40.337  11.718  0.00  0.00    -0.036 C 
ATOM    165  H52 PRO d   1      -0.366 -42.337  10.862  0.00  0.00     0.087 H 
ATOM    166  CG  PRO d   1      -0.616 -39.063  11.040  0.00  0.00    -0.048 C 
ATOM    167  H53 PRO d   1       0.820 -40.490  11.727  0.00  0.00     0.036 H 
ATOM    168  H54 PRO d   1      -0.649 -40.346  12.750  0.00  0.00     0.036 H 
ATOM    169  H55 PRO d   1       0.146 -38.297  11.249  0.00  0.00     0.035 H 
ATOM    170  H56 PRO d   1      -1.599 -38.704  11.378  0.00  0.00     0.035 H 
ATOM    171  H57 PRO d   1      -1.414 -38.775   9.062  0.00  0.00     0.064 H 
ATOM    172  H58 PRO d   1       0.330 -39.200   9.112  0.00  0.00     0.064 H 
BRANCH 162 173
ATOM    173  C   PRO d   1      -2.342 -41.725  11.428  0.00  0.00     0.241 C 
ATOM    174  O   PRO d   1      -3.263 -40.910  11.317  0.00  0.00    -0.271 OA
ATOM    175  N   PRO d   1      -2.480 -42.913  12.006  0.00  0.00    -0.346 N 
ATOM    176  H59 PRO d   1      -1.715 -43.557  11.989  0.00  0.00     0.163 HD
BRANCH 175 177
ATOM    177  CA  PRO d   1      -3.717 -43.297  12.661  0.00  0.00     0.086 C 
ATOM    178  H60 PRO d   1      -4.562 -42.969  12.038  0.00  0.00     0.086 H 
BRANCH 177 179
ATOM    179  C   PRO d   1      -3.818 -42.621  14.021  0.00  0.00     0.240 C 
ATOM    180  O   PRO d   1      -2.818 -42.421  14.715  0.00  0.00    -0.271 OA
ATOM    181  N   PRO d   1      -5.041 -42.255  14.388  0.00  0.00    -0.346 N 
ATOM    182  H64 PRO d   1      -5.792 -42.352  13.735  0.00  0.00     0.163 HD
BRANCH 181 183
ATOM    183  CA  PRO d   1      -5.321 -41.718  15.709  0.00  0.00     0.086 C 
ATOM    184  H65 PRO d   1      -4.420 -41.204  16.075  0.00  0.00     0.086 H 
BRANCH 183 185
ATOM    185  C   PRO d   1      -5.663 -42.849  16.674  0.00  0.00     0.240 C 
ATOM    186  O   PRO d   1      -6.013 -43.961  16.271  0.00  0.00    -0.271 OA
ATOM    187  N   PRO d   1      -5.547 -42.549  17.965  0.00  0.00    -0.346 N 
ATOM    188  H69 PRO d   1      -5.268 -41.625  18.227  0.00  0.00     0.163 HD
BRANCH 187 189
ATOM    189  CA  PRO d   1      -5.816 -43.532  19.007  0.00  0.00     0.089 C 
ATOM    190  H70 PRO d   1      -6.495 -44.296  18.600  0.00  0.00     0.087 H 
BRANCH 189 191
ATOM    191  C   PRO d   1      -6.497 -42.871  20.201  0.00  0.00     0.241 C 
ATOM    192  O   PRO d   1      -7.632 -43.216  20.544  0.00  0.00    -0.271 OA
ATOM    193  N   PRO d   1      -5.821 -41.912  20.826  0.00  0.00    -0.346 N 
ATOM    194  H80 PRO d   1      -4.925 -41.640  20.476  0.00  0.00     0.163 HD
BRANCH 193 195
ATOM    195  CA  PRO d   1      -6.354 -41.247  22.009  0.00  0.00     0.093 C 
ATOM    196  H81 PRO d   1      -7.123 -41.897  22.452  0.00  0.00     0.088 H 
BRANCH 195 197
ATOM    197  C   PRO d   1      -7.002 -39.907  21.659  0.00  0.00     0.238 C 
ATOM    198  O   PRO d   1      -6.609 -39.249  20.698  0.00  0.00    -0.271 OA
ATOM    199  N   PRO d   1      -7.994 -39.506  22.448  0.00  0.00    -0.368 N 
ATOM    200  H90 PRO d   1      -8.456 -38.638  22.268  0.00  0.00     0.159 HD
ATOM    201  H91 PRO d   1      -8.278 -40.073  23.221  0.00  0.00     0.159 HD
ENDBRANCH 195 197
BRANCH 195 202
ATOM    202  CB  PRO d   1      -5.243 -41.035  23.037  0.00  0.00    -0.012 C 
ATOM    203  H82 PRO d   1      -5.704 -40.754  23.995  0.00  0.00     0.044 H 
ATOM    204  H83 PRO d   1      -4.596 -40.217  22.688  0.00  0.00     0.044 H 
BRANCH 202 205
ATOM    205  CG  PRO d   1      -4.395 -42.251  23.256  0.00  0.00    -0.028 A 
ATOM    206  CD1 PRO d   1      -3.089 -42.413  22.898  0.00  0.00    -0.015 A 
ATOM    207  NE1 PRO d   1      -2.649 -43.664  23.263  0.00  0.00    -0.365 N 
ATOM    208  H84 PRO d   1      -2.482 -41.661  22.396  0.00  0.00     0.112 H 
ATOM    209  CE2 PRO d   1      -3.679 -44.337  23.867  0.00  0.00     0.042 A 
ATOM    210  H85 PRO d   1      -1.701 -44.035  23.108  0.00  0.00     0.165 HD
ATOM    211  CD2 PRO d   1      -4.796 -43.478  23.879  0.00  0.00    -0.002 A 
ATOM    212  CZ2 PRO d   1      -3.723 -45.624  24.399  0.00  0.00    -0.056 A 
ATOM    213  CE3 PRO d   1      -5.990 -43.932  24.444  0.00  0.00    -0.070 A 
ATOM    214  CZ3 PRO d   1      -6.031 -45.210  24.971  0.00  0.00    -0.082 A 
ATOM    215  H86 PRO d   1      -6.867 -43.295  24.469  0.00  0.00     0.084 H 
ATOM    216  CH2 PRO d   1      -4.905 -46.041  24.945  0.00  0.00    -0.081 A 
ATOM    217  H88 PRO d   1      -6.952 -45.575  25.412  0.00  0.00     0.083 H 
ATOM    218  H89 PRO d   1      -4.972 -47.037  25.367  0.00  0.00     0.083 H 
ATOM    219  H87 PRO d   1      -2.853 -46.270  24.381  0.00  0.00     0.086 H 
ENDBRANCH 202 205
ENDBRANCH 195 202
ENDBRANCH 193 195
ENDBRANCH 189 191
BRANCH 189 220
ATOM    220  CB  PRO d   1      -4.514 -44.218  19.433  0.00  0.00    -0.035 C 
ATOM    221  H71 PRO d   1      -3.825 -43.431  19.774  0.00  0.00     0.037 H 
ATOM    222  H72 PRO d   1      -4.096 -44.710  18.542  0.00  0.00     0.037 H 
BRANCH 220 223
ATOM    223  CG  PRO d   1      -4.589 -45.271  20.542  0.00  0.00    -0.059 C 
ATOM    224  H73 PRO d   1      -4.925 -44.776  21.465  0.00  0.00     0.038 H 
BRANCH 223 225
ATOM    225  CD1 PRO d   1      -5.581 -46.363  20.202  0.00  0.00    -0.073 C 
ATOM    226  H74 PRO d   1      -5.609 -47.100  21.018  0.00  0.00     0.028 H 
ATOM    227  H75 PRO d   1      -5.274 -46.860  19.270  0.00  0.00     0.028 H 
ATOM    228  H76 PRO d   1      -6.580 -45.923  20.071  0.00  0.00     0.028 H 
ENDBRANCH 223 225
BRANCH 223 229
ATOM    229  CD2 PRO d   1      -3.210 -45.871  20.791  0.00  0.00    -0.073 C 
ATOM    230  H77 PRO d   1      -2.500 -45.068  21.037  0.00  0.00     0.028 H 
ATOM    231  H78 PRO d   1      -2.870 -46.397  19.887  0.00  0.00     0.028 H 
ATOM    232  H79 PRO d   1      -3.265 -46.581  21.629  0.00  0.00     0.028 H 
ENDBRANCH 223 229
ENDBRANCH 220 223
ENDBRANCH 189 220
ENDBRANCH 187 189
ENDBRANCH 183 185
BRANCH 183 233
ATOM    233  CB  PRO d   1      -6.469 -40.707  15.653  0.00  0.00    -0.049 C 
ATOM    234  H66 PRO d   1      -6.662 -40.315  16.663  0.00  0.00     0.030 H 
ATOM    235  H67 PRO d   1      -7.375 -41.201  15.272  0.00  0.00     0.030 H 
ATOM    236  H68 PRO d   1      -6.195 -39.878  14.984  0.00  0.00     0.030 H 
ENDBRANCH 183 233
ENDBRANCH 181 183
ENDBRANCH 177 179
BRANCH 177 237
ATOM    237  CB  PRO d   1      -3.792 -44.816  12.827  0.00  0.00    -0.049 C 
ATOM    238  H61 PRO d   1      -4.736 -45.084  13.325  0.00  0.00     0.030 H 
ATOM    239  H62 PRO d   1      -2.945 -45.160  13.438  0.00  0.00     0.030 H 
ATOM    240  H63 PRO d   1      -3.750 -45.295  11.838  0.00  0.00     0.030 H 
ENDBRANCH 177 237
ENDBRANCH 175 177
ENDBRANCH 162 173
ENDBRANCH 143 159
ENDBRANCH 141 143
ENDBRANCH 137 139
BRANCH 137 241
ATOM    241  CB  PRO d   1       2.336 -39.690   4.125  0.00  0.00     0.043 C 
ATOM    242  H46 PRO d   1       3.420 -39.599   3.961  0.00  0.00     0.052 H 
ATOM    243  H47 PRO d   1       1.811 -38.914   3.548  0.00  0.00     0.052 H 
BRANCH 241 244
ATOM    244  CG  PRO d   1       1.884 -41.048   3.634  0.00  0.00     0.175 C 
ATOM    245  OD1 PRO d   1       2.283 -42.065   4.238  0.00  0.00    -0.648 OA
ATOM    246  OD2 PRO d   1       1.120 -41.103   2.649  0.00  0.00    -0.648 OA
ENDBRANCH 241 244
ENDBRANCH 137 241
ENDBRANCH 135 137
ENDBRANCH 131 133
BRANCH 131 247
ATOM    247  CB  PRO d   1       5.555 -41.148   7.864  0.00  0.00    -0.029 C 
ATOM    248  H40 PRO d   1       5.647 -41.909   7.075  0.00  0.00     0.037 H 
ATOM    249  H41 PRO d   1       6.206 -41.416   8.709  0.00  0.00     0.037 H 
BRANCH 247 250
ATOM    250  CG  PRO d   1       6.040 -39.826   7.299  0.00  0.00     0.018 C 
ATOM    251  H42 PRO d   1       5.904 -39.044   8.061  0.00  0.00     0.049 H 
ATOM    252  H43 PRO d   1       5.441 -39.580   6.410  0.00  0.00     0.049 H 
BRANCH 250 253
ATOM    253  CD  PRO d   1       7.503 -39.874   6.904  0.00  0.00     0.172 C 
ATOM    254  OE1 PRO d   1       8.332 -40.310   7.730  0.00  0.00    -0.648 OA
ATOM    255  OE2 PRO d   1       7.822 -39.484   5.759  0.00  0.00    -0.648 OA
ENDBRANCH 250 253
ENDBRANCH 247 250
ENDBRANCH 131 247
ENDBRANCH   3 131
TORSDOF 61
