REMARK  3 active torsions:
REMARK  status: ('A' for Active; 'I' for Inactive)
REMARK    1  A    between atoms: C9_6  and  C10_15 
REMARK    2  A    between atoms: N4_21  and  C9_6 
REMARK    3  A    between atoms: C1_11  and  C11_16 
ROOT
ATOM      1  N5  G54 d   1      -4.012  12.755  -5.918  0.00  0.00    -0.172 NA
ATOM      2  N4  G54 d   1      -4.670  15.075  -6.660  0.00  0.00    -0.315 N 
ATOM      3  C17 G54 d   1      -4.360  13.812  -6.244  0.00  0.00     0.178 C 
ATOM      4  H15 G54 d   1      -5.655  15.375  -6.650  0.00  0.00     0.172 HD
ENDROOT
BRANCH   2   5
ATOM      5  C9  G54 d   1      -3.628  16.035  -7.128  0.00  0.00     0.064 C 
ATOM      6  C8  G54 d   1      -4.332  17.404  -7.457  0.00  0.00    -0.034 C 
ATOM      7  C7  G54 d   1      -4.174  18.284  -6.194  0.00  0.00    -0.038 C 
ATOM      8  H5  G54 d   1      -3.848  17.884  -8.320  0.00  0.00     0.037 H 
ATOM      9  H6  G54 d   1      -5.397  17.242  -7.678  0.00  0.00     0.037 H 
ATOM     10  C4  G54 d   1      -3.002  17.671  -5.466  0.00  0.00    -0.049 A 
ATOM     11  H2  G54 d   1      -3.961  19.328  -6.469  0.00  0.00     0.040 H 
ATOM     12  H3  G54 d   1      -5.082  18.246  -5.575  0.00  0.00     0.040 H 
ATOM     13  C3  G54 d   1      -2.221  18.200  -4.440  0.00  0.00    -0.075 A 
ATOM     14  C5  G54 d   1      -2.697  16.419  -5.988  0.00  0.00    -0.023 A 
ATOM     15  C2  G54 d   1      -1.147  17.488  -3.936  0.00  0.00    -0.070 A 
ATOM     16  H9  G54 d   1      -2.457  19.177  -4.034  0.00  0.00     0.084 H 
ATOM     17  C1  G54 d   1      -0.823  16.230  -4.439  0.00  0.00    -0.006 A 
ATOM     18  H8  G54 d   1      -0.549  17.915  -3.139  0.00  0.00     0.084 H 
ATOM     19  C6  G54 d   1      -1.613  15.712  -5.468  0.00  0.00    -0.062 A 
ATOM     20  H4  G54 d   1      -1.377  14.735  -5.873  0.00  0.00     0.085 H 
BRANCH  17  21
ATOM     21  C11 G54 d   1       0.319  15.445  -3.897  0.00  0.00     0.082 A 
ATOM     22  N1  G54 d   1       1.383  16.145  -3.469  0.00  0.00    -0.240 NA
ATOM     23  C12 G54 d   1       2.459  15.469  -3.049  0.00  0.00     0.089 A 
ATOM     24  N2  G54 d   1       2.650  14.149  -3.012  0.00  0.00    -0.224 NA
ATOM     25  H13 G54 d   1       3.284  16.074  -2.692  0.00  0.00     0.146 H 
ATOM     26  C13 G54 d   1       1.574  13.463  -3.457  0.00  0.00     0.141 A 
ATOM     27  N3  G54 d   1       1.454  12.112  -3.575  0.00  0.00    -0.350 N 
ATOM     28  C14 G54 d   1       0.325  14.047  -3.900  0.00  0.00     0.041 A 
ATOM     29  C15 G54 d   1       0.210  11.804  -4.053  0.00  0.00    -0.020 A 
ATOM     30  H1  G54 d   1       2.187  11.427  -3.341  0.00  0.00     0.166 HD
ATOM     31  C16 G54 d   1      -0.507  12.938  -4.259  0.00  0.00    -0.052 A 
ATOM     32  H14 G54 d   1      -0.153  10.795  -4.241  0.00  0.00     0.111 H 
ATOM     33  H7  G54 d   1      -1.529  12.994  -4.630  0.00  0.00     0.087 H 
ENDBRANCH  17  21
BRANCH   5  34
ATOM     34  C10 G54 d   1      -2.843  15.518  -8.338  0.00  0.00    -0.048 C 
ATOM     35  H10 G54 d   1      -2.362  14.562  -8.082  0.00  0.00     0.031 H 
ATOM     36  H11 G54 d   1      -2.073  16.253  -8.617  0.00  0.00     0.031 H 
ATOM     37  H12 G54 d   1      -3.530  15.367  -9.184  0.00  0.00     0.031 H 
ENDBRANCH   5  34
ENDBRANCH   2   5
TORSDOF 3
