REMARK  4 active torsions:
REMARK  status: ('A' for Active; 'I' for Inactive)
REMARK    1  A    between atoms: N4_26  and  C9_6 
REMARK    2  A    between atoms: C15_24  and  C16_13 
REMARK    3  A    between atoms: C1_15  and  C10_19 
REMARK    4  A    between atoms: N4_26  and  C22_27 
ROOT
ATOM      1  N3  G4Y d   1       1.257  12.154  -3.569  0.00  0.00    -0.225 NA
ATOM      2  N2  G4Y d   1       2.644  14.119  -3.256  0.00  0.00    -0.205 NA
ATOM      3  C13 G4Y d   1       0.306  14.182  -4.100  0.00  0.00     0.055 A 
ATOM      4  C10 G4Y d   1       0.415  15.589  -4.135  0.00  0.00     0.086 A 
ATOM      5  N1  G4Y d   1       1.569  16.200  -3.815  0.00  0.00    -0.224 NA
ATOM      6  C11 G4Y d   1       2.598  15.445  -3.411  0.00  0.00     0.200 A 
ATOM      7  C12 G4Y d   1       1.494  13.496  -3.591  0.00  0.00     0.166 A 
ATOM      8  C14 G4Y d   1       0.000  11.907  -4.071  0.00  0.00     0.101 A 
ATOM      9  C15 G4Y d   1      -0.632  13.105  -4.425  0.00  0.00     0.024 A 
ENDROOT
BRANCH   4  10
ATOM     10  C1  G4Y d   1      -0.715  16.494  -4.478  0.00  0.00     0.018 A 
ATOM     11  C6  G4Y d   1      -0.507  17.608  -5.298  0.00  0.00    -0.001 A 
ATOM     12  C5  G4Y d   1      -1.563  18.428  -5.707  0.00  0.00     0.004 A 
ATOM     13  C4  G4Y d   1      -2.867  18.106  -5.292  0.00  0.00    -0.002 A 
ATOM     14  C9  G4Y d   1      -1.576  19.713  -6.437  0.00  0.00     0.149 C 
ATOM     15  C7  G4Y d   1      -3.768  18.997  -5.980  0.00  0.00    -0.003 C 
ATOM     16  C3  G4Y d   1      -3.079  17.018  -4.438  0.00  0.00    -0.000 A 
ATOM     17  C8  G4Y d   1      -3.074  19.881  -6.692  0.00  0.00     0.002 C 
ATOM     18  C2  G4Y d   1      -2.013  16.238  -4.027  0.00  0.00     0.002 A 
BRANCH  14  19
ATOM     19  N4  G4Y d   1      -0.646  19.723  -7.562  0.00  0.00    -0.242 NA
BRANCH  19  20
ATOM     20  C22 G4Y d   1       0.038  20.916  -7.873  0.00  0.00     0.218 C 
ATOM     21  N5  G4Y d   1      -0.029  22.104  -7.283  0.00  0.00    -0.124 N 
ENDBRANCH  19  20
ENDBRANCH  14  19
ENDBRANCH   4  10
BRANCH   9  22
ATOM     22  C16 G4Y d   1      -1.961  13.209  -5.093  0.00  0.00     0.002 A 
ATOM     23  C21 G4Y d   1      -2.130  14.016  -6.216  0.00  0.00     0.000 A 
ATOM     24  C20 G4Y d   1      -3.383  14.143  -6.809  0.00  0.00     0.000 A 
ATOM     25  C19 G4Y d   1      -4.468  13.453  -6.302  0.00  0.00     0.000 A 
ATOM     26  C18 G4Y d   1      -4.310  12.634  -5.206  0.00  0.00     0.000 A 
ATOM     27  C17 G4Y d   1      -3.068  12.512  -4.594  0.00  0.00     0.000 A 
ENDBRANCH   9  22
TORSDOF 4
