REMARK  14 active torsions:
REMARK  status: ('A' for Active; 'I' for Inactive)
REMARK       I    between atoms: C21_2  and  N5_3 
REMARK    1  A    between atoms: C21_2  and  C20_21 
REMARK    2  A    between atoms: C24_6  and  C27_7 
REMARK    3  A    between atoms: C30_10  and  C33_11 
REMARK    4  A    between atoms: N7_13  and  C35_14 
REMARK    5  A    between atoms: C20_21  and  N4_22 
REMARK    6  A    between atoms: C16_26  and  S_27 
REMARK    7  A    between atoms: C16_26  and  C15_29 
REMARK    8  A    between atoms: S_27  and  C36_28 
REMARK       I    between atoms: C15_29  and  N3_31 
REMARK    9  A    between atoms: N3_31  and  C11_32 
REMARK   10  A    between atoms: C8_40  and  C6_41 
REMARK   11  A    between atoms: C3_46  and  O_47 
REMARK   12  A    between atoms: O_47  and  C1_48 
REMARK   13  A    between atoms: C1_48  and  C2_49 
REMARK   14  A    between atoms: C1_48  and  C_50 
ROOT
ATOM      1  N4  G67 d   1      47.700  18.357   9.250  0.00  0.00    -0.061 N 
ATOM      2  C18 G67 d   1      46.288  18.152   8.837  0.00  0.00     0.086 C 
ATOM      3  C17 G67 d   1      46.143  16.645   8.834  0.00  0.00    -0.017 C 
ATOM      4  C19 G67 d   1      47.793  17.477  10.477  0.00  0.00     0.108 C 
ATOM      5  C16 G67 d   1      47.120  16.210   9.939  0.00  0.00     0.114 C 
ATOM      6  H18 G67 d   1      48.328  18.041   8.528  0.00  0.00     0.280 HD
ATOM      7  H19 G67 d   1      46.106  18.568   7.835  0.00  0.00     0.076 H 
ATOM      8  H20 G67 d   1      45.596  18.613   9.557  0.00  0.00     0.076 H 
ATOM      9  H21 G67 d   1      46.430  16.221   7.861  0.00  0.00     0.038 H 
ATOM     10  H22 G67 d   1      45.112  16.345   9.075  0.00  0.00     0.038 H 
ATOM     11  H23 G67 d   1      47.242  17.903  11.329  0.00  0.00     0.079 H 
ATOM     12  H24 G67 d   1      48.837  17.293  10.770  0.00  0.00     0.079 H 
ENDROOT
BRANCH   5  13
ATOM     13  S   G67 d   1      46.101  15.465  11.287  0.00  0.00    -0.152 SA
BRANCH  13  14
ATOM     14  C36 G67 d   1      47.198  14.851  12.566  0.00  0.00    -0.033 C 
ATOM     15  H25 G67 d   1      46.603  14.404  13.376  0.00  0.00     0.041 H 
ATOM     16  H26 G67 d   1      47.796  15.683  12.966  0.00  0.00     0.041 H 
ATOM     17  H27 G67 d   1      47.868  14.089  12.140  0.00  0.00     0.041 H 
ENDBRANCH  13  14
ENDBRANCH   5  13
BRANCH   5  18
ATOM     18  C15 G67 d   1      48.145  15.235   9.377  0.00  0.00     0.242 C 
ATOM     19  O1  G67 d   1      49.305  15.573   9.184  0.00  0.00    -0.271 OA
ATOM     20  N3  G67 d   1      47.675  13.981   9.209  0.00  0.00    -0.326 N 
ATOM     21  H28 G67 d   1      46.751  13.799   9.544  0.00  0.00     0.169 HD
BRANCH  20  22
ATOM     22  C11 G67 d   1      48.358  12.895   8.606  0.00  0.00     0.035 A 
ATOM     23  C10 G67 d   1      47.764  11.635   8.698  0.00  0.00    -0.043 A 
ATOM     24  C9  G67 d   1      48.448  10.519   8.230  0.00  0.00     0.026 A 
ATOM     25  H29 G67 d   1      46.776  11.528   9.131  0.00  0.00     0.088 H 
ATOM     26  C14 G67 d   1      49.681  10.709   7.574  0.00  0.00     0.062 A 
ATOM     27  C8  G67 d   1      48.211   9.059   8.213  0.00  0.00     0.101 A 
ATOM     28  C13 G67 d   1      50.246  11.962   7.423  0.00  0.00    -0.053 A 
ATOM     29  N1  G67 d   1      50.100   9.483   7.184  0.00  0.00    -0.277 N 
ATOM     30  C12 G67 d   1      49.587  13.052   7.956  0.00  0.00    -0.055 A 
ATOM     31  H31 G67 d   1      51.186  12.086   6.897  0.00  0.00     0.087 H 
ATOM     32  H30 G67 d   1      50.026  14.039   7.870  0.00  0.00     0.087 H 
ATOM     33  N2  G67 d   1      49.235   8.515   7.563  0.00  0.00    -0.173 NA
ATOM     34  H32 G67 d   1      50.971   9.308   6.662  0.00  0.00     0.189 HD
BRANCH  27  35
ATOM     35  C6  G67 d   1      47.089   8.248   8.767  0.00  0.00     0.013 A 
ATOM     36  C5  G67 d   1      46.787   7.007   8.223  0.00  0.00    -0.065 A 
ATOM     37  C4  G67 d   1      45.814   6.211   8.794  0.00  0.00    -0.031 A 
ATOM     38  H33 G67 d   1      47.319   6.661   7.344  0.00  0.00     0.085 H 
ATOM     39  C3  G67 d   1      45.133   6.727   9.904  0.00  0.00     0.164 A 
ATOM     40  H34 G67 d   1      45.587   5.227   8.400  0.00  0.00     0.090 H 
ATOM     41  N   G67 d   1      45.394   7.910  10.455  0.00  0.00    -0.236 NA
ATOM     42  C7  G67 d   1      46.373   8.647   9.890  0.00  0.00     0.017 A 
ATOM     43  H35 G67 d   1      46.615   9.604  10.337  0.00  0.00     0.116 H 
BRANCH  39  44
ATOM     44  O   G67 d   1      44.154   6.001  10.518  0.00  0.00    -0.330 OA
BRANCH  44  45
ATOM     45  C1  G67 d   1      43.402   4.953   9.811  0.00  0.00     0.040 C 
ATOM     46  H36 G67 d   1      44.079   4.371   9.168  0.00  0.00     0.083 H 
BRANCH  45  47
ATOM     47  C2  G67 d   1      42.864   4.080  10.906  0.00  0.00    -0.052 C 
ATOM     48  H37 G67 d   1      42.280   3.258  10.466  0.00  0.00     0.030 H 
ATOM     49  H38 G67 d   1      42.217   4.676  11.566  0.00  0.00     0.030 H 
ATOM     50  H39 G67 d   1      43.700   3.665  11.488  0.00  0.00     0.030 H 
ENDBRANCH  45  47
BRANCH  45  51
ATOM     51  C   G67 d   1      42.312   5.538   8.948  0.00  0.00    -0.052 C 
ATOM     52  H40 G67 d   1      41.773   4.726   8.437  0.00  0.00     0.030 H 
ATOM     53  H41 G67 d   1      42.758   6.210   8.200  0.00  0.00     0.030 H 
ATOM     54  H42 G67 d   1      41.610   6.104   9.578  0.00  0.00     0.030 H 
ENDBRANCH  45  51
ENDBRANCH  44  45
ENDBRANCH  39  44
ENDBRANCH  27  35
ENDBRANCH  20  22
ENDBRANCH   5  18
BRANCH   1  55
ATOM     55  C20 G67 d   1      48.029  19.778   9.585  0.00  0.00     0.156 C 
ATOM     56  H16 G67 d   1      47.223  20.195  10.207  0.00  0.00     0.090 H 
ATOM     57  H17 G67 d   1      48.975  19.804  10.145  0.00  0.00     0.090 H 
BRANCH  55  58
ATOM     58  C21 G67 d   1      48.174  20.625   8.326  0.00  0.00     0.246 C 
ATOM     59  O2  G67 d   1      48.166  20.089   7.226  0.00  0.00    -0.272 OA
ATOM     60  N5  G67 d   1      48.286  21.957   8.464  0.00  0.00    -0.347 N 
ATOM     61  C26 G67 d   1      48.167  22.880   7.337  0.00  0.00     0.013 C 
ATOM     62  C22 G67 d   1      48.271  22.687   9.732  0.00  0.00     0.002 C 
ATOM     63  C25 G67 d   1      46.877  23.615   7.482  0.00  0.00    -0.079 C 
ATOM     64  H1  G67 d   1      48.173  22.318   6.391  0.00  0.00     0.070 H 
ATOM     65  H2  G67 d   1      49.006  23.591   7.346  0.00  0.00     0.070 H 
ATOM     66  C24 G67 d   1      46.205  23.727   8.705  0.00  0.00    -0.049 C 
ATOM     67  H3  G67 d   1      46.441  24.083   6.601  0.00  0.00     0.080 H 
ATOM     68  C23 G67 d   1      46.843  23.147   9.975  0.00  0.00    -0.025 C 
ATOM     69  H12 G67 d   1      46.245  22.288  10.313  0.00  0.00     0.042 H 
ATOM     70  H13 G67 d   1      46.847  23.921  10.757  0.00  0.00     0.042 H 
ATOM     71  H14 G67 d   1      48.941  23.557   9.673  0.00  0.00     0.064 H 
ATOM     72  H15 G67 d   1      48.598  22.027  10.549  0.00  0.00     0.064 H 
BRANCH  66  73
ATOM     73  C27 G67 d   1      44.831  24.310   8.837  0.00  0.00    -0.030 A 
ATOM     74  C32 G67 d   1      44.114  24.182  10.028  0.00  0.00    -0.072 A 
ATOM     75  C31 G67 d   1      42.819  24.656  10.130  0.00  0.00    -0.068 A 
ATOM     76  H4  G67 d   1      44.578  23.705  10.884  0.00  0.00     0.084 H 
ATOM     77  C30 G67 d   1      42.192  25.262   9.045  0.00  0.00     0.013 A 
ATOM     78  H5  G67 d   1      42.285  24.554  11.068  0.00  0.00     0.085 H 
ATOM     79  C29 G67 d   1      42.913  25.414   7.861  0.00  0.00    -0.068 A 
ATOM     80  C28 G67 d   1      44.217  24.956   7.762  0.00  0.00    -0.072 A 
ATOM     81  H10 G67 d   1      42.448  25.896   7.008  0.00  0.00     0.085 H 
ATOM     82  H11 G67 d   1      44.767  25.101   6.839  0.00  0.00     0.084 H 
BRANCH  77  83
ATOM     83  C33 G67 d   1      40.749  25.600   9.104  0.00  0.00     0.180 A 
ATOM     84  N8  G67 d   1      40.066  25.620  10.241  0.00  0.00    -0.151 NA
ATOM     85  N7  G67 d   1      38.834  26.010   9.830  0.00  0.00    -0.266 N 
ATOM     86  C34 G67 d   1      38.836  26.192   8.500  0.00  0.00     0.084 A 
ATOM     87  N6  G67 d   1      40.035  25.950   8.002  0.00  0.00    -0.221 NA
ATOM     88  H9  G67 d   1      37.970  26.497   7.914  0.00  0.00     0.146 H 
BRANCH  85  89
ATOM     89  C35 G67 d   1      37.781  26.212  10.815  0.00  0.00     0.004 C 
ATOM     90  H6  G67 d   1      36.857  26.524  10.306  0.00  0.00     0.059 H 
ATOM     91  H7  G67 d   1      38.089  26.992  11.526  0.00  0.00     0.059 H 
ATOM     92  H8  G67 d   1      37.601  25.272  11.357  0.00  0.00     0.059 H 
ENDBRANCH  85  89
ENDBRANCH  77  83
ENDBRANCH  66  73
ENDBRANCH  55  58
ENDBRANCH   1  55
TORSDOF 14
