REMARK  3 active torsions:
REMARK  status: ('A' for Active; 'I' for Inactive)
REMARK    1  A    between atoms: CAJ_2  and  CAF_4 
REMARK    2  A    between atoms: CAC_7  and  OAD_8 
REMARK    3  A    between atoms: CAE_11  and  CAI_12 
ROOT
ATOM      1  CAF G5V d   1     -19.067  17.238 135.136  0.00  0.00     0.122 A 
ATOM      2  CAG G5V d   1     -19.611  17.388 133.865  0.00  0.00     0.226 A 
ATOM      3  OAH G5V d   1     -19.028  16.900 132.913  0.00  0.00    -0.284 OA
ATOM      4  CAC G5V d   1     -20.822  18.096 133.671  0.00  0.00     0.139 A 
ATOM      5  CAB G5V d   1     -21.452  18.632 134.756  0.00  0.00     0.055 A 
ATOM      6  OAA G5V d   1     -20.920  18.485 136.008  0.00  0.00    -0.323 OA
ATOM      7  CAE G5V d   1     -19.757  17.808 136.206  0.00  0.00     0.070 A 
ATOM      8  H2  G5V d   1     -22.384  19.180 134.625  0.00  0.00     0.128 H 
ENDROOT
BRANCH   7   9
ATOM      9  CAI G5V d   1     -19.331  17.730 137.482  0.00  0.00    -0.030 C 
ATOM     10  H3  G5V d   1     -20.041  18.254 138.138  0.00  0.00     0.036 H 
ATOM     11  H4  G5V d   1     -18.339  18.199 137.567  0.00  0.00     0.036 H 
ATOM     12  H5  G5V d   1     -19.265  16.674 137.782  0.00  0.00     0.036 H 
ENDBRANCH   7   9
BRANCH   1  13
ATOM     13  CAJ G5V d   1     -17.853  16.528 135.326  0.00  0.00     0.216 C 
ATOM     14  OAK G5V d   1     -16.765  17.110 135.147  0.00  0.00    -0.644 OA
ATOM     15  OAL G5V d   1     -17.723  15.369 135.615  0.00  0.00    -0.644 OA
ENDBRANCH   1  13
BRANCH   4  16
ATOM     16  OAD G5V d   1     -21.347  18.234 132.395  0.00  0.00    -0.355 OA
ATOM     17  H1  G5V d   1     -21.522  17.374 132.031  0.00  0.00     0.218 HD
ENDBRANCH   4  16
TORSDOF 3
