REMARK  2 active torsions:
REMARK  status: ('A' for Active; 'I' for Inactive)
REMARK    1  A    between atoms: CAH_2  and  CAG_4 
REMARK    2  A    between atoms: CAF_10  and  OAJ_11 
ROOT
ATOM      1  CAG G5Y d   1     -19.515  17.539 136.230  0.00  0.00     0.188 A 
ATOM      2  OAC G5Y d   1     -20.348  18.239 137.077  0.00  0.00    -0.313 OA
ATOM      3  CAB G5Y d   1     -21.439  18.929 136.594  0.00  0.00     0.024 A 
ATOM      4  CAA G5Y d   1     -21.725  18.944 135.234  0.00  0.00    -0.010 A 
ATOM      5  CAE G5Y d   1     -20.909  18.227 134.359  0.00  0.00     0.209 A 
ATOM      6  OAD G5Y d   1     -21.171  18.208 133.156  0.00  0.00    -0.285 OA
ATOM      7  CAF G5Y d   1     -19.817  17.544 134.875  0.00  0.00     0.157 A 
ATOM      8  H1  G5Y d   1     -22.084  19.468 137.286  0.00  0.00     0.123 H 
ATOM      9  H2  G5Y d   1     -22.576  19.509 134.856  0.00  0.00     0.092 H 
ENDROOT
BRANCH   1  10
ATOM     10  CAH G5Y d   1     -18.474  16.848 136.851  0.00  0.00     0.237 C 
ATOM     11  OAI G5Y d   1     -17.663  16.103 136.249  0.00  0.00    -0.642 OA
ATOM     12  OAK G5Y d   1     -18.362  16.973 138.071  0.00  0.00    -0.642 OA
ENDBRANCH   1  10
BRANCH   7  13
ATOM     13  OAJ G5Y d   1     -19.034  16.847 134.024  0.00  0.00    -0.355 OA
ATOM     14  H3  G5Y d   1     -18.330  16.433 134.510  0.00  0.00     0.218 HD
ENDBRANCH   7  13
TORSDOF 2
