REMARK  2 active torsions:
REMARK  status: ('A' for Active; 'I' for Inactive)
REMARK    1  A    between atoms: C05_1  and  C06_2 
REMARK    2  A    between atoms: C05_1  and  P02_15 
ROOT
ATOM      1  C06 M3Q d   1     -13.909  31.248  17.342  0.00  0.00    -0.016 A 
ATOM      2  C07 M3Q d   1     -13.105  32.119  16.676  0.00  0.00    -0.074 A 
ATOM      3  C08 M3Q d   1     -13.696  33.100  15.901  0.00  0.00    -0.082 A 
ATOM      4  C09 M3Q d   1     -15.072  33.216  15.813  0.00  0.00    -0.071 A 
ATOM      5  C10 M3Q d   1     -15.889  32.299  16.447  0.00  0.00    -0.007 A 
ATOM      6  C11 M3Q d   1     -17.279  32.345  16.396  0.00  0.00    -0.069 A 
ATOM      7  C12 M3Q d   1     -18.041  31.439  17.104  0.00  0.00    -0.065 A 
ATOM      8  C13 M3Q d   1     -17.341  30.462  17.821  0.00  0.00     0.003 A 
ATOM      9  C15 M3Q d   1     -15.302  31.344  17.192  0.00  0.00     0.073 A 
ATOM     10  N14 M3Q d   1     -16.057  30.470  17.816  0.00  0.00    -0.260 NA
ATOM     11  H3  M3Q d   1     -12.026  32.046  16.751  0.00  0.00     0.084 H 
ATOM     12  H4  M3Q d   1     -13.069  33.792  15.351  0.00  0.00     0.083 H 
ATOM     13  H5  M3Q d   1     -15.511  34.029  15.245  0.00  0.00     0.084 H 
ATOM     14  H6  M3Q d   1     -17.768  33.101  15.793  0.00  0.00     0.085 H 
ATOM     15  H7  M3Q d   1     -19.124  31.482  17.105  0.00  0.00     0.085 H 
ATOM     16  H8  M3Q d   1     -17.880  29.703  18.377  0.00  0.00     0.114 H 
ENDROOT
BRANCH   1  17
ATOM     17  C05 M3Q d   1     -13.318  30.109  18.181  0.00  0.00     0.065 C 
ATOM     18  H1  M3Q d   1     -12.440  29.708  17.653  0.00  0.00     0.061 H 
ATOM     19  H2  M3Q d   1     -14.078  29.320  18.280  0.00  0.00     0.061 H 
BRANCH  17  20
ATOM     20  P02 M3Q d   1     -12.779  30.645  19.921  0.00  0.00     0.263 P 
ATOM     21  O01 M3Q d   1     -13.896  31.130  20.694  0.00  0.00    -0.639 OA
ATOM     22  O03 M3Q d   1     -12.039  31.602  19.429  0.00  0.00    -0.639 OA
ATOM     23  O04 M3Q d   1     -12.095  29.591  20.365  0.00  0.00    -0.639 OA
ENDBRANCH  17  20
ENDBRANCH   1  17
TORSDOF 2
