REMARK  12 active torsions:
REMARK  status: ('A' for Active; 'I' for Inactive)
REMARK    1  A    between atoms: N_1  and  CA_2 
REMARK    2  A    between atoms: CA_2  and  C_3 
REMARK    3  A    between atoms: CA_2  and  CB_5 
REMARK       I    between atoms: C_3  and  N_9 
REMARK    4  A    between atoms: CB_5  and  CG_6 
REMARK    5  A    between atoms: CG_6  and  CD1_7 
REMARK    6  A    between atoms: CG_6  and  CD2_8 
REMARK    7  A    between atoms: N_9  and  CA_10 
REMARK    8  A    between atoms: CA_10  and  C_11 
REMARK    9  A    between atoms: CA_10  and  CB_13 
REMARK   10  A    between atoms: CB_13  and  CG_14 
REMARK   11  A    between atoms: CZ_19  and  OH_20 
REMARK   12  A    between atoms: OH_20  and  P_21 
ROOT
ATOM      1  C   LEU d   1       8.823  21.429   8.878  0.00  0.00     0.249 C 
ATOM      2  O   LEU d   1       9.191  20.585   8.122  0.00  0.00    -0.271 OA
ATOM      3  N   PTR d   1       8.264  22.559   8.485  0.00  0.00    -0.344 N 
ATOM      4  H14 PTR d   1       7.965  23.211   9.182  0.00  0.00     0.163 HD
ENDROOT
BRANCH   3   5
ATOM      5  CA  PTR d   1       8.066  22.894   7.101  0.00  0.00     0.100 C 
ATOM      6  H15 PTR d   1       8.367  22.042   6.473  0.00  0.00     0.090 H 
BRANCH   5   7
ATOM      7  C   PTR d   1       8.938  24.070   6.818  0.00  0.00     0.197 C 
ATOM      8  O   PTR d   1       9.765  23.950   5.920  0.00  0.00    -0.646 OA
ATOM      9  OXT PTR d   1       8.765  25.072   7.504  0.00  0.00    -0.646 OA
ENDBRANCH   5   7
BRANCH   5  10
ATOM     10  CB  PTR d   1       6.621  23.249   6.786  0.00  0.00    -0.013 C 
ATOM     11  H16 PTR d   1       6.316  24.114   7.394  0.00  0.00     0.043 H 
ATOM     12  H17 PTR d   1       5.975  22.390   7.020  0.00  0.00     0.043 H 
BRANCH  10  13
ATOM     13  CG  PTR d   1       6.487  23.591   5.333  0.00  0.00    -0.056 A 
ATOM     14  CD1 PTR d   1       6.536  24.900   4.945  0.00  0.00    -0.074 A 
ATOM     15  CE1 PTR d   1       6.430  25.250   3.638  0.00  0.00    -0.050 A 
ATOM     16  H18 PTR d   1       6.662  25.673   5.694  0.00  0.00     0.084 H 
ATOM     17  CZ  PTR d   1       6.269  24.280   2.684  0.00  0.00     0.082 A 
ATOM     18  H20 PTR d   1       6.473  26.294   3.350  0.00  0.00     0.087 H 
ATOM     19  CE2 PTR d   1       6.217  22.959   3.063  0.00  0.00    -0.050 A 
ATOM     20  CD2 PTR d   1       6.322  22.618   4.385  0.00  0.00    -0.074 A 
ATOM     21  H21 PTR d   1       6.093  22.186   2.313  0.00  0.00     0.087 H 
ATOM     22  H19 PTR d   1       6.274  21.576   4.681  0.00  0.00     0.084 H 
BRANCH  17  23
ATOM     23  OH  PTR d   1       6.149  24.576   1.379  0.00  0.00    -0.240 OA
BRANCH  23  24
ATOM     24  P   PTR d   1       6.694  25.834   0.672  0.00  0.00     0.427 P 
ATOM     25  O1P PTR d   1       6.556  25.471  -0.701  0.00  0.00    -0.617 OA
ATOM     26  O2P PTR d   1       5.877  26.933   1.129  0.00  0.00    -0.617 OA
ATOM     27  O3P PTR d   1       8.051  25.904   1.113  0.00  0.00    -0.617 OA
ENDBRANCH  23  24
ENDBRANCH  17  23
ENDBRANCH  10  13
ENDBRANCH   5  10
ENDBRANCH   3   5
BRANCH   1  28
ATOM     28  CA  LEU d   1       8.980  21.240  10.370  0.00  0.00     0.176 C 
ATOM     29  H4  LEU d   1       8.688  22.181  10.860  0.00  0.00     0.099 H 
BRANCH  28  30
ATOM     30  N   LEU d   1       8.162  20.183  10.915  0.00  0.00    -0.066 N 
ATOM     31  H1  LEU d   1       8.318  20.116  11.909  0.00  0.00     0.275 HD
ATOM     32  H2  LEU d   1       8.406  19.309  10.476  0.00  0.00     0.275 HD
ATOM     33  H3  LEU d   1       7.190  20.386  10.741  0.00  0.00     0.275 HD
ENDBRANCH  28  30
BRANCH  28  34
ATOM     34  CB  LEU d   1      10.415  20.952  10.693  0.00  0.00    -0.028 C 
ATOM     35  H5  LEU d   1      10.870  20.456   9.823  0.00  0.00     0.037 H 
ATOM     36  H6  LEU d   1      10.443  20.274  11.559  0.00  0.00     0.037 H 
BRANCH  34  37
ATOM     37  CG  LEU d   1      11.230  22.162  11.020  0.00  0.00    -0.059 C 
ATOM     38  H7  LEU d   1      11.464  22.708  10.094  0.00  0.00     0.038 H 
BRANCH  37  39
ATOM     39  CD1 LEU d   1      10.471  23.076  11.951  0.00  0.00    -0.073 C 
ATOM     40  H8  LEU d   1      11.086  23.959  12.180  0.00  0.00     0.028 H 
ATOM     41  H9  LEU d   1      10.239  22.540  12.883  0.00  0.00     0.028 H 
ATOM     42  H10 LEU d   1       9.535  23.396  11.469  0.00  0.00     0.028 H 
ENDBRANCH  37  39
BRANCH  37  43
ATOM     43  CD2 LEU d   1      12.509  21.700  11.668  0.00  0.00    -0.073 C 
ATOM     44  H11 LEU d   1      13.050  21.036  10.978  0.00  0.00     0.028 H 
ATOM     45  H12 LEU d   1      12.275  21.155  12.594  0.00  0.00     0.028 H 
ATOM     46  H13 LEU d   1      13.136  22.572  11.905  0.00  0.00     0.028 H 
ENDBRANCH  37  43
ENDBRANCH  34  37
ENDBRANCH  28  34
ENDBRANCH   1  28
TORSDOF 12
