REMARK  18 active torsions:
REMARK  status: ('A' for Active; 'I' for Inactive)
REMARK    1  A    between atoms: N_1  and  CA_2 
REMARK    2  A    between atoms: CA_2  and  C_3 
REMARK    3  A    between atoms: CA_2  and  CB_5 
REMARK       I    between atoms: C_3  and  N_9 
REMARK    4  A    between atoms: CB_5  and  CG_6 
REMARK    5  A    between atoms: CG_6  and  CD1_7 
REMARK    6  A    between atoms: CG_6  and  CD2_8 
REMARK    7  A    between atoms: N_9  and  CA_10 
REMARK    8  A    between atoms: CA_10  and  C_11 
REMARK    9  A    between atoms: CA_10  and  CB_13 
REMARK       I    between atoms: C_11  and  N_25 
REMARK   10  A    between atoms: CB_13  and  CG_14 
REMARK   11  A    between atoms: CZ_19  and  OH_20 
REMARK   12  A    between atoms: OH_20  and  P_21 
REMARK   13  A    between atoms: N_25  and  CA_26 
REMARK   14  A    between atoms: CA_26  and  C_27 
REMARK   15  A    between atoms: CA_26  and  CB_29 
REMARK   16  A    between atoms: CB_29  and  CG_30 
REMARK   17  A    between atoms: CG_30  and  CD1_31 
REMARK   18  A    between atoms: CG_30  and  CD2_32 
ROOT
ATOM      1  CA  PTR d   1     -19.180  64.145  22.307  0.00  0.00     0.093 C 
ATOM      2  H15 PTR d   1     -18.784  64.142  21.281  0.00  0.00     0.088 H 
ENDROOT
BRANCH   1   3
ATOM      3  N   PTR d   1     -18.244  64.817  23.181  0.00  0.00    -0.346 N 
ATOM      4  C   LEU d   1     -17.315  65.639  22.722  0.00  0.00     0.249 C 
ATOM      5  O   LEU d   1     -17.184  65.899  21.563  0.00  0.00    -0.271 OA
ATOM      6  H14 PTR d   1     -18.301  64.655  24.166  0.00  0.00     0.163 HD
BRANCH   4   7
ATOM      7  CA  LEU d   1     -16.418  66.286  23.736  0.00  0.00     0.176 C 
ATOM      8  H4  LEU d   1     -16.756  65.997  24.742  0.00  0.00     0.099 H 
BRANCH   7   9
ATOM      9  N   LEU d   1     -15.042  65.893  23.588  0.00  0.00    -0.066 N 
ATOM     10  H1  LEU d   1     -14.484  66.353  24.290  0.00  0.00     0.275 HD
ATOM     11  H2  LEU d   1     -14.714  66.156  22.672  0.00  0.00     0.275 HD
ATOM     12  H3  LEU d   1     -14.964  64.894  23.698  0.00  0.00     0.275 HD
ENDBRANCH   7   9
BRANCH   7  13
ATOM     13  CB  LEU d   1     -16.538  67.780  23.580  0.00  0.00    -0.028 C 
ATOM     14  H5  LEU d   1     -16.701  68.005  22.516  0.00  0.00     0.037 H 
ATOM     15  H6  LEU d   1     -15.595  68.240  23.912  0.00  0.00     0.037 H 
BRANCH  13  16
ATOM     16  CG  LEU d   1     -17.658  68.384  24.366  0.00  0.00    -0.059 C 
ATOM     17  H7  LEU d   1     -18.582  67.799  24.244  0.00  0.00     0.038 H 
BRANCH  16  18
ATOM     18  CD1 LEU d   1     -17.205  68.361  25.791  0.00  0.00    -0.073 C 
ATOM     19  H8  LEU d   1     -17.987  68.794  26.431  0.00  0.00     0.028 H 
ATOM     20  H9  LEU d   1     -16.281  68.949  25.892  0.00  0.00     0.028 H 
ATOM     21  H10 LEU d   1     -17.014  67.322  26.098  0.00  0.00     0.028 H 
ENDBRANCH  16  18
BRANCH  16  22
ATOM     22  CD2 LEU d   1     -17.884  69.791  23.910  0.00  0.00    -0.073 C 
ATOM     23  H11 LEU d   1     -18.216  69.788  22.861  0.00  0.00     0.028 H 
ATOM     24  H12 LEU d   1     -16.946  70.359  23.996  0.00  0.00     0.028 H 
ATOM     25  H13 LEU d   1     -18.656  70.260  24.538  0.00  0.00     0.028 H 
ENDBRANCH  16  22
ENDBRANCH  13  16
ENDBRANCH   7  13
ENDBRANCH   4   7
ENDBRANCH   1   3
BRANCH   1  26
ATOM     26  C   PTR d   1     -20.481  64.877  22.319  0.00  0.00     0.241 C 
ATOM     27  O   PTR d   1     -21.030  65.173  21.333  0.00  0.00    -0.271 OA
ATOM     28  N   LEU d   1     -20.972  65.192  23.496  0.00  0.00    -0.345 N 
ATOM     29  H22 LEU d   1     -20.457  64.951  24.319  0.00  0.00     0.163 HD
BRANCH  28  30
ATOM     30  CA  LEU d   1     -22.246  65.883  23.635  0.00  0.00     0.096 C 
ATOM     31  H23 LEU d   1     -22.919  65.510  22.849  0.00  0.00     0.089 H 
BRANCH  30  32
ATOM     32  C   LEU d   1     -22.112  67.378  23.478  0.00  0.00     0.196 C 
ATOM     33  O   LEU d   1     -23.022  68.038  22.994  0.00  0.00    -0.646 OA
ATOM     34  OXT LEU d   1     -21.091  67.953  23.832  0.00  0.00    -0.646 OA
ENDBRANCH  30  32
BRANCH  30  35
ATOM     35  CB  LEU d   1     -22.881  65.601  24.995  0.00  0.00    -0.034 C 
ATOM     36  H24 LEU d   1     -23.831  66.154  25.028  0.00  0.00     0.037 H 
ATOM     37  H25 LEU d   1     -22.198  66.001  25.759  0.00  0.00     0.037 H 
BRANCH  35  38
ATOM     38  CG  LEU d   1     -23.188  64.171  25.381  0.00  0.00    -0.059 C 
ATOM     39  H26 LEU d   1     -22.253  63.592  25.375  0.00  0.00     0.038 H 
BRANCH  38  40
ATOM     40  CD1 LEU d   1     -23.777  64.143  26.755  0.00  0.00    -0.073 C 
ATOM     41  H27 LEU d   1     -24.001  63.103  27.037  0.00  0.00     0.028 H 
ATOM     42  H28 LEU d   1     -24.704  64.734  26.768  0.00  0.00     0.028 H 
ATOM     43  H29 LEU d   1     -23.059  64.570  27.471  0.00  0.00     0.028 H 
ENDBRANCH  38  40
BRANCH  38  44
ATOM     44  CD2 LEU d   1     -24.155  63.546  24.418  0.00  0.00    -0.073 C 
ATOM     45  H30 LEU d   1     -23.727  63.564  23.405  0.00  0.00     0.028 H 
ATOM     46  H31 LEU d   1     -25.099  64.111  24.427  0.00  0.00     0.028 H 
ATOM     47  H32 LEU d   1     -24.348  62.505  24.716  0.00  0.00     0.028 H 
ENDBRANCH  38  44
ENDBRANCH  35  38
ENDBRANCH  30  35
ENDBRANCH  28  30
ENDBRANCH   1  26
BRANCH   1  48
ATOM     48  CB  PTR d   1     -19.344  62.708  22.776  0.00  0.00    -0.014 C 
ATOM     49  H16 PTR d   1     -19.713  62.701  23.812  0.00  0.00     0.043 H 
ATOM     50  H17 PTR d   1     -18.372  62.194  22.729  0.00  0.00     0.043 H 
BRANCH  48  51
ATOM     51  CG  PTR d   1     -20.322  62.003  21.895  0.00  0.00    -0.056 A 
ATOM     52  CD1 PTR d   1     -21.519  61.579  22.387  0.00  0.00    -0.074 A 
ATOM     53  CE1 PTR d   1     -22.412  60.944  21.580  0.00  0.00    -0.050 A 
ATOM     54  H18 PTR d   1     -21.762  61.749  23.430  0.00  0.00     0.084 H 
ATOM     55  CZ  PTR d   1     -22.104  60.750  20.271  0.00  0.00     0.082 A 
ATOM     56  H20 PTR d   1     -23.359  60.597  21.977  0.00  0.00     0.087 H 
ATOM     57  CE2 PTR d   1     -20.898  61.170  19.781  0.00  0.00    -0.050 A 
ATOM     58  CD2 PTR d   1     -20.021  61.799  20.593  0.00  0.00    -0.074 A 
ATOM     59  H21 PTR d   1     -20.646  60.998  18.741  0.00  0.00     0.087 H 
ATOM     60  H19 PTR d   1     -19.071  62.142  20.199  0.00  0.00     0.084 H 
BRANCH  55  61
ATOM     61  OH  PTR d   1     -22.928  60.144  19.440  0.00  0.00    -0.240 OA
BRANCH  61  62
ATOM     62  P   PTR d   1     -24.407  60.405  19.714  0.00  0.00     0.427 P 
ATOM     63  O1P PTR d   1     -25.112  59.967  18.590  0.00  0.00    -0.617 OA
ATOM     64  O2P PTR d   1     -24.881  59.639  20.947  0.00  0.00    -0.617 OA
ATOM     65  O3P PTR d   1     -24.849  61.849  19.772  0.00  0.00    -0.617 OA
ENDBRANCH  61  62
ENDBRANCH  55  61
ENDBRANCH  48  51
ENDBRANCH   1  48
TORSDOF 18
