REMARK  5 active torsions:
REMARK  status: ('A' for Active; 'I' for Inactive)
REMARK    1  A    between atoms: C4_1  and  C3_9 
REMARK    2  A    between atoms: N5_14  and  C4_1 
REMARK    3  A    between atoms: C16_17  and  C7_4 
REMARK    4  A    between atoms: C3_9  and  C2_15 
REMARK       I    between atoms: C22_26  and  N24_18 
REMARK    5  A    between atoms: C20_22  and  C22_26 
ROOT
ATOM      1  C19 G9Y d   1      19.846  18.406   7.463  0.00  0.00    -0.068 A 
ATOM      2  C18 G9Y d   1      19.636  19.636   6.863  0.00  0.00    -0.081 A 
ATOM      3  C16 G9Y d   1      17.242  19.130   6.707  0.00  0.00    -0.023 A 
ATOM      4  C20 G9Y d   1      18.756  17.532   7.703  0.00  0.00     0.033 A 
ATOM      5  C17 G9Y d   1      18.339  19.991   6.489  0.00  0.00    -0.072 A 
ATOM      6  C21 G9Y d   1      17.472  17.906   7.328  0.00  0.00    -0.057 A 
ATOM      7  H10 G9Y d   1      20.848  18.110   7.750  0.00  0.00     0.085 H 
ATOM      8  H11 G9Y d   1      20.465  20.312   6.687  0.00  0.00     0.083 H 
ATOM      9  H19 G9Y d   1      18.170  20.953   6.019  0.00  0.00     0.084 H 
ATOM     10  H23 G9Y d   1      16.641  17.238   7.521  0.00  0.00     0.086 H 
ENDROOT
BRANCH   3  11
ATOM     11  C7  G9Y d   1      15.851  19.524   6.371  0.00  0.00     0.003 A 
ATOM     12  C6  G9Y d   1      14.994  18.597   5.837  0.00  0.00    -0.006 A 
ATOM     13  N5  G9Y d   1      13.653  18.876   5.584  0.00  0.00    -0.322 N 
ATOM     14  H3  G9Y d   1      15.376  17.605   5.602  0.00  0.00     0.113 H 
ATOM     15  C14 G9Y d   1      13.104  20.109   5.805  0.00  0.00     0.275 A 
ATOM     16  C13 G9Y d   1      13.971  21.114   6.302  0.00  0.00     0.112 A 
ATOM     17  O15 G9Y d   1      11.876  20.326   5.604  0.00  0.00    -0.265 OA
ATOM     18  C8  G9Y d   1      15.323  20.882   6.585  0.00  0.00     0.010 A 
ATOM     19  N11 G9Y d   1      13.710  22.422   6.598  0.00  0.00    -0.361 N 
ATOM     20  C9  G9Y d   1      15.871  22.093   7.107  0.00  0.00    -0.055 A 
ATOM     21  C10 G9Y d   1      14.865  23.000   7.079  0.00  0.00    -0.021 A 
ATOM     22  H4  G9Y d   1      16.890  22.255   7.456  0.00  0.00     0.087 H 
ATOM     23  H5  G9Y d   1      14.956  24.039   7.392  0.00  0.00     0.111 H 
ATOM     24  H20 G9Y d   1      12.803  22.896   6.481  0.00  0.00     0.165 HD
BRANCH  13  25
ATOM     25  C4  G9Y d   1      12.831  17.774   5.066  0.00  0.00     0.005 C 
ATOM     26  H1  G9Y d   1      11.889  18.181   4.670  0.00  0.00     0.065 H 
ATOM     27  H2  G9Y d   1      13.378  17.263   4.260  0.00  0.00     0.065 H 
BRANCH  25  28
ATOM     28  C3  G9Y d   1      12.515  16.761   6.185  0.00  0.00    -0.035 C 
ATOM     29  H6  G9Y d   1      12.014  17.292   7.008  0.00  0.00     0.041 H 
ATOM     30  H7  G9Y d   1      13.461  16.332   6.548  0.00  0.00     0.041 H 
BRANCH  28  31
ATOM     31  C2  G9Y d   1      11.624  15.638   5.725  0.00  0.00    -0.110 C 
ATOM     32  C1  G9Y d   1      12.000  14.378   5.713  0.00  0.00    -0.125 C 
ATOM     33  H12 G9Y d   1      11.312  13.608   5.369  0.00  0.00     0.066 H 
ATOM     34  H13 G9Y d   1      13.000  14.105   6.047  0.00  0.00     0.066 H 
ATOM     35  H14 G9Y d   1      10.618  15.881   5.385  0.00  0.00     0.075 H 
ENDBRANCH  28  31
ENDBRANCH  25  28
ENDBRANCH  13  25
ENDBRANCH   3  11
BRANCH   4  36
ATOM     36  C22 G9Y d   1      18.958  16.239   8.398  0.00  0.00     0.254 C 
ATOM     37  O23 G9Y d   1      18.553  16.129   9.572  0.00  0.00    -0.267 OA
ATOM     38  N24 G9Y d   1      19.604  15.205   7.805  0.00  0.00    -0.344 N 
ATOM     39  C29 G9Y d   1      19.997  15.236   6.360  0.00  0.00     0.018 C 
ATOM     40  C25 G9Y d   1      19.825  13.920   8.495  0.00  0.00     0.018 C 
ATOM     41  C28 G9Y d   1      19.216  14.115   5.659  0.00  0.00     0.034 C 
ATOM     42  H8  G9Y d   1      21.079  15.063   6.259  0.00  0.00     0.067 H 
ATOM     43  H9  G9Y d   1      19.738  16.210   5.919  0.00  0.00     0.067 H 
ATOM     44  O27 G9Y d   1      19.505  12.865   6.307  0.00  0.00    -0.388 OA
ATOM     45  H15 G9Y d   1      19.518  14.061   4.603  0.00  0.00     0.076 H 
ATOM     46  H16 G9Y d   1      18.137  14.322   5.722  0.00  0.00     0.076 H 
ATOM     47  C26 G9Y d   1      19.104  12.831   7.691  0.00  0.00     0.034 C 
ATOM     48  H21 G9Y d   1      18.018  12.995   7.756  0.00  0.00     0.076 H 
ATOM     49  H22 G9Y d   1      19.352  11.847   8.114  0.00  0.00     0.076 H 
ATOM     50  H17 G9Y d   1      19.415  13.967   9.515  0.00  0.00     0.067 H 
ATOM     51  H18 G9Y d   1      20.902  13.700   8.542  0.00  0.00     0.067 H 
ENDBRANCH   4  36
TORSDOF 5
