REMARK  6 active torsions:
REMARK  status: ('A' for Active; 'I' for Inactive)
REMARK    1  A    between atoms: N2_3  and  C1_10 
REMARK    2  A    between atoms: C10_4  and  C11_9 
REMARK    3  A    between atoms: C26_29  and  C8_11 
REMARK    4  A    between atoms: N13_15  and  C22_20 
REMARK    5  A    between atoms: C23_28  and  C24_16 
REMARK    6  A    between atoms: C22_20  and  C23_28 
REMARK       I    between atoms: N28_25  and  C26_29 
ROOT
ATOM      1  C7  G9V d   1       9.815  10.895  74.272  0.00  0.00    -0.039 A 
ATOM      2  C9  G9V d   1      10.088   9.584  76.307  0.00  0.00    -0.054 A 
ATOM      3  N2  G9V d   1       8.195   9.825  72.617  0.00  0.00    -0.344 N 
ATOM      4  C10 G9V d   1       9.194   8.615  75.847  0.00  0.00     0.009 A 
ATOM      5  C6  G9V d   1       8.925   9.939  73.788  0.00  0.00     0.066 A 
ATOM      6  C8  G9V d   1      10.407  10.720  75.530  0.00  0.00     0.035 A 
ATOM      7  C5  G9V d   1       8.613   8.790  74.563  0.00  0.00     0.096 A 
ATOM      8  C3  G9V d   1       7.484   8.663  72.696  0.00  0.00     0.067 A 
ATOM      9  N4  G9V d   1       7.736   8.068  73.833  0.00  0.00    -0.241 NA
ATOM     10  H1  G9V d   1      10.049  11.771  73.678  0.00  0.00     0.088 H 
ATOM     11  H2  G9V d   1      10.547   9.462  77.281  0.00  0.00     0.086 H 
ATOM     12  H21 G9V d   1       6.809   8.288  71.928  0.00  0.00     0.143 H 
ENDROOT
BRANCH   4  13
ATOM     13  C11 G9V d   1       8.849   7.451  76.726  0.00  0.00     0.005 A 
ATOM     14  C17 G9V d   1       7.450   7.036  76.997  0.00  0.00     0.010 A 
ATOM     15  C18 G9V d   1       6.171   7.459  76.550  0.00  0.00    -0.055 A 
ATOM     16  C16 G9V d   1       7.218   5.997  77.923  0.00  0.00     0.112 A 
ATOM     17  C19 G9V d   1       5.221   6.700  77.151  0.00  0.00    -0.021 A 
ATOM     18  H6  G9V d   1       5.983   8.263  75.840  0.00  0.00     0.087 H 
ATOM     19  N20 G9V d   1       5.845   5.824  78.003  0.00  0.00    -0.361 N 
ATOM     20  H18 G9V d   1       4.147   6.773  76.986  0.00  0.00     0.111 H 
ATOM     21  H5  G9V d   1       5.367   5.142  78.609  0.00  0.00     0.165 HD
ATOM     22  C14 G9V d   1       8.324   5.347  78.547  0.00  0.00     0.275 A 
ATOM     23  O15 G9V d   1       8.103   4.436  79.359  0.00  0.00    -0.265 OA
ATOM     24  N13 G9V d   1       9.590   5.723  78.241  0.00  0.00    -0.322 N 
ATOM     25  C12 G9V d   1       9.846   6.758  77.365  0.00  0.00    -0.005 A 
ATOM     26  H17 G9V d   1      10.881   7.036  77.173  0.00  0.00     0.113 H 
BRANCH  24  27
ATOM     27  C22 G9V d   1      10.763   5.095  78.908  0.00  0.00     0.005 C 
ATOM     28  H15 G9V d   1      11.563   4.943  78.169  0.00  0.00     0.065 H 
ATOM     29  H16 G9V d   1      10.465   4.124  79.331  0.00  0.00     0.065 H 
BRANCH  27  30
ATOM     30  C23 G9V d   1      11.280   6.007  80.040  0.00  0.00    -0.035 C 
ATOM     31  H22 G9V d   1      11.525   6.993  79.618  0.00  0.00     0.041 H 
ATOM     32  H23 G9V d   1      10.489   6.118  80.796  0.00  0.00     0.041 H 
BRANCH  30  33
ATOM     33  C24 G9V d   1      12.512   5.440  80.703  0.00  0.00    -0.110 C 
ATOM     34  C25 G9V d   1      13.691   5.998  80.557  0.00  0.00    -0.125 C 
ATOM     35  H11 G9V d   1      14.562   5.566  81.048  0.00  0.00     0.066 H 
ATOM     36  H12 G9V d   1      13.798   6.893  79.945  0.00  0.00     0.066 H 
ATOM     37  H10 G9V d   1      12.420   4.546  81.318  0.00  0.00     0.075 H 
ENDBRANCH  30  33
ENDBRANCH  27  30
ENDBRANCH  24  27
ENDBRANCH   4  13
BRANCH   6  38
ATOM     38  C26 G9V d   1      11.390  11.725  76.014  0.00  0.00     0.254 C 
ATOM     39  N28 G9V d   1      12.616  11.860  75.430  0.00  0.00    -0.344 N 
ATOM     40  C29 G9V d   1      13.058  10.995  74.300  0.00  0.00     0.018 C 
ATOM     41  C33 G9V d   1      13.591  12.874  75.902  0.00  0.00     0.018 C 
ATOM     42  C30 G9V d   1      14.336  10.276  74.745  0.00  0.00     0.034 C 
ATOM     43  H3  G9V d   1      13.263  11.612  73.413  0.00  0.00     0.067 H 
ATOM     44  H4  G9V d   1      12.276  10.259  74.062  0.00  0.00     0.067 H 
ATOM     45  O31 G9V d   1      15.297  11.280  75.092  0.00  0.00    -0.388 OA
ATOM     46  H24 G9V d   1      14.722   9.654  73.924  0.00  0.00     0.076 H 
ATOM     47  H25 G9V d   1      14.125   9.641  75.618  0.00  0.00     0.076 H 
ATOM     48  C32 G9V d   1      14.950  12.191  76.162  0.00  0.00     0.034 C 
ATOM     49  H13 G9V d   1      15.729  12.963  76.241  0.00  0.00     0.076 H 
ATOM     50  H14 G9V d   1      14.893  11.629  77.106  0.00  0.00     0.076 H 
ATOM     51  H19 G9V d   1      13.712  13.653  75.135  0.00  0.00     0.067 H 
ATOM     52  H20 G9V d   1      13.225  13.331  76.833  0.00  0.00     0.067 H 
ATOM     53  O27 G9V d   1      11.076  12.431  76.955  0.00  0.00    -0.267 OA
ENDBRANCH   6  38
BRANCH   3  54
ATOM     54  C1  G9V d   1       8.191  10.776  71.509  0.00  0.00    -0.013 C 
ATOM     55  H7  G9V d   1       7.515  10.416  70.719  0.00  0.00     0.057 H 
ATOM     56  H8  G9V d   1       9.209  10.872  71.104  0.00  0.00     0.057 H 
ATOM     57  H9  G9V d   1       7.845  11.757  71.868  0.00  0.00     0.057 H 
ENDBRANCH   3  54
TORSDOF 6
