REMARK  9 active torsions:
REMARK  status: ('A' for Active; 'I' for Inactive)
REMARK    1  A    between atoms: C4_1  and  C3_2 
REMARK    2  A    between atoms: C4_1  and  C5_8 
REMARK    3  A    between atoms: C3_2  and  C2_3 
REMARK    4  A    between atoms: C2_3  and  C1_5 
REMARK    5  A    between atoms: C2_3  and  N1_7 
REMARK    6  A    between atoms: C5_8  and  C6_9 
REMARK    7  A    between atoms: C6_9  and  N2_10 
REMARK    8  A    between atoms: N2_10  and  C7_11 
REMARK    9  A    between atoms: C7_11  and  C8_12 
ROOT
ATOM      1  C5  GBG d   1      -6.636  31.346  -3.356  0.00  0.00    -0.050 C 
ATOM      2  H9  GBG d   1      -7.160  30.797  -4.153  0.00  0.00     0.035 H 
ATOM      3  H10 GBG d   1      -6.812  30.848  -2.391  0.00  0.00     0.035 H 
ENDROOT
BRANCH   1   4
ATOM      4  C4  GBG d   1      -7.179  32.754  -3.289  0.00  0.00    -0.061 C 
ATOM      5  H1  GBG d   1      -6.706  33.291  -2.454  0.00  0.00     0.033 H 
ATOM      6  H2  GBG d   1      -6.962  33.277  -4.232  0.00  0.00     0.033 H 
BRANCH   4   7
ATOM      7  C3  GBG d   1      -8.689  32.700  -3.071  0.00  0.00    -0.029 C 
ATOM      8  H3  GBG d   1      -8.915  32.123  -2.162  0.00  0.00     0.036 H 
ATOM      9  H4  GBG d   1      -9.175  32.226  -3.937  0.00  0.00     0.036 H 
BRANCH   7  10
ATOM     10  C2  GBG d   1      -9.192  34.128  -2.914  0.00  0.00     0.182 C 
ATOM     11  H5  GBG d   1      -8.768  34.562  -1.997  0.00  0.00     0.101 H 
BRANCH  10  12
ATOM     12  C1  GBG d   1      -8.771  34.973  -4.117  0.00  0.00     0.204 C 
ATOM     13  O2  GBG d   1      -7.733  35.649  -3.961  0.00  0.00    -0.646 OA
ATOM     14  O1  GBG d   1      -9.493  34.953  -5.135  0.00  0.00    -0.646 OA
ENDBRANCH  10  12
BRANCH  10  15
ATOM     15  N1  GBG d   1     -10.658  34.129  -2.824  0.00  0.00    -0.065 N 
ATOM     16  H6  GBG d   1     -10.988  35.076  -2.720  0.00  0.00     0.275 HD
ATOM     17  H7  GBG d   1     -10.946  33.584  -2.027  0.00  0.00     0.275 HD
ATOM     18  H8  GBG d   1     -11.046  33.728  -3.663  0.00  0.00     0.275 HD
ENDBRANCH  10  15
ENDBRANCH   7  10
ENDBRANCH   4   7
ENDBRANCH   1   4
BRANCH   1  19
ATOM     19  C6  GBG d   1      -5.137  31.344  -3.652  0.00  0.00    -0.006 C 
ATOM     20  H11 GBG d   1      -4.583  31.956  -2.925  0.00  0.00     0.064 H 
ATOM     21  H12 GBG d   1      -4.928  31.706  -4.670  0.00  0.00     0.064 H 
BRANCH  19  22
ATOM     22  N2  GBG d   1      -4.814  29.937  -3.514  0.00  0.00    -0.380 N 
ATOM     23  H13 GBG d   1      -5.376  29.230  -4.010  0.00  0.00     0.160 HD
BRANCH  22  24
ATOM     24  C7  GBG d   1      -3.796  29.556  -2.750  0.00  0.00     0.066 C 
ATOM     25  N3  GBG d   1      -3.019  30.402  -2.076  0.00  0.00    -0.389 N 
ATOM     26  H17 GBG d   1      -2.244  30.043  -1.500  0.00  0.00     0.157 HD
ATOM     27  H18 GBG d   1      -3.193  31.416  -2.131  0.00  0.00     0.157 HD
BRANCH  24  28
ATOM     28  C8  GBG d   1      -3.678  28.074  -2.485  0.00  0.00    -0.024 C 
ATOM     29  H14 GBG d   1      -2.803  27.884  -1.845  0.00  0.00     0.037 H 
ATOM     30  H15 GBG d   1      -3.558  27.539  -3.439  0.00  0.00     0.037 H 
ATOM     31  H16 GBG d   1      -4.587  27.719  -1.978  0.00  0.00     0.037 H 
ENDBRANCH  24  28
ENDBRANCH  22  24
ENDBRANCH  19  22
ENDBRANCH   1  19
TORSDOF 9
