REMARK  10 active torsions:
REMARK  status: ('A' for Active; 'I' for Inactive)
REMARK    1  A    between atoms: CAZ_4  and  CAC_5 
REMARK    2  A    between atoms: CBA_6  and  OAG_7 
REMARK    3  A    between atoms: CAX_8  and  CAA_9 
REMARK    4  A    between atoms: CAY_10  and  CAB_11 
REMARK    5  A    between atoms: CBE_14  and  CAD_15 
REMARK    6  A    between atoms: CBE_14  and  CAN_16 
REMARK    7  A    between atoms: CAN_16  and  OAQ_17 
REMARK    8  A    between atoms: OAQ_17  and  CAW_18 
REMARK    9  A    between atoms: CAV_23  and  CAO_24 
REMARK   10  A    between atoms: CAO_24  and  CBD_25 
ROOT
ATOM      1  CAM GD4 d   1      16.268  62.248   9.690  0.00  0.00    -0.030 C 
ATOM      2  CAL GD4 d   1      15.054  63.042  10.079  0.00  0.00    -0.035 C 
ATOM      3  CBB GD4 d   1      15.174  64.507   9.594  0.00  0.00    -0.015 A 
ATOM      4  CAZ GD4 d   1      14.013  65.290   9.456  0.00  0.00    -0.019 A 
ATOM      5  CBA GD4 d   1      14.109  66.614   9.016  0.00  0.00     0.078 A 
ATOM      6  CAX GD4 d   1      15.369  67.165   8.710  0.00  0.00    -0.020 A 
ATOM      7  CAY GD4 d   1      16.521  66.389   8.847  0.00  0.00    -0.019 A 
ATOM      8  CBC GD4 d   1      16.430  65.049   9.292  0.00  0.00     0.083 A 
ATOM      9  OAR GD4 d   1      17.644  64.277   9.414  0.00  0.00    -0.337 OA
ATOM     10  CBE GD4 d   1      17.543  62.998  10.005  0.00  0.00     0.086 C 
ATOM     11  H1  GD4 d   1      16.231  62.044   8.610  0.00  0.00     0.038 H 
ATOM     12  H2  GD4 d   1      16.266  61.297  10.243  0.00  0.00     0.038 H 
ATOM     13  H3  GD4 d   1      14.953  63.032  11.174  0.00  0.00     0.040 H 
ATOM     14  H4  GD4 d   1      14.163  62.584   9.624  0.00  0.00     0.040 H 
ENDROOT
BRANCH  10  15
ATOM     15  CAD GD4 d   1      18.727  62.158   9.548  0.00  0.00    -0.045 C 
ATOM     16  H15 GD4 d   1      19.663  62.691   9.771  0.00  0.00     0.031 H 
ATOM     17  H16 GD4 d   1      18.655  61.981   8.465  0.00  0.00     0.031 H 
ATOM     18  H17 GD4 d   1      18.719  61.194  10.078  0.00  0.00     0.031 H 
ENDBRANCH  10  15
BRANCH  10  19
ATOM     19  CAN GD4 d   1      17.623  63.151  11.537  0.00  0.00     0.055 C 
ATOM     20  H18 GD4 d   1      16.712  63.642  11.910  0.00  0.00     0.079 H 
ATOM     21  H19 GD4 d   1      18.502  63.756  11.805  0.00  0.00     0.079 H 
BRANCH  19  22
ATOM     22  OAQ GD4 d   1      17.737  61.878  12.100  0.00  0.00    -0.348 OA
BRANCH  22  23
ATOM     23  CAW GD4 d   1      18.231  61.950  13.401  0.00  0.00     0.068 A 
ATOM     24  CAK GD4 d   1      19.592  61.879  13.616  0.00  0.00    -0.050 A 
ATOM     25  CAI GD4 d   1      20.088  61.961  14.901  0.00  0.00    -0.074 A 
ATOM     26  H20 GD4 d   1      20.269  61.759  12.778  0.00  0.00     0.087 H 
ATOM     27  CAV GD4 d   1      19.218  62.115  15.959  0.00  0.00    -0.056 A 
ATOM     28  H21 GD4 d   1      21.156  61.905  15.078  0.00  0.00     0.084 H 
ATOM     29  CAH GD4 d   1      17.854  62.191  15.745  0.00  0.00    -0.074 A 
ATOM     30  CAJ GD4 d   1      17.359  62.109  14.459  0.00  0.00    -0.050 A 
ATOM     31  H23 GD4 d   1      17.177  62.314  16.583  0.00  0.00     0.084 H 
ATOM     32  H22 GD4 d   1      16.291  62.169  14.281  0.00  0.00     0.087 H 
BRANCH  27  33
ATOM     33  CAO GD4 d   1      19.769  62.211  17.374  0.00  0.00    -0.021 C 
ATOM     34  H24 GD4 d   1      20.856  62.045  17.367  0.00  0.00     0.042 H 
ATOM     35  H25 GD4 d   1      19.288  61.460  18.017  0.00  0.00     0.042 H 
BRANCH  33  36
ATOM     36  CBD GD4 d   1      19.460  63.604  17.883  0.00  0.00     0.081 A 
ATOM     37  SAS GD4 d   1      20.805  64.264  18.579  0.00  0.00    -0.054 SA
ATOM     38  CAT GD4 d   1      20.402  64.648  20.110  0.00  0.00     0.287 A 
ATOM     39  OAE GD4 d   1      21.089  65.223  20.883  0.00  0.00    -0.260 OA
ATOM     40  NAP GD4 d   1      18.928  64.122  20.391  0.00  0.00    -0.287 N 
ATOM     41  CAU GD4 d   1      18.324  63.490  19.055  0.00  0.00     0.239 A 
ATOM     42  H27 GD4 d   1      18.453  64.178  21.269  0.00  0.00     0.172 HD
ATOM     43  OAF GD4 d   1      17.249  63.014  18.927  0.00  0.00    -0.272 OA
ATOM     44  H26 GD4 d   1      19.105  64.238  17.057  0.00  0.00     0.072 H 
ENDBRANCH  33  36
ENDBRANCH  27  33
ENDBRANCH  22  23
ENDBRANCH  19  22
ENDBRANCH  10  19
BRANCH   7  45
ATOM     45  CAB GD4 d   1      17.880  66.990   8.510  0.00  0.00    -0.048 C 
ATOM     46  H12 GD4 d   1      17.749  68.033   8.185  0.00  0.00     0.033 H 
ATOM     47  H13 GD4 d   1      18.347  66.409   7.701  0.00  0.00     0.033 H 
ATOM     48  H14 GD4 d   1      18.524  66.962   9.401  0.00  0.00     0.033 H 
ENDBRANCH   7  45
BRANCH   4  49
ATOM     49  CAC GD4 d   1      12.650  64.691   9.789  0.00  0.00    -0.048 C 
ATOM     50  H5  GD4 d   1      12.778  63.648  10.115  0.00  0.00     0.033 H 
ATOM     51  H6  GD4 d   1      12.009  64.720   8.896  0.00  0.00     0.033 H 
ATOM     52  H7  GD4 d   1      12.181  65.273  10.596  0.00  0.00     0.033 H 
ENDBRANCH   4  49
BRANCH   6  53
ATOM     53  CAA GD4 d   1      15.468  68.612   8.230  0.00  0.00    -0.048 C 
ATOM     54  H9  GD4 d   1      14.461  69.054   8.187  0.00  0.00     0.033 H 
ATOM     55  H10 GD4 d   1      15.922  68.636   7.228  0.00  0.00     0.033 H 
ATOM     56  H11 GD4 d   1      16.092  69.188   8.929  0.00  0.00     0.033 H 
ENDBRANCH   6  53
BRANCH   5  57
ATOM     57  OAG GD4 d   1      12.956  67.395   8.880  0.00  0.00    -0.360 OA
ATOM     58  H8  GD4 d   1      13.196  68.262   8.574  0.00  0.00     0.217 HD
ENDBRANCH   5  57
TORSDOF 10
