REMARK  5 active torsions:
REMARK  status: ('A' for Active; 'I' for Inactive)
REMARK    1  A    between atoms: C15_3  and  C24_6 
REMARK    2  A    between atoms: C17_4  and  C23_25 
REMARK    3  A    between atoms: C11_18  and  C22_5 
REMARK    4  A    between atoms: N10_17  and  C06_13 
REMARK    5  A    between atoms: C30_30  and  N35_35 
ROOT
ATOM      1  N12 GFJ d   1      42.818  60.708 132.264  0.00  0.00    -0.232 NA
ATOM      2  C13 GFJ d   1      42.202  61.418 133.272  0.00  0.00     0.100 A 
ATOM      3  C15 GFJ d   1      41.318  60.978 134.241  0.00  0.00     0.044 A 
ATOM      4  C17 GFJ d   1      41.225  63.255 135.161  0.00  0.00    -0.019 A 
ATOM      5  N10 GFJ d   1      43.490  62.809 132.273  0.00  0.00    -0.297 N 
ATOM      6  C11 GFJ d   1      43.588  61.565 131.647  0.00  0.00     0.108 A 
ATOM      7  C14 GFJ d   1      42.599  62.739 133.302  0.00  0.00     0.071 A 
ATOM      8  C16 GFJ d   1      40.817  61.904 135.139  0.00  0.00    -0.056 A 
ATOM      9  C18 GFJ d   1      42.128  63.713 134.200  0.00  0.00    -0.043 A 
ATOM     10  H9  GFJ d   1      40.076  61.576 135.859  0.00  0.00     0.086 H 
ATOM     11  H10 GFJ d   1      42.444  64.749 134.149  0.00  0.00     0.088 H 
ENDROOT
BRANCH   5  12
ATOM     12  C06 GFJ d   1      44.103  63.973 131.818  0.00  0.00     0.058 A 
ATOM     13  C03 GFJ d   1      43.474  64.637 130.720  0.00  0.00     0.062 A 
ATOM     14  C04 GFJ d   1      44.096  65.772 130.237  0.00  0.00     0.110 A 
ATOM     15  C19 GFJ d   1      42.270  64.245 130.100  0.00  0.00     0.131 A 
ATOM     16  C05 GFJ d   1      43.507  66.462 129.177  0.00  0.00     0.146 A 
ATOM     17  N09 GFJ d   1      45.229  66.184 130.792  0.00  0.00    -0.257 NA
ATOM     18  C01 GFJ d   1      42.325  66.036 128.590  0.00  0.00    -0.040 A 
ATOM     19  F21 GFJ d   1      44.021  67.601 128.664  0.00  0.00    -0.204 F 
ATOM     20  C02 GFJ d   1      41.693  64.904 129.054  0.00  0.00    -0.042 A 
ATOM     21  H5  GFJ d   1      41.898  66.595 127.765  0.00  0.00     0.088 H 
ATOM     22  H6  GFJ d   1      40.772  64.550 128.605  0.00  0.00     0.088 H 
ATOM     23  C08 GFJ d   1      45.768  65.512 131.813  0.00  0.00     0.005 A 
ATOM     24  C07 GFJ d   1      45.266  64.394 132.398  0.00  0.00    -0.039 A 
ATOM     25  H8  GFJ d   1      46.698  65.897 132.214  0.00  0.00     0.114 H 
ATOM     26  H7  GFJ d   1      45.737  63.890 133.234  0.00  0.00     0.089 H 
ATOM     27  F20 GFJ d   1      41.598  63.186 130.541  0.00  0.00    -0.205 F 
ENDBRANCH   5  12
BRANCH   6  28
ATOM     28  C22 GFJ d   1      44.455  61.235 130.498  0.00  0.00    -0.021 C 
ATOM     29  H1  GFJ d   1      44.316  60.178 130.226  0.00  0.00     0.037 H 
ATOM     30  H2  GFJ d   1      45.507  61.408 130.770  0.00  0.00     0.037 H 
ATOM     31  H3  GFJ d   1      44.188  61.872 129.642  0.00  0.00     0.037 H 
ENDBRANCH   6  28
BRANCH   3  32
ATOM     32  C24 GFJ d   1      40.868  59.606 134.267  0.00  0.00     0.163 A 
ATOM     33  N25 GFJ d   1      41.253  58.648 133.375  0.00  0.00    -0.332 N 
ATOM     34  C26 GFJ d   1      40.520  57.571 133.675  0.00  0.00     0.087 A 
ATOM     35  H11 GFJ d   1      41.958  58.736 132.629  0.00  0.00     0.168 HD
ATOM     36  N27 GFJ d   1      39.724  57.818 134.661  0.00  0.00    -0.143 NA
ATOM     37  H4  GFJ d   1      40.586  56.615 133.158  0.00  0.00     0.146 H 
ATOM     38  N28 GFJ d   1      39.950  59.104 135.065  0.00  0.00    -0.130 NA
ENDBRANCH   3  32
BRANCH   4  39
ATOM     39  C23 GFJ d   1      40.614  64.140 136.125  0.00  0.00     0.018 A 
ATOM     40  C29 GFJ d   1      41.241  65.286 136.517  0.00  0.00     0.172 A 
ATOM     41  C30 GFJ d   1      40.668  66.179 137.382  0.00  0.00     0.160 A 
ATOM     42  F34 GFJ d   1      42.456  65.576 136.066  0.00  0.00    -0.201 F 
ATOM     43  N31 GFJ d   1      39.448  65.935 137.903  0.00  0.00    -0.241 NA
ATOM     44  C32 GFJ d   1      38.830  64.779 137.540  0.00  0.00     0.005 A 
ATOM     45  C33 GFJ d   1      39.367  63.863 136.658  0.00  0.00    -0.052 A 
ATOM     46  H12 GFJ d   1      37.858  64.564 137.969  0.00  0.00     0.114 H 
ATOM     47  H13 GFJ d   1      38.831  62.959 136.392  0.00  0.00     0.087 H 
BRANCH  41  48
ATOM     48  N35 GFJ d   1      41.407  67.314 137.693  0.00  0.00    -0.381 N 
ATOM     49  H14 GFJ d   1      41.022  68.018 138.339  0.00  0.00     0.157 HD
ATOM     50  H15 GFJ d   1      42.340  67.451 137.278  0.00  0.00     0.157 HD
ENDBRANCH  41  48
ENDBRANCH   4  39
TORSDOF 5
