REMARK  16 active torsions:
REMARK  status: ('A' for Active; 'I' for Inactive)
REMARK    1  A    between atoms: C2_2  and  N1_1 
REMARK    2  A    between atoms: S8_8  and  C5_5 
REMARK    3  A    between atoms: N11_11  and  S8_8 
REMARK    4  A    between atoms: N11_11  and  C12_12 
REMARK    5  A    between atoms: C16_16  and  N11_11 
REMARK    6  A    between atoms: C12_12  and  C13_13 
REMARK    7  A    between atoms: C13_13  and  C14_14 
REMARK    8  A    between atoms: C13_13  and  C15_15 
REMARK    9  A    between atoms: C17_17  and  C16_16 
REMARK   10  A    between atoms: C17_17  and  O18_18 
REMARK   11  A    between atoms: C19_19  and  C17_17 
REMARK   12  A    between atoms: C19_19  and  N20_20 
REMARK   13  A    between atoms: C32_32  and  C19_19 
REMARK       I    between atoms: N20_20  and  C21_21 
REMARK   14  A    between atoms: C21_21  and  O23_23 
REMARK   15  A    between atoms: O23_23  and  C24_24 
REMARK   16  A    between atoms: C38_38  and  C32_32 
ROOT
ATOM      1  C19 017 d   1      70.852  58.247  16.607  0.00  0.00     0.044 C 
ATOM      2  H20 017 d   1      70.928  57.332  17.213  0.00  0.00     0.077 H 
ENDROOT
BRANCH   1   3
ATOM      3  C17 017 d   1      71.209  57.936  15.144  0.00  0.00     0.071 C 
ATOM      4  H18 017 d   1      72.256  57.602  15.098  0.00  0.00     0.088 H 
BRANCH   3   5
ATOM      5  C16 017 d   1      70.295  56.819  14.552  0.00  0.00     0.031 C 
ATOM      6  H16 017 d   1      69.243  57.076  14.743  0.00  0.00     0.069 H 
ATOM      7  H17 017 d   1      70.465  56.752  13.467  0.00  0.00     0.069 H 
BRANCH   5   8
ATOM      8  N11 017 d   1      70.606  55.454  15.197  0.00  0.00    -0.304 N 
BRANCH   8   9
ATOM      9  S8  017 d   1      69.368  54.809  16.218  0.00  0.00     0.260 S 
ATOM     10  O9  017 d   1      69.906  53.918  17.227  0.00  0.00    -0.200 OA
ATOM     11  O10 017 d   1      68.712  55.880  17.010  0.00  0.00    -0.200 OA
BRANCH   9  12
ATOM     12  C5  017 d   1      68.146  53.979  15.129  0.00  0.00     0.079 A 
ATOM     13  C4  017 d   1      68.323  52.639  14.779  0.00  0.00    -0.058 A 
ATOM     14  C3  017 d   1      67.407  52.024  13.959  0.00  0.00    -0.056 A 
ATOM     15  H4  017 d   1      69.178  52.087  15.152  0.00  0.00     0.086 H 
ATOM     16  C2  017 d   1      66.326  52.736  13.483  0.00  0.00     0.025 A 
ATOM     17  H3  017 d   1      67.534  50.982  13.687  0.00  0.00     0.086 H 
ATOM     18  C7  017 d   1      66.153  54.066  13.829  0.00  0.00    -0.056 A 
ATOM     19  C6  017 d   1      67.081  54.688  14.658  0.00  0.00    -0.058 A 
ATOM     20  H6  017 d   1      65.299  54.619  13.456  0.00  0.00     0.086 H 
ATOM     21  H5  017 d   1      66.958  55.731  14.928  0.00  0.00     0.086 H 
BRANCH  16  22
ATOM     22  N1  017 d   1      65.331  52.076  12.595  0.00  0.00    -0.399 N 
ATOM     23  H1  017 d   1      65.451  51.087  12.332  0.00  0.00     0.156 HD
ATOM     24  H2  017 d   1      64.522  52.608  12.243  0.00  0.00     0.156 HD
ENDBRANCH  16  22
ENDBRANCH   9  12
ENDBRANCH   8   9
BRANCH   8  25
ATOM     25  C12 017 d   1      71.388  54.482  14.410  0.00  0.00     0.008 C 
ATOM     26  H7  017 d   1      71.061  54.521  13.360  0.00  0.00     0.066 H 
ATOM     27  H8  017 d   1      71.216  53.472  14.810  0.00  0.00     0.066 H 
BRANCH  25  28
ATOM     28  C13 017 d   1      72.884  54.803  14.483  0.00  0.00    -0.045 C 
ATOM     29  H9  017 d   1      73.023  55.840  14.142  0.00  0.00     0.041 H 
BRANCH  28  30
ATOM     30  C14 017 d   1      73.419  54.714  15.955  0.00  0.00    -0.072 C 
ATOM     31  H10 017 d   1      74.493  54.950  15.970  0.00  0.00     0.028 H 
ATOM     32  H11 017 d   1      73.262  53.696  16.341  0.00  0.00     0.028 H 
ATOM     33  H12 017 d   1      72.877  55.434  16.586  0.00  0.00     0.028 H 
ENDBRANCH  28  30
BRANCH  28  34
ATOM     34  C15 017 d   1      73.678  53.883  13.529  0.00  0.00    -0.072 C 
ATOM     35  H13 017 d   1      73.273  53.974  12.510  0.00  0.00     0.028 H 
ATOM     36  H14 017 d   1      73.589  52.840  13.867  0.00  0.00     0.028 H 
ATOM     37  H15 017 d   1      74.737  54.180  13.530  0.00  0.00     0.028 H 
ENDBRANCH  28  34
ENDBRANCH  25  28
ENDBRANCH   8  25
ENDBRANCH   5   8
ENDBRANCH   3   5
BRANCH   3  38
ATOM     38  O18 017 d   1      71.059  59.080  14.388  0.00  0.00    -0.392 OA
ATOM     39  H19 017 d   1      71.311  58.900  13.490  0.00  0.00     0.210 HD
ENDBRANCH   3  38
ENDBRANCH   1   3
BRANCH   1  40
ATOM     40  N20 017 d   1      71.780  59.252  17.071  0.00  0.00    -0.329 N 
ATOM     41  C21 017 d   1      72.816  58.942  18.062  0.00  0.00     0.361 C 
ATOM     42  O22 017 d   1      72.875  57.869  18.579  0.00  0.00    -0.238 OA
ATOM     43  H21 017 d   1      71.715  60.181  16.708  0.00  0.00     0.165 HD
BRANCH  41  44
ATOM     44  O23 017 d   1      73.705  59.972  18.361  0.00  0.00    -0.296 OA
BRANCH  44  45
ATOM     45  C24 017 d   1      74.447  59.884  19.564  0.00  0.00     0.078 C 
ATOM     46  C25 017 d   1      75.963  60.466  19.234  0.00  0.00     0.048 C 
ATOM     47  O26 017 d   1      75.787  61.789  19.138  0.00  0.00    -0.358 OA
ATOM     48  H23 017 d   1      76.344  60.052  18.288  0.00  0.00     0.078 H 
ATOM     49  H24 017 d   1      76.661  60.222  20.048  0.00  0.00     0.078 H 
ATOM     50  C27 017 d   1      74.629  62.117  20.159  0.00  0.00     0.137 C 
ATOM     51  O28 017 d   1      73.729  62.804  19.616  0.00  0.00    -0.361 OA
ATOM     52  C31 017 d   1      73.992  60.710  20.516  0.00  0.00     0.023 C 
ATOM     53  H25 017 d   1      75.021  62.628  21.051  0.00  0.00     0.129 H 
ATOM     54  C29 017 d   1      72.302  62.035  19.792  0.00  0.00     0.023 C 
ATOM     55  C30 017 d   1      72.511  60.952  20.513  0.00  0.00    -0.035 C 
ATOM     56  H26 017 d   1      71.904  61.756  18.805  0.00  0.00     0.074 H 
ATOM     57  H27 017 d   1      71.584  62.692  20.305  0.00  0.00     0.074 H 
ATOM     58  H28 017 d   1      71.988  60.093  20.066  0.00  0.00     0.037 H 
ATOM     59  H29 017 d   1      72.151  61.106  21.541  0.00  0.00     0.037 H 
ATOM     60  H30 017 d   1      74.309  60.350  21.506  0.00  0.00     0.051 H 
ATOM     61  H22 017 d   1      74.470  58.845  19.924  0.00  0.00     0.088 H 
ENDBRANCH  44  45
ENDBRANCH  41  44
ENDBRANCH   1  40
BRANCH   1  62
ATOM     62  C32 017 d   1      69.453  58.845  16.738  0.00  0.00    -0.020 C 
ATOM     63  H31 017 d   1      68.709  58.074  16.489  0.00  0.00     0.043 H 
ATOM     64  H32 017 d   1      69.357  59.687  16.037  0.00  0.00     0.043 H 
BRANCH  62  65
ATOM     65  C38 017 d   1      69.191  59.348  18.158  0.00  0.00    -0.056 A 
ATOM     66  C33 017 d   1      68.899  58.454  19.158  0.00  0.00    -0.077 A 
ATOM     67  C34 017 d   1      68.660  58.912  20.465  0.00  0.00    -0.082 A 
ATOM     68  H33 017 d   1      68.853  57.393  18.939  0.00  0.00     0.084 H 
ATOM     69  C35 017 d   1      68.721  60.288  20.752  0.00  0.00    -0.083 A 
ATOM     70  H34 017 d   1      68.428  58.204  21.253  0.00  0.00     0.083 H 
ATOM     71  C36 017 d   1      69.015  61.188  19.751  0.00  0.00    -0.082 A 
ATOM     72  H35 017 d   1      68.537  60.640  21.761  0.00  0.00     0.083 H 
ATOM     73  C37 017 d   1      69.253  60.732  18.447  0.00  0.00    -0.077 A 
ATOM     74  H36 017 d   1      69.062  62.248  19.972  0.00  0.00     0.083 H 
ATOM     75  H37 017 d   1      69.485  61.440  17.660  0.00  0.00     0.084 H 
ENDBRANCH  62  65
ENDBRANCH   1  62
TORSDOF 16
