REMARK  17 active torsions:
REMARK  status: ('A' for Active; 'I' for Inactive)
REMARK    1  A    between atoms: C2_2  and  N1_1 
REMARK    2  A    between atoms: S8_8  and  C5_5 
REMARK    3  A    between atoms: N11_11  and  S8_8 
REMARK    4  A    between atoms: N11_11  and  C12_12 
REMARK    5  A    between atoms: C16_16  and  N11_11 
REMARK    6  A    between atoms: C12_12  and  C13_13 
REMARK    7  A    between atoms: C13_13  and  C14_14 
REMARK    8  A    between atoms: C13_13  and  C15_15 
REMARK    9  A    between atoms: C15_15  and  C18_18 
REMARK   10  A    between atoms: C17_17  and  C16_16 
REMARK   11  A    between atoms: C17_17  and  O18_19 
REMARK   12  A    between atoms: C19_20  and  C17_17 
REMARK   13  A    between atoms: C19_20  and  N20_21 
REMARK   14  A    between atoms: C32_33  and  C19_20 
REMARK       I    between atoms: N20_21  and  C21_22 
REMARK   15  A    between atoms: C21_22  and  O23_24 
REMARK   16  A    between atoms: O23_24  and  C24_25 
REMARK   17  A    between atoms: C38_39  and  C32_33 
ROOT
ATOM      1  C17 K13 d   1      71.370  57.616  15.254  0.00  0.00     0.071 C 
ATOM      2  H17 K13 d   1      72.413  57.268  15.228  0.00  0.00     0.088 H 
ENDROOT
BRANCH   1   3
ATOM      3  C16 K13 d   1      70.466  56.504  14.725  0.00  0.00     0.031 C 
ATOM      4  H15 K13 d   1      69.414  56.781  14.884  0.00  0.00     0.069 H 
ATOM      5  H16 K13 d   1      70.649  56.364  13.649  0.00  0.00     0.069 H 
BRANCH   3   6
ATOM      6  N11 K13 d   1      70.751  55.267  15.428  0.00  0.00    -0.304 N 
BRANCH   6   7
ATOM      7  S8  K13 d   1      69.514  54.685  16.443  0.00  0.00     0.260 S 
ATOM      8  O9  K13 d   1      68.840  55.778  17.150  0.00  0.00    -0.200 OA
ATOM      9  O10 K13 d   1      70.038  53.838  17.512  0.00  0.00    -0.200 OA
BRANCH   7  10
ATOM     10  C5  K13 d   1      68.361  53.817  15.366  0.00  0.00     0.079 A 
ATOM     11  C4  K13 d   1      67.172  54.584  14.810  0.00  0.00    -0.058 A 
ATOM     12  C3  K13 d   1      66.197  53.876  13.891  0.00  0.00    -0.056 A 
ATOM     13  H4  K13 d   1      67.023  55.626  15.068  0.00  0.00     0.086 H 
ATOM     14  C2  K13 d   1      66.421  52.420  13.525  0.00  0.00     0.025 A 
ATOM     15  H3  K13 d   1      65.340  54.409  13.495  0.00  0.00     0.086 H 
ATOM     16  C7  K13 d   1      67.619  51.659  14.078  0.00  0.00    -0.056 A 
ATOM     17  C6  K13 d   1      68.597  52.363  15.001  0.00  0.00    -0.058 A 
ATOM     18  H6  K13 d   1      67.772  50.619  13.813  0.00  0.00     0.086 H 
ATOM     19  H5  K13 d   1      69.456  51.832  15.396  0.00  0.00     0.086 H 
BRANCH  14  20
ATOM     20  N1  K13 d   1      65.487  51.760  12.651  0.00  0.00    -0.399 N 
ATOM     21  H1  K13 d   1      64.677  52.276  12.278  0.00  0.00     0.156 HD
ATOM     22  H2  K13 d   1      65.628  50.771  12.399  0.00  0.00     0.156 HD
ENDBRANCH  14  20
ENDBRANCH   7  10
ENDBRANCH   6   7
BRANCH   6  23
ATOM     23  C12 K13 d   1      71.480  54.218  14.736  0.00  0.00     0.008 C 
ATOM     24  H7  K13 d   1      71.055  54.093  13.729  0.00  0.00     0.066 H 
ATOM     25  H8  K13 d   1      71.373  53.279  15.299  0.00  0.00     0.066 H 
BRANCH  23  26
ATOM     26  C13 K13 d   1      72.962  54.550  14.608  0.00  0.00    -0.042 C 
ATOM     27  H9  K13 d   1      73.076  55.536  14.135  0.00  0.00     0.042 H 
BRANCH  26  28
ATOM     28  C14 K13 d   1      73.622  54.582  15.987  0.00  0.00    -0.071 C 
ATOM     29  H10 K13 d   1      74.690  54.823  15.877  0.00  0.00     0.028 H 
ATOM     30  H11 K13 d   1      73.516  53.598  16.467  0.00  0.00     0.028 H 
ATOM     31  H12 K13 d   1      73.136  55.348  16.609  0.00  0.00     0.028 H 
ENDBRANCH  26  28
BRANCH  26  32
ATOM     32  C15 K13 d   1      73.615  53.486  13.725  0.00  0.00    -0.064 C 
ATOM     33  H13 K13 d   1      74.638  53.806  13.477  0.00  0.00     0.033 H 
ATOM     34  H14 K13 d   1      73.029  53.382  12.800  0.00  0.00     0.033 H 
BRANCH  32  35
ATOM     35  C18 K13 d   1      73.677  52.129  14.429  0.00  0.00    -0.076 C 
ATOM     36  H18 K13 d   1      74.152  51.392  13.764  0.00  0.00     0.027 H 
ATOM     37  H19 K13 d   1      72.658  51.797  14.676  0.00  0.00     0.027 H 
ATOM     38  H20 K13 d   1      74.266  52.222  15.353  0.00  0.00     0.027 H 
ENDBRANCH  32  35
ENDBRANCH  26  32
ENDBRANCH  23  26
ENDBRANCH   6  23
ENDBRANCH   3   6
ENDBRANCH   1   3
BRANCH   1  39
ATOM     39  O18 K13 d   1      71.242  58.747  14.440  0.00  0.00    -0.392 OA
ATOM     40  H21 K13 d   1      71.496  58.527  13.552  0.00  0.00     0.210 HD
ENDBRANCH   1  39
BRANCH   1  41
ATOM     41  C19 K13 d   1      71.008  57.983  16.689  0.00  0.00     0.044 C 
ATOM     42  H22 K13 d   1      71.020  57.083  17.322  0.00  0.00     0.077 H 
BRANCH  41  43
ATOM     43  N20 K13 d   1      71.984  58.951  17.139  0.00  0.00    -0.329 N 
ATOM     44  C21 K13 d   1      72.975  58.646  18.140  0.00  0.00     0.361 C 
ATOM     45  O22 K13 d   1      72.986  57.604  18.720  0.00  0.00    -0.238 OA
ATOM     46  H23 K13 d   1      71.971  59.868  16.740  0.00  0.00     0.165 HD
BRANCH  44  47
ATOM     47  O23 K13 d   1      73.910  59.655  18.365  0.00  0.00    -0.296 OA
BRANCH  47  48
ATOM     48  C24 K13 d   1      74.784  59.573  19.580  0.00  0.00     0.078 C 
ATOM     49  C25 K13 d   1      75.932  60.007  19.255  0.00  0.00     0.048 C 
ATOM     50  O26 K13 d   1      75.736  61.633  19.221  0.00  0.00    -0.358 OA
ATOM     51  H25 K13 d   1      76.230  59.627  18.267  0.00  0.00     0.078 H 
ATOM     52  H26 K13 d   1      76.686  59.718  20.002  0.00  0.00     0.078 H 
ATOM     53  C27 K13 d   1      74.926  61.921  20.185  0.00  0.00     0.137 C 
ATOM     54  O28 K13 d   1      73.706  62.772  19.677  0.00  0.00    -0.361 OA
ATOM     55  C31 K13 d   1      74.326  60.587  20.663  0.00  0.00     0.023 C 
ATOM     56  H27 K13 d   1      75.457  62.444  20.994  0.00  0.00     0.129 H 
ATOM     57  C29 K13 d   1      72.674  61.956  19.637  0.00  0.00     0.023 C 
ATOM     58  C30 K13 d   1      72.995  60.762  20.690  0.00  0.00    -0.035 C 
ATOM     59  H28 K13 d   1      72.551  61.547  18.623  0.00  0.00     0.074 H 
ATOM     60  H29 K13 d   1      71.757  62.487  19.932  0.00  0.00     0.074 H 
ATOM     61  H30 K13 d   1      72.483  59.837  20.386  0.00  0.00     0.037 H 
ATOM     62  H31 K13 d   1      72.668  61.047  21.701  0.00  0.00     0.037 H 
ATOM     63  H32 K13 d   1      74.695  60.294  21.657  0.00  0.00     0.051 H 
ATOM     64  H24 K13 d   1      74.817  58.545  19.971  0.00  0.00     0.088 H 
ENDBRANCH  47  48
ENDBRANCH  44  47
ENDBRANCH  41  43
BRANCH  41  65
ATOM     65  C32 K13 d   1      69.648  58.673  16.781  0.00  0.00    -0.020 C 
ATOM     66  H33 K13 d   1      68.854  57.966  16.500  0.00  0.00     0.043 H 
ATOM     67  H34 K13 d   1      69.625  59.539  16.103  0.00  0.00     0.043 H 
BRANCH  65  68
ATOM     68  C38 K13 d   1      69.435  59.140  18.218  0.00  0.00    -0.056 A 
ATOM     69  C33 K13 d   1      69.539  60.620  18.568  0.00  0.00    -0.077 A 
ATOM     70  C34 K13 d   1      69.331  61.082  20.007  0.00  0.00    -0.082 A 
ATOM     71  H35 K13 d   1      69.761  61.345  17.793  0.00  0.00     0.084 H 
ATOM     72  C35 K13 d   1      69.017  60.066  21.099  0.00  0.00    -0.083 A 
ATOM     73  H36 K13 d   1      69.407  62.135  20.253  0.00  0.00     0.083 H 
ATOM     74  C36 K13 d   1      68.913  58.585  20.752  0.00  0.00    -0.082 A 
ATOM     75  H37 K13 d   1      68.868  60.396  22.121  0.00  0.00     0.083 H 
ATOM     76  C37 K13 d   1      69.121  58.123  19.311  0.00  0.00    -0.077 A 
ATOM     77  H38 K13 d   1      68.692  57.861  21.527  0.00  0.00     0.083 H 
ATOM     78  H39 K13 d   1      69.045  57.070  19.064  0.00  0.00     0.084 H 
ENDBRANCH  65  68
ENDBRANCH  41  65
ENDBRANCH   1  41
TORSDOF 17
