REMARK  18 active torsions:
REMARK  status: ('A' for Active; 'I' for Inactive)
REMARK    1  A    between atoms: C2_2  and  N1_1 
REMARK    2  A    between atoms: S8_8  and  C5_5 
REMARK    3  A    between atoms: N11_11  and  S8_8 
REMARK    4  A    between atoms: N11_11  and  C12_12 
REMARK    5  A    between atoms: C16_16  and  N11_11 
REMARK    6  A    between atoms: C12_12  and  C13_13 
REMARK    7  A    between atoms: C13_13  and  C14_14 
REMARK    8  A    between atoms: C13_13  and  C15_15 
REMARK    9  A    between atoms: C14_14  and  C20_21 
REMARK   10  A    between atoms: C15_15  and  C18_18 
REMARK   11  A    between atoms: C17_17  and  C16_16 
REMARK   12  A    between atoms: C17_17  and  O18_19 
REMARK   13  A    between atoms: C19_20  and  C17_17 
REMARK   14  A    between atoms: C19_20  and  N20_22 
REMARK   15  A    between atoms: C32_34  and  C19_20 
REMARK       I    between atoms: N20_22  and  C21_23 
REMARK   16  A    between atoms: C21_23  and  O23_25 
REMARK   17  A    between atoms: O23_25  and  C24_26 
REMARK   18  A    between atoms: C38_40  and  C32_34 
ROOT
ATOM      1  C19 A60 d   1      71.062  58.126  16.643  0.00  0.00     0.041 C 
ATOM      2  H21 A60 d   1      71.066  57.211  17.254  0.00  0.00     0.076 H 
ENDROOT
BRANCH   1   3
ATOM      3  C17 A60 d   1      71.446  57.797  15.208  0.00  0.00     0.071 C 
ATOM      4  H16 A60 d   1      72.485  57.436  15.180  0.00  0.00     0.088 H 
BRANCH   3   5
ATOM      5  C16 A60 d   1      70.500  56.707  14.617  0.00  0.00     0.031 C 
ATOM      6  H14 A60 d   1      69.454  56.985  14.811  0.00  0.00     0.069 H 
ATOM      7  H15 A60 d   1      70.663  56.629  13.532  0.00  0.00     0.069 H 
BRANCH   5   8
ATOM      8  N11 A60 d   1      70.794  55.389  15.262  0.00  0.00    -0.304 N 
BRANCH   8   9
ATOM      9  S8  A60 d   1      69.560  54.805  16.285  0.00  0.00     0.260 S 
ATOM     10  O9  A60 d   1      68.910  55.849  17.050  0.00  0.00    -0.200 OA
ATOM     11  O10 A60 d   1      70.127  53.920  17.281  0.00  0.00    -0.200 OA
BRANCH   9  12
ATOM     12  C5  A60 d   1      68.364  53.960  15.199  0.00  0.00     0.079 A 
ATOM     13  C4  A60 d   1      68.585  52.487  14.823  0.00  0.00    -0.058 A 
ATOM     14  C3  A60 d   1      67.581  51.808  13.910  0.00  0.00    -0.056 A 
ATOM     15  H4  A60 d   1      69.442  51.943  15.203  0.00  0.00     0.086 H 
ATOM     16  C2  A60 d   1      66.377  52.615  13.367  0.00  0.00     0.025 A 
ATOM     17  H3  A60 d   1      67.706  50.766  13.640  0.00  0.00     0.086 H 
ATOM     18  C7  A60 d   1      66.162  54.079  13.748  0.00  0.00    -0.056 A 
ATOM     19  C6  A60 d   1      67.175  54.766  14.666  0.00  0.00    -0.058 A 
ATOM     20  H6  A60 d   1      65.303  54.624  13.373  0.00  0.00     0.086 H 
ATOM     21  H5  A60 d   1      67.053  55.809  14.936  0.00  0.00     0.086 H 
BRANCH  16  22
ATOM     22  N1  A60 d   1      65.431  51.970  12.508  0.00  0.00    -0.399 N 
ATOM     23  H1  A60 d   1      65.564  50.983  12.244  0.00  0.00     0.156 HD
ATOM     24  H2  A60 d   1      64.617  52.492  12.154  0.00  0.00     0.156 HD
ENDBRANCH  16  22
ENDBRANCH   9  12
ENDBRANCH   8   9
BRANCH   8  25
ATOM     25  C12 A60 d   1      71.444  54.351  14.457  0.00  0.00     0.009 C 
ATOM     26  H7  A60 d   1      71.077  54.413  13.422  0.00  0.00     0.066 H 
ATOM     27  H8  A60 d   1      71.199  53.363  14.874  0.00  0.00     0.066 H 
BRANCH  25  28
ATOM     28  C13 A60 d   1      73.025  54.544  14.464  0.00  0.00    -0.039 C 
ATOM     29  H9  A60 d   1      73.255  55.560  14.110  0.00  0.00     0.042 H 
BRANCH  28  30
ATOM     30  C14 A60 d   1      73.695  53.538  13.467  0.00  0.00    -0.064 C 
ATOM     31  H10 A60 d   1      74.774  53.748  13.432  0.00  0.00     0.033 H 
ATOM     32  H11 A60 d   1      73.259  53.693  12.469  0.00  0.00     0.033 H 
BRANCH  30  33
ATOM     33  C20 A60 d   1      73.498  52.059  13.862  0.00  0.00    -0.076 C 
ATOM     34  H22 A60 d   1      73.992  51.413  13.121  0.00  0.00     0.027 H 
ATOM     35  H23 A60 d   1      72.423  51.827  13.892  0.00  0.00     0.027 H 
ATOM     36  H24 A60 d   1      73.939  51.883  14.854  0.00  0.00     0.027 H 
ENDBRANCH  30  33
ENDBRANCH  28  30
BRANCH  28  37
ATOM     37  C15 A60 d   1      73.526  54.429  15.915  0.00  0.00    -0.064 C 
ATOM     38  H12 A60 d   1      73.281  53.428  16.299  0.00  0.00     0.033 H 
ATOM     39  H13 A60 d   1      73.021  55.190  16.528  0.00  0.00     0.033 H 
BRANCH  37  40
ATOM     40  C18 A60 d   1      75.064  54.643  16.011  0.00  0.00    -0.076 C 
ATOM     41  H17 A60 d   1      75.382  54.553  17.060  0.00  0.00     0.027 H 
ATOM     42  H18 A60 d   1      75.319  55.645  15.635  0.00  0.00     0.027 H 
ATOM     43  H19 A60 d   1      75.579  53.882  15.406  0.00  0.00     0.027 H 
ENDBRANCH  37  40
ENDBRANCH  28  37
ENDBRANCH  25  28
ENDBRANCH   8  25
ENDBRANCH   5   8
ENDBRANCH   3   5
BRANCH   3  44
ATOM     44  O18 A60 d   1      71.324  58.942  14.447  0.00  0.00    -0.392 OA
ATOM     45  H20 A60 d   1      71.569  58.752  13.549  0.00  0.00     0.210 HD
ENDBRANCH   3  44
ENDBRANCH   1   3
BRANCH   1  46
ATOM     46  N20 A60 d   1      72.044  59.099  17.139  0.00  0.00    -0.330 N 
ATOM     47  C21 A60 d   1      73.115  58.722  18.089  0.00  0.00     0.361 C 
ATOM     48  O22 A60 d   1      73.159  57.658  18.616  0.00  0.00    -0.238 OA
ATOM     49  H25 A60 d   1      71.987  60.047  16.825  0.00  0.00     0.165 HD
BRANCH  47  50
ATOM     50  O23 A60 d   1      74.066  59.757  18.302  0.00  0.00    -0.296 OA
BRANCH  50  51
ATOM     51  C24 A60 d   1      74.997  59.595  19.470  0.00  0.00     0.078 C 
ATOM     52  C25 A60 d   1      76.141  60.026  19.125  0.00  0.00     0.048 C 
ATOM     53  O26 A60 d   1      75.904  61.647  19.062  0.00  0.00    -0.358 OA
ATOM     54  H27 A60 d   1      76.436  59.629  18.143  0.00  0.00     0.078 H 
ATOM     55  H28 A60 d   1      76.906  59.765  19.871  0.00  0.00     0.078 H 
ATOM     56  C27 A60 d   1      75.170  61.926  20.094  0.00  0.00     0.137 C 
ATOM     57  O28 A60 d   1      73.943  62.843  19.712  0.00  0.00    -0.361 OA
ATOM     58  C31 A60 d   1      74.562  60.595  20.577  0.00  0.00     0.023 C 
ATOM     59  H29 A60 d   1      75.778  62.402  20.878  0.00  0.00     0.129 H 
ATOM     60  C29 A60 d   1      72.892  62.055  19.645  0.00  0.00     0.023 C 
ATOM     61  C30 A60 d   1      73.225  60.795  20.624  0.00  0.00    -0.035 C 
ATOM     62  H30 A60 d   1      72.737  61.708  18.613  0.00  0.00     0.074 H 
ATOM     63  H31 A60 d   1      71.993  62.584  19.993  0.00  0.00     0.074 H 
ATOM     64  H32 A60 d   1      72.697  59.896  20.274  0.00  0.00     0.037 H 
ATOM     65  H33 A60 d   1      72.914  61.025  21.654  0.00  0.00     0.037 H 
ATOM     66  H34 A60 d   1      74.942  60.287  21.562  0.00  0.00     0.051 H 
ATOM     67  H26 A60 d   1      75.025  58.554  19.826  0.00  0.00     0.088 H 
ENDBRANCH  50  51
ENDBRANCH  47  50
ENDBRANCH   1  46
BRANCH   1  68
ATOM     68  C32 A60 d   1      69.714  58.799  16.724  0.00  0.00    -0.040 C 
ATOM     69  H35 A60 d   1      68.923  58.082  16.460  0.00  0.00     0.036 H 
ATOM     70  H36 A60 d   1      69.681  59.653  16.031  0.00  0.00     0.036 H 
BRANCH  68  71
ATOM     71  C38 A60 d   1      69.509  59.296  18.180  0.00  0.00    -0.052 A 
ATOM     72  C33 A60 d   1      69.560  60.796  18.475  0.00  0.00    -0.062 A 
ATOM     73  C34 A60 d   1      69.364  61.294  19.916  0.00  0.00    -0.065 A 
ATOM     74  H37 A60 d   1      70.547  61.153  18.145  0.00  0.00     0.033 H 
ATOM     75  H38 A60 d   1      68.776  61.268  17.864  0.00  0.00     0.033 H 
ATOM     76  C35 A60 d   1      69.114  60.290  21.068  0.00  0.00    -0.065 A 
ATOM     77  H39 A60 d   1      68.501  61.975  19.899  0.00  0.00     0.033 H 
ATOM     78  H40 A60 d   1      70.271  61.858  20.181  0.00  0.00     0.033 H 
ATOM     79  C36 A60 d   1      69.071  58.782  20.772  0.00  0.00    -0.065 A 
ATOM     80  H41 A60 d   1      68.145  60.554  21.516  0.00  0.00     0.033 H 
ATOM     81  H42 A60 d   1      69.914  60.447  21.806  0.00  0.00     0.033 H 
ATOM     82  C37 A60 d   1      69.261  58.280  19.329  0.00  0.00    -0.062 A 
ATOM     83  H43 A60 d   1      68.089  58.419  21.109  0.00  0.00     0.033 H 
ATOM     84  H44 A60 d   1      69.862  58.316  21.378  0.00  0.00     0.033 H 
ATOM     85  H45 A60 d   1      68.353  57.718  19.066  0.00  0.00     0.033 H 
ATOM     86  H46 A60 d   1      70.124  57.597  19.341  0.00  0.00     0.033 H 
ATOM     87  H47 A60 d   1      68.425  59.364  18.007  0.00  0.00     0.040 H 
ENDBRANCH  68  71
ENDBRANCH   1  68
TORSDOF 18
