REMARK  16 active torsions:
REMARK  status: ('A' for Active; 'I' for Inactive)
REMARK    1  A    between atoms: C2_2  and  N1_1 
REMARK    2  A    between atoms: S8_8  and  C5_5 
REMARK    3  A    between atoms: N11_11  and  S8_8 
REMARK    4  A    between atoms: N11_11  and  C12_12 
REMARK    5  A    between atoms: C16_16  and  N11_11 
REMARK    6  A    between atoms: C12_12  and  C13_13 
REMARK    7  A    between atoms: C13_13  and  C14_14 
REMARK    8  A    between atoms: C13_13  and  C15_15 
REMARK    9  A    between atoms: C17_17  and  C16_16 
REMARK   10  A    between atoms: C17_17  and  O18_18 
REMARK   11  A    between atoms: C19_19  and  C17_17 
REMARK   12  A    between atoms: C19_19  and  N20_20 
REMARK   13  A    between atoms: C32_32  and  C19_19 
REMARK       I    between atoms: N20_20  and  C21_21 
REMARK   14  A    between atoms: C21_21  and  O23_23 
REMARK   15  A    between atoms: O23_23  and  C24_24 
REMARK   16  A    between atoms: C38_38  and  C32_32 
ROOT
ATOM      1  C19 017 d   1     122.062  58.041  16.569  0.00  0.00     0.044 C 
ATOM      2  H20 017 d   1     122.083  57.109  17.152  0.00  0.00     0.077 H 
ENDROOT
BRANCH   1   3
ATOM      3  C17 017 d   1     122.418  57.747  15.103  0.00  0.00     0.071 C 
ATOM      4  H18 017 d   1     123.457  57.391  15.051  0.00  0.00     0.088 H 
BRANCH   3   5
ATOM      5  C16 017 d   1     121.470  56.647  14.536  0.00  0.00     0.031 C 
ATOM      6  H16 017 d   1     120.425  56.918  14.748  0.00  0.00     0.069 H 
ATOM      7  H17 017 d   1     121.614  56.563  13.449  0.00  0.00     0.069 H 
BRANCH   5   8
ATOM      8  N11 017 d   1     121.798  55.293  15.206  0.00  0.00    -0.304 N 
BRANCH   8   9
ATOM      9  S8  017 d   1     120.566  54.689  16.252  0.00  0.00     0.260 S 
ATOM     10  O9  017 d   1     121.121  53.815  17.275  0.00  0.00    -0.200 OA
ATOM     11  O10 017 d   1     119.886  55.778  16.997  0.00  0.00    -0.200 OA
BRANCH   9  12
ATOM     12  C5  017 d   1     119.389  53.818  15.163  0.00  0.00     0.079 A 
ATOM     13  C4  017 d   1     118.330  54.544  14.620  0.00  0.00    -0.058 A 
ATOM     14  C3  017 d   1     117.439  53.917  13.788  0.00  0.00    -0.056 A 
ATOM     15  H4  017 d   1     118.212  55.596  14.854  0.00  0.00     0.086 H 
ATOM     16  C2  017 d   1     117.600  52.583  13.487  0.00  0.00     0.025 A 
ATOM     17  H3  017 d   1     116.608  54.471  13.367  0.00  0.00     0.086 H 
ATOM     18  C7  017 d   1     118.660  51.868  14.021  0.00  0.00    -0.056 A 
ATOM     19  C6  017 d   1     119.567  52.501  14.866  0.00  0.00    -0.058 A 
ATOM     20  H6  017 d   1     118.783  50.818  13.781  0.00  0.00     0.086 H 
ATOM     21  H5  017 d   1     120.404  51.953  15.282  0.00  0.00     0.086 H 
BRANCH  16  22
ATOM     22  N1  017 d   1     116.622  51.917  12.580  0.00  0.00    -0.399 N 
ATOM     23  H1  017 d   1     115.836  52.454  12.186  0.00  0.00     0.156 HD
ATOM     24  H2  017 d   1     116.732  50.920  12.347  0.00  0.00     0.156 HD
ENDBRANCH  16  22
ENDBRANCH   9  12
ENDBRANCH   8   9
BRANCH   8  25
ATOM     25  C12 017 d   1     122.570  54.279  14.470  0.00  0.00     0.008 C 
ATOM     26  H7  017 d   1     122.180  54.207  13.444  0.00  0.00     0.066 H 
ATOM     27  H8  017 d   1     122.458  53.308  14.974  0.00  0.00     0.066 H 
BRANCH  25  28
ATOM     28  C13 017 d   1     124.058  54.643  14.413  0.00  0.00    -0.045 C 
ATOM     29  H9  017 d   1     124.137  55.650  13.977  0.00  0.00     0.041 H 
BRANCH  28  30
ATOM     30  C14 017 d   1     124.819  53.658  13.466  0.00  0.00    -0.072 C 
ATOM     31  H10 017 d   1     125.884  53.930  13.434  0.00  0.00     0.028 H 
ATOM     32  H11 017 d   1     124.394  53.721  12.453  0.00  0.00     0.028 H 
ATOM     33  H12 017 d   1     124.714  52.631  13.845  0.00  0.00     0.028 H 
ENDBRANCH  28  30
BRANCH  28  34
ATOM     34  C15 017 d   1     124.694  54.703  15.823  0.00  0.00    -0.072 C 
ATOM     35  H13 017 d   1     124.127  55.406  16.451  0.00  0.00     0.028 H 
ATOM     36  H14 017 d   1     125.737  55.044  15.741  0.00  0.00     0.028 H 
ATOM     37  H15 017 d   1     124.670  53.702  16.279  0.00  0.00     0.028 H 
ENDBRANCH  28  34
ENDBRANCH  25  28
ENDBRANCH   8  25
ENDBRANCH   5   8
ENDBRANCH   3   5
BRANCH   3  38
ATOM     38  O18 017 d   1     122.294  58.893  14.343  0.00  0.00    -0.392 OA
ATOM     39  H19 017 d   1     122.531  58.702  13.443  0.00  0.00     0.210 HD
ENDBRANCH   3  38
ENDBRANCH   1   3
BRANCH   1  40
ATOM     40  N20 017 d   1     123.044  58.979  17.044  0.00  0.00    -0.329 N 
ATOM     41  C21 017 d   1     124.000  58.655  18.099  0.00  0.00     0.361 C 
ATOM     42  O22 017 d   1     123.995  57.599  18.656  0.00  0.00    -0.238 OA
ATOM     43  H21 017 d   1     123.073  59.891  16.635  0.00  0.00     0.165 HD
BRANCH  41  44
ATOM     44  O23 017 d   1     124.895  59.679  18.389  0.00  0.00    -0.296 OA
BRANCH  44  45
ATOM     45  C24 017 d   1     125.667  59.657  19.568  0.00  0.00     0.078 C 
ATOM     46  C25 017 d   1     127.146  60.250  19.116  0.00  0.00     0.048 C 
ATOM     47  O26 017 d   1     126.924  61.570  18.974  0.00  0.00    -0.358 OA
ATOM     48  H23 017 d   1     127.476  59.802  18.167  0.00  0.00     0.078 H 
ATOM     49  H24 017 d   1     127.901  60.059  19.893  0.00  0.00     0.078 H 
ATOM     50  C27 017 d   1     125.877  61.915  20.097  0.00  0.00     0.137 C 
ATOM     51  O28 017 d   1     124.962  62.656  19.650  0.00  0.00    -0.361 OA
ATOM     52  C31 017 d   1     125.226  60.524  20.495  0.00  0.00     0.023 C 
ATOM     53  H25 017 d   1     126.368  62.392  20.958  0.00  0.00     0.129 H 
ATOM     54  C29 017 d   1     123.559  61.838  19.708  0.00  0.00     0.023 C 
ATOM     55  C30 017 d   1     123.746  60.782  20.481  0.00  0.00    -0.035 C 
ATOM     56  H26 017 d   1     123.270  61.516  18.697  0.00  0.00     0.074 H 
ATOM     57  H27 017 d   1     122.769  62.477  20.130  0.00  0.00     0.074 H 
ATOM     58  H28 017 d   1     123.212  59.912  20.072  0.00  0.00     0.037 H 
ATOM     59  H29 017 d   1     123.386  60.988  21.500  0.00  0.00     0.037 H 
ATOM     60  H30 017 d   1     125.539  60.192  21.496  0.00  0.00     0.051 H 
ATOM     61  H22 017 d   1     125.727  58.638  19.979  0.00  0.00     0.088 H 
ENDBRANCH  44  45
ENDBRANCH  41  44
ENDBRANCH   1  40
BRANCH   1  62
ATOM     62  C32 017 d   1     120.710  58.730  16.738  0.00  0.00    -0.020 C 
ATOM     63  H31 017 d   1     119.912  58.019  16.479  0.00  0.00     0.043 H 
ATOM     64  H32 017 d   1     120.663  59.596  16.061  0.00  0.00     0.043 H 
BRANCH  62  65
ATOM     65  C38 017 d   1     120.499  59.212  18.177  0.00  0.00    -0.056 A 
ATOM     66  C33 017 d   1     120.250  58.301  19.177  0.00  0.00    -0.077 A 
ATOM     67  C34 017 d   1     120.059  58.739  20.502  0.00  0.00    -0.082 A 
ATOM     68  H33 017 d   1     120.201  57.243  18.945  0.00  0.00     0.084 H 
ATOM     69  C35 017 d   1     120.122  60.110  20.807  0.00  0.00    -0.083 A 
ATOM     70  H34 017 d   1     119.863  58.018  21.288  0.00  0.00     0.083 H 
ATOM     71  C36 017 d   1     120.374  61.025  19.808  0.00  0.00    -0.082 A 
ATOM     72  H35 017 d   1     119.973  60.447  21.826  0.00  0.00     0.083 H 
ATOM     73  C37 017 d   1     120.565  60.590  18.489  0.00  0.00    -0.077 A 
ATOM     74  H36 017 d   1     120.425  62.082  20.042  0.00  0.00     0.083 H 
ATOM     75  H37 017 d   1     120.764  61.312  17.706  0.00  0.00     0.084 H 
ENDBRANCH  62  65
ENDBRANCH   1  62
TORSDOF 16
