REMARK  16 active torsions:
REMARK  status: ('A' for Active; 'I' for Inactive)
REMARK    1  A    between atoms: C2_2  and  N1_1 
REMARK    2  A    between atoms: S8_8  and  C5_5 
REMARK    3  A    between atoms: N11_11  and  S8_8 
REMARK    4  A    between atoms: N11_11  and  C12_12 
REMARK    5  A    between atoms: C16_16  and  N11_11 
REMARK    6  A    between atoms: C12_12  and  C13_13 
REMARK    7  A    between atoms: C13_13  and  C14_14 
REMARK    8  A    between atoms: C13_13  and  C15_15 
REMARK    9  A    between atoms: C17_17  and  C16_16 
REMARK   10  A    between atoms: C17_17  and  O18_18 
REMARK   11  A    between atoms: C19_19  and  C17_17 
REMARK   12  A    between atoms: C19_19  and  N20_20 
REMARK   13  A    between atoms: C32_32  and  C19_19 
REMARK       I    between atoms: N20_20  and  C21_21 
REMARK   14  A    between atoms: C21_21  and  O23_23 
REMARK   15  A    between atoms: O23_23  and  C24_24 
REMARK   16  A    between atoms: C38_38  and  C32_32 
ROOT
ATOM      1  C19 017 d   1      71.161  58.033  16.749  0.00  0.00     0.044 C 
ATOM      2  H20 017 d   1      71.157  57.106  17.342  0.00  0.00     0.077 H 
ENDROOT
BRANCH   1   3
ATOM      3  C17 017 d   1      71.523  57.717  15.288  0.00  0.00     0.071 C 
ATOM      4  H18 017 d   1      72.567  57.374  15.247  0.00  0.00     0.088 H 
BRANCH   3   5
ATOM      5  C16 017 d   1      70.596  56.597  14.720  0.00  0.00     0.031 C 
ATOM      6  H16 017 d   1      69.545  56.875  14.885  0.00  0.00     0.069 H 
ATOM      7  H17 017 d   1      70.781  56.483  13.642  0.00  0.00     0.069 H 
BRANCH   5   8
ATOM      8  N11 017 d   1      70.890  55.262  15.434  0.00  0.00    -0.304 N 
BRANCH   8   9
ATOM      9  S8  017 d   1      69.615  54.677  16.444  0.00  0.00     0.260 S 
ATOM     10  O9  017 d   1      70.126  53.834  17.512  0.00  0.00    -0.200 OA
ATOM     11  O10 017 d   1      68.925  55.796  17.132  0.00  0.00    -0.200 OA
BRANCH   9  12
ATOM     12  C5  017 d   1      68.455  53.790  15.341  0.00  0.00     0.079 A 
ATOM     13  C4  017 d   1      68.658  52.443  15.037  0.00  0.00    -0.058 A 
ATOM     14  C3  017 d   1      67.777  51.800  14.195  0.00  0.00    -0.056 A 
ATOM     15  H4  017 d   1      69.501  51.908  15.459  0.00  0.00     0.086 H 
ATOM     16  C2  017 d   1      66.710  52.492  13.658  0.00  0.00     0.025 A 
ATOM     17  H3  017 d   1      67.921  50.753  13.955  0.00  0.00     0.086 H 
ATOM     18  C7  017 d   1      66.521  53.826  13.960  0.00  0.00    -0.056 A 
ATOM     19  C6  017 d   1      67.409  54.478  14.809  0.00  0.00    -0.058 A 
ATOM     20  H6  017 d   1      65.681  54.365  13.536  0.00  0.00     0.086 H 
ATOM     21  H5  017 d   1      67.269  55.527  15.045  0.00  0.00     0.086 H 
BRANCH  16  22
ATOM     22  N1  017 d   1      65.749  51.810  12.745  0.00  0.00    -0.399 N 
ATOM     23  H1  017 d   1      65.878  50.815  12.511  0.00  0.00     0.156 HD
ATOM     24  H2  017 d   1      64.956  52.334  12.348  0.00  0.00     0.156 HD
ENDBRANCH  16  22
ENDBRANCH   9  12
ENDBRANCH   8   9
BRANCH   8  25
ATOM     25  C12 017 d   1      71.664  54.219  14.732  0.00  0.00     0.008 C 
ATOM     26  H7  017 d   1      71.261  54.105  13.715  0.00  0.00     0.066 H 
ATOM     27  H8  017 d   1      71.555  53.270  15.278  0.00  0.00     0.066 H 
BRANCH  25  28
ATOM     28  C13 017 d   1      73.154  54.561  14.635  0.00  0.00    -0.045 C 
ATOM     29  H9  017 d   1      73.246  55.562  14.187  0.00  0.00     0.041 H 
BRANCH  28  30
ATOM     30  C14 017 d   1      73.852  53.532  13.682  0.00  0.00    -0.072 C 
ATOM     31  H10 017 d   1      74.923  53.770  13.607  0.00  0.00     0.028 H 
ATOM     32  H11 017 d   1      73.393  53.587  12.684  0.00  0.00     0.028 H 
ATOM     33  H12 017 d   1      73.730  52.516  14.086  0.00  0.00     0.028 H 
ENDBRANCH  28  30
BRANCH  28  34
ATOM     34  C15 017 d   1      73.837  54.606  16.025  0.00  0.00    -0.072 C 
ATOM     35  H13 017 d   1      73.320  55.337  16.664  0.00  0.00     0.028 H 
ATOM     36  H14 017 d   1      74.890  54.901  15.907  0.00  0.00     0.028 H 
ATOM     37  H15 017 d   1      73.785  53.611  16.491  0.00  0.00     0.028 H 
ENDBRANCH  28  34
ENDBRANCH  25  28
ENDBRANCH   8  25
ENDBRANCH   5   8
ENDBRANCH   3   5
BRANCH   3  38
ATOM     38  O18 017 d   1      71.387  58.850  14.512  0.00  0.00    -0.392 OA
ATOM     39  H19 017 d   1      71.636  58.651  13.617  0.00  0.00     0.210 HD
ENDBRANCH   3  38
ENDBRANCH   1   3
BRANCH   1  40
ATOM     40  N20 017 d   1      72.158  58.957  17.231  0.00  0.00    -0.329 N 
ATOM     41  C21 017 d   1      73.139  58.617  18.265  0.00  0.00     0.361 C 
ATOM     42  O22 017 d   1      73.156  57.543  18.789  0.00  0.00    -0.238 OA
ATOM     43  H21 017 d   1      72.181  59.877  16.840  0.00  0.00     0.165 HD
BRANCH  41  44
ATOM     44  O23 017 d   1      74.032  59.649  18.560  0.00  0.00    -0.296 OA
BRANCH  44  45
ATOM     45  C24 017 d   1      74.786  59.659  19.757  0.00  0.00     0.078 C 
ATOM     46  C25 017 d   1      76.265  60.267  19.319  0.00  0.00     0.048 C 
ATOM     47  O26 017 d   1      76.032  61.579  19.156  0.00  0.00    -0.358 OA
ATOM     48  H23 017 d   1      76.615  59.811  18.381  0.00  0.00     0.078 H 
ATOM     49  H24 017 d   1      77.010  60.096  20.110  0.00  0.00     0.078 H 
ATOM     50  C27 017 d   1      74.962  61.935  20.253  0.00  0.00     0.137 C 
ATOM     51  O28 017 d   1      74.047  62.648  19.765  0.00  0.00    -0.361 OA
ATOM     52  C31 017 d   1      74.326  60.538  20.666  0.00  0.00     0.023 C 
ATOM     53  H25 017 d   1      75.427  62.440  21.112  0.00  0.00     0.129 H 
ATOM     54  C29 017 d   1      72.660  61.796  19.809  0.00  0.00     0.023 C 
ATOM     55  C30 017 d   1      72.848  60.778  20.626  0.00  0.00    -0.035 C 
ATOM     56  H26 017 d   1      72.412  61.429  18.802  0.00  0.00     0.074 H 
ATOM     57  H27 017 d   1      71.841  62.430  20.180  0.00  0.00     0.074 H 
ATOM     58  H28 017 d   1      72.327  59.886  20.248  0.00  0.00     0.037 H 
ATOM     59  H29 017 d   1      72.475  61.023  21.631  0.00  0.00     0.037 H 
ATOM     60  H30 017 d   1      74.631  60.226  21.676  0.00  0.00     0.051 H 
ATOM     61  H22 017 d   1      74.852  58.648  20.186  0.00  0.00     0.088 H 
ENDBRANCH  44  45
ENDBRANCH  41  44
ENDBRANCH   1  40
BRANCH   1  62
ATOM     62  C32 017 d   1      69.816  58.746  16.888  0.00  0.00    -0.020 C 
ATOM     63  H31 017 d   1      69.014  58.051  16.599  0.00  0.00     0.043 H 
ATOM     64  H32 017 d   1      69.805  59.618  16.217  0.00  0.00     0.043 H 
BRANCH  62  65
ATOM     65  C38 017 d   1      69.563  59.223  18.324  0.00  0.00    -0.056 A 
ATOM     66  C33 017 d   1      69.658  60.555  18.638  0.00  0.00    -0.077 A 
ATOM     67  C34 017 d   1      69.428  60.988  19.957  0.00  0.00    -0.082 A 
ATOM     68  H33 017 d   1      69.911  61.275  17.869  0.00  0.00     0.084 H 
ATOM     69  C35 017 d   1      69.101  60.061  20.960  0.00  0.00    -0.083 A 
ATOM     70  H34 017 d   1      69.504  62.042  20.200  0.00  0.00     0.083 H 
ATOM     71  C36 017 d   1      69.003  58.722  20.650  0.00  0.00    -0.082 A 
ATOM     72  H35 017 d   1      68.926  60.398  21.975  0.00  0.00     0.083 H 
ATOM     73  C37 017 d   1      69.228  58.290  19.336  0.00  0.00    -0.077 A 
ATOM     74  H36 017 d   1      68.752  58.003  21.422  0.00  0.00     0.083 H 
ATOM     75  H37 017 d   1      69.145  57.237  19.093  0.00  0.00     0.084 H 
ENDBRANCH  62  65
ENDBRANCH   1  62
TORSDOF 16
