REMARK  17 active torsions:
REMARK  status: ('A' for Active; 'I' for Inactive)
REMARK    1  A    between atoms: C2_2  and  N1_1 
REMARK    2  A    between atoms: S8_8  and  C5_5 
REMARK    3  A    between atoms: N11_11  and  S8_8 
REMARK    4  A    between atoms: N11_11  and  C12_12 
REMARK    5  A    between atoms: C16_16  and  N11_11 
REMARK    6  A    between atoms: C12_12  and  C13_13 
REMARK    7  A    between atoms: C13_13  and  C14_14 
REMARK    8  A    between atoms: C13_13  and  C15_15 
REMARK    9  A    between atoms: C15_15  and  C18_18 
REMARK   10  A    between atoms: C17_17  and  C16_16 
REMARK   11  A    between atoms: C17_17  and  O18_19 
REMARK   12  A    between atoms: C19_20  and  C17_17 
REMARK   13  A    between atoms: C19_20  and  N20_21 
REMARK   14  A    between atoms: C32_33  and  C19_20 
REMARK       I    between atoms: N20_21  and  C21_22 
REMARK   15  A    between atoms: C21_22  and  O23_24 
REMARK   16  A    between atoms: O23_24  and  C24_25 
REMARK   17  A    between atoms: C38_39  and  C32_33 
ROOT
ATOM      1  C17 K13 d   1      71.416  57.596  15.330  0.00  0.00     0.071 C 
ATOM      2  H17 K13 d   1      72.463  57.261  15.293  0.00  0.00     0.088 H 
ENDROOT
BRANCH   1   3
ATOM      3  C16 K13 d   1      70.520  56.474  14.802  0.00  0.00     0.031 C 
ATOM      4  H15 K13 d   1      69.466  56.761  14.929  0.00  0.00     0.069 H 
ATOM      5  H16 K13 d   1      70.730  56.314  13.734  0.00  0.00     0.069 H 
BRANCH   3   6
ATOM      6  N11 K13 d   1      70.772  55.243  15.530  0.00  0.00    -0.304 N 
BRANCH   6   7
ATOM      7  S8  K13 d   1      69.500  54.678  16.524  0.00  0.00     0.260 S 
ATOM      8  O9  K13 d   1      68.846  55.762  17.261  0.00  0.00    -0.200 OA
ATOM      9  O10 K13 d   1      70.000  53.810  17.587  0.00  0.00    -0.200 OA
BRANCH   7  10
ATOM     10  C5  K13 d   1      68.328  53.823  15.445  0.00  0.00     0.079 A 
ATOM     11  C4  K13 d   1      67.117  54.577  14.909  0.00  0.00    -0.058 A 
ATOM     12  C3  K13 d   1      66.134  53.865  13.995  0.00  0.00    -0.056 A 
ATOM     13  H4  K13 d   1      66.958  55.615  15.178  0.00  0.00     0.086 H 
ATOM     14  C2  K13 d   1      66.369  52.411  13.612  0.00  0.00     0.025 A 
ATOM     15  H3  K13 d   1      65.266  54.392  13.616  0.00  0.00     0.086 H 
ATOM     16  C7  K13 d   1      67.586  51.661  14.143  0.00  0.00    -0.056 A 
ATOM     17  C6  K13 d   1      68.570  52.372  15.062  0.00  0.00    -0.058 A 
ATOM     18  H6  K13 d   1      67.750  50.626  13.867  0.00  0.00     0.086 H 
ATOM     19  H5  K13 d   1      69.439  51.846  15.441  0.00  0.00     0.086 H 
BRANCH  14  20
ATOM     20  N1  K13 d   1      65.433  51.744  12.742  0.00  0.00    -0.399 N 
ATOM     21  H1  K13 d   1      64.611  52.251  12.384  0.00  0.00     0.156 HD
ATOM     22  H2  K13 d   1      65.586  50.760  12.479  0.00  0.00     0.156 HD
ENDBRANCH  14  20
ENDBRANCH   7  10
ENDBRANCH   6   7
BRANCH   6  23
ATOM     23  C12 K13 d   1      71.533  54.196  14.860  0.00  0.00     0.008 C 
ATOM     24  H7  K13 d   1      71.094  54.016  13.868  0.00  0.00     0.066 H 
ATOM     25  H8  K13 d   1      71.475  53.275  15.459  0.00  0.00     0.066 H 
BRANCH  23  26
ATOM     26  C13 K13 d   1      73.000  54.582  14.688  0.00  0.00    -0.042 C 
ATOM     27  H9  K13 d   1      73.060  55.581  14.231  0.00  0.00     0.042 H 
BRANCH  26  28
ATOM     28  C14 K13 d   1      73.688  54.614  16.053  0.00  0.00    -0.071 C 
ATOM     29  H10 K13 d   1      74.744  54.892  15.925  0.00  0.00     0.028 H 
ATOM     30  H11 K13 d   1      73.625  53.620  16.519  0.00  0.00     0.028 H 
ATOM     31  H12 K13 d   1      73.190  55.353  16.698  0.00  0.00     0.028 H 
ENDBRANCH  26  28
BRANCH  26  32
ATOM     32  C15 K13 d   1      73.693  53.570  13.773  0.00  0.00    -0.064 C 
ATOM     33  H13 K13 d   1      74.740  53.877  13.632  0.00  0.00     0.033 H 
ATOM     34  H14 K13 d   1      73.179  53.561  12.800  0.00  0.00     0.033 H 
BRANCH  32  35
ATOM     35  C18 K13 d   1      73.668  52.156  14.358  0.00  0.00    -0.076 C 
ATOM     36  H18 K13 d   1      74.175  51.465  13.669  0.00  0.00     0.027 H 
ATOM     37  H19 K13 d   1      72.625  51.835  14.497  0.00  0.00     0.027 H 
ATOM     38  H20 K13 d   1      74.186  52.151  15.329  0.00  0.00     0.027 H 
ENDBRANCH  32  35
ENDBRANCH  26  32
ENDBRANCH  23  26
ENDBRANCH   6  23
ENDBRANCH   3   6
ENDBRANCH   1   3
BRANCH   1  39
ATOM     39  O18 K13 d   1      71.262  58.734  14.530  0.00  0.00    -0.392 OA
ATOM     40  H21 K13 d   1      71.508  58.527  13.636  0.00  0.00     0.210 HD
ENDBRANCH   1  39
BRANCH   1  41
ATOM     41  C19 K13 d   1      71.062  57.965  16.765  0.00  0.00     0.044 C 
ATOM     42  H22 K13 d   1      71.064  57.066  17.400  0.00  0.00     0.077 H 
BRANCH  41  43
ATOM     43  N20 K13 d   1      72.055  58.919  17.211  0.00  0.00    -0.329 N 
ATOM     44  C21 K13 d   1      73.050  58.598  18.207  0.00  0.00     0.361 C 
ATOM     45  O22 K13 d   1      73.054  57.552  18.768  0.00  0.00    -0.238 OA
ATOM     46  H23 K13 d   1      72.052  59.837  16.814  0.00  0.00     0.165 HD
BRANCH  44  47
ATOM     47  O23 K13 d   1      74.002  59.591  18.454  0.00  0.00    -0.296 OA
BRANCH  47  48
ATOM     48  C24 K13 d   1      74.822  59.508  19.708  0.00  0.00     0.078 C 
ATOM     49  C25 K13 d   1      75.991  59.914  19.431  0.00  0.00     0.048 C 
ATOM     50  O26 K13 d   1      75.854  61.549  19.406  0.00  0.00    -0.358 OA
ATOM     51  H25 K13 d   1      76.314  59.535  18.450  0.00  0.00     0.078 H 
ATOM     52  H26 K13 d   1      76.708  59.594  20.202  0.00  0.00     0.078 H 
ATOM     53  C27 K13 d   1      74.982  61.860  20.304  0.00  0.00     0.137 C 
ATOM     54  O28 K13 d   1      73.808  62.723  19.701  0.00  0.00    -0.361 OA
ATOM     55  C31 K13 d   1      74.338  60.542  20.764  0.00  0.00     0.023 C 
ATOM     56  H27 K13 d   1      75.463  62.390  21.139  0.00  0.00     0.129 H 
ATOM     57  C29 K13 d   1      72.756  61.933  19.648  0.00  0.00     0.023 C 
ATOM     58  C30 K13 d   1      73.011  60.749  20.731  0.00  0.00    -0.035 C 
ATOM     59  H28 K13 d   1      72.651  61.508  18.639  0.00  0.00     0.074 H 
ATOM     60  H29 K13 d   1      71.846  62.494  19.907  0.00  0.00     0.074 H 
ATOM     61  H30 K13 d   1      72.491  59.831  20.420  0.00  0.00     0.037 H 
ATOM     62  H31 K13 d   1      72.650  61.057  21.723  0.00  0.00     0.037 H 
ATOM     63  H32 K13 d   1      74.657  60.249  21.775  0.00  0.00     0.051 H 
ATOM     64  H24 K13 d   1      74.817  58.484  20.110  0.00  0.00     0.088 H 
ENDBRANCH  47  48
ENDBRANCH  44  47
ENDBRANCH  41  43
BRANCH  41  65
ATOM     65  C32 K13 d   1      69.704  58.660  16.842  0.00  0.00    -0.020 C 
ATOM     66  H33 K13 d   1      68.912  57.957  16.546  0.00  0.00     0.043 H 
ATOM     67  H34 K13 d   1      69.695  59.528  16.167  0.00  0.00     0.043 H 
BRANCH  65  68
ATOM     68  C38 K13 d   1      69.468  59.124  18.277  0.00  0.00    -0.056 A 
ATOM     69  C33 K13 d   1      69.115  58.102  19.356  0.00  0.00    -0.077 A 
ATOM     70  C34 K13 d   1      68.884  58.559  20.797  0.00  0.00    -0.082 A 
ATOM     71  H35 K13 d   1      69.028  57.052  19.100  0.00  0.00     0.084 H 
ATOM     72  C35 K13 d   1      69.002  60.039  21.155  0.00  0.00    -0.083 A 
ATOM     73  H36 K13 d   1      68.637  57.833  21.563  0.00  0.00     0.083 H 
ATOM     74  C36 K13 d   1      69.355  61.061  20.076  0.00  0.00    -0.082 A 
ATOM     75  H37 K13 d   1      68.835  60.364  22.175  0.00  0.00     0.083 H 
ATOM     76  C37 K13 d   1      69.588  60.603  18.636  0.00  0.00    -0.077 A 
ATOM     77  H38 K13 d   1      69.440  62.111  20.331  0.00  0.00     0.083 H 
ATOM     78  H39 K13 d   1      69.838  61.328  17.870  0.00  0.00     0.084 H 
ENDBRANCH  65  68
ENDBRANCH  41  65
ENDBRANCH   1  41
TORSDOF 17
