REMARK  18 active torsions:
REMARK  status: ('A' for Active; 'I' for Inactive)
REMARK    1  A    between atoms: C2_2  and  N1_1 
REMARK    2  A    between atoms: S8_8  and  C5_5 
REMARK    3  A    between atoms: N11_11  and  S8_8 
REMARK    4  A    between atoms: N11_11  and  C12_12 
REMARK    5  A    between atoms: C16_16  and  N11_11 
REMARK    6  A    between atoms: C12_12  and  C13_13 
REMARK    7  A    between atoms: C13_13  and  C14_14 
REMARK    8  A    between atoms: C13_13  and  C15_15 
REMARK    9  A    between atoms: C14_14  and  C20_21 
REMARK   10  A    between atoms: C15_15  and  C18_18 
REMARK   11  A    between atoms: C17_17  and  C16_16 
REMARK   12  A    between atoms: C17_17  and  O18_19 
REMARK   13  A    between atoms: C19_20  and  C17_17 
REMARK   14  A    between atoms: C19_20  and  N20_22 
REMARK   15  A    between atoms: C32_34  and  C19_20 
REMARK       I    between atoms: N20_22  and  C21_23 
REMARK   16  A    between atoms: C21_23  and  O23_25 
REMARK   17  A    between atoms: O23_25  and  C24_26 
REMARK   18  A    between atoms: C38_40  and  C32_34 
ROOT
ATOM      1  C17 A60 d   1      71.522  57.593  15.351  0.00  0.00     0.071 C 
ATOM      2  H23 A60 d   1      72.549  57.199  15.374  0.00  0.00     0.088 H 
ENDROOT
BRANCH   1   3
ATOM      3  C16 A60 d   1      70.571  56.489  14.771  0.00  0.00     0.031 C 
ATOM      4  H21 A60 d   1      69.525  56.785  14.938  0.00  0.00     0.069 H 
ATOM      5  H22 A60 d   1      70.754  56.381  13.692  0.00  0.00     0.069 H 
BRANCH   3   6
ATOM      6  N11 A60 d   1      70.832  55.173  15.455  0.00  0.00    -0.308 N 
BRANCH   6   7
ATOM      7  S8  A60 d   1      69.593  54.611  16.499  0.00  0.00     0.232 S 
ATOM      8  O9  A60 d   1      68.999  55.704  17.262  0.00  0.00    -0.205 OA
ATOM      9  O10 A60 d   1      70.106  53.744  17.547  0.00  0.00    -0.205 OA
BRANCH   7  10
ATOM     10  C5  A60 d   1      68.379  53.748  15.415  0.00  0.00     0.063 A 
ATOM     11  C4  A60 d   1      67.149  54.513  14.899  0.00  0.00    -0.046 A 
ATOM     12  C3  A60 d   1      66.145  53.808  13.990  0.00  0.00    -0.037 A 
ATOM     13  H7  A60 d   1      66.592  54.855  15.784  0.00  0.00     0.035 H 
ATOM     14  H8  A60 d   1      67.526  55.384  14.343  0.00  0.00     0.035 H 
ATOM     15  C2  A60 d   1      66.366  52.330  13.579  0.00  0.00     0.100 A 
ATOM     16  H5  A60 d   1      65.171  53.852  14.500  0.00  0.00     0.036 H 
ATOM     17  H6  A60 d   1      66.098  54.392  13.059  0.00  0.00     0.036 H 
ATOM     18  C7  A60 d   1      67.594  51.571  14.086  0.00  0.00    -0.037 A 
ATOM     19  H4  A60 d   1      65.797  51.998  14.460  0.00  0.00     0.083 H 
ATOM     20  C6  A60 d   1      68.609  52.281  15.007  0.00  0.00    -0.046 A 
ATOM     21  H12 A60 d   1      68.150  51.236  13.198  0.00  0.00     0.036 H 
ATOM     22  H13 A60 d   1      67.222  50.695  14.638  0.00  0.00     0.036 H 
ATOM     23  H10 A60 d   1      68.658  51.696  15.937  0.00  0.00     0.035 H 
ATOM     24  H11 A60 d   1      69.583  52.242  14.497  0.00  0.00     0.035 H 
ATOM     25  H9  A60 d   1      67.813  53.418  16.299  0.00  0.00     0.066 H 
BRANCH  15  26
ATOM     26  N1  A60 d   1      65.412  51.676  12.716  0.00  0.00    -0.075 N 
ATOM     27  H1  A60 d   1      64.673  52.321  12.482  0.00  0.00     0.274 HD
ATOM     28  H2  A60 d   1      65.022  50.877  13.191  0.00  0.00     0.274 HD
ATOM     29  H3  A60 d   1      65.874  51.374  11.873  0.00  0.00     0.274 HD
ENDBRANCH  15  26
ENDBRANCH   7  10
ENDBRANCH   6   7
BRANCH   6  30
ATOM     30  C12 A60 d   1      71.517  54.126  14.685  0.00  0.00     0.008 C 
ATOM     31  H14 A60 d   1      71.141  54.135  13.651  0.00  0.00     0.066 H 
ATOM     32  H15 A60 d   1      71.308  53.148  15.143  0.00  0.00     0.066 H 
BRANCH  30  33
ATOM     33  C13 A60 d   1      73.092  54.370  14.670  0.00  0.00    -0.039 C 
ATOM     34  H16 A60 d   1      73.303  55.379  14.286  0.00  0.00     0.042 H 
BRANCH  33  35
ATOM     35  C14 A60 d   1      73.623  54.276  16.132  0.00  0.00    -0.064 C 
ATOM     36  H17 A60 d   1      73.449  53.259  16.513  0.00  0.00     0.033 H 
ATOM     37  H18 A60 d   1      73.081  55.000  16.758  0.00  0.00     0.033 H 
BRANCH  35  38
ATOM     38  C20 A60 d   1      75.133  54.586  16.196  0.00  0.00    -0.076 C 
ATOM     39  H29 A60 d   1      75.479  54.512  17.238  0.00  0.00     0.027 H 
ATOM     40  H30 A60 d   1      75.315  55.604  15.821  0.00  0.00     0.027 H 
ATOM     41  H31 A60 d   1      75.682  53.863  15.575  0.00  0.00     0.027 H 
ENDBRANCH  35  38
ENDBRANCH  33  35
BRANCH  33  42
ATOM     42  C15 A60 d   1      73.742  53.335  13.717  0.00  0.00    -0.064 C 
ATOM     43  H19 A60 d   1      74.790  53.621  13.546  0.00  0.00     0.033 H 
ATOM     44  H20 A60 d   1      73.198  53.345  12.761  0.00  0.00     0.033 H 
BRANCH  42  45
ATOM     45  C18 A60 d   1      73.706  51.887  14.300  0.00  0.00    -0.076 C 
ATOM     46  H24 A60 d   1      74.178  51.193  13.588  0.00  0.00     0.027 H 
ATOM     47  H25 A60 d   1      72.662  51.585  14.469  0.00  0.00     0.027 H 
ATOM     48  H26 A60 d   1      74.253  51.862  15.254  0.00  0.00     0.027 H 
ENDBRANCH  42  45
ENDBRANCH  33  42
ENDBRANCH  30  33
ENDBRANCH   6  30
ENDBRANCH   3   6
ENDBRANCH   1   3
BRANCH   1  49
ATOM     49  O18 A60 d   1      71.486  58.707  14.538  0.00  0.00    -0.392 OA
ATOM     50  H27 A60 d   1      71.773  58.469  13.664  0.00  0.00     0.210 HD
ENDBRANCH   1  49
BRANCH   1  51
ATOM     51  C19 A60 d   1      71.111  57.978  16.772  0.00  0.00     0.041 C 
ATOM     52  H28 A60 d   1      71.094  57.076  17.402  0.00  0.00     0.076 H 
BRANCH  51  53
ATOM     53  N20 A60 d   1      72.086  58.956  17.292  0.00  0.00    -0.330 N 
ATOM     54  C21 A60 d   1      73.190  58.560  18.217  0.00  0.00     0.361 C 
ATOM     55  O22 A60 d   1      73.208  57.496  18.737  0.00  0.00    -0.238 OA
ATOM     56  H32 A60 d   1      72.005  59.914  17.017  0.00  0.00     0.165 HD
BRANCH  54  57
ATOM     57  O23 A60 d   1      74.218  59.530  18.437  0.00  0.00    -0.296 OA
BRANCH  57  58
ATOM     58  C24 A60 d   1      74.995  59.447  19.732  0.00  0.00     0.078 C 
ATOM     59  C25 A60 d   1      76.174  59.832  19.485  0.00  0.00     0.048 C 
ATOM     60  O26 A60 d   1      76.037  61.468  19.404  0.00  0.00    -0.358 OA
ATOM     61  H34 A60 d   1      76.530  59.420  18.529  0.00  0.00     0.078 H 
ATOM     62  H35 A60 d   1      76.861  59.535  20.291  0.00  0.00     0.078 H 
ATOM     63  C27 A60 d   1      75.171  61.807  20.304  0.00  0.00     0.137 C 
ATOM     64  O28 A60 d   1      74.009  62.700  19.708  0.00  0.00    -0.361 OA
ATOM     65  C31 A60 d   1      74.497  60.506  20.765  0.00  0.00     0.023 C 
ATOM     66  H36 A60 d   1      75.667  62.326  21.137  0.00  0.00     0.129 H 
ATOM     67  C29 A60 d   1      72.957  61.919  19.610  0.00  0.00     0.023 C 
ATOM     68  C30 A60 d   1      73.169  60.728  20.696  0.00  0.00    -0.035 C 
ATOM     69  H37 A60 d   1      72.887  61.501  18.595  0.00  0.00     0.074 H 
ATOM     70  H38 A60 d   1      72.041  62.484  19.838  0.00  0.00     0.074 H 
ATOM     71  H39 A60 d   1      72.648  59.817  20.367  0.00  0.00     0.037 H 
ATOM     72  H40 A60 d   1      72.784  61.037  21.679  0.00  0.00     0.037 H 
ATOM     73  H41 A60 d   1      74.787  60.224  21.788  0.00  0.00     0.051 H 
ATOM     74  H33 A60 d   1      74.960  58.428  20.145  0.00  0.00     0.088 H 
ENDBRANCH  57  58
ENDBRANCH  54  57
ENDBRANCH  51  53
BRANCH  51  75
ATOM     75  C32 A60 d   1      69.766  58.662  16.825  0.00  0.00    -0.040 C 
ATOM     76  H42 A60 d   1      68.972  57.955  16.543  0.00  0.00     0.036 H 
ATOM     77  H43 A60 d   1      69.753  59.521  16.138  0.00  0.00     0.036 H 
BRANCH  75  78
ATOM     78  C38 A60 d   1      69.553  59.147  18.287  0.00  0.00    -0.052 A 
ATOM     79  C33 A60 d   1      69.750  60.630  18.645  0.00  0.00    -0.062 A 
ATOM     80  C34 A60 d   1      69.544  61.107  20.099  0.00  0.00    -0.065 A 
ATOM     81  H44 A60 d   1      70.783  60.889  18.369  0.00  0.00     0.033 H 
ATOM     82  H45 A60 d   1      69.049  61.203  18.020  0.00  0.00     0.033 H 
ATOM     83  C35 A60 d   1      69.138  60.086  21.200  0.00  0.00    -0.065 A 
ATOM     84  H46 A60 d   1      68.758  61.876  20.073  0.00  0.00     0.033 H 
ATOM     85  H47 A60 d   1      70.492  61.562  20.422  0.00  0.00     0.033 H 
ATOM     86  C36 A60 d   1      68.943  58.601  20.843  0.00  0.00    -0.065 A 
ATOM     87  H48 A60 d   1      68.186  60.438  21.623  0.00  0.00     0.033 H 
ATOM     88  H49 A60 d   1      69.919  60.126  21.973  0.00  0.00     0.033 H 
ATOM     89  C37 A60 d   1      69.148  58.126  19.388  0.00  0.00    -0.062 A 
ATOM     90  H50 A60 d   1      67.911  58.340  21.120  0.00  0.00     0.033 H 
ATOM     91  H51 A60 d   1      69.646  58.029  21.466  0.00  0.00     0.033 H 
ATOM     92  H52 A60 d   1      68.200  57.671  19.066  0.00  0.00     0.033 H 
ATOM     93  H53 A60 d   1      69.934  57.357  19.413  0.00  0.00     0.033 H 
ATOM     94  H54 A60 d   1      68.492  59.339  18.071  0.00  0.00     0.040 H 
ENDBRANCH  75  78
ENDBRANCH  51  75
ENDBRANCH   1  51
TORSDOF 18
