REMARK  9 active torsions:
REMARK  status: ('A' for Active; 'I' for Inactive)
REMARK    1  A    between atoms: C10_1  and  C09_13 
REMARK    2  A    between atoms: O11_22  and  C10_1 
REMARK    3  A    between atoms: C18_17  and  C15_3 
REMARK    4  A    between atoms: C02_7  and  C01_6 
REMARK    5  A    between atoms: C03_8  and  C02_7 
REMARK    6  A    between atoms: C02_7  and  O26_25 
REMARK    7  A    between atoms: C09_13  and  C06_10 
REMARK    8  A    between atoms: C12_14  and  O11_22 
REMARK    9  A    between atoms: C18_17  and  C19_18 
ROOT
ATOM      1  C10 GFV d   1      16.454  61.763  11.539  0.00  0.00     0.031 C 
ATOM      2  H1  GFV d   1      15.863  60.871  11.795  0.00  0.00     0.075 H 
ATOM      3  H2  GFV d   1      15.999  62.651  12.003  0.00  0.00     0.075 H 
ENDROOT
BRANCH   1   4
ATOM      4  C09 GFV d   1      16.524  61.948   9.910  0.00  0.00    -0.004 C 
ATOM      5  H12 GFV d   1      15.512  61.838   9.492  0.00  0.00     0.045 H 
ATOM      6  H13 GFV d   1      17.181  61.173   9.489  0.00  0.00     0.045 H 
BRANCH   4   7
ATOM      7  C06 GFV d   1      17.072  63.325   9.533  0.00  0.00     0.036 A 
ATOM      8  C07 GFV d   1      18.367  63.429   8.965  0.00  0.00    -0.059 A 
ATOM      9  C08 GFV d   1      18.854  64.725   8.619  0.00  0.00    -0.071 A 
ATOM     10  H10 GFV d   1      18.972  62.545   8.798  0.00  0.00     0.086 H 
ATOM     11  C03 GFV d   1      18.043  65.819   8.855  0.00  0.00    -0.013 A 
ATOM     12  H11 GFV d   1      19.838  64.849   8.181  0.00  0.00     0.084 H 
ATOM     13  C04 GFV d   1      16.727  65.626   9.444  0.00  0.00     0.011 A 
ATOM     14  N05 GFV d   1      16.308  64.412   9.751  0.00  0.00    -0.265 NA
ATOM     15  H9  GFV d   1      16.088  66.481   9.632  0.00  0.00     0.115 H 
BRANCH  11  16
ATOM     16  C02 GFV d   1      18.519  67.255   8.499  0.00  0.00     0.059 C 
ATOM     17  H8  GFV d   1      19.580  67.227   8.209  0.00  0.00     0.090 H 
BRANCH  16  18
ATOM     18  C01 GFV d   1      18.337  68.233   9.644  0.00  0.00    -0.049 C 
ATOM     19  H5  GFV d   1      18.689  69.228   9.336  0.00  0.00     0.031 H 
ATOM     20  H6  GFV d   1      18.918  67.892  10.514  0.00  0.00     0.031 H 
ATOM     21  H7  GFV d   1      17.272  68.288   9.913  0.00  0.00     0.031 H 
ENDBRANCH  16  18
BRANCH  16  22
ATOM     22  O26 GFV d   1      17.711  67.716   7.404  0.00  0.00    -0.391 OA
ATOM     23  H20 GFV d   1      16.798  67.723   7.667  0.00  0.00     0.210 HD
ENDBRANCH  16  22
ENDBRANCH  11  16
ENDBRANCH   4   7
ENDBRANCH   1   4
BRANCH   1  24
ATOM     24  O11 GFV d   1      17.734  61.615  11.967  0.00  0.00    -0.351 OA
BRANCH  24  25
ATOM     25  C12 GFV d   1      17.895  61.669  13.401  0.00  0.00     0.068 A 
ATOM     26  C13 GFV d   1      19.177  61.545  13.945  0.00  0.00    -0.050 A 
ATOM     27  C14 GFV d   1      19.345  61.592  15.308  0.00  0.00    -0.074 A 
ATOM     28  H3  GFV d   1      20.034  61.412  13.295  0.00  0.00     0.087 H 
ATOM     29  C15 GFV d   1      18.246  61.767  16.134  0.00  0.00    -0.056 A 
ATOM     30  H14 GFV d   1      20.336  61.492  15.736  0.00  0.00     0.084 H 
ATOM     31  C16 GFV d   1      16.969  61.893  15.591  0.00  0.00    -0.074 A 
ATOM     32  C17 GFV d   1      16.801  61.842  14.219  0.00  0.00    -0.050 A 
ATOM     33  H15 GFV d   1      16.112  62.030  16.240  0.00  0.00     0.084 H 
ATOM     34  H4  GFV d   1      15.811  61.938  13.789  0.00  0.00     0.087 H 
BRANCH  29  35
ATOM     35  C18 GFV d   1      18.445  61.828  17.685  0.00  0.00    -0.021 C 
ATOM     36  H16 GFV d   1      19.376  61.310  17.958  0.00  0.00     0.042 H 
ATOM     37  H17 GFV d   1      17.595  61.342  18.186  0.00  0.00     0.042 H 
BRANCH  35  38
ATOM     38  C19 GFV d   1      18.525  63.269  18.110  0.00  0.00     0.081 C 
ATOM     39  C20 GFV d   1      18.462  63.348  19.672  0.00  0.00     0.239 C 
ATOM     40  N22 GFV d   1      19.723  64.247  20.214  0.00  0.00    -0.287 N 
ATOM     41  O21 GFV d   1      17.634  62.842  20.354  0.00  0.00    -0.272 OA
ATOM     42  C23 GFV d   1      20.544  64.709  19.030  0.00  0.00     0.287 C 
ATOM     43  H19 GFV d   1      19.918  64.456  21.172  0.00  0.00     0.172 HD
ATOM     44  O24 GFV d   1      21.403  65.449  19.057  0.00  0.00    -0.260 OA
ATOM     45  S25 GFV d   1      19.939  63.924  17.653  0.00  0.00    -0.054 SA
ATOM     46  H18 GFV d   1      17.690  63.831  17.666  0.00  0.00     0.072 H 
ENDBRANCH  35  38
ENDBRANCH  29  35
ENDBRANCH  24  25
ENDBRANCH   1  24
TORSDOF 9
