REMARK  26 active torsions:
REMARK  status: ('A' for Active; 'I' for Inactive)
REMARK    1  A    between atoms: C07_8  and  C06_7 
REMARK       I    between atoms: N08_11  and  C07_8 
REMARK    2  A    between atoms: C09_12  and  N08_11 
REMARK    3  A    between atoms: C09_12  and  C10_13 
REMARK    4  A    between atoms: C13_16  and  C09_12 
REMARK    5  A    between atoms: C10_13  and  S11_14 
REMARK    6  A    between atoms: S11_14  and  C12_15 
REMARK       I    between atoms: N14_22  and  C13_16 
REMARK    7  A    between atoms: C17_20  and  C18_18 
REMARK    8  A    between atoms: C17_20  and  C19_19 
REMARK    9  A    between atoms: C16_21  and  C17_20 
REMARK   10  A    between atoms: C15_23  and  C16_21 
REMARK   11  A    between atoms: C15_23  and  N14_22 
REMARK   12  A    between atoms: C20_24  and  C15_23 
REMARK   13  A    between atoms: C20_24  and  O21_25 
REMARK   14  A    between atoms: C22_26  and  C20_24 
REMARK   15  A    between atoms: C23_27  and  C22_26 
REMARK   16  A    between atoms: C23_27  and  C38_28 
REMARK   17  A    between atoms: C24_29  and  C23_27 
REMARK       I    between atoms: N25_31  and  C24_29 
REMARK   18  A    between atoms: C26_32  and  N25_31 
REMARK   19  A    between atoms: C27_33  and  C26_32 
REMARK   20  A    between atoms: C26_32  and  C34_35 
REMARK       I    between atoms: N28_42  and  C27_33 
REMARK   21  A    between atoms: C34_35  and  C35_36 
REMARK   22  A    between atoms: C34_35  and  C36_37 
REMARK   23  A    between atoms: C30_39  and  C32_38 
REMARK   24  A    between atoms: C30_39  and  C31_40 
REMARK   25  A    between atoms: C29_41  and  C30_39 
REMARK   26  A    between atoms: C29_41  and  N28_42 
ROOT
ATOM      1  C15 GHJ d   1      -1.148 -18.589  34.648  0.00  0.00     0.037 C 
ATOM      2  H27 GHJ d   1      -1.448 -17.890  35.443  0.00  0.00     0.076 H 
ENDROOT
BRANCH   1   3
ATOM      3  C16 GHJ d   1      -1.625 -17.919  33.345  0.00  0.00    -0.041 C 
ATOM      4  H24 GHJ d   1      -0.962 -18.249  32.532  0.00  0.00     0.036 H 
ATOM      5  H25 GHJ d   1      -2.651 -18.262  33.144  0.00  0.00     0.036 H 
BRANCH   3   6
ATOM      6  C17 GHJ d   1      -1.633 -16.340  33.355  0.00  0.00    -0.059 C 
ATOM      7  H23 GHJ d   1      -0.685 -16.029  32.891  0.00  0.00     0.038 H 
BRANCH   6   8
ATOM      8  C18 GHJ d   1      -1.696 -15.648  34.751  0.00  0.00    -0.073 C 
ATOM      9  H17 GHJ d   1      -1.696 -14.556  34.619  0.00  0.00     0.028 H 
ATOM     10  H18 GHJ d   1      -0.821 -15.946  35.348  0.00  0.00     0.028 H 
ATOM     11  H19 GHJ d   1      -2.616 -15.954  35.271  0.00  0.00     0.028 H 
ENDBRANCH   6   8
BRANCH   6  12
ATOM     12  C19 GHJ d   1      -2.786 -15.777  32.493  0.00  0.00    -0.073 C 
ATOM     13  H20 GHJ d   1      -2.765 -16.249  31.500  0.00  0.00     0.028 H 
ATOM     14  H21 GHJ d   1      -2.665 -14.689  32.384  0.00  0.00     0.028 H 
ATOM     15  H22 GHJ d   1      -3.748 -15.992  32.981  0.00  0.00     0.028 H 
ENDBRANCH   6  12
ENDBRANCH   3   6
ENDBRANCH   1   3
BRANCH   1  16
ATOM     16  N14 GHJ d   1       0.337 -18.719  34.810  0.00  0.00    -0.352 N 
ATOM     17  C13 GHJ d   1       1.559 -18.830  33.899  0.00  0.00     0.241 C 
ATOM     18  O39 GHJ d   1       2.540 -18.889  34.533  0.00  0.00    -0.271 OA
ATOM     19  H26 GHJ d   1       0.598 -18.738  35.775  0.00  0.00     0.163 HD
BRANCH  17  20
ATOM     20  C09 GHJ d   1       1.760 -18.922  32.354  0.00  0.00     0.097 C 
ATOM     21  H11 GHJ d   1       1.214 -19.806  31.993  0.00  0.00     0.088 H 
BRANCH  20  22
ATOM     22  N08 GHJ d   1       1.286 -17.723  31.693  0.00  0.00    -0.345 N 
ATOM     23  C07 GHJ d   1       1.582 -17.540  30.244  0.00  0.00     0.252 C 
ATOM     24  O40 GHJ d   1       2.163 -18.335  29.613  0.00  0.00    -0.271 OA
ATOM     25  H10 GHJ d   1       0.770 -17.032  32.199  0.00  0.00     0.163 HD
BRANCH  23  26
ATOM     26  C06 GHJ d   1       1.124 -16.286  29.486  0.00  0.00     0.214 C 
ATOM     27  N41 GHJ d   1       1.812 -15.105  29.483  0.00  0.00     0.055 N 
ATOM     28  O42 GHJ d   1       1.134 -14.325  28.642  0.00  0.00    -0.171 OA
ATOM     29  H1  GHJ d   1       2.756 -15.243  29.158  0.00  0.00     0.316 HD
ATOM     30  H2  GHJ d   1       1.831 -14.701  30.407  0.00  0.00     0.316 HD
ATOM     31  C01 GHJ d   1       0.009 -15.134  28.230  0.00  0.00     0.168 C 
ATOM     32  O02 GHJ d   1      -1.131 -15.194  29.282  0.00  0.00    -0.359 OA
ATOM     33  C05 GHJ d   1       0.474 -16.340  28.299  0.00  0.00     0.037 C 
ATOM     34  H3  GHJ d   1      -0.359 -14.845  27.235  0.00  0.00     0.133 H 
ATOM     35  C03 GHJ d   1      -1.579 -16.641  29.269  0.00  0.00     0.023 C 
ATOM     36  C04 GHJ d   1      -0.800 -17.262  28.358  0.00  0.00    -0.035 C 
ATOM     37  H4  GHJ d   1      -2.638 -16.711  28.978  0.00  0.00     0.074 H 
ATOM     38  H5  GHJ d   1      -1.441 -17.093  30.262  0.00  0.00     0.074 H 
ATOM     39  H6  GHJ d   1      -1.298 -17.311  27.379  0.00  0.00     0.037 H 
ATOM     40  H7  GHJ d   1      -0.538 -18.278  28.688  0.00  0.00     0.037 H 
ATOM     41  H8  GHJ d   1       1.138 -16.615  27.466  0.00  0.00     0.051 H 
ATOM     42  H9  GHJ d   1       0.291 -16.023  30.155  0.00  0.00     0.105 H 
ENDBRANCH  23  26
ENDBRANCH  20  22
BRANCH  20  43
ATOM     43  C10 GHJ d   1       3.231 -18.984  31.876  0.00  0.00     0.003 C 
ATOM     44  H12 GHJ d   1       3.551 -17.941  31.733  0.00  0.00     0.052 H 
ATOM     45  H13 GHJ d   1       3.216 -19.500  30.905  0.00  0.00     0.052 H 
BRANCH  43  46
ATOM     46  S11 GHJ d   1       4.542 -19.788  32.859  0.00  0.00    -0.171 SA
BRANCH  46  47
ATOM     47  C12 GHJ d   1       5.826 -18.549  33.163  0.00  0.00    -0.035 C 
ATOM     48  H14 GHJ d   1       6.636 -18.999  33.755  0.00  0.00     0.041 H 
ATOM     49  H15 GHJ d   1       5.394 -17.702  33.716  0.00  0.00     0.041 H 
ATOM     50  H16 GHJ d   1       6.228 -18.194  32.203  0.00  0.00     0.041 H 
ENDBRANCH  46  47
ENDBRANCH  43  46
ENDBRANCH  20  43
ENDBRANCH  17  20
ENDBRANCH   1  16
BRANCH   1  51
ATOM     51  C20 GHJ d   1      -1.907 -19.879  34.950  0.00  0.00     0.056 C 
ATOM     52  H28 GHJ d   1      -2.690 -19.632  35.682  0.00  0.00     0.086 H 
BRANCH  51  53
ATOM     53  O21 GHJ d   1      -2.519 -20.392  33.830  0.00  0.00    -0.393 OA
ATOM     54  H29 GHJ d   1      -3.137 -19.756  33.489  0.00  0.00     0.210 HD
ENDBRANCH  51  53
BRANCH  51  55
ATOM     55  C22 GHJ d   1      -1.002 -20.981  35.574  0.00  0.00    -0.028 C 
ATOM     56  H30 GHJ d   1      -0.219 -20.507  36.184  0.00  0.00     0.038 H 
ATOM     57  H31 GHJ d   1      -0.535 -21.567  34.769  0.00  0.00     0.038 H 
BRANCH  55  58
ATOM     58  C23 GHJ d   1      -1.841 -21.913  36.460  0.00  0.00     0.022 C 
ATOM     59  H32 GHJ d   1      -2.878 -21.925  36.094  0.00  0.00     0.054 H 
BRANCH  58  60
ATOM     60  C38 GHJ d   1      -1.282 -23.307  36.442  0.00  0.00    -0.065 C 
ATOM     61  H33 GHJ d   1      -1.897 -23.957  37.082  0.00  0.00     0.028 H 
ATOM     62  H34 GHJ d   1      -0.249 -23.293  36.819  0.00  0.00     0.028 H 
ATOM     63  H35 GHJ d   1      -1.291 -23.692  35.412  0.00  0.00     0.028 H 
ENDBRANCH  58  60
BRANCH  58  64
ATOM     64  C24 GHJ d   1      -1.806 -21.416  37.919  0.00  0.00     0.222 C 
ATOM     65  O37 GHJ d   1      -0.821 -20.933  38.368  0.00  0.00    -0.273 OA
ATOM     66  N25 GHJ d   1      -3.007 -21.538  38.775  0.00  0.00    -0.347 N 
ATOM     67  H36 GHJ d   1      -3.851 -21.931  38.410  0.00  0.00     0.163 HD
BRANCH  66  68
ATOM     68  C26 GHJ d   1      -2.946 -21.091  40.117  0.00  0.00     0.092 C 
ATOM     69  H37 GHJ d   1      -2.408 -20.135  40.197  0.00  0.00     0.088 H 
BRANCH  68  70
ATOM     70  C27 GHJ d   1      -2.208 -22.191  40.911  0.00  0.00     0.240 C 
ATOM     71  O33 GHJ d   1      -2.560 -23.302  40.740  0.00  0.00    -0.271 OA
ATOM     72  N28 GHJ d   1      -1.100 -22.012  41.843  0.00  0.00    -0.359 N 
ATOM     73  H54 GHJ d   1      -0.728 -22.831  42.280  0.00  0.00     0.162 HD
BRANCH  72  74
ATOM     74  C29 GHJ d   1      -0.483 -20.711  42.193  0.00  0.00    -0.002 C 
ATOM     75  H52 GHJ d   1      -0.847 -19.923  41.517  0.00  0.00     0.064 H 
ATOM     76  H53 GHJ d   1      -0.724 -20.443  43.232  0.00  0.00     0.064 H 
BRANCH  74  77
ATOM     77  C30 GHJ d   1       1.018 -20.892  42.031  0.00  0.00    -0.046 C 
ATOM     78  H48 GHJ d   1       1.191 -21.168  40.980  0.00  0.00     0.041 H 
BRANCH  77  79
ATOM     79  C32 GHJ d   1       1.822 -19.568  42.296  0.00  0.00    -0.072 C 
ATOM     80  H45 GHJ d   1       2.897 -19.759  42.165  0.00  0.00     0.028 H 
ATOM     81  H46 GHJ d   1       1.634 -19.224  43.324  0.00  0.00     0.028 H 
ATOM     82  H47 GHJ d   1       1.498 -18.794  41.585  0.00  0.00     0.028 H 
ENDBRANCH  77  79
BRANCH  77  83
ATOM     83  C31 GHJ d   1       1.561 -22.042  42.895  0.00  0.00    -0.072 C 
ATOM     84  H49 GHJ d   1       0.984 -22.956  42.693  0.00  0.00     0.028 H 
ATOM     85  H50 GHJ d   1       1.468 -21.777  43.959  0.00  0.00     0.028 H 
ATOM     86  H51 GHJ d   1       2.620 -22.215  42.652  0.00  0.00     0.028 H 
ENDBRANCH  77  83
ENDBRANCH  74  77
ENDBRANCH  72  74
ENDBRANCH  68  70
BRANCH  68  87
ATOM     87  C34 GHJ d   1      -4.418 -20.926  40.599  0.00  0.00    -0.033 C 
ATOM     88  H38 GHJ d   1      -4.935 -20.297  39.859  0.00  0.00     0.042 H 
BRANCH  87  89
ATOM     89  C35 GHJ d   1      -4.495 -20.198  41.962  0.00  0.00    -0.071 C 
ATOM     90  H39 GHJ d   1      -5.547 -20.101  42.267  0.00  0.00     0.028 H 
ATOM     91  H40 GHJ d   1      -4.047 -19.198  41.869  0.00  0.00     0.028 H 
ATOM     92  H41 GHJ d   1      -3.946 -20.777  42.719  0.00  0.00     0.028 H 
ENDBRANCH  87  89
BRANCH  87  93
ATOM     93  C36 GHJ d   1      -5.154 -22.264  40.657  0.00  0.00    -0.071 C 
ATOM     94  H42 GHJ d   1      -5.086 -22.763  39.679  0.00  0.00     0.028 H 
ATOM     95  H43 GHJ d   1      -6.211 -22.090  40.907  0.00  0.00     0.028 H 
ATOM     96  H44 GHJ d   1      -4.695 -22.902  41.426  0.00  0.00     0.028 H 
ENDBRANCH  87  93
ENDBRANCH  68  87
ENDBRANCH  66  68
ENDBRANCH  58  64
ENDBRANCH  55  58
ENDBRANCH  51  55
ENDBRANCH   1  51
TORSDOF 26
