REMARK  3 active torsions:
REMARK  status: ('A' for Active; 'I' for Inactive)
REMARK    1  A    between atoms: C5_2  and  C6_3 
REMARK    2  A    between atoms: C7_4  and  C8_5 
REMARK    3  A    between atoms: C2_9  and  C1_8 
ROOT
ATOM      1  C4  GHM d   1       6.115 -14.319 -33.954  0.00  0.00    -0.064 A 
ATOM      2  C5  GHM d   1       7.205 -13.580 -34.393  0.00  0.00     0.057 A 
ATOM      3  C7  GHM d   1       8.415 -14.215 -34.636  0.00  0.00     0.058 A 
ATOM      4  C9  GHM d   1       8.529 -15.579 -34.448  0.00  0.00    -0.049 A 
ATOM      5  C3  GHM d   1       6.230 -15.688 -33.762  0.00  0.00    -0.065 A 
ATOM      6  C2  GHM d   1       7.442 -16.311 -34.012  0.00  0.00     0.041 A 
ATOM      7  H1  GHM d   1       5.170 -13.824 -33.760  0.00  0.00     0.085 H 
ATOM      8  H2  GHM d   1       9.473 -16.075 -34.643  0.00  0.00     0.086 H 
ATOM      9  H3  GHM d   1       5.379 -16.265 -33.419  0.00  0.00     0.085 H 
ENDROOT
BRANCH   2  10
ATOM     10  C6  GHM d   1       7.050 -12.072 -34.609  0.00  0.00     0.210 C 
ATOM     11  O3  GHM d   1       6.302 -11.658 -35.526  0.00  0.00    -0.644 OA
ATOM     12  O4  GHM d   1       7.660 -11.253 -33.878  0.00  0.00    -0.644 OA
ENDBRANCH   2  10
BRANCH   3  13
ATOM     13  C8  GHM d   1       9.636 -13.430 -35.120  0.00  0.00     0.210 C 
ATOM     14  O5  GHM d   1       9.507 -12.584 -36.034  0.00  0.00    -0.644 OA
ATOM     15  O6  GHM d   1      10.769 -13.615 -34.600  0.00  0.00    -0.644 OA
ENDBRANCH   3  13
BRANCH   6  16
ATOM     16  C1  GHM d   1       7.601 -17.811 -33.808  0.00  0.00     0.209 C 
ATOM     17  O1  GHM d   1       8.524 -18.421 -34.412  0.00  0.00    -0.644 OA
ATOM     18  O2  GHM d   1       6.815 -18.422 -33.037  0.00  0.00    -0.644 OA
ENDBRANCH   6  16
TORSDOF 3
