REMARK  3 active torsions:
REMARK  status: ('A' for Active; 'I' for Inactive)
REMARK    1  A    between atoms: N6_12  and  C4_2 
REMARK       I    between atoms: C2_9  and  N9_10 
REMARK    2  A    between atoms: C1_11  and  C2_9 
REMARK    3  A    between atoms: C11_13  and  N6_12 
ROOT
ATOM      1  C13 GJG d   1      23.962   9.245   1.453  0.00  0.00    -0.046 C 
ATOM      2  C15 GJG d   1      25.499   7.340   3.092  0.00  0.00    -0.063 C 
ATOM      3  C11 GJG d   1      23.434   7.838   1.748  0.00  0.00     0.011 C 
ATOM      4  C14 GJG d   1      24.962   9.714   2.507  0.00  0.00    -0.063 C 
ATOM      5  C16 GJG d   1      26.077   8.699   2.731  0.00  0.00    -0.065 C 
ATOM      6  C12 GJG d   1      24.579   6.861   1.983  0.00  0.00    -0.046 C 
ATOM      7  H4  GJG d   1      23.114   9.945   1.432  0.00  0.00     0.035 H 
ATOM      8  H5  GJG d   1      24.458   9.240   0.471  0.00  0.00     0.035 H 
ATOM      9  H6  GJG d   1      24.929   7.423   4.029  0.00  0.00     0.033 H 
ATOM     10  H7  GJG d   1      26.318   6.618   3.224  0.00  0.00     0.033 H 
ATOM     11  H11 GJG d   1      22.792   7.880   2.640  0.00  0.00     0.072 H 
ATOM     12  H12 GJG d   1      24.429   9.871   3.457  0.00  0.00     0.033 H 
ATOM     13  H13 GJG d   1      25.408  10.663   2.175  0.00  0.00     0.033 H 
ATOM     14  H14 GJG d   1      26.672   8.606   1.810  0.00  0.00     0.033 H 
ATOM     15  H15 GJG d   1      26.723   9.046   3.551  0.00  0.00     0.033 H 
ATOM     16  H16 GJG d   1      24.162   5.882   2.262  0.00  0.00     0.035 H 
ATOM     17  H17 GJG d   1      25.160   6.761   1.054  0.00  0.00     0.035 H 
ENDROOT
BRANCH   3  18
ATOM     18  N6  GJG d   1      22.683   7.320   0.631  0.00  0.00    -0.370 N 
ATOM     19  H10 GJG d   1      23.065   7.438  -0.318  0.00  0.00     0.161 HD
BRANCH  18  20
ATOM     20  C4  GJG d   1      21.496   6.685   0.780  0.00  0.00     0.123 A 
ATOM     21  N3  GJG d   1      20.875   6.569   1.979  0.00  0.00    -0.243 NA
ATOM     22  C5  GJG d   1      19.694   5.924   2.072  0.00  0.00     0.020 A 
ATOM     23  C1  GJG d   1      19.120   5.365   0.930  0.00  0.00     0.049 A 
ATOM     24  H1  GJG d   1      19.193   5.840   3.030  0.00  0.00     0.116 H 
ATOM     25  C8  GJG d   1      19.747   5.480  -0.294  0.00  0.00    -0.063 A 
ATOM     26  C10 GJG d   1      20.951   6.143  -0.367  0.00  0.00    -0.038 A 
ATOM     27  H2  GJG d   1      19.298   5.055  -1.184  0.00  0.00     0.085 H 
ATOM     28  H3  GJG d   1      21.466   6.239  -1.316  0.00  0.00     0.089 H 
BRANCH  23  29
ATOM     29  C2  GJG d   1      17.830   4.644   0.958  0.00  0.00     0.250 C 
ATOM     30  O7  GJG d   1      17.588   3.923  -0.005  0.00  0.00    -0.268 OA
ATOM     31  N9  GJG d   1      17.017   4.824   1.984  0.00  0.00    -0.366 N 
ATOM     32  H8  GJG d   1      17.285   5.429   2.734  0.00  0.00     0.159 HD
ATOM     33  H9  GJG d   1      16.134   4.355   2.011  0.00  0.00     0.159 HD
ENDBRANCH  23  29
ENDBRANCH  18  20
ENDBRANCH   3  18
TORSDOF 3
