REMARK  3 active torsions:
REMARK  status: ('A' for Active; 'I' for Inactive)
REMARK    1  A    between atoms: C5_3  and  CAG_18 
REMARK    2  A    between atoms: CAQ_7  and  CAS_6 
REMARK       I    between atoms: NAN_9  and  CAQ_7 
REMARK    3  A    between atoms: CAL_10  and  NAN_9 
REMARK       I    between atoms: CAG_18  and  NAP_20 
ROOT
ATOM      1  C2  GJD d   1     -14.732  -6.710  -1.798  0.00  0.00     0.726 A 
ATOM      2  C4  GJD d   1     -16.130  -5.714  -0.240  0.00  0.00     0.157 A 
ATOM      3  C5  GJD d   1     -16.995  -5.450  -1.290  0.00  0.00     0.096 A 
ATOM      4  C6  GJD d   1     -16.624  -5.810  -2.595  0.00  0.00     0.040 A 
ATOM      5  CAL GJD d   1     -11.588  -8.606  -1.784  0.00  0.00     0.030 C 
ATOM      6  CAM GJD d   1     -12.629  -7.721  -1.013  0.00  0.00     0.030 C 
ATOM      7  CAK GJD d   1     -11.634  -8.063  -3.243  0.00  0.00    -0.029 C 
ATOM      8  CAJ GJD d   1     -13.164  -7.758  -3.479  0.00  0.00     0.014 C 
ATOM      9  NAI GJD d   1     -13.603  -7.346  -2.071  0.00  0.00    -0.212 N 
ATOM     10  N3  GJD d   1     -14.940  -6.348  -0.532  0.00  0.00    -0.044 NA
ATOM     11  NAH GJD d   1     -16.373  -5.447   1.032  0.00  0.00    -0.383 N 
ATOM     12  N1  GJD d   1     -15.442  -6.436  -2.800  0.00  0.00    -0.074 NA
ATOM     13  H1  GJD d   1     -17.278  -5.589  -3.431  0.00  0.00     0.117 H 
ATOM     14  H6  GJD d   1     -10.583  -8.530  -1.344  0.00  0.00     0.075 H 
ATOM     15  H7  GJD d   1     -12.149  -6.829  -0.585  0.00  0.00     0.068 H 
ATOM     16  H8  GJD d   1     -13.118  -8.294  -0.212  0.00  0.00     0.068 H 
ATOM     17  H9  GJD d   1     -11.270  -8.819  -3.955  0.00  0.00     0.038 H 
ATOM     18  H10 GJD d   1     -11.032  -7.148  -3.340  0.00  0.00     0.038 H 
ATOM     19  H11 GJD d   1     -13.705  -8.651  -3.825  0.00  0.00     0.065 H 
ATOM     20  H12 GJD d   1     -13.306  -6.941  -4.201  0.00  0.00     0.065 H 
ATOM     21  H13 GJD d   1     -15.671  -5.678   1.750  0.00  0.00     0.157 HD
ATOM     22  H14 GJD d   1     -17.264  -5.008   1.305  0.00  0.00     0.157 HD
ENDROOT
BRANCH   5  23
ATOM     23  NAN GJD d   1     -12.048 -10.006  -1.814  0.00  0.00    -0.351 N 
ATOM     24  CAQ GJD d   1     -11.455 -10.966  -1.091  0.00  0.00     0.240 C 
ATOM     25  OAR GJD d   1     -10.442 -10.712  -0.382  0.00  0.00    -0.269 OA
ATOM     26  H5  GJD d   1     -12.827 -10.247  -2.392  0.00  0.00     0.163 HD
BRANCH  24  27
ATOM     27  CAS GJD d   1     -11.860 -12.336  -1.235  0.00  0.00    -0.027 C 
ATOM     28  CAT GJD d   1     -11.895 -13.421  -0.306  0.00  0.00    -0.116 C 
ATOM     29  H2  GJD d   1     -12.244 -14.401  -0.627  0.00  0.00     0.067 H 
ATOM     30  H3  GJD d   1     -11.572 -13.268   0.723  0.00  0.00     0.067 H 
ATOM     31  H4  GJD d   1     -12.203 -12.596  -2.235  0.00  0.00     0.090 H 
ENDBRANCH  24  27
ENDBRANCH   5  23
BRANCH   3  32
ATOM     32  CAG GJD d   1     -18.344  -4.747  -1.104  0.00  0.00     0.254 C 
ATOM     33  OAO GJD d   1     -18.469  -4.145  -0.058  0.00  0.00    -0.268 OA
ATOM     34  NAP GJD d   1     -19.202  -4.840  -2.083  0.00  0.00    -0.366 N 
ATOM     35  H15 GJD d   1     -20.096  -4.398  -2.008  0.00  0.00     0.159 HD
ATOM     36  H16 GJD d   1     -18.965  -5.353  -2.908  0.00  0.00     0.159 HD
ENDBRANCH   3  32
TORSDOF 3
