REMARK  3 active torsions:
REMARK  status: ('A' for Active; 'I' for Inactive)
REMARK    1  A    between atoms: C5_2  and  C6_3 
REMARK    2  A    between atoms: C7_4  and  C8_5 
REMARK    3  A    between atoms: C2_9  and  C1_8 
ROOT
ATOM      1  C4  GHM d   1      -6.052 -14.428  33.998  0.00  0.00    -0.064 A 
ATOM      2  C5  GHM d   1      -7.149 -13.696  34.451  0.00  0.00     0.057 A 
ATOM      3  C7  GHM d   1      -8.368 -14.325  34.626  0.00  0.00     0.058 A 
ATOM      4  C9  GHM d   1      -8.477 -15.694  34.409  0.00  0.00    -0.049 A 
ATOM      5  C3  GHM d   1      -6.169 -15.796  33.765  0.00  0.00    -0.065 A 
ATOM      6  C2  GHM d   1      -7.384 -16.429  33.976  0.00  0.00     0.041 A 
ATOM      7  H1  GHM d   1      -5.104 -13.930  33.827  0.00  0.00     0.085 H 
ATOM      8  H2  GHM d   1      -9.425 -16.191  34.580  0.00  0.00     0.086 H 
ATOM      9  H3  GHM d   1      -5.313 -16.364  33.420  0.00  0.00     0.085 H 
ENDROOT
BRANCH   2  10
ATOM     10  C6  GHM d   1      -6.979 -12.224  34.685  0.00  0.00     0.210 C 
ATOM     11  O3  GHM d   1      -7.665 -11.399  34.109  0.00  0.00    -0.644 OA
ATOM     12  O4  GHM d   1      -6.033 -11.818  35.515  0.00  0.00    -0.644 OA
ENDBRANCH   2  10
BRANCH   3  13
ATOM     13  C8  GHM d   1      -9.572 -13.571  35.120  0.00  0.00     0.210 C 
ATOM     14  O5  GHM d   1     -10.686 -13.772  34.676  0.00  0.00    -0.644 OA
ATOM     15  O6  GHM d   1      -9.433 -12.681  36.088  0.00  0.00    -0.644 OA
ENDBRANCH   3  13
BRANCH   6  16
ATOM     16  C1  GHM d   1      -7.542 -17.904  33.723  0.00  0.00     0.209 C 
ATOM     17  O1  GHM d   1      -6.782 -18.495  32.984  0.00  0.00    -0.644 OA
ATOM     18  O2  GHM d   1      -8.526 -18.580  34.308  0.00  0.00    -0.644 OA
ENDBRANCH   6  16
TORSDOF 3
