REMARK  3 active torsions:
REMARK  status: ('A' for Active; 'I' for Inactive)
REMARK    1  A    between atoms: C10_1  and  C11_8 
REMARK    2  A    between atoms: C04_3  and  C02_2 
REMARK    3  A    between atoms: C07_6  and  O08_11 
ROOT
ATOM      1  C10 GJS d   1      -8.284 -14.232  34.688  0.00  0.00     0.060 A 
ATOM      2  C04 GJS d   1      -7.070 -13.569  34.556  0.00  0.00     0.058 A 
ATOM      3  C05 GJS d   1      -5.930 -14.258  34.157  0.00  0.00    -0.063 A 
ATOM      4  C06 GJS d   1      -6.002 -15.624  33.906  0.00  0.00    -0.050 A 
ATOM      5  C07 GJS d   1      -7.209 -16.290  34.053  0.00  0.00     0.066 A 
ATOM      6  C09 GJS d   1      -8.346 -15.595  34.444  0.00  0.00    -0.033 A 
ATOM      7  H1  GJS d   1      -4.989 -13.732  34.042  0.00  0.00     0.085 H 
ATOM      8  H2  GJS d   1      -5.116 -16.167  33.596  0.00  0.00     0.087 H 
ATOM      9  H3  GJS d   1      -9.287 -16.121  34.559  0.00  0.00     0.089 H 
ENDROOT
BRANCH   1  10
ATOM     10  C11 GJS d   1      -9.552 -13.484  35.133  0.00  0.00     0.210 C 
ATOM     11  O12 GJS d   1      -9.488 -12.699  36.104  0.00  0.00    -0.644 OA
ATOM     12  O13 GJS d   1     -10.661 -13.647  34.554  0.00  0.00    -0.644 OA
ENDBRANCH   1  10
BRANCH   2  13
ATOM     13  C02 GJS d   1      -6.962 -12.069  34.829  0.00  0.00     0.210 C 
ATOM     14  O01 GJS d   1      -7.634 -11.249  34.164  0.00  0.00    -0.644 OA
ATOM     15  O03 GJS d   1      -6.187 -11.662  35.725  0.00  0.00    -0.644 OA
ENDBRANCH   2  13
BRANCH   5  16
ATOM     16  O08 GJS d   1      -7.287 -17.668  33.796  0.00  0.00    -0.361 OA
ATOM     17  H4  GJS d   1      -7.576 -18.119  34.580  0.00  0.00     0.217 HD
ENDBRANCH   5  16
TORSDOF 3
