REMARK  15 active torsions:
REMARK  status: ('A' for Active; 'I' for Inactive)
REMARK    1  A    between atoms: C10_2  and  C11_3 
REMARK    2  A    between atoms: C10_2  and  C12_4 
REMARK    3  A    between atoms: O2_27  and  C10_2 
REMARK    4  A    between atoms: C12_4  and  C22_15 
REMARK    5  A    between atoms: C12_4  and  O5_30 
REMARK    6  A    between atoms: C13_5  and  C14_6 
REMARK    7  A    between atoms: O5_30  and  C13_5 
REMARK    8  A    between atoms: C15_7  and  C16_8 
REMARK    9  A    between atoms: C18_10  and  O8_33 
REMARK   10  A    between atoms: C19_11  and  O7_32 
REMARK   11  A    between atoms: C3_16  and  O12_26 
REMARK   12  A    between atoms: C4_17  and  O11_25 
REMARK   13  A    between atoms: C7_20  and  C6_19 
REMARK   14  A    between atoms: C9_22  and  C8_21 
REMARK   15  A    between atoms: C9_22  and  O2_27 
ROOT
ATOM      1  C10 GKP d   1       4.233 -19.084   3.654  0.00  0.00     0.166 C 
ATOM      2  H2  GKP d   1       5.291 -18.858   3.456  0.00  0.00     0.106 H 
ENDROOT
BRANCH   1   3
ATOM      3  C11 GKP d   1       4.118 -19.771   4.986  0.00  0.00     0.207 C 
ATOM      4  O3  GKP d   1       3.037 -19.916   5.536  0.00  0.00    -0.646 OA
ATOM      5  O4  GKP d   1       5.213 -20.227   5.589  0.00  0.00    -0.646 OA
ENDBRANCH   1   3
BRANCH   1   6
ATOM      6  C12 GKP d   1       3.684 -19.963   2.539  0.00  0.00     0.166 C 
ATOM      7  H3  GKP d   1       4.189 -20.940   2.526  0.00  0.00     0.106 H 
BRANCH   6   8
ATOM      8  C22 GKP d   1       3.881 -19.241   1.241  0.00  0.00     0.207 C 
ATOM      9  O10 GKP d   1       4.989 -19.427   0.528  0.00  0.00    -0.646 OA
ATOM     10  O9  GKP d   1       3.028 -18.472   0.828  0.00  0.00    -0.646 OA
ENDBRANCH   6   8
BRANCH   6  11
ATOM     11  O5  GKP d   1       2.286 -20.119   2.744  0.00  0.00    -0.298 OA
BRANCH  11  12
ATOM     12  C13 GKP d   1       1.758 -21.285   2.060  0.00  0.00     0.283 C 
ATOM     13  O6  GKP d   1       2.524 -22.062   1.509  0.00  0.00    -0.260 OA
BRANCH  12  14
ATOM     14  C14 GKP d   1       0.300 -21.502   2.036  0.00  0.00    -0.010 C 
ATOM     15  C15 GKP d   1      -0.225 -22.386   1.196  0.00  0.00    -0.067 C 
ATOM     16  H5  GKP d   1       0.422 -22.956   0.531  0.00  0.00     0.085 H 
ATOM     17  H4  GKP d   1      -0.346 -20.938   2.707  0.00  0.00     0.092 H 
BRANCH  15  18
ATOM     18  C16 GKP d   1      -1.689 -22.597   1.163  0.00  0.00    -0.033 A 
ATOM     19  C17 GKP d   1      -2.206 -23.679   0.457  0.00  0.00    -0.038 A 
ATOM     20  C18 GKP d   1      -3.577 -23.883   0.410  0.00  0.00     0.099 A 
ATOM     21  H6  GKP d   1      -1.538 -24.362  -0.056  0.00  0.00     0.089 H 
ATOM     22  C19 GKP d   1      -4.471 -22.934   1.118  0.00  0.00     0.098 A 
ATOM     23  C20 GKP d   1      -3.912 -21.866   1.809  0.00  0.00    -0.047 A 
ATOM     24  C21 GKP d   1      -2.529 -21.701   1.823  0.00  0.00    -0.070 A 
ATOM     25  H8  GKP d   1      -4.549 -21.164   2.335  0.00  0.00     0.087 H 
ATOM     26  H9  GKP d   1      -2.098 -20.861   2.356  0.00  0.00     0.084 H 
BRANCH  20  27
ATOM     27  O8  GKP d   1      -4.094 -24.942  -0.273  0.00  0.00    -0.358 OA
ATOM     28  H16 GKP d   1      -4.582 -25.495   0.325  0.00  0.00     0.217 HD
ENDBRANCH  20  27
BRANCH  22  29
ATOM     29  O7  GKP d   1      -5.820 -23.109   1.089  0.00  0.00    -0.358 OA
ATOM     30  H15 GKP d   1      -6.229 -22.347   0.695  0.00  0.00     0.217 HD
ENDBRANCH  22  29
ENDBRANCH  15  18
ENDBRANCH  12  14
ENDBRANCH  11  12
ENDBRANCH   6  11
ENDBRANCH   1   6
BRANCH   1  31
ATOM     31  O2  GKP d   1       3.478 -17.875   3.669  0.00  0.00    -0.298 OA
BRANCH  31  32
ATOM     32  C9  GKP d   1       4.206 -16.785   4.285  0.00  0.00     0.283 C 
ATOM     33  O1  GKP d   1       5.265 -17.014   4.849  0.00  0.00    -0.260 OA
BRANCH  32  34
ATOM     34  C8  GKP d   1       3.653 -15.421   4.202  0.00  0.00    -0.010 C 
ATOM     35  C7  GKP d   1       4.432 -14.380   4.462  0.00  0.00    -0.067 C 
ATOM     36  H11 GKP d   1       5.471 -14.543   4.743  0.00  0.00     0.085 H 
ATOM     37  H12 GKP d   1       2.610 -15.269   3.929  0.00  0.00     0.092 H 
BRANCH  35  38
ATOM     38  C6  GKP d   1       3.905 -12.999   4.375  0.00  0.00    -0.033 A 
ATOM     39  C1  GKP d   1       2.557 -12.768   4.102  0.00  0.00    -0.070 A 
ATOM     40  C2  GKP d   1       2.052 -11.474   4.014  0.00  0.00    -0.047 A 
ATOM     41  H1  GKP d   1       1.891 -13.611   3.956  0.00  0.00     0.084 H 
ATOM     42  C3  GKP d   1       2.899 -10.388   4.199  0.00  0.00     0.098 A 
ATOM     43  H7  GKP d   1       1.001 -11.314   3.802  0.00  0.00     0.087 H 
ATOM     44  C4  GKP d   1       4.331 -10.637   4.487  0.00  0.00     0.099 A 
ATOM     45  C5  GKP d   1       4.786 -11.942   4.565  0.00  0.00    -0.038 A 
ATOM     46  H10 GKP d   1       5.831 -12.139   4.775  0.00  0.00     0.089 H 
BRANCH  42  47
ATOM     47  O12 GKP d   1       2.434  -9.110   4.120  0.00  0.00    -0.358 OA
ATOM     48  H14 GKP d   1       2.892  -8.650   3.427  0.00  0.00     0.217 HD
ENDBRANCH  42  47
BRANCH  44  49
ATOM     49  O11 GKP d   1       5.185  -9.598   4.674  0.00  0.00    -0.358 OA
ATOM     50  H13 GKP d   1       4.710  -8.780   4.586  0.00  0.00     0.217 HD
ENDBRANCH  44  49
ENDBRANCH  35  38
ENDBRANCH  32  34
ENDBRANCH  31  32
ENDBRANCH   1  31
TORSDOF 15
