REMARK  23 active torsions:
REMARK  status: ('A' for Active; 'I' for Inactive)
REMARK    1  A    between atoms: C42_7  and  C41_8 
REMARK    2  A    between atoms: C2_10  and  C3_11 
REMARK    3  A    between atoms: C9_13  and  C10_24 
REMARK    4  A    between atoms: C6_17  and  C7_18 
REMARK    5  A    between atoms: C1_22  and  C_23 
REMARK    6  A    between atoms: C10_24  and  C11_25 
REMARK       I    between atoms: C11_25  and  N3_27 
REMARK    7  A    between atoms: N3_27  and  C12_28 
REMARK    8  A    between atoms: C12_28  and  C13_29 
REMARK    9  A    between atoms: C13_29  and  C14_30 
REMARK   10  A    between atoms: C14_30  and  C15_31 
REMARK   11  A    between atoms: C15_31  and  C16_32 
REMARK   12  A    between atoms: C16_32  and  C17_33 
REMARK   13  A    between atoms: C17_33  and  C18_34 
REMARK   14  A    between atoms: C18_34  and  C19_35 
REMARK   15  A    between atoms: C19_35  and  C20_36 
REMARK   16  A    between atoms: C20_36  and  C21_37 
REMARK   17  A    between atoms: C21_37  and  N4_38 
REMARK       I    between atoms: N4_38  and  C22_39 
REMARK   18  A    between atoms: C22_39  and  C23_41 
REMARK   19  A    between atoms: C23_41  and  C24_42 
REMARK   20  A    between atoms: C32_46  and  C33_47 
REMARK   21  A    between atoms: C30_51  and  C31_52 
REMARK   22  A    between atoms: C28_53  and  C29_54 
REMARK   23  A    between atoms: C25_56  and  C35_58 
ROOT
ATOM      1  C16 CF6 d   1     -23.788  16.333  28.619  0.00  0.00    -0.065 C 
ATOM      2  H26 CF6 d   1     -24.796  16.209  29.042  0.00  0.00     0.033 H 
ATOM      3  H27 CF6 d   1     -23.363  15.345  28.387  0.00  0.00     0.033 H 
ENDROOT
BRANCH   1   4
ATOM      4  C15 CF6 d   1     -22.906  17.000  29.669  0.00  0.00    -0.065 C 
ATOM      5  H24 CF6 d   1     -21.903  17.166  29.249  0.00  0.00     0.033 H 
ATOM      6  H25 CF6 d   1     -23.348  17.966  29.956  0.00  0.00     0.033 H 
BRANCH   4   7
ATOM      7  C14 CF6 d   1     -22.796  16.108  30.904  0.00  0.00    -0.064 C 
ATOM      8  H22 CF6 d   1     -23.808  15.840  31.243  0.00  0.00     0.033 H 
ATOM      9  H23 CF6 d   1     -22.245  15.194  30.637  0.00  0.00     0.033 H 
BRANCH   7  10
ATOM     10  C13 CF6 d   1     -22.065  16.815  32.036  0.00  0.00    -0.050 C 
ATOM     11  H20 CF6 d   1     -21.090  17.165  31.667  0.00  0.00     0.035 H 
ATOM     12  H21 CF6 d   1     -22.664  17.678  32.363  0.00  0.00     0.035 H 
BRANCH  10  13
ATOM     13  C12 CF6 d   1     -21.840  15.889  33.227  0.00  0.00    -0.005 C 
ATOM     14  H18 CF6 d   1     -21.263  15.015  32.890  0.00  0.00     0.064 H 
ATOM     15  H19 CF6 d   1     -21.268  16.433  33.993  0.00  0.00     0.064 H 
BRANCH  13  16
ATOM     16  N3  CF6 d   1     -23.084  15.427  33.815  0.00  0.00    -0.361 N 
ATOM     17  C11 CF6 d   1     -23.378  14.127  33.876  0.00  0.00     0.220 C 
ATOM     18  O   CF6 d   1     -22.657  13.266  33.373  0.00  0.00    -0.274 OA
ATOM     19  H17 CF6 d   1     -23.732  16.095  34.181  0.00  0.00     0.162 HD
BRANCH  17  20
ATOM     20  C10 CF6 d   1     -24.657  13.746  34.596  0.00  0.00     0.036 C 
ATOM     21  H15 CF6 d   1     -24.447  13.583  35.663  0.00  0.00     0.051 H 
ATOM     22  H16 CF6 d   1     -25.398  14.552  34.487  0.00  0.00     0.051 H 
BRANCH  20  23
ATOM     23  C9  CF6 d   1     -25.201  12.461  33.977  0.00  0.00     0.100 C 
ATOM     24  N9  CF6 d   1     -25.562  12.773  32.605  0.00  0.00    -0.275 NA
ATOM     25  C41 CF6 d   1     -25.833  11.836  31.804  0.00  0.00     0.075 C 
ATOM     26  C4  CF6 d   1     -25.872  10.409  32.239  0.00  0.00     0.035 A 
ATOM     27  C2  CF6 d   1     -25.323   9.253  31.435  0.00  0.00    -0.034 A 
ATOM     28  C5  CF6 d   1     -26.512   9.962  33.508  0.00  0.00     0.097 A 
ATOM     29  C1  CF6 d   1     -25.554   7.971  32.144  0.00  0.00    -0.012 A 
ATOM     30  S   CF6 d   1     -26.382   8.243  33.650  0.00  0.00    -0.075 SA
ATOM     31  N   CF6 d   1     -27.044  10.810  34.423  0.00  0.00    -0.275 N 
ATOM     32  C8  CF6 d   1     -26.427  11.977  34.652  0.00  0.00     0.161 A 
ATOM     33  C6  CF6 d   1     -28.134  10.620  35.185  0.00  0.00     0.131 A 
ATOM     34  N2  CF6 d   1     -27.160  12.601  35.593  0.00  0.00    -0.132 NA
ATOM     35  N1  CF6 d   1     -28.229  11.747  35.929  0.00  0.00    -0.135 NA
ATOM     36  H8  CF6 d   1     -24.428  11.679  34.009  0.00  0.00     0.089 H 
BRANCH  25  37
ATOM     37  C42 CF6 d   1     -26.218  12.151  30.390  0.00  0.00    -0.007 A 
ATOM     38  C43 CF6 d   1     -27.112  11.317  29.715  0.00  0.00    -0.069 A 
ATOM     39  C44 CF6 d   1     -27.480  11.598  28.413  0.00  0.00    -0.061 A 
ATOM     40  H2  CF6 d   1     -27.519  10.445  30.215  0.00  0.00     0.085 H 
ATOM     41  C45 CF6 d   1     -26.940  12.708  27.789  0.00  0.00     0.034 A 
ATOM     42  H1  CF6 d   1     -28.181  10.959  27.889  0.00  0.00     0.086 H 
ATOM     43 CL1  CF6 d   1     -27.411  13.065  26.108  0.00  0.00    -0.084 Cl
ATOM     44  C46 CF6 d   1     -26.051  13.547  28.449  0.00  0.00    -0.061 A 
ATOM     45  C47 CF6 d   1     -25.680  13.268  29.757  0.00  0.00    -0.069 A 
ATOM     46  H3  CF6 d   1     -25.648  14.417  27.944  0.00  0.00     0.086 H 
ATOM     47  H4  CF6 d   1     -24.981  13.911  30.279  0.00  0.00     0.085 H 
ENDBRANCH  25  37
BRANCH  27  48
ATOM     48  C3  CF6 d   1     -24.615   9.302  30.106  0.00  0.00    -0.049 C 
ATOM     49  H5  CF6 d   1     -24.552  10.345  29.762  0.00  0.00     0.033 H 
ATOM     50  H6  CF6 d   1     -25.175   8.707  29.370  0.00  0.00     0.033 H 
ATOM     51  H7  CF6 d   1     -23.601   8.890  30.215  0.00  0.00     0.033 H 
ENDBRANCH  27  48
BRANCH  29  52
ATOM     52  C   CF6 d   1     -25.201   6.557  31.758  0.00  0.00    -0.045 C 
ATOM     53  H12 CF6 d   1     -25.537   5.867  32.546  0.00  0.00     0.034 H 
ATOM     54  H13 CF6 d   1     -24.111   6.471  31.636  0.00  0.00     0.034 H 
ATOM     55  H14 CF6 d   1     -25.697   6.301  30.810  0.00  0.00     0.034 H 
ENDBRANCH  29  52
BRANCH  33  56
ATOM     56  C7  CF6 d   1     -29.108   9.465  35.245  0.00  0.00    -0.019 C 
ATOM     57  H9  CF6 d   1     -29.879   9.675  36.001  0.00  0.00     0.037 H 
ATOM     58  H10 CF6 d   1     -28.570   8.545  35.516  0.00  0.00     0.037 H 
ATOM     59  H11 CF6 d   1     -29.584   9.335  34.262  0.00  0.00     0.037 H 
ENDBRANCH  33  56
ENDBRANCH  20  23
ENDBRANCH  17  20
ENDBRANCH  13  16
ENDBRANCH  10  13
ENDBRANCH   7  10
ENDBRANCH   4   7
ENDBRANCH   1   4
BRANCH   1  60
ATOM     60  C17 CF6 d   1     -23.907  17.125  27.313  0.00  0.00    -0.065 C 
ATOM     61  H28 CF6 d   1     -22.924  17.178  26.822  0.00  0.00     0.033 H 
ATOM     62  H29 CF6 d   1     -24.265  18.143  27.529  0.00  0.00     0.033 H 
BRANCH  60  63
ATOM     63  C18 CF6 d   1     -24.900  16.417  26.396  0.00  0.00    -0.065 C 
ATOM     64  H30 CF6 d   1     -25.904  16.514  26.835  0.00  0.00     0.033 H 
ATOM     65  H31 CF6 d   1     -24.624  15.354  26.344  0.00  0.00     0.033 H 
BRANCH  63  66
ATOM     66  C19 CF6 d   1     -24.944  16.969  24.975  0.00  0.00    -0.064 C 
ATOM     67  H32 CF6 d   1     -23.962  16.843  24.495  0.00  0.00     0.033 H 
ATOM     68  H33 CF6 d   1     -25.208  18.037  24.997  0.00  0.00     0.033 H 
BRANCH  66  69
ATOM     69  C20 CF6 d   1     -26.005  16.188  24.200  0.00  0.00    -0.050 C 
ATOM     70  H34 CF6 d   1     -26.976  16.342  24.693  0.00  0.00     0.035 H 
ATOM     71  H35 CF6 d   1     -25.742  15.120  24.234  0.00  0.00     0.035 H 
BRANCH  69  72
ATOM     72  C21 CF6 d   1     -26.139  16.603  22.734  0.00  0.00    -0.005 C 
ATOM     73  H36 CF6 d   1     -26.181  17.701  22.683  0.00  0.00     0.064 H 
ATOM     74  H37 CF6 d   1     -27.073  16.181  22.334  0.00  0.00     0.064 H 
BRANCH  72  75
ATOM     75  N4  CF6 d   1     -25.031  16.142  21.911  0.00  0.00    -0.361 N 
ATOM     76  C22 CF6 d   1     -24.950  14.882  21.478  0.00  0.00     0.220 C 
ATOM     77  O1  CF6 d   1     -25.824  14.045  21.686  0.00  0.00    -0.274 OA
ATOM     78  H38 CF6 d   1     -24.309  16.788  21.663  0.00  0.00     0.162 HD
BRANCH  76  79
ATOM     79  C23 CF6 d   1     -23.714  14.505  20.681  0.00  0.00     0.036 C 
ATOM     80  H39 CF6 d   1     -22.973  15.316  20.728  0.00  0.00     0.051 H 
ATOM     81  H40 CF6 d   1     -23.984  14.315  19.632  0.00  0.00     0.051 H 
BRANCH  79  82
ATOM     82  C24 CF6 d   1     -23.146  13.240  21.312  0.00  0.00     0.100 C 
ATOM     83  C34 CF6 d   1     -22.009  12.652  20.562  0.00  0.00     0.161 A 
ATOM     84  N8  CF6 d   1     -21.373  13.160  19.482  0.00  0.00    -0.132 NA
ATOM     85  N6  CF6 d   1     -21.364  11.512  20.870  0.00  0.00    -0.275 N 
ATOM     86  N7  CF6 d   1     -20.344  12.252  19.137  0.00  0.00    -0.135 NA
ATOM     87  C32 CF6 d   1     -20.374  11.211  20.005  0.00  0.00     0.131 A 
ATOM     88  C27 CF6 d   1     -21.845  10.769  21.899  0.00  0.00     0.097 A 
ATOM     89  C26 CF6 d   1     -22.373  11.361  23.152  0.00  0.00     0.035 A 
ATOM     90  S1  CF6 d   1     -22.088   9.054  21.904  0.00  0.00    -0.075 SA
ATOM     91  C30 CF6 d   1     -22.938  10.315  24.084  0.00  0.00    -0.034 A 
ATOM     92  C25 CF6 d   1     -22.288  12.817  23.447  0.00  0.00     0.075 C 
ATOM     93  C28 CF6 d   1     -22.821   8.966  23.474  0.00  0.00    -0.012 A 
ATOM     94  N5  CF6 d   1     -22.609  13.680  22.590  0.00  0.00    -0.275 NA
ATOM     95  H41 CF6 d   1     -23.939  12.489  21.439  0.00  0.00     0.089 H 
BRANCH  87  96
ATOM     96  C33 CF6 d   1     -19.436  10.036  19.976  0.00  0.00    -0.019 C 
ATOM     97  H42 CF6 d   1     -18.757  10.130  19.116  0.00  0.00     0.037 H 
ATOM     98  H43 CF6 d   1     -20.016   9.106  19.885  0.00  0.00     0.037 H 
ATOM     99  H44 CF6 d   1     -18.849  10.013  20.906  0.00  0.00     0.037 H 
ENDBRANCH  87  96
BRANCH  91 100
ATOM    100  C31 CF6 d   1     -23.546  10.521  25.454  0.00  0.00    -0.049 C 
ATOM    101  H45 CF6 d   1     -23.531  11.592  25.705  0.00  0.00     0.033 H 
ATOM    102  H46 CF6 d   1     -22.964   9.961  26.201  0.00  0.00     0.033 H 
ATOM    103  H47 CF6 d   1     -24.585  10.159  25.452  0.00  0.00     0.033 H 
ENDBRANCH  91 100
BRANCH  93 104
ATOM    104  C29 CF6 d   1     -23.234   7.613  24.002  0.00  0.00    -0.045 C 
ATOM    105  H48 CF6 d   1     -22.985   6.839  23.261  0.00  0.00     0.034 H 
ATOM    106  H49 CF6 d   1     -24.318   7.607  24.188  0.00  0.00     0.034 H 
ATOM    107  H50 CF6 d   1     -22.700   7.407  24.941  0.00  0.00     0.034 H 
ENDBRANCH  93 104
BRANCH  92 108
ATOM    108  C35 CF6 d   1     -21.707  13.250  24.759  0.00  0.00    -0.007 A 
ATOM    109  C40 CF6 d   1     -20.979  12.352  25.545  0.00  0.00    -0.069 A 
ATOM    110  C39 CF6 d   1     -20.434  12.725  26.760  0.00  0.00    -0.061 A 
ATOM    111  H51 CF6 d   1     -20.838  11.336  25.193  0.00  0.00     0.085 H 
ATOM    112  C38 CF6 d   1     -20.602  14.037  27.154  0.00  0.00     0.034 A 
ATOM    113  H52 CF6 d   1     -19.896  12.015  27.378  0.00  0.00     0.086 H 
ATOM    114 CL   CF6 d   1     -19.884  14.527  28.701  0.00  0.00    -0.084 Cl
ATOM    115  C37 CF6 d   1     -21.293  14.960  26.378  0.00  0.00    -0.061 A 
ATOM    116  C36 CF6 d   1     -21.848  14.572  25.168  0.00  0.00    -0.069 A 
ATOM    117  H53 CF6 d   1     -21.398  15.984  26.719  0.00  0.00     0.086 H 
ATOM    118  H54 CF6 d   1     -22.382  15.286  24.552  0.00  0.00     0.085 H 
ENDBRANCH  92 108
ENDBRANCH  79  82
ENDBRANCH  76  79
ENDBRANCH  72  75
ENDBRANCH  69  72
ENDBRANCH  66  69
ENDBRANCH  63  66
ENDBRANCH  60  63
ENDBRANCH   1  60
TORSDOF 23
