REMARK  3 active torsions:
REMARK  status: ('A' for Active; 'I' for Inactive)
REMARK    1  A    between atoms: C10_1  and  C11_8 
REMARK    2  A    between atoms: C04_3  and  C02_2 
REMARK    3  A    between atoms: C08_7  and  O09_11 
ROOT
ATOM      1  C10 GOG d   1       8.151 -14.130 -34.572  0.00  0.00     0.090 A 
ATOM      2  C04 GOG d   1       6.948 -13.430 -34.465  0.00  0.00     0.060 A 
ATOM      3  C05 GOG d   1       5.815 -14.078 -34.004  0.00  0.00    -0.065 A 
ATOM      4  C06 GOG d   1       5.857 -15.415 -33.659  0.00  0.00    -0.079 A 
ATOM      5  C07 GOG d   1       7.044 -16.112 -33.775  0.00  0.00    -0.050 A 
ATOM      6  C08 GOG d   1       8.189 -15.470 -34.226  0.00  0.00     0.083 A 
ATOM      7  H1  GOG d   1       4.884 -13.530 -33.913  0.00  0.00     0.085 H 
ATOM      8  H2  GOG d   1       4.964 -15.914 -33.300  0.00  0.00     0.083 H 
ATOM      9  H3  GOG d   1       7.081 -17.163 -33.513  0.00  0.00     0.087 H 
ENDROOT
BRANCH   1  10
ATOM     10  C11 GOG d   1       9.444 -13.480 -35.074  0.00  0.00     0.213 C 
ATOM     11  O12 GOG d   1       9.437 -12.405 -35.731  0.00  0.00    -0.644 OA
ATOM     12  O13 GOG d   1      10.536 -14.058 -34.839  0.00  0.00    -0.644 OA
ENDBRANCH   1  10
BRANCH   2  13
ATOM     13  C02 GOG d   1       6.823 -11.949 -34.829  0.00  0.00     0.210 C 
ATOM     14  O01 GOG d   1       7.408 -11.077 -34.135  0.00  0.00    -0.644 OA
ATOM     15  O03 GOG d   1       6.140 -11.607 -35.829  0.00  0.00    -0.644 OA
ENDBRANCH   2  13
BRANCH   6  16
ATOM     16  O09 GOG d   1       9.389 -16.187 -34.336  0.00  0.00    -0.360 OA
ATOM     17  H4  GOG d   1      10.073 -15.610 -34.656  0.00  0.00     0.217 HD
ENDBRANCH   6  16
TORSDOF 3
