REMARK  3 active torsions:
REMARK  status: ('A' for Active; 'I' for Inactive)
REMARK    1  A    between atoms: C09_8  and  C10_1 
REMARK    2  A    between atoms: C02_3  and  N01_9 
REMARK    3  A    between atoms: C05_6  and  C06_7 
ROOT
ATOM      1  C13 GM7 d   1      -5.988 -14.413  33.858  0.00  0.00    -0.040 A 
ATOM      2  C02 GM7 d   1      -6.090 -15.778  33.651  0.00  0.00     0.026 A 
ATOM      3  C03 GM7 d   1      -7.300 -16.423  33.828  0.00  0.00    -0.057 A 
ATOM      4  C04 GM7 d   1      -8.412 -15.686  34.198  0.00  0.00    -0.063 A 
ATOM      5  C05 GM7 d   1      -8.320 -14.316  34.385  0.00  0.00     0.058 A 
ATOM      6  C09 GM7 d   1      -7.101 -13.678  34.235  0.00  0.00     0.059 A 
ATOM      7  H1  GM7 d   1      -5.034 -13.917  33.725  0.00  0.00     0.088 H 
ATOM      8  H2  GM7 d   1      -7.377 -17.494  33.679  0.00  0.00     0.086 H 
ATOM      9  H3  GM7 d   1      -9.363 -16.185  34.343  0.00  0.00     0.085 H 
ENDROOT
BRANCH   2  10
ATOM     10  N01 GM7 d   1      -4.914 -16.539  33.262  0.00  0.00    -0.399 N 
ATOM     11  H4  GM7 d   1      -4.011 -16.061  33.130  0.00  0.00     0.156 HD
ATOM     12  H5  GM7 d   1      -4.983 -17.557  33.119  0.00  0.00     0.156 HD
ENDBRANCH   2  10
BRANCH   6  13
ATOM     13  C10 GM7 d   1      -6.927 -12.175  34.433  0.00  0.00     0.210 C 
ATOM     14  O11 GM7 d   1      -6.030 -11.761  35.202  0.00  0.00    -0.644 OA
ATOM     15  O12 GM7 d   1      -7.650 -11.366  33.813  0.00  0.00    -0.644 OA
ENDBRANCH   6  13
BRANCH   5  16
ATOM     16  C06 GM7 d   1      -9.578 -13.565  34.818  0.00  0.00     0.210 C 
ATOM     17  O07 GM7 d   1      -9.514 -12.737  35.765  0.00  0.00    -0.644 OA
ATOM     18  O08 GM7 d   1     -10.676 -13.804  34.256  0.00  0.00    -0.644 OA
ENDBRANCH   5  16
TORSDOF 3
