REMARK  7 active torsions:
REMARK  status: ('A' for Active; 'I' for Inactive)
REMARK    1  A    between atoms: C02_1  and  C01_10 
REMARK    2  A    between atoms: C12_6  and  C13_7 
REMARK    3  A    between atoms: C08_13  and  O09_21 
REMARK    4  A    between atoms: C17_15  and  C18_16 
REMARK    5  A    between atoms: C17_15  and  N16_20 
REMARK    6  A    between atoms: C19_17  and  C20_18 
REMARK    7  A    between atoms: C19_17  and  C21_19 
ROOT
ATOM      1  C02 GM4 d   1      12.327  39.001 -34.590  0.00  0.00    -0.018 C 
ATOM      2  C04 GM4 d   1       9.888  39.854 -34.694  0.00  0.00    -0.013 C 
ATOM      3  C05 GM4 d   1       9.684  39.026 -33.289  0.00  0.00    -0.049 A 
ATOM      4  C06 GM4 d   1      10.697  38.149 -32.831  0.00  0.00    -0.040 A 
ATOM      5  C11 GM4 d   1       8.506  39.189 -32.553  0.00  0.00    -0.074 A 
ATOM      6  C12 GM4 d   1      12.009  37.935 -33.620  0.00  0.00    -0.009 C 
ATOM      7  C14 GM4 d   1      11.831  36.705 -34.404  0.00  0.00    -0.031 C 
ATOM      8  C15 GM4 d   1      10.789  36.872 -35.546  0.00  0.00     0.085 C 
ATOM      9  C03 GM4 d   1      11.198  39.274 -35.517  0.00  0.00     0.112 C 
ATOM     10  C07 GM4 d   1      10.516  37.439 -31.634  0.00  0.00    -0.044 A 
ATOM     11  C08 GM4 d   1       9.343  37.606 -30.900  0.00  0.00     0.066 A 
ATOM     12  C10 GM4 d   1       8.333  38.478 -31.364  0.00  0.00    -0.051 A 
ATOM     13  N16 GM4 d   1      10.853  38.098 -36.293  0.00  0.00    -0.063 N 
ATOM     14  H1  GM4 d   1      13.192  38.675 -35.187  0.00  0.00     0.044 H 
ATOM     15  H2  GM4 d   1      10.044  40.919 -34.468  0.00  0.00     0.043 H 
ATOM     16  H3  GM4 d   1       8.989  39.739 -35.317  0.00  0.00     0.043 H 
ATOM     17  H4  GM4 d   1       7.732  39.863 -32.903  0.00  0.00     0.084 H 
ATOM     18  H8  GM4 d   1      11.491  35.904 -33.731  0.00  0.00     0.037 H 
ATOM     19  H9  GM4 d   1      12.798  36.426 -34.847  0.00  0.00     0.037 H 
ATOM     20  H10 GM4 d   1       9.787  36.805 -35.097  0.00  0.00     0.076 H 
ATOM     21  H11 GM4 d   1      10.931  36.041 -36.253  0.00  0.00     0.076 H 
ATOM     22  H15 GM4 d   1      11.524  40.054 -36.221  0.00  0.00     0.085 H 
ATOM     23  H16 GM4 d   1      11.286  36.763 -31.281  0.00  0.00     0.088 H 
ATOM     24  H17 GM4 d   1       7.419  38.596 -30.794  0.00  0.00     0.087 H 
ATOM     25  H27 GM4 d   1      11.584  37.986 -36.978  0.00  0.00     0.280 HD
ENDROOT
BRANCH  13  26
ATOM     26  C17 GM4 d   1       9.820  38.241 -36.886  0.00  0.00     0.099 C 
ATOM     27  H18 GM4 d   1       9.455  37.255 -37.208  0.00  0.00     0.082 H 
ATOM     28  H19 GM4 d   1       9.083  38.702 -36.212  0.00  0.00     0.082 H 
BRANCH  26  29
ATOM     29  C18 GM4 d   1       9.991  39.132 -38.117  0.00  0.00    -0.077 C 
ATOM     30  C19 GM4 d   1       8.934  39.595 -38.761  0.00  0.00    -0.090 C 
ATOM     31  H20 GM4 d   1      10.991  39.387 -38.465  0.00  0.00     0.079 H 
BRANCH  30  32
ATOM     32  C20 GM4 d   1       7.523  39.245 -38.283  0.00  0.00    -0.055 C 
ATOM     33  H21 GM4 d   1       6.784  39.721 -38.944  0.00  0.00     0.033 H 
ATOM     34  H22 GM4 d   1       7.383  39.609 -37.254  0.00  0.00     0.033 H 
ATOM     35  H23 GM4 d   1       7.388  38.154 -38.307  0.00  0.00     0.033 H 
ENDBRANCH  30  32
BRANCH  30  36
ATOM     36  C21 GM4 d   1       9.114  40.488 -39.990  0.00  0.00    -0.055 C 
ATOM     37  H24 GM4 d   1      10.187  40.632 -40.185  0.00  0.00     0.033 H 
ATOM     38  H25 GM4 d   1       8.641  41.464 -39.807  0.00  0.00     0.033 H 
ATOM     39  H26 GM4 d   1       8.644  40.011 -40.862  0.00  0.00     0.033 H 
ENDBRANCH  30  36
ENDBRANCH  26  29
ENDBRANCH  13  26
BRANCH   1  40
ATOM     40  C01 GM4 d   1      12.719  40.355 -33.806  0.00  0.00    -0.070 C 
ATOM     41  H12 GM4 d   1      12.955  41.145 -34.534  0.00  0.00     0.028 H 
ATOM     42  H13 GM4 d   1      13.597  40.169 -33.170  0.00  0.00     0.028 H 
ATOM     43  H14 GM4 d   1      11.873  40.674 -33.180  0.00  0.00     0.028 H 
ENDBRANCH   1  40
BRANCH   6  44
ATOM     44  C13 GM4 d   1      13.164  37.736 -32.636  0.00  0.00    -0.065 C 
ATOM     45  H5  GM4 d   1      12.906  36.938 -31.924  0.00  0.00     0.028 H 
ATOM     46  H6  GM4 d   1      13.344  38.673 -32.088  0.00  0.00     0.028 H 
ATOM     47  H7  GM4 d   1      14.072  37.454 -33.189  0.00  0.00     0.028 H 
ENDBRANCH   6  44
BRANCH  11  48
ATOM     48  O09 GM4 d   1       9.164  36.891 -29.711  0.00  0.00    -0.361 OA
ATOM     49  H28 GM4 d   1       9.040  37.500 -28.992  0.00  0.00     0.217 HD
ENDBRANCH  11  48
TORSDOF 7
