REMARK  9 active torsions:
REMARK  status: ('A' for Active; 'I' for Inactive)
REMARK    1  A    between atoms: N4_15  and  C6_2 
REMARK    2  A    between atoms: C7_3  and  C1_12 
REMARK    3  A    between atoms: O13_19  and  C10_5 
REMARK    4  A    between atoms: C20_7  and  C22_8 
REMARK       I    between atoms: N17_22  and  C20_7 
REMARK    5  A    between atoms: C22_8  and  C23_26 
REMARK    6  A    between atoms: C26_10  and  O29_29 
REMARK    7  A    between atoms: C9_16  and  C35_35 
REMARK    8  A    between atoms: C14_20  and  O13_19 
REMARK    9  A    between atoms: O29_29  and  C30_30 
REMARK       I    between atoms: C35_35  and  N36_36 
ROOT
ATOM      1  C15 FKY d   1     -22.790   6.766 -21.015  0.00  0.00     0.119 C 
ATOM      2  C20 FKY d   1     -21.496   5.536 -17.940  0.00  0.00     0.224 C 
ATOM      3  C14 FKY d   1     -22.290   5.716 -21.980  0.00  0.00     0.079 C 
ATOM      4  C16 FKY d   1     -23.252   6.106 -19.657  0.00  0.00     0.028 C 
ATOM      5  N17 FKY d   1     -22.142   5.325 -19.107  0.00  0.00    -0.349 N 
ATOM      6  C18 FKY d   1     -21.768   4.221 -20.003  0.00  0.00     0.000 C 
ATOM      7  C19 FKY d   1     -21.287   4.756 -21.352  0.00  0.00    -0.023 C 
ATOM      8  O21 FKY d   1     -20.426   5.003 -17.693  0.00  0.00    -0.273 OA
ATOM      9  F34 FKY d   1     -21.766   7.693 -20.742  0.00  0.00    -0.245 F 
ATOM     10  H6  FKY d   1     -23.643   7.290 -21.470  0.00  0.00     0.098 H 
ATOM     11  H13 FKY d   1     -23.144   5.134 -22.356  0.00  0.00     0.088 H 
ATOM     12  H14 FKY d   1     -24.112   5.446 -19.841  0.00  0.00     0.068 H 
ATOM     13  H15 FKY d   1     -23.539   6.892 -18.943  0.00  0.00     0.068 H 
ATOM     14  H16 FKY d   1     -22.643   3.574 -20.163  0.00  0.00     0.064 H 
ATOM     15  H17 FKY d   1     -20.960   3.637 -19.538  0.00  0.00     0.064 H 
ATOM     16  H18 FKY d   1     -20.334   5.286 -21.204  0.00  0.00     0.039 H 
ATOM     17  H19 FKY d   1     -21.133   3.908 -22.035  0.00  0.00     0.039 H 
ENDROOT
BRANCH   3  18
ATOM     18  O13 FKY d   1     -21.660   6.430 -23.071  0.00  0.00    -0.325 OA
BRANCH  18  19
ATOM     19  C10 FKY d   1     -21.209   5.747 -24.154  0.00  0.00     0.180 A 
ATOM     20  C9  FKY d   1     -20.175   6.368 -24.896  0.00  0.00     0.085 A 
ATOM     21  C8  FKY d   1     -19.779   5.707 -26.061  0.00  0.00    -0.050 A 
ATOM     22  C7  FKY d   1     -20.400   4.527 -26.458  0.00  0.00     0.013 A 
ATOM     23  H5  FKY d   1     -18.977   6.119 -26.664  0.00  0.00     0.086 H 
ATOM     24  C12 FKY d   1     -21.407   4.024 -25.646  0.00  0.00     0.017 A 
ATOM     25  N11 FKY d   1     -21.797   4.609 -24.505  0.00  0.00    -0.235 NA
ATOM     26  H12 FKY d   1     -21.904   3.110 -25.951  0.00  0.00     0.116 H 
BRANCH  20  27
ATOM     27  C35 FKY d   1     -19.594   7.699 -24.524  0.00  0.00     0.253 C 
ATOM     28  N36 FKY d   1     -19.371   7.952 -23.237  0.00  0.00    -0.366 N 
ATOM     29  H22 FKY d   1     -18.984   8.832 -22.960  0.00  0.00     0.159 HD
ATOM     30  H23 FKY d   1     -19.590   7.263 -22.547  0.00  0.00     0.159 HD
ATOM     31  O37 FKY d   1     -19.365   8.523 -25.405  0.00  0.00    -0.268 OA
ENDBRANCH  20  27
BRANCH  22  32
ATOM     32  C1  FKY d   1     -19.993   3.853 -27.704  0.00  0.00     0.085 A 
ATOM     33  C5  FKY d   1     -20.487   2.710 -28.268  0.00  0.00     0.009 A 
ATOM     34  N4  FKY d   1     -19.787   2.546 -29.428  0.00  0.00    -0.354 N 
ATOM     35  H1  FKY d   1     -21.273   2.067 -27.875  0.00  0.00     0.115 H 
ATOM     36  C3  FKY d   1     -18.852   3.600 -29.554  0.00  0.00     0.066 A 
ATOM     37  N2  FKY d   1     -18.951   4.414 -28.530  0.00  0.00    -0.242 NA
ATOM     38  H11 FKY d   1     -18.152   3.718 -30.380  0.00  0.00     0.143 H 
BRANCH  34  39
ATOM     39  C6  FKY d   1     -19.984   1.460 -30.390  0.00  0.00    -0.014 C 
ATOM     40  H2  FKY d   1     -19.282   1.581 -31.228  0.00  0.00     0.057 H 
ATOM     41  H3  FKY d   1     -21.016   1.489 -30.769  0.00  0.00     0.057 H 
ATOM     42  H4  FKY d   1     -19.802   0.494 -29.895  0.00  0.00     0.057 H 
ENDBRANCH  34  39
ENDBRANCH  22  32
ENDBRANCH  18  19
ENDBRANCH   3  18
BRANCH   2  43
ATOM     43  C22 FKY d   1     -22.087   6.557 -16.985  0.00  0.00     0.033 C 
ATOM     44  H7  FKY d   1     -23.150   6.321 -16.827  0.00  0.00     0.054 H 
ATOM     45  H8  FKY d   1     -21.996   7.557 -17.434  0.00  0.00     0.054 H 
BRANCH  43  46
ATOM     46  C23 FKY d   1     -21.384   6.559 -15.646  0.00  0.00    -0.049 A 
ATOM     47  C24 FKY d   1     -20.308   7.407 -15.415  0.00  0.00    -0.074 A 
ATOM     48  C25 FKY d   1     -19.581   7.339 -14.237  0.00  0.00    -0.050 A 
ATOM     49  H9  FKY d   1     -20.032   8.135 -16.169  0.00  0.00     0.084 H 
ATOM     50  C26 FKY d   1     -19.951   6.431 -13.257  0.00  0.00     0.078 A 
ATOM     51  H20 FKY d   1     -18.729   7.991 -14.083  0.00  0.00     0.087 H 
ATOM     52  C27 FKY d   1     -21.036   5.592 -13.462  0.00  0.00    -0.050 A 
ATOM     53  C28 FKY d   1     -21.742   5.659 -14.652  0.00  0.00    -0.074 A 
ATOM     54  H21 FKY d   1     -21.331   4.886 -12.694  0.00  0.00     0.087 H 
ATOM     55  H10 FKY d   1     -22.587   4.998 -14.809  0.00  0.00     0.084 H 
BRANCH  50  56
ATOM     56  O29 FKY d   1     -19.246   6.471 -12.053  0.00  0.00    -0.255 OA
BRANCH  56  57
ATOM     57  C30 FKY d   1     -18.374   5.501 -11.807  0.00  0.00     0.530 C 
ATOM     58  F31 FKY d   1     -17.459   5.382 -12.761  0.00  0.00    -0.144 F 
ATOM     59  F32 FKY d   1     -17.767   5.805 -10.677  0.00  0.00    -0.144 F 
ATOM     60  F33 FKY d   1     -18.937   4.320 -11.636  0.00  0.00    -0.144 F 
ENDBRANCH  56  57
ENDBRANCH  50  56
ENDBRANCH  43  46
ENDBRANCH   2  43
TORSDOF 9
