REMARK  13 active torsions:
REMARK  status: ('A' for Active; 'I' for Inactive)
REMARK    1  A    between atoms: C3_8  and  C8_13 
REMARK    2  A    between atoms: C14_22  and  C15_9 
REMARK    3  A    between atoms: C18_10  and  O5_33 
REMARK    4  A    between atoms: O4_32  and  C6_11 
REMARK    5  A    between atoms: C2_12  and  O1_31 
REMARK       I    between atoms: C8_13  and  N1_27 
REMARK    6  A    between atoms: C13_14  and  C14_22 
REMARK       I    between atoms: N2_26  and  C13_14 
REMARK    7  A    between atoms: O1_31  and  C7_18 
REMARK    8  A    between atoms: C23_24  and  C25_20 
REMARK    9  A    between atoms: C23_24  and  C24_21 
REMARK   10  A    between atoms: C22_23  and  C23_24 
REMARK   11  A    between atoms: C22_23  and  O4_32 
REMARK   12  A    between atoms: C23_24  and  O6_30 
REMARK   13  A    between atoms: O5_33  and  C21_25 
ROOT
ATOM      1  C13 GO7 d   1     -21.473   5.547 -18.025  0.00  0.00     0.224 C 
ATOM      2  C12 GO7 d   1     -21.298   4.620 -21.219  0.00  0.00    -0.023 C 
ATOM      3  C11 GO7 d   1     -21.855   4.060 -19.923  0.00  0.00     0.000 C 
ATOM      4  C10 GO7 d   1     -23.312   5.985 -19.733  0.00  0.00     0.028 C 
ATOM      5  C7  GO7 d   1     -22.361   5.399 -21.968  0.00  0.00     0.077 C 
ATOM      6  C9  GO7 d   1     -22.868   6.508 -21.074  0.00  0.00     0.119 C 
ATOM      7  N2  GO7 d   1     -22.285   5.162 -19.091  0.00  0.00    -0.349 N 
ATOM      8  O3  GO7 d   1     -20.412   4.996 -17.756  0.00  0.00    -0.273 OA
ATOM      9  F4  GO7 d   1     -21.866   7.396 -20.846  0.00  0.00    -0.245 F 
ATOM     10  H8  GO7 d   1     -20.947   3.790 -21.850  0.00  0.00     0.039 H 
ATOM     11  H9  GO7 d   1     -20.455   5.288 -20.991  0.00  0.00     0.039 H 
ATOM     12  H10 GO7 d   1     -21.075   3.485 -19.402  0.00  0.00     0.064 H 
ATOM     13  H11 GO7 d   1     -22.711   3.404 -20.140  0.00  0.00     0.064 H 
ATOM     14  H12 GO7 d   1     -24.217   5.376 -19.873  0.00  0.00     0.068 H 
ATOM     15  H13 GO7 d   1     -23.542   6.839 -19.078  0.00  0.00     0.068 H 
ATOM     16  H14 GO7 d   1     -23.177   4.721 -22.259  0.00  0.00     0.088 H 
ATOM     17  H15 GO7 d   1     -23.711   7.012 -21.569  0.00  0.00     0.098 H 
ENDROOT
BRANCH   5  18
ATOM     18  O1  GO7 d   1     -21.843   6.070 -23.115  0.00  0.00    -0.342 OA
BRANCH  18  19
ATOM     19  C2  GO7 d   1     -21.322   5.315 -24.172  0.00  0.00     0.087 A 
ATOM     20  C1  GO7 d   1     -21.822   4.077 -24.560  0.00  0.00    -0.018 A 
ATOM     21  C6  GO7 d   1     -21.287   3.409 -25.643  0.00  0.00     0.071 A 
ATOM     22  H7  GO7 d   1     -22.641   3.632 -24.006  0.00  0.00     0.092 H 
ATOM     23  C5  GO7 d   1     -20.257   3.981 -26.369  0.00  0.00    -0.050 A 
ATOM     24  C4  GO7 d   1     -19.771   5.218 -25.994  0.00  0.00    -0.062 A 
ATOM     25  H4  GO7 d   1     -19.836   3.463 -27.223  0.00  0.00     0.087 H 
ATOM     26  C3  GO7 d   1     -20.298   5.898 -24.906  0.00  0.00     0.065 A 
ATOM     27  H1  GO7 d   1     -18.963   5.666 -26.561  0.00  0.00     0.085 H 
BRANCH  21  28
ATOM     28  O4  GO7 d   1     -21.867   2.172 -25.934  0.00  0.00    -0.348 OA
BRANCH  28  29
ATOM     29  C22 GO7 d   1     -21.025   1.262 -26.684  0.00  0.00     0.054 C 
ATOM     30  H24 GO7 d   1     -21.046   1.550 -27.745  0.00  0.00     0.079 H 
ATOM     31  H25 GO7 d   1     -19.995   1.335 -26.305  0.00  0.00     0.079 H 
BRANCH  29  32
ATOM     32  C23 GO7 d   1     -21.499  -0.188 -26.554  0.00  0.00     0.072 C 
BRANCH  32  33
ATOM     33  C25 GO7 d   1     -22.957  -0.324 -26.938  0.00  0.00    -0.046 C 
ATOM     34  H16 GO7 d   1     -23.267  -1.374 -26.834  0.00  0.00     0.031 H 
ATOM     35  H17 GO7 d   1     -23.093  -0.003 -27.981  0.00  0.00     0.031 H 
ATOM     36  H18 GO7 d   1     -23.570   0.306 -26.277  0.00  0.00     0.031 H 
ENDBRANCH  32  33
BRANCH  32  37
ATOM     37  C24 GO7 d   1     -21.348  -0.694 -25.133  0.00  0.00    -0.046 C 
ATOM     38  H19 GO7 d   1     -20.296  -0.608 -24.823  0.00  0.00     0.031 H 
ATOM     39  H20 GO7 d   1     -21.660  -1.748 -25.084  0.00  0.00     0.031 H 
ATOM     40  H21 GO7 d   1     -21.978  -0.093 -24.461  0.00  0.00     0.031 H 
ENDBRANCH  32  37
BRANCH  32  41
ATOM     41  O6  GO7 d   1     -20.720  -1.012 -27.431  0.00  0.00    -0.388 OA
ATOM     42  H28 GO7 d   1     -21.027  -1.909 -27.377  0.00  0.00     0.210 HD
ENDBRANCH  32  41
ENDBRANCH  29  32
ENDBRANCH  28  29
ENDBRANCH  21  28
BRANCH  26  43
ATOM     43  C8  GO7 d   1     -19.698   7.234 -24.591  0.00  0.00     0.252 C 
ATOM     44  N1  GO7 d   1     -19.868   7.782 -23.330  0.00  0.00    -0.366 N 
ATOM     45  H26 GO7 d   1     -19.470   8.674 -23.114  0.00  0.00     0.159 HD
ATOM     46  H27 GO7 d   1     -20.389   7.286 -22.635  0.00  0.00     0.159 HD
ATOM     47  O2  GO7 d   1     -19.056   7.803 -25.461  0.00  0.00    -0.268 OA
ENDBRANCH  26  43
ENDBRANCH  18  19
ENDBRANCH   5  18
BRANCH   1  48
ATOM     48  C14 GO7 d   1     -21.959   6.718 -17.211  0.00  0.00     0.033 C 
ATOM     49  H22 GO7 d   1     -21.784   7.645 -17.776  0.00  0.00     0.054 H 
ATOM     50  H23 GO7 d   1     -23.037   6.601 -17.023  0.00  0.00     0.054 H 
BRANCH  48  51
ATOM     51  C15 GO7 d   1     -21.246   6.803 -15.907  0.00  0.00    -0.049 A 
ATOM     52  C20 GO7 d   1     -21.638   5.943 -14.902  0.00  0.00    -0.074 A 
ATOM     53  C19 GO7 d   1     -20.977   5.955 -13.698  0.00  0.00    -0.050 A 
ATOM     54  H2  GO7 d   1     -22.465   5.260 -15.062  0.00  0.00     0.084 H 
ATOM     55  C18 GO7 d   1     -19.917   6.829 -13.493  0.00  0.00     0.078 A 
ATOM     56  H5  GO7 d   1     -21.283   5.281 -12.906  0.00  0.00     0.087 H 
ATOM     57  C17 GO7 d   1     -19.542   7.722 -14.483  0.00  0.00    -0.050 A 
ATOM     58  C16 GO7 d   1     -20.205   7.695 -15.701  0.00  0.00    -0.074 A 
ATOM     59  H6  GO7 d   1     -18.742   8.432 -14.308  0.00  0.00     0.087 H 
ATOM     60  H3  GO7 d   1     -19.909   8.373 -16.493  0.00  0.00     0.084 H 
BRANCH  55  61
ATOM     61  O5  GO7 d   1     -19.271   6.850 -12.257  0.00  0.00    -0.255 OA
BRANCH  61  62
ATOM     62  C21 GO7 d   1     -18.433   5.699 -12.028  0.00  0.00     0.530 C 
ATOM     63  F3  GO7 d   1     -18.948   4.491 -12.347  0.00  0.00    -0.144 F 
ATOM     64  F2  GO7 d   1     -18.206   5.570 -10.707  0.00  0.00    -0.144 F 
ATOM     65  F1  GO7 d   1     -17.245   5.821 -12.666  0.00  0.00    -0.144 F 
ENDBRANCH  61  62
ENDBRANCH  55  61
ENDBRANCH  48  51
ENDBRANCH   1  48
TORSDOF 13
