REMARK  9 active torsions:
REMARK  status: ('A' for Active; 'I' for Inactive)
REMARK    1  A    between atoms: O7_12  and  C5_2 
REMARK    2  A    between atoms: C8_3  and  N10_14 
REMARK       I    between atoms: C15_4  and  N13_17 
REMARK    3  A    between atoms: C16_19  and  C15_4 
REMARK    4  A    between atoms: C21_6  and  O24_24 
REMARK    5  A    between atoms: C1_8  and  C2_9 
REMARK       I    between atoms: C2_9  and  N32_32 
REMARK    6  A    between atoms: C9_13  and  O7_12 
REMARK    7  A    between atoms: C18_21  and  C16_19 
REMARK    8  A    between atoms: O24_24  and  C25_25 
REMARK    9  A    between atoms: N32_32  and  C33_33 
ROOT
ATOM      1  C15 GOD d   1     -21.013   6.051 -18.412  0.00  0.00     0.224 C 
ATOM      2  C9  GOD d   1     -22.069   5.403 -21.812  0.00  0.00     0.125 C 
ATOM      3  C11 GOD d   1     -21.183   5.024 -20.626  0.00  0.00     0.028 C 
ATOM      4  C12 GOD d   1     -23.454   5.778 -21.169  0.00  0.00     0.286 C 
ATOM      5  N13 GOD d   1     -21.700   5.863 -19.551  0.00  0.00    -0.344 N 
ATOM      6  C14 GOD d   1     -23.030   6.398 -19.841  0.00  0.00     0.061 C 
ATOM      7  O17 GOD d   1     -19.925   5.533 -18.235  0.00  0.00    -0.273 OA
ATOM      8  F29 GOD d   1     -24.267   4.686 -21.000  0.00  0.00    -0.202 F 
ATOM      9  F30 GOD d   1     -24.151   6.662 -21.937  0.00  0.00    -0.202 F 
ATOM     10  H5  GOD d   1     -22.150   4.589 -22.547  0.00  0.00     0.096 H 
ATOM     11  H8  GOD d   1     -20.127   5.252 -20.832  0.00  0.00     0.068 H 
ATOM     12  H9  GOD d   1     -21.287   3.957 -20.380  0.00  0.00     0.068 H 
ATOM     13  H10 GOD d   1     -23.736   6.117 -19.046  0.00  0.00     0.073 H 
ATOM     14  H11 GOD d   1     -22.991   7.494 -19.927  0.00  0.00     0.073 H 
ENDROOT
BRANCH   2  15
ATOM     15  O7  GOD d   1     -21.562   6.591 -22.396  0.00  0.00    -0.334 OA
BRANCH  15  16
ATOM     16  C5  GOD d   1     -20.665   6.521 -23.443  0.00  0.00     0.116 A 
ATOM     17  C8  GOD d   1     -19.756   7.578 -23.586  0.00  0.00     0.154 A 
ATOM     18  N6  GOD d   1     -18.966   7.695 -24.674  0.00  0.00    -0.240 NA
ATOM     19  C4  GOD d   1     -19.052   6.768 -25.636  0.00  0.00     0.020 A 
ATOM     20  C1  GOD d   1     -19.894   5.666 -25.560  0.00  0.00     0.052 A 
ATOM     21  H1  GOD d   1     -18.433   6.883 -26.519  0.00  0.00     0.116 H 
ATOM     22  C3  GOD d   1     -20.717   5.559 -24.441  0.00  0.00    -0.030 A 
ATOM     23  H4  GOD d   1     -21.400   4.722 -24.350  0.00  0.00     0.089 H 
BRANCH  17  24
ATOM     24  N10 GOD d   1     -19.697   8.544 -22.662  0.00  0.00    -0.382 N 
ATOM     25  H6  GOD d   1     -19.028   9.320 -22.770  0.00  0.00     0.157 HD
ATOM     26  H7  GOD d   1     -20.321   8.512 -21.843  0.00  0.00     0.157 HD
ENDBRANCH  17  24
BRANCH  20  27
ATOM     27  C2  GOD d   1     -20.004   4.559 -26.569  0.00  0.00     0.252 C 
ATOM     28  O31 GOD d   1     -20.784   3.625 -26.399  0.00  0.00    -0.268 OA
ATOM     29  N32 GOD d   1     -19.258   4.642 -27.669  0.00  0.00    -0.361 N 
ATOM     30  H16 GOD d   1     -18.579   5.372 -27.745  0.00  0.00     0.162 HD
BRANCH  29  31
ATOM     31  C33 GOD d   1     -19.409   3.695 -28.761  0.00  0.00    -0.018 C 
ATOM     32  H17 GOD d   1     -18.700   3.945 -29.564  0.00  0.00     0.056 H 
ATOM     33  H18 GOD d   1     -20.437   3.745 -29.150  0.00  0.00     0.056 H 
ATOM     34  H19 GOD d   1     -19.204   2.678 -28.395  0.00  0.00     0.056 H 
ENDBRANCH  29  31
ENDBRANCH  20  27
ENDBRANCH  15  16
ENDBRANCH   2  15
BRANCH   1  35
ATOM     35  C16 GOD d   1     -21.662   6.949 -17.375  0.00  0.00     0.033 C 
ATOM     36  H12 GOD d   1     -22.682   6.577 -17.196  0.00  0.00     0.054 H 
ATOM     37  H13 GOD d   1     -21.710   7.966 -17.791  0.00  0.00     0.054 H 
BRANCH  35  38
ATOM     38  C18 GOD d   1     -20.953   7.024 -16.042  0.00  0.00    -0.049 A 
ATOM     39  C19 GOD d   1     -21.286   6.155 -15.014  0.00  0.00    -0.074 A 
ATOM     40  C20 GOD d   1     -20.606   6.180 -13.809  0.00  0.00    -0.050 A 
ATOM     41  H14 GOD d   1     -22.092   5.444 -15.157  0.00  0.00     0.084 H 
ATOM     42  C21 GOD d   1     -19.575   7.092 -13.619  0.00  0.00     0.078 A 
ATOM     43  H2  GOD d   1     -20.876   5.491 -13.017  0.00  0.00     0.087 H 
ATOM     44  C22 GOD d   1     -19.257   7.991 -14.618  0.00  0.00    -0.050 A 
ATOM     45  C23 GOD d   1     -19.947   7.954 -15.821  0.00  0.00    -0.074 A 
ATOM     46  H3  GOD d   1     -18.472   8.722 -14.463  0.00  0.00     0.087 H 
ATOM     47  H15 GOD d   1     -19.696   8.663 -16.601  0.00  0.00     0.084 H 
BRANCH  42  48
ATOM     48  O24 GOD d   1     -18.860   7.165 -12.409  0.00  0.00    -0.255 OA
BRANCH  48  49
ATOM     49  C25 GOD d   1     -18.171   6.088 -11.994  0.00  0.00     0.530 C 
ATOM     50  F26 GOD d   1     -17.454   6.407 -10.958  0.00  0.00    -0.144 F 
ATOM     51  F27 GOD d   1     -17.341   5.566 -12.848  0.00  0.00    -0.144 F 
ATOM     52  F28 GOD d   1     -18.939   5.117 -11.606  0.00  0.00    -0.144 F 
ENDBRANCH  48  49
ENDBRANCH  42  48
ENDBRANCH  35  38
ENDBRANCH   1  35
TORSDOF 9
