REMARK  4 active torsions:
REMARK  status: ('A' for Active; 'I' for Inactive)
REMARK    1  A    between atoms: C04_5  and  C02_4 
REMARK    2  A    between atoms: C06_6  and  C04_5 
REMARK    3  A    between atoms: C07_7  and  C06_6 
REMARK    4  A    between atoms: C07_7  and  C09_8 
ROOT
ATOM      1  C10 GXG d   1      35.082  76.204  63.536  0.00  0.00     0.133 A 
ATOM      2  C13 GXG d   1      33.046  74.943  63.349  0.00  0.00    -0.077 A 
ATOM      3  C15 GXG d   1      33.203  77.103  62.329  0.00  0.00     0.133 A 
ATOM      4  C09 GXG d   1      34.502  77.236  62.795  0.00  0.00     0.087 A 
ATOM      5  C12 GXG d   1      34.345  75.069  63.810  0.00  0.00    -0.044 A 
ATOM      6  C14 GXG d   1      32.467  75.961  62.612  0.00  0.00    -0.044 A 
ATOM      7  F11 GXG d   1      36.331  76.313  63.996  0.00  0.00    -0.205 F 
ATOM      8  F16 GXG d   1      32.654  78.091  61.610  0.00  0.00    -0.205 F 
ATOM      9  H1  GXG d   1      32.480  74.044  63.566  0.00  0.00     0.083 H 
ATOM     10  H4  GXG d   1      34.788  74.269  64.392  0.00  0.00     0.088 H 
ATOM     11  H5  GXG d   1      31.447  75.867  62.258  0.00  0.00     0.088 H 
ENDROOT
BRANCH   4  12
ATOM     12  C07 GXG d   1      35.304  78.472  62.455  0.00  0.00     0.173 C 
ATOM     13  O08 GXG d   1      35.572  78.724  61.250  0.00  0.00    -0.292 OA
BRANCH  12  14
ATOM     14  C06 GXG d   1      35.755  79.343  63.583  0.00  0.00     0.060 C 
ATOM     15  H2  GXG d   1      34.892  79.945  63.902  0.00  0.00     0.057 H 
ATOM     16  H3  GXG d   1      36.067  78.684  64.407  0.00  0.00     0.057 H 
BRANCH  14  17
ATOM     17  C04 GXG d   1      36.890  80.289  63.305  0.00  0.00     0.232 C 
ATOM     18  O05 GXG d   1      36.923  81.005  62.301  0.00  0.00    -0.285 OA
BRANCH  17  19
ATOM     19  C02 GXG d   1      38.035  80.360  64.272  0.00  0.00     0.247 C 
ATOM     20  O01 GXG d   1      37.888  80.208  65.540  0.00  0.00    -0.642 OA
ATOM     21  O03 GXG d   1      39.156  80.585  63.757  0.00  0.00    -0.642 OA
ENDBRANCH  17  19
ENDBRANCH  14  17
ENDBRANCH  12  14
ENDBRANCH   4  12
TORSDOF 4
