REMARK WARNING: 32 MAX_TORS EXCEEDED!!!
REMARK  46 active torsions:
REMARK  status: ('A' for Active; 'I' for Inactive)
REMARK    1  A    between atoms: N_1  and  CA_2 
REMARK    2  A    between atoms: CA_2  and  C_3 
REMARK    3  A    between atoms: CA_2  and  CB_5 
REMARK       I    between atoms: C_3  and  N_10 
REMARK    4  A    between atoms: CB_5  and  CG_6 
REMARK    5  A    between atoms: CG_6  and  CD_7 
REMARK    6  A    between atoms: N_10  and  CA_11 
REMARK    7  A    between atoms: CA_11  and  C_12 
REMARK    8  A    between atoms: CA_11  and  CB_14 
REMARK       I    between atoms: C_12  and  N_18 
REMARK    9  A    between atoms: CB_14  and  CG_15 
REMARK   10  A    between atoms: CG_15  and  CD1_16 
REMARK   11  A    between atoms: CG_15  and  CD2_17 
REMARK   12  A    between atoms: N_18  and  CA_19 
REMARK   13  A    between atoms: CA_19  and  C_20 
REMARK   14  A    between atoms: CA_19  and  CB_22 
REMARK       I    between atoms: C_20  and  N_23 
REMARK   15  A    between atoms: N_23  and  CA_24 
REMARK   16  A    between atoms: CA_24  and  C_25 
REMARK       I    between atoms: C_25  and  N_27 
REMARK   17  A    between atoms: N_27  and  CA_28 
REMARK   18  A    between atoms: CA_28  and  C_29 
REMARK   19  A    between atoms: CA_28  and  CB_31 
REMARK       I    between atoms: C_29  and  N_35 
REMARK   20  A    between atoms: CB_31  and  CG1_32 
REMARK   21  A    between atoms: CB_31  and  CG2_33 
REMARK   22  A    between atoms: CG1_32  and  CD1_34 
REMARK   23  A    between atoms: N_35  and  CA_36 
REMARK   24  A    between atoms: CA_36  and  C_37 
REMARK       I    between atoms: C_37  and  N_39 
REMARK   25  A    between atoms: N_39  and  CA_40 
REMARK   26  A    between atoms: CA_40  and  C_41 
REMARK   27  A    between atoms: CA_40  and  CB_43 
REMARK       I    between atoms: C_41  and  N_47 
REMARK   28  A    between atoms: CB_43  and  CG1_44 
REMARK   29  A    between atoms: CB_43  and  CG2_45 
REMARK   30  A    between atoms: CG1_44  and  CD1_46 
REMARK   31  A    between atoms: N_47  and  CA_48 
REMARK   32  A    between atoms: CA_48  and  C_49 
REMARK   33  A    between atoms: CA_48  and  CB_51 
REMARK       I    between atoms: C_49  and  N_55 
REMARK   34  A    between atoms: CB_51  and  CG_52 
REMARK   35  A    between atoms: CG_52  and  CD1_53 
REMARK   36  A    between atoms: CG_52  and  CD2_54 
REMARK   37  A    between atoms: N_55  and  CA_56 
REMARK   38  A    between atoms: CA_56  and  C_57 
REMARK   39  A    between atoms: CA_56  and  CB_59 
REMARK       I    between atoms: C_57  and  N_62 
REMARK   40  A    between atoms: CB_59  and  OG1_60 
REMARK   41  A    between atoms: CB_59  and  CG2_61 
REMARK   42  A    between atoms: N_62  and  CA_63 
REMARK   43  A    between atoms: CA_63  and  C_64 
REMARK   44  A    between atoms: CA_63  and  CB_66 
REMARK   45  A    between atoms: CB_66  and  CG1_67 
REMARK   46  A    between atoms: CB_66  and  CG2_68 
ROOT
ATOM      1  C   GLU d   1     -29.460 -13.921   1.011  0.00  0.00     0.241 C 
ATOM      2  O   GLU d   1     -30.067 -13.612  -0.017  0.00  0.00    -0.271 OA
ATOM      3  N   GLU d   1     -29.564 -13.238   2.148  0.00  0.00    -0.351 N 
ATOM      4  H39 GLU d   1     -29.141 -13.600   2.979  0.00  0.00     0.163 HD
ENDROOT
BRANCH   3   5
ATOM      5  CA  GLU d   1     -30.279 -11.978   2.205  0.00  0.00     0.069 C 
ATOM      6  H40 GLU d   1     -30.063 -11.427   1.278  0.00  0.00     0.078 H 
ATOM      7  H41 GLU d   1     -29.895 -11.412   3.066  0.00  0.00     0.078 H 
BRANCH   5   8
ATOM      8  C   GLU d   1     -31.779 -12.072   2.347  0.00  0.00     0.236 C 
ATOM      9  O   GLU d   1     -32.476 -11.095   2.057  0.00  0.00    -0.272 OA
ATOM     10  N   GLU d   1     -32.305 -13.212   2.785  0.00  0.00    -0.346 N 
ATOM     11  H42 GLU d   1     -31.692 -13.977   2.982  0.00  0.00     0.163 HD
BRANCH  10  12
ATOM     12  CA  GLU d   1     -33.737 -13.396   2.990  0.00  0.00     0.092 C 
ATOM     13  H43 GLU d   1     -34.268 -12.504   2.626  0.00  0.00     0.088 H 
BRANCH  12  14
ATOM     14  C   GLU d   1     -33.956 -13.529   4.491  0.00  0.00     0.241 C 
ATOM     15  O   GLU d   1     -33.757 -14.605   5.067  0.00  0.00    -0.271 OA
ATOM     16  N   GLU d   1     -34.373 -12.440   5.132  0.00  0.00    -0.346 N 
ATOM     17  H53 GLU d   1     -34.569 -11.617   4.600  0.00  0.00     0.163 HD
BRANCH  16  18
ATOM     18  CA  GLU d   1     -34.555 -12.397   6.575  0.00  0.00     0.089 C 
ATOM     19  H54 GLU d   1     -34.290 -13.381   6.990  0.00  0.00     0.087 H 
BRANCH  18  20
ATOM     20  C   GLU d   1     -36.009 -12.102   6.910  0.00  0.00     0.241 C 
ATOM     21  O   GLU d   1     -36.672 -11.322   6.217  0.00  0.00    -0.271 OA
ATOM     22  N   GLU d   1     -36.499 -12.729   7.977  0.00  0.00    -0.344 N 
ATOM     23  H64 GLU d   1     -35.923 -13.378   8.474  0.00  0.00     0.163 HD
BRANCH  22  24
ATOM     24  CA  GLU d   1     -37.861 -12.484   8.432  0.00  0.00     0.113 C 
ATOM     25  H65 GLU d   1     -38.550 -12.677   7.596  0.00  0.00     0.091 H 
BRANCH  24  26
ATOM     26  C   GLU d   1     -38.023 -11.034   8.872  0.00  0.00     0.243 C 
ATOM     27  O   GLU d   1     -37.089 -10.405   9.377  0.00  0.00    -0.271 OA
ATOM     28  N   GLU d   1     -39.225 -10.502   8.672  0.00  0.00    -0.344 N 
ATOM     29  H71 GLU d   1     -39.949 -11.069   8.279  0.00  0.00     0.163 HD
BRANCH  28  30
ATOM     30  CA  GLU d   1     -39.516  -9.114   9.010  0.00  0.00     0.099 C 
ATOM     31  H72 GLU d   1     -38.676  -8.495   8.661  0.00  0.00     0.090 H 
BRANCH  30  32
ATOM     32  C   GLU d   1     -39.639  -8.941  10.520  0.00  0.00     0.197 C 
ATOM     33  O   GLU d   1     -39.714  -9.917  11.267  0.00  0.00    -0.646 OA
ATOM     34  OXT GLU d   1     -39.668  -7.819  11.028  0.00  0.00    -0.646 OA
ENDBRANCH  30  32
BRANCH  30  35
ATOM     35  CB  GLU d   1     -40.794  -8.625   8.306  0.00  0.00    -0.032 C 
ATOM     36  H73 GLU d   1     -40.931  -7.559   8.538  0.00  0.00     0.042 H 
BRANCH  35  37
ATOM     37  CG1 GLU d   1     -40.661  -8.772   6.798  0.00  0.00    -0.071 C 
ATOM     38  H74 GLU d   1     -41.582  -8.418   6.312  0.00  0.00     0.028 H 
ATOM     39  H75 GLU d   1     -40.497  -9.830   6.546  0.00  0.00     0.028 H 
ATOM     40  H76 GLU d   1     -39.808  -8.174   6.445  0.00  0.00     0.028 H 
ENDBRANCH  35  37
BRANCH  35  41
ATOM     41  CG2 GLU d   1     -42.006  -9.385   8.818  0.00  0.00    -0.071 C 
ATOM     42  H77 GLU d   1     -42.081  -9.264   9.909  0.00  0.00     0.028 H 
ATOM     43  H78 GLU d   1     -41.900 -10.452   8.574  0.00  0.00     0.028 H 
ATOM     44  H79 GLU d   1     -42.915  -8.989   8.342  0.00  0.00     0.028 H 
ENDBRANCH  35  41
ENDBRANCH  30  35
ENDBRANCH  28  30
ENDBRANCH  24  26
BRANCH  24  45
ATOM     45  CB  GLU d   1     -38.215 -13.425   9.585  0.00  0.00     0.060 C 
ATOM     46  H66 GLU d   1     -39.224 -13.184   9.950  0.00  0.00     0.086 H 
BRANCH  45  47
ATOM     47  OG1 GLU d   1     -37.271 -13.254  10.649  0.00  0.00    -0.393 OA
ATOM     48  H67 GLU d   1     -37.299 -12.355  10.954  0.00  0.00     0.210 HD
ENDBRANCH  45  47
BRANCH  45  49
ATOM     49  CG2 GLU d   1     -38.185 -14.872   9.120  0.00  0.00    -0.050 C 
ATOM     50  H68 GLU d   1     -38.442 -15.533   9.961  0.00  0.00     0.031 H 
ATOM     51  H69 GLU d   1     -37.177 -15.119   8.754  0.00  0.00     0.031 H 
ATOM     52  H70 GLU d   1     -38.914 -15.011   8.308  0.00  0.00     0.031 H 
ENDBRANCH  45  49
ENDBRANCH  24  45
ENDBRANCH  22  24
ENDBRANCH  18  20
BRANCH  18  53
ATOM     53  CB  GLU d   1     -33.648 -11.339   7.212  0.00  0.00    -0.035 C 
ATOM     54  H55 GLU d   1     -34.009 -10.351   6.891  0.00  0.00     0.037 H 
ATOM     55  H56 GLU d   1     -32.629 -11.499   6.831  0.00  0.00     0.037 H 
BRANCH  53  56
ATOM     56  CG  GLU d   1     -33.579 -11.335   8.740  0.00  0.00    -0.059 C 
ATOM     57  H57 GLU d   1     -34.604 -11.254   9.132  0.00  0.00     0.038 H 
BRANCH  56  58
ATOM     58  CD1 GLU d   1     -32.976 -12.635   9.247  0.00  0.00    -0.073 C 
ATOM     59  H58 GLU d   1     -32.934 -12.616  10.346  0.00  0.00     0.028 H 
ATOM     60  H59 GLU d   1     -31.959 -12.750   8.843  0.00  0.00     0.028 H 
ATOM     61  H60 GLU d   1     -33.599 -13.480   8.919  0.00  0.00     0.028 H 
ENDBRANCH  56  58
BRANCH  56  62
ATOM     62  CD2 GLU d   1     -32.785 -10.141   9.237  0.00  0.00    -0.073 C 
ATOM     63  H61 GLU d   1     -33.240  -9.214   8.857  0.00  0.00     0.028 H 
ATOM     64  H62 GLU d   1     -31.748 -10.214   8.877  0.00  0.00     0.028 H 
ATOM     65  H63 GLU d   1     -32.791 -10.129  10.337  0.00  0.00     0.028 H 
ENDBRANCH  56  62
ENDBRANCH  53  56
ENDBRANCH  18  53
ENDBRANCH  16  18
ENDBRANCH  12  14
BRANCH  12  66
ATOM     66  CB  GLU d   1     -34.278 -14.614   2.233  0.00  0.00    -0.030 C 
ATOM     67  H44 GLU d   1     -33.858 -15.521   2.692  0.00  0.00     0.043 H 
BRANCH  66  68
ATOM     68  CG1 GLU d   1     -33.844 -14.573   0.766  0.00  0.00    -0.063 C 
ATOM     69  H45 GLU d   1     -34.218 -15.480   0.269  0.00  0.00     0.033 H 
ATOM     70  H46 GLU d   1     -32.745 -14.562   0.730  0.00  0.00     0.033 H 
BRANCH  68  71
ATOM     71  CD1 GLU d   1     -34.357 -13.370   0.008  0.00  0.00    -0.076 C 
ATOM     72  H50 GLU d   1     -34.003 -13.414  -1.033  0.00  0.00     0.027 H 
ATOM     73  H51 GLU d   1     -33.984 -12.451   0.483  0.00  0.00     0.027 H 
ATOM     74  H52 GLU d   1     -35.457 -13.370   0.022  0.00  0.00     0.027 H 
ENDBRANCH  68  71
ENDBRANCH  66  68
BRANCH  66  75
ATOM     75  CG2 GLU d   1     -35.796 -14.678   2.346  0.00  0.00    -0.071 C 
ATOM     76  H47 GLU d   1     -36.084 -14.707   3.407  0.00  0.00     0.028 H 
ATOM     77  H48 GLU d   1     -36.163 -15.584   1.842  0.00  0.00     0.028 H 
ATOM     78  H49 GLU d   1     -36.237 -13.790   1.870  0.00  0.00     0.028 H 
ENDBRANCH  66  75
ENDBRANCH  12  66
ENDBRANCH  10  12
ENDBRANCH   5   8
ENDBRANCH   3   5
BRANCH   1  79
ATOM     79  CA  GLU d   1     -28.536 -15.131   1.058  0.00  0.00     0.092 C 
ATOM     80  H29 GLU d   1     -28.727 -15.693   1.984  0.00  0.00     0.088 H 
BRANCH  79  81
ATOM     81  N   GLU d   1     -28.840 -15.992  -0.077  0.00  0.00    -0.346 N 
ATOM     82  C   GLU d   1     -28.904 -17.322   0.010  0.00  0.00     0.236 C 
ATOM     83  O   GLU d   1     -28.696 -17.930   1.065  0.00  0.00    -0.272 OA
ATOM     84  H28 GLU d   1     -29.009 -15.565  -0.965  0.00  0.00     0.163 HD
BRANCH  82  85
ATOM     85  CA  GLU d   1     -29.233 -18.089  -1.244  0.00  0.00     0.069 C 
ATOM     86  H26 GLU d   1     -28.389 -18.758  -1.469  0.00  0.00     0.078 H 
ATOM     87  H27 GLU d   1     -30.135 -18.689  -1.053  0.00  0.00     0.078 H 
BRANCH  85  88
ATOM     88  N   GLU d   1     -29.477 -17.265  -2.404  0.00  0.00    -0.351 N 
ATOM     89  C   GLU d   1     -30.687 -16.793  -2.676  0.00  0.00     0.240 C 
ATOM     90  O   GLU d   1     -31.693 -17.102  -2.026  0.00  0.00    -0.271 OA
ATOM     91  H25 GLU d   1     -28.717 -17.045  -3.016  0.00  0.00     0.163 HD
BRANCH  89  92
ATOM     92  CA  GLU d   1     -30.791 -15.836  -3.859  0.00  0.00     0.086 C 
ATOM     93  H21 GLU d   1     -29.800 -15.746  -4.329  0.00  0.00     0.086 H 
BRANCH  92  94
ATOM     94  N   GLU d   1     -31.729 -16.363  -4.841  0.00  0.00    -0.346 N 
ATOM     95  C   GLU d   1     -31.400 -17.333  -5.683  0.00  0.00     0.241 C 
ATOM     96  O   GLU d   1     -30.257 -17.794  -5.758  0.00  0.00    -0.271 OA
ATOM     97  H20 GLU d   1     -32.652 -15.980  -4.881  0.00  0.00     0.163 HD
BRANCH  95  98
ATOM     98  CA  GLU d   1     -32.544 -17.844  -6.552  0.00  0.00     0.089 C 
ATOM     99  H10 GLU d   1     -33.186 -16.994  -6.826  0.00  0.00     0.087 H 
BRANCH  98 100
ATOM    100  N   GLU d   1     -32.037 -18.447  -7.771  0.00  0.00    -0.346 N 
ATOM    101  C   GLU d   1     -31.402 -17.714  -8.682  0.00  0.00     0.249 C 
ATOM    102  O   GLU d   1     -31.199 -16.506  -8.554  0.00  0.00    -0.271 OA
ATOM    103  H9  GLU d   1     -32.167 -19.426  -7.928  0.00  0.00     0.163 HD
BRANCH 101 104
ATOM    104  CA  GLU d   1     -30.929 -18.459  -9.927  0.00  0.00     0.176 C 
ATOM    105  H4  GLU d   1     -31.575 -19.338 -10.072  0.00  0.00     0.099 H 
BRANCH 104 106
ATOM    106  N   GLU d   1     -31.032 -17.614 -11.112  0.00  0.00    -0.066 N 
ATOM    107  H1  GLU d   1     -30.715 -18.127 -11.919  0.00  0.00     0.275 HD
ATOM    108  H2  GLU d   1     -30.460 -16.793 -10.990  0.00  0.00     0.275 HD
ATOM    109  H3  GLU d   1     -31.992 -17.338 -11.246  0.00  0.00     0.275 HD
ENDBRANCH 104 106
BRANCH 104 110
ATOM    110  CB  GLU d   1     -29.491 -18.941  -9.736  0.00  0.00    -0.021 C 
ATOM    111  H5  GLU d   1     -28.878 -18.085  -9.416  0.00  0.00     0.037 H 
ATOM    112  H6  GLU d   1     -29.121 -19.317 -10.701  0.00  0.00     0.037 H 
BRANCH 110 113
ATOM    113  CG  GLU d   1     -29.344 -20.045  -8.705  0.00  0.00     0.018 C 
ATOM    114  H7  GLU d   1     -29.979 -20.892  -9.004  0.00  0.00     0.049 H 
ATOM    115  H8  GLU d   1     -29.679 -19.662  -7.730  0.00  0.00     0.049 H 
BRANCH 113 116
ATOM    116  CD  GLU d   1     -27.918 -20.536  -8.567  0.00  0.00     0.172 C 
ATOM    117  OE1 GLU d   1     -27.020 -19.697  -8.343  0.00  0.00    -0.648 OA
ATOM    118  OE2 GLU d   1     -27.695 -21.760  -8.692  0.00  0.00    -0.648 OA
ENDBRANCH 113 116
ENDBRANCH 110 113
ENDBRANCH 104 110
ENDBRANCH 101 104
ENDBRANCH  98 100
BRANCH  98 119
ATOM    119  CB  GLU d   1     -33.376 -18.848  -5.752  0.00  0.00    -0.035 C 
ATOM    120  H11 GLU d   1     -33.573 -18.396  -4.769  0.00  0.00     0.037 H 
ATOM    121  H12 GLU d   1     -32.761 -19.751  -5.624  0.00  0.00     0.037 H 
BRANCH 119 122
ATOM    122  CG  GLU d   1     -34.720 -19.296  -6.319  0.00  0.00    -0.059 C 
ATOM    123  H13 GLU d   1     -34.559 -19.672  -7.340  0.00  0.00     0.038 H 
BRANCH 122 124
ATOM    124  CD1 GLU d   1     -35.278 -20.420  -5.472  0.00  0.00    -0.073 C 
ATOM    125  H14 GLU d   1     -36.247 -20.742  -5.882  0.00  0.00     0.028 H 
ATOM    126  H15 GLU d   1     -35.416 -20.067  -4.439  0.00  0.00     0.028 H 
ATOM    127  H16 GLU d   1     -34.577 -21.268  -5.479  0.00  0.00     0.028 H 
ENDBRANCH 122 124
BRANCH 122 128
ATOM    128  CD2 GLU d   1     -35.709 -18.140  -6.388  0.00  0.00    -0.073 C 
ATOM    129  H17 GLU d   1     -35.288 -17.334  -7.006  0.00  0.00     0.028 H 
ATOM    130  H18 GLU d   1     -35.902 -17.761  -5.373  0.00  0.00     0.028 H 
ATOM    131  H19 GLU d   1     -36.652 -18.490  -6.834  0.00  0.00     0.028 H 
ENDBRANCH 122 128
ENDBRANCH 119 122
ENDBRANCH  98 119
ENDBRANCH  95  98
ENDBRANCH  92  94
BRANCH  92 132
ATOM    132  CB  GLU d   1     -31.235 -14.452  -3.389  0.00  0.00    -0.049 C 
ATOM    133  H22 GLU d   1     -30.517 -14.068  -2.649  0.00  0.00     0.030 H 
ATOM    134  H23 GLU d   1     -32.232 -14.523  -2.930  0.00  0.00     0.030 H 
ATOM    135  H24 GLU d   1     -31.275 -13.768  -4.250  0.00  0.00     0.030 H 
ENDBRANCH  92 132
ENDBRANCH  89  92
ENDBRANCH  85  88
ENDBRANCH  82  85
ENDBRANCH  79  81
BRANCH  79 136
ATOM    136  CB  GLU d   1     -27.061 -14.664   1.070  0.00  0.00    -0.030 C 
ATOM    137  H30 GLU d   1     -26.898 -14.058   1.974  0.00  0.00     0.043 H 
BRANCH 136 138
ATOM    138  CG1 GLU d   1     -26.773 -13.791  -0.153  0.00  0.00    -0.063 C 
ATOM    139  H31 GLU d   1     -27.452 -12.926  -0.129  0.00  0.00     0.033 H 
ATOM    140  H32 GLU d   1     -26.969 -14.386  -1.057  0.00  0.00     0.033 H 
BRANCH 138 141
ATOM    141  CD1 GLU d   1     -25.353 -13.279  -0.219  0.00  0.00    -0.076 C 
ATOM    142  H36 GLU d   1     -25.227 -12.663  -1.122  0.00  0.00     0.027 H 
ATOM    143  H37 GLU d   1     -24.657 -14.130  -0.256  0.00  0.00     0.027 H 
ATOM    144  H38 GLU d   1     -25.141 -12.671   0.672  0.00  0.00     0.027 H 
ENDBRANCH 138 141
ENDBRANCH 136 138
BRANCH 136 145
ATOM    145  CG2 GLU d   1     -26.112 -15.854   1.119  0.00  0.00    -0.071 C 
ATOM    146  H33 GLU d   1     -26.337 -16.466   2.005  0.00  0.00     0.028 H 
ATOM    147  H34 GLU d   1     -25.074 -15.493   1.177  0.00  0.00     0.028 H 
ATOM    148  H35 GLU d   1     -26.239 -16.462   0.211  0.00  0.00     0.028 H 
ENDBRANCH 136 145
ENDBRANCH  79 136
ENDBRANCH   1  79
TORSDOF 46
