REMARK  4 active torsions:
REMARK  status: ('A' for Active; 'I' for Inactive)
REMARK    1  A    between atoms: C04_5  and  C02_4 
REMARK    2  A    between atoms: C06_6  and  C04_5 
REMARK    3  A    between atoms: C07_7  and  C06_6 
REMARK    4  A    between atoms: C07_7  and  C09_8 
ROOT
ATOM      1  C10 GXD d   1      32.912  76.090  61.560  0.00  0.00     0.049 A 
ATOM      2  C13 GXD d   1      32.641  73.904  62.572  0.00  0.00    -0.080 A 
ATOM      3  C15 GXD d   1      34.639  75.195  62.943  0.00  0.00     0.049 A 
ATOM      4  C09 GXD d   1      34.172  76.247  62.125  0.00  0.00     0.053 A 
ATOM      5  C12 GXD d   1      32.158  74.938  61.774  0.00  0.00    -0.061 A 
ATOM      6  C14 GXD d   1      33.897  74.036  63.153  0.00  0.00    -0.061 A 
ATOM      7 CL1  GXD d   1      32.266  77.317  60.598  0.00  0.00    -0.083 Cl
ATOM      8 CL2  GXD d   1      36.177  75.241  63.637  0.00  0.00    -0.083 Cl
ATOM      9  H1  GXD d   1      32.048  73.012  62.737  0.00  0.00     0.083 H 
ATOM     10  H4  GXD d   1      31.181  74.845  61.313  0.00  0.00     0.086 H 
ATOM     11  H5  GXD d   1      34.298  73.238  63.768  0.00  0.00     0.086 H 
ENDROOT
BRANCH   4  12
ATOM     12  C07 GXD d   1      35.004  77.459  61.830  0.00  0.00     0.170 C 
ATOM     13  O08 GXD d   1      35.268  77.811  60.674  0.00  0.00    -0.292 OA
BRANCH  12  14
ATOM     14  C06 GXD d   1      35.537  78.253  62.988  0.00  0.00     0.060 C 
ATOM     15  H2  GXD d   1      34.683  78.753  63.469  0.00  0.00     0.057 H 
ATOM     16  H3  GXD d   1      35.993  77.544  63.695  0.00  0.00     0.057 H 
BRANCH  14  17
ATOM     17  C04 GXD d   1      36.558  79.302  62.676  0.00  0.00     0.232 C 
ATOM     18  O05 GXD d   1      36.723  79.895  61.608  0.00  0.00    -0.285 OA
BRANCH  17  19
ATOM     19  C02 GXD d   1      37.600  79.501  63.698  0.00  0.00     0.247 C 
ATOM     20  O01 GXD d   1      38.851  79.452  63.179  0.00  0.00    -0.642 OA
ATOM     21  O03 GXD d   1      37.460  78.997  64.834  0.00  0.00    -0.642 OA
ENDBRANCH  17  19
ENDBRANCH  14  17
ENDBRANCH  12  14
ENDBRANCH   4  12
TORSDOF 4
