REMARK  5 active torsions:
REMARK  status: ('A' for Active; 'I' for Inactive)
REMARK    1  A    between atoms: C10_1  and  N11_11 
REMARK    2  A    between atoms: C02_4  and  C03_5 
REMARK    3  A    between atoms: C02_4  and  C09_8 
REMARK    4  A    between atoms: C04_6  and  C05_7 
REMARK    5  A    between atoms: C04_6  and  O08_15 
ROOT
ATOM      1  C10 GXM d   1      33.262  76.590  61.958  0.00  0.00     0.117 A 
ATOM      2  C15 GXM d   1      33.448  74.409  62.952  0.00  0.00    -0.081 A 
ATOM      3  C17 GXM d   1      35.129  76.101  63.364  0.00  0.00    -0.067 A 
ATOM      4  C09 GXM d   1      34.476  77.043  62.569  0.00  0.00     0.047 A 
ATOM      5  C14 GXM d   1      32.762  75.287  62.149  0.00  0.00    -0.050 A 
ATOM      6  C16 GXM d   1      34.629  74.819  63.550  0.00  0.00    -0.082 A 
ATOM      7  H1  GXM d   1      33.070  73.406  63.116  0.00  0.00     0.083 H 
ATOM      8  H2  GXM d   1      36.056  76.379  63.852  0.00  0.00     0.085 H 
ATOM      9  H4  GXM d   1      31.842  74.979  61.665  0.00  0.00     0.087 H 
ATOM     10  H5  GXM d   1      35.175  74.123  64.177  0.00  0.00     0.083 H 
ENDROOT
BRANCH   4  11
ATOM     11  C02 GXM d   1      35.129  78.413  62.395  0.00  0.00     0.187 C 
ATOM     12  O01 GXM d   1      35.115  78.916  61.276  0.00  0.00    -0.287 OA
BRANCH  11  13
ATOM     13  C03 GXM d   1      36.182  78.838  63.292  0.00  0.00     0.005 C 
ATOM     14  C04 GXM d   1      36.834  80.015  63.132  0.00  0.00     0.146 C 
ATOM     15  H3  GXM d   1      36.459  78.191  64.123  0.00  0.00     0.094 H 
BRANCH  14  16
ATOM     16  C05 GXM d   1      38.109  80.225  63.880  0.00  0.00     0.233 C 
ATOM     17  O06 GXM d   1      39.152  80.270  63.027  0.00  0.00    -0.642 OA
ATOM     18  O07 GXM d   1      38.300  79.829  65.031  0.00  0.00    -0.642 OA
ENDBRANCH  14  16
BRANCH  14  19
ATOM     19  O08 GXM d   1      36.673  80.940  62.137  0.00  0.00    -0.355 OA
ATOM     20  H6  GXM d   1      35.854  80.777  61.684  0.00  0.00     0.218 HD
ENDBRANCH  14  19
ENDBRANCH  11  13
ENDBRANCH   4  11
BRANCH   1  21
ATOM     21  N11 GXM d   1      32.512  77.480  61.090  0.00  0.00    -0.115 N 
ATOM     22  O12 GXM d   1      31.502  77.035  60.356  0.00  0.00    -0.532 OA
ATOM     23  O13 GXM d   1      32.638  78.636  61.002  0.00  0.00    -0.532 OA
ENDBRANCH   1  21
TORSDOF 5
