REMARK  5 active torsions:
REMARK  status: ('A' for Active; 'I' for Inactive)
REMARK    1  A    between atoms: OAB_10  and  CAA_1 
REMARK    2  A    between atoms: CAC_2  and  OAB_10 
REMARK    3  A    between atoms: CAF_5  and  OAJ_11 
REMARK    4  A    between atoms: CAH_7  and  NAI_9 
REMARK    5  A    between atoms: OAJ_11  and  CAK_8 
ROOT
ATOM      1  CAC GXY d   1      45.903  20.521  45.270  0.00  0.00     0.095 A 
ATOM      2  CAD GXY d   1      46.722  20.795  44.180  0.00  0.00    -0.029 A 
ATOM      3  CAE GXY d   1      46.195  21.480  43.088  0.00  0.00     0.047 A 
ATOM      4  CAF GXY d   1      44.862  21.880  43.103  0.00  0.00     0.087 A 
ATOM      5  CAG GXY d   1      44.040  21.605  44.191  0.00  0.00    -0.021 A 
ATOM      6  CAH GXY d   1      44.573  20.922  45.275  0.00  0.00     0.062 A 
ATOM      7 BR   GXY d   1      47.277  21.865  41.602  0.00  0.00    -0.048 Br
ATOM      8  H4  GXY d   1      47.759  20.479  44.180  0.00  0.00     0.090 H 
ATOM      9  H5  GXY d   1      43.002  21.918  44.192  0.00  0.00     0.091 H 
ENDROOT
BRANCH   1  10
ATOM     10  OAB GXY d   1      46.346  19.857  46.372  0.00  0.00    -0.354 OA
BRANCH  10  11
ATOM     11  CAA GXY d   1      46.841  20.785  47.344  0.00  0.00     0.010 C 
ATOM     12  H1  GXY d   1      47.195  20.235  48.228  0.00  0.00     0.066 H 
ATOM     13  H2  GXY d   1      46.035  21.473  47.639  0.00  0.00     0.066 H 
ATOM     14  H3  GXY d   1      47.673  21.360  46.912  0.00  0.00     0.066 H 
ENDBRANCH  10  11
ENDBRANCH   1  10
BRANCH   6  15
ATOM     15  NAI GXY d   1      43.857  20.620  46.354  0.00  0.00    -0.397 N 
ATOM     16  H9  GXY d   1      44.294  20.111  47.136  0.00  0.00     0.156 HD
ATOM     17  H10 GXY d   1      42.866  20.895  46.408  0.00  0.00     0.156 HD
ENDBRANCH   6  15
BRANCH   4  18
ATOM     18  OAJ GXY d   1      44.416  22.543  42.001  0.00  0.00    -0.355 OA
BRANCH  18  19
ATOM     19  CAK GXY d   1      44.162  23.919  42.305  0.00  0.00     0.010 C 
ATOM     20  H6  GXY d   1      43.803  24.434  41.402  0.00  0.00     0.066 H 
ATOM     21  H7  GXY d   1      45.090  24.395  42.654  0.00  0.00     0.066 H 
ATOM     22  H8  GXY d   1      43.397  23.985  43.093  0.00  0.00     0.066 H 
ENDBRANCH  18  19
ENDBRANCH   4  18
TORSDOF 5
