REMARK  14 active torsions:
REMARK  status: ('A' for Active; 'I' for Inactive)
REMARK    1  A    between atoms: C09_15  and  C10_3 
REMARK    2  A    between atoms: C10_3  and  O01_16 
REMARK    3  A    between atoms: C02_7  and  C19_25 
REMARK    4  A    between atoms: C07_13  and  C08_14 
REMARK    5  A    between atoms: C08_14  and  C09_15 
REMARK    6  A    between atoms: O01_16  and  C26_34 
REMARK    7  A    between atoms: C34_44  and  N01_18 
REMARK    8  A    between atoms: N03_21  and  C16_22 
REMARK    9  A    between atoms: C17_23  and  C18_24 
REMARK   10  A    between atoms: C20_26  and  C21_27 
REMARK   11  A    between atoms: C23_31  and  C24_32 
REMARK   12  A    between atoms: C28_36  and  C29_37 
REMARK   13  A    between atoms: C31_39  and  C32_40 
REMARK   14  A    between atoms: N05_47  and  C37_48 
ROOT
ATOM      1  C14 6AK d   1    -199.638  -4.395  23.189  0.00  0.00     0.002 C 
ATOM      2  C11 6AK d   1    -198.508  -3.895  25.372  0.00  0.00     0.111 C 
ATOM      3  C12 6AK d   1    -197.680  -2.840  24.810  0.00  0.00     0.275 C 
ATOM      4  C13 6AK d   1    -199.792  -2.027  23.684  0.00  0.00     0.005 C 
ATOM      5  C01 6AK d   1    -200.298  -5.276  25.468  0.00  0.00     0.059 A 
ATOM      6  C02 6AK d   1    -201.515  -5.991  25.272  0.00  0.00     0.028 A 
ATOM      7  C03 6AK d   1    -202.071  -6.596  26.408  0.00  0.00     0.047 A 
ATOM      8 CL   6AK d   1    -203.535  -7.465  26.231  0.00  0.00    -0.083 Cl
ATOM      9  C04 6AK d   1    -201.501  -6.537  27.680  0.00  0.00    -0.060 A 
ATOM     10  C05 6AK d   1    -200.313  -5.830  27.846  0.00  0.00    -0.069 A 
ATOM     11  C06 6AK d   1    -199.706  -5.200  26.742  0.00  0.00     0.001 A 
ATOM     12  C07 6AK d   1    -198.515  -4.433  26.651  0.00  0.00    -0.013 C 
ATOM     13  O02 6AK d   1    -196.476  -2.763  25.056  0.00  0.00    -0.265 OA
ATOM     14  N01 6AK d   1    -198.368  -1.932  23.973  0.00  0.00    -0.312 N 
ATOM     15  N02 6AK d   1    -199.459  -4.564  24.634  0.00  0.00    -0.340 N 
ATOM     16  C15 6AK d   1    -200.206  -3.088  22.690  0.00  0.00    -0.034 C 
ATOM     17  H1  6AK d   1    -200.311  -5.195  22.848  0.00  0.00     0.065 H 
ATOM     18  H2  6AK d   1    -198.651  -4.522  22.721  0.00  0.00     0.065 H 
ATOM     19  H5  6AK d   1    -200.119  -1.054  23.290  0.00  0.00     0.065 H 
ATOM     20  H6  6AK d   1    -200.313  -2.234  24.631  0.00  0.00     0.065 H 
ATOM     21  H7  6AK d   1    -201.973  -7.031  28.521  0.00  0.00     0.086 H 
ATOM     22  H8  6AK d   1    -199.855  -5.764  28.826  0.00  0.00     0.085 H 
ATOM     23  H13 6AK d   1    -201.303  -3.148  22.634  0.00  0.00     0.037 H 
ATOM     24  H14 6AK d   1    -199.801  -2.854  21.695  0.00  0.00     0.037 H 
ENDROOT
BRANCH  12  25
ATOM     25  C08 6AK d   1    -197.760  -3.938  27.850  0.00  0.00    -0.036 C 
ATOM     26  H9  6AK d   1    -198.480  -3.639  28.627  0.00  0.00     0.040 H 
ATOM     27  H10 6AK d   1    -197.155  -3.067  27.556  0.00  0.00     0.040 H 
BRANCH  25  28
ATOM     28  C09 6AK d   1    -196.839  -5.012  28.416  0.00  0.00    -0.041 C 
ATOM     29  H11 6AK d   1    -196.686  -5.783  27.646  0.00  0.00     0.036 H 
ATOM     30  H12 6AK d   1    -195.874  -4.548  28.668  0.00  0.00     0.036 H 
BRANCH  28  31
ATOM     31  C10 6AK d   1    -197.395  -5.679  29.664  0.00  0.00     0.026 C 
ATOM     32  H3  6AK d   1    -198.494  -5.716  29.632  0.00  0.00     0.075 H 
ATOM     33  H4  6AK d   1    -197.072  -5.146  30.570  0.00  0.00     0.075 H 
BRANCH  31  34
ATOM     34  O01 6AK d   1    -196.845  -6.981  29.623  0.00  0.00    -0.351 OA
BRANCH  34  35
ATOM     35  C26 6AK d   1    -197.114  -7.914  30.575  0.00  0.00     0.069 A 
ATOM     36  C25 6AK d   1    -197.486  -7.589  31.878  0.00  0.00    -0.043 A 
ATOM     37  C23 6AK d   1    -197.752  -8.587  32.832  0.00  0.00    -0.037 A 
ATOM     38  H27 6AK d   1    -197.572  -6.546  32.162  0.00  0.00     0.088 H 
ATOM     39  C22 6AK d   1    -197.639  -9.932  32.439  0.00  0.00     0.046 A 
ATOM     40 CL2  6AK d   1    -197.966 -11.171  33.599  0.00  0.00    -0.083 Cl
ATOM     41  C28 6AK d   1    -197.268 -10.292  31.127  0.00  0.00    -0.037 A 
ATOM     42  C27 6AK d   1    -197.010  -9.261  30.195  0.00  0.00    -0.043 A 
ATOM     43  H28 6AK d   1    -196.730  -9.513  29.179  0.00  0.00     0.088 H 
BRANCH  37  44
ATOM     44  C24 6AK d   1    -198.148  -8.222  34.238  0.00  0.00    -0.050 C 
ATOM     45  H24 6AK d   1    -198.178  -7.127  34.338  0.00  0.00     0.033 H 
ATOM     46  H25 6AK d   1    -197.413  -8.634  34.945  0.00  0.00     0.033 H 
ATOM     47  H26 6AK d   1    -199.142  -8.638  34.459  0.00  0.00     0.033 H 
ENDBRANCH  37  44
BRANCH  41  48
ATOM     48  C29 6AK d   1    -197.152 -11.743  30.729  0.00  0.00    -0.050 C 
ATOM     49  H29 6AK d   1    -197.392 -12.380  31.593  0.00  0.00     0.033 H 
ATOM     50  H30 6AK d   1    -196.125 -11.950  30.395  0.00  0.00     0.033 H 
ATOM     51  H31 6AK d   1    -197.855 -11.956  29.910  0.00  0.00     0.033 H 
ENDBRANCH  41  48
ENDBRANCH  34  35
ENDBRANCH  31  34
ENDBRANCH  28  31
ENDBRANCH  25  28
ENDBRANCH  12  25
BRANCH  14  52
ATOM     52  C34 6AK d   1    -197.694  -0.845  23.343  0.00  0.00     0.051 A 
ATOM     53  C33 6AK d   1    -196.651  -1.229  22.459  0.00  0.00    -0.040 A 
ATOM     54  C31 6AK d   1    -195.896  -0.308  21.762  0.00  0.00     0.045 A 
ATOM     55  H33 6AK d   1    -196.440  -2.284  22.327  0.00  0.00     0.088 H 
ATOM     56  C30 6AK d   1    -196.155   1.060  21.910  0.00  0.00    -0.040 A 
ATOM     57  C36 6AK d   1    -197.195   1.459  22.780  0.00  0.00     0.047 A 
ATOM     58  H32 6AK d   1    -195.571   1.796  21.370  0.00  0.00     0.088 H 
ATOM     59  C35 6AK d   1    -197.976   0.547  23.505  0.00  0.00     0.019 A 
ATOM     60  N05 6AK d   1    -197.642   2.729  23.102  0.00  0.00    -0.360 N 
ATOM     61  C39 6AK d   1    -198.899   1.349  24.257  0.00  0.00    -0.054 A 
ATOM     62  C38 6AK d   1    -198.675   2.685  23.993  0.00  0.00    -0.019 A 
ATOM     63  H38 6AK d   1    -199.660   0.962  24.933  0.00  0.00     0.087 H 
ATOM     64  H37 6AK d   1    -199.214   3.534  24.412  0.00  0.00     0.111 H 
BRANCH  54  65
ATOM     65  C32 6AK d   1    -194.824  -0.779  20.864  0.00  0.00     0.209 C 
ATOM     66  O03 6AK d   1    -194.606  -1.937  20.543  0.00  0.00    -0.644 OA
ATOM     67  O04 6AK d   1    -194.080   0.244  20.417  0.00  0.00    -0.644 OA
ENDBRANCH  54  65
BRANCH  60  68
ATOM     68  C37 6AK d   1    -197.069   3.929  22.544  0.00  0.00    -0.014 C 
ATOM     69  H34 6AK d   1    -197.591   4.808  22.951  0.00  0.00     0.057 H 
ATOM     70  H35 6AK d   1    -197.177   3.912  21.450  0.00  0.00     0.057 H 
ATOM     71  H36 6AK d   1    -196.002   3.982  22.806  0.00  0.00     0.057 H 
ENDBRANCH  60  68
ENDBRANCH  14  52
BRANCH   6  72
ATOM     72  C19 6AK d   1    -202.223  -6.141  24.016  0.00  0.00     0.028 A 
ATOM     73  C17 6AK d   1    -203.109  -5.150  23.605  0.00  0.00     0.039 A 
ATOM     74  N03 6AK d   1    -203.599  -5.579  22.408  0.00  0.00    -0.278 N 
ATOM     75  N04 6AK d   1    -203.097  -6.770  22.014  0.00  0.00    -0.177 NA
ATOM     76  C20 6AK d   1    -202.247  -7.125  22.996  0.00  0.00     0.064 A 
BRANCH  73  77
ATOM     77  C18 6AK d   1    -203.544  -3.860  24.203  0.00  0.00    -0.035 C 
ATOM     78  H18 6AK d   1    -203.029  -3.709  25.163  0.00  0.00     0.035 H 
ATOM     79  H19 6AK d   1    -204.631  -3.881  24.369  0.00  0.00     0.035 H 
ATOM     80  H20 6AK d   1    -203.294  -3.036  23.519  0.00  0.00     0.035 H 
ENDBRANCH  73  77
BRANCH  74  81
ATOM     81  C16 6AK d   1    -204.562  -4.880  21.587  0.00  0.00     0.003 C 
ATOM     82  H15 6AK d   1    -204.767  -5.468  20.680  0.00  0.00     0.059 H 
ATOM     83  H16 6AK d   1    -204.157  -3.898  21.303  0.00  0.00     0.059 H 
ATOM     84  H17 6AK d   1    -205.495  -4.742  22.153  0.00  0.00     0.059 H 
ENDBRANCH  74  81
BRANCH  76  85
ATOM     85  C21 6AK d   1    -201.495  -8.401  22.911  0.00  0.00    -0.033 C 
ATOM     86  H21 6AK d   1    -201.758  -8.920  21.977  0.00  0.00     0.035 H 
ATOM     87  H22 6AK d   1    -201.754  -9.037  23.770  0.00  0.00     0.035 H 
ATOM     88  H23 6AK d   1    -200.415  -8.192  22.922  0.00  0.00     0.035 H 
ENDBRANCH  76  85
ENDBRANCH   6  72
TORSDOF 14
