REMARK  14 active torsions:
REMARK  status: ('A' for Active; 'I' for Inactive)
REMARK    1  A    between atoms: CA_2  and  CB_5 
REMARK    2  A    between atoms: CB_5  and  CG_6 
REMARK    3  A    between atoms: CA_16  and  CB_19 
REMARK    4  A    between atoms: CB_19  and  CG_20 
REMARK    5  A    between atoms: CA_24  and  CB_27 
REMARK    6  A    between atoms: CB_27  and  CG1_28 
REMARK    7  A    between atoms: CB_27  and  CG2_29 
REMARK    8  A    between atoms: CG1_28  and  CD1_30 
REMARK    9  A    between atoms: CA_32  and  CB_35 
REMARK   10  A    between atoms: CB_35  and  CG_36 
REMARK       I    between atoms: CG_36  and  ND2_38 
REMARK   11  A    between atoms: CA_40  and  CB_43 
REMARK   12  A    between atoms: CB_43  and  CG_44 
REMARK       I    between atoms: CG_44  and  ND2_46 
REMARK   13  A    between atoms: CA_48  and  CB_51 
REMARK   14  A    between atoms: CB_51  and  CG_52 
REMARK       I    between atoms: CG_52  and  ND2_54 
ROOT
ATOM      1  N   TRP d   1       5.064  95.350 146.617  0.00  0.00    -0.079 NA
ATOM      2  CA  TRP d   1       3.659  95.414 146.188  0.00  0.00     0.252 A 
ATOM      3  C   TRP d   1       3.438  96.114 144.843  0.00  0.00     0.273 C 
ATOM      4  O   TRP d   1       2.368  96.700 144.628  0.00  0.00    -0.268 OA
ATOM      5  N   TRP d   1       4.406  95.993 143.907  0.00  0.00    -0.343 N 
ATOM      6  CA  TRP d   1       4.265  96.582 142.590  0.00  0.00     0.098 C 
ATOM      7  C   TRP d   1       3.219  95.785 141.737  0.00  0.00     0.241 C 
ATOM      8  O   TRP d   1       2.631  94.793 142.201  0.00  0.00    -0.271 OA
ATOM      9  N   TRP d   1       2.939  96.267 140.532  0.00  0.00    -0.346 N 
ATOM     10  CA  TRP d   1       1.948  95.656 139.634  0.00  0.00     0.092 C 
ATOM     11  C   TRP d   1       2.168  94.100 139.438  0.00  0.00     0.241 C 
ATOM     12  O   TRP d   1       1.196  93.357 139.293  0.00  0.00    -0.271 OA
ATOM     13  N   TRP d   1       3.438  93.627 139.492  0.00  0.00    -0.346 N 
ATOM     14  CA  TRP d   1       3.804  92.223 139.283  0.00  0.00     0.097 C 
ATOM     15  C   TRP d   1       4.101  91.455 140.558  0.00  0.00     0.241 C 
ATOM     16  O   TRP d   1       4.777  90.411 140.507  0.00  0.00    -0.271 OA
ATOM     17  N   TRP d   1       3.554  91.937 141.708  0.00  0.00    -0.346 N 
ATOM     18  CA  TRP d   1       3.712  91.283 143.011  0.00  0.00     0.097 C 
ATOM     19  C   TRP d   1       5.202  91.170 143.423  0.00  0.00     0.241 C 
ATOM     20  O   TRP d   1       5.662  90.129 143.909  0.00  0.00    -0.271 OA
ATOM     21  N   TRP d   1       5.955  92.257 143.209  0.00  0.00    -0.346 N 
ATOM     22  CA  TRP d   1       7.375  92.285 143.548  0.00  0.00     0.097 C 
ATOM     23  C   TRP d   1       7.647  93.539 144.350  0.00  0.00     0.240 C 
ATOM     24  O   TRP d   1       7.112  94.588 143.985  0.00  0.00    -0.271 OA
ATOM     25  N   TRP d   1       8.262  93.637 145.577  0.00  0.00    -0.359 N 
ATOM     26  CB  TRP d   1       8.183  94.781 146.548  0.00  0.00     0.003 C 
ATOM     27  CA  TRP d   1       7.151  94.575 147.656  0.00  0.00     0.021 C 
ATOM     28  C   TRP d   1       5.767  94.290 147.120  0.00  0.00     0.228 C 
ATOM     29  O   TRP d   1       5.307  93.144 147.121  0.00  0.00    -0.277 OA
ATOM     30  OXT TRP d   1       5.060  95.196 146.667  0.00  0.00    -0.252 OA
ATOM     31  H9  TRP d   1       5.239  95.485 144.128  0.00  0.00     0.163 HD
ATOM     32  H10 TRP d   1       3.841  97.587 142.732  0.00  0.00     0.088 H 
ATOM     33  H13 TRP d   1       3.425  97.084 140.221  0.00  0.00     0.163 HD
ATOM     34  H14 TRP d   1       0.959  95.775 140.100  0.00  0.00     0.088 H 
ATOM     35  H24 TRP d   1       4.172  94.278 139.687  0.00  0.00     0.163 HD
ATOM     36  H25 TRP d   1       2.932  91.735 138.823  0.00  0.00     0.088 H 
ATOM     37  H30 TRP d   1       3.017  92.780 141.662  0.00  0.00     0.163 HD
ATOM     38  H31 TRP d   1       3.215  91.913 143.763  0.00  0.00     0.088 H 
ATOM     39  H36 TRP d   1       5.534  93.070 142.807  0.00  0.00     0.163 HD
ATOM     40  H37 TRP d   1       7.633  91.397 144.143  0.00  0.00     0.088 H 
ATOM     41  H42 TRP d   1       8.825  92.859 145.854  0.00  0.00     0.162 HD
ATOM     42  H43 TRP d   1       7.918  95.692 145.991  0.00  0.00     0.064 H 
ATOM     43  H44 TRP d   1       9.171  94.911 147.013  0.00  0.00     0.064 H 
ATOM     44  H45 TRP d   1       7.109  95.486 148.271  0.00  0.00     0.049 H 
ATOM     45  H46 TRP d   1       7.469  93.726 148.279  0.00  0.00     0.049 H 
ENDROOT
BRANCH   2  46
ATOM     46  CB  TRP d   1       2.757  96.030 147.265  0.00  0.00     0.016 C 
ATOM     47  H1  TRP d   1       2.785  95.380 148.152  0.00  0.00     0.047 H 
ATOM     48  H2  TRP d   1       1.730  96.072 146.873  0.00  0.00     0.047 H 
BRANCH  46  49
ATOM     49  CG  TRP d   1       3.156  97.409 147.682  0.00  0.00    -0.025 A 
ATOM     50  CD1 TRP d   1       2.688  98.595 147.186  0.00  0.00    -0.015 A 
ATOM     51  NE1 TRP d   1       3.269  99.645 147.854  0.00  0.00    -0.365 N 
ATOM     52  H3  TRP d   1       1.962  98.692 146.380  0.00  0.00     0.112 H 
ATOM     53  CE2 TRP d   1       4.164  99.149 148.772  0.00  0.00     0.042 A 
ATOM     54  H4  TRP d   1       3.067 100.642 147.693  0.00  0.00     0.165 HD
ATOM     55  CD2 TRP d   1       4.094  97.741 148.710  0.00  0.00    -0.002 A 
ATOM     56  CZ2 TRP d   1       5.001  99.814 149.674  0.00  0.00    -0.056 A 
ATOM     57  CE3 TRP d   1       4.904  96.976 149.575  0.00  0.00    -0.070 A 
ATOM     58  CZ3 TRP d   1       5.713  97.635 150.489  0.00  0.00    -0.082 A 
ATOM     59  H5  TRP d   1       4.894  95.893 149.526  0.00  0.00     0.084 H 
ATOM     60  CH2 TRP d   1       5.763  99.035 150.527  0.00  0.00    -0.081 A 
ATOM     61  H7  TRP d   1       6.315  97.059 151.183  0.00  0.00     0.083 H 
ATOM     62  H8  TRP d   1       6.416  99.520 151.243  0.00  0.00     0.083 H 
ATOM     63  H6  TRP d   1       5.051 100.897 149.704  0.00  0.00     0.086 H 
ENDBRANCH  46  49
ENDBRANCH   2  46
BRANCH   6  64
ATOM     64  CB  TRP d   1       5.657  96.793 141.911  0.00  0.00     0.043 C 
ATOM     65  H11 TRP d   1       6.355  97.101 142.703  0.00  0.00     0.052 H 
ATOM     66  H12 TRP d   1       5.538  97.613 141.188  0.00  0.00     0.052 H 
BRANCH  64  67
ATOM     67  CG  TRP d   1       6.321  95.631 141.160  0.00  0.00     0.175 A 
ATOM     68  OD1 TRP d   1       5.888  94.474 141.335  0.00  0.00    -0.648 OA
ATOM     69  OD2 TRP d   1       7.271  95.887 140.407  0.00  0.00    -0.648 OA
ENDBRANCH  64  67
ENDBRANCH   6  64
BRANCH  10  70
ATOM     70  CB  TRP d   1       1.935  96.463 138.297  0.00  0.00    -0.030 C 
ATOM     71  H15 TRP d   1       1.800  97.520 138.568  0.00  0.00     0.043 H 
BRANCH  70  72
ATOM     72  CG1 TRP d   1       0.745  96.079 137.408  0.00  0.00    -0.063 C 
ATOM     73  H16 TRP d   1      -0.160  96.070 138.034  0.00  0.00     0.033 H 
ATOM     74  H17 TRP d   1       0.927  95.069 137.011  0.00  0.00     0.033 H 
BRANCH  72  75
ATOM     75  CD1 TRP d   1       0.497  97.010 136.234  0.00  0.00    -0.076 A 
ATOM     76  H21 TRP d   1      -0.371  96.653 135.660  0.00  0.00     0.027 H 
ATOM     77  H22 TRP d   1       1.385  97.025 135.584  0.00  0.00     0.027 H 
ATOM     78  H23 TRP d   1       0.298  98.025 136.607  0.00  0.00     0.027 H 
ENDBRANCH  72  75
ENDBRANCH  70  72
BRANCH  70  79
ATOM     79  CG2 TRP d   1       3.289  96.367 137.532  0.00  0.00    -0.071 C 
ATOM     80  H18 TRP d   1       4.111  96.650 138.205  0.00  0.00     0.028 H 
ATOM     81  H19 TRP d   1       3.271  97.048 136.668  0.00  0.00     0.028 H 
ATOM     82  H20 TRP d   1       3.440  95.335 137.182  0.00  0.00     0.028 H 
ENDBRANCH  70  79
ENDBRANCH  10  70
BRANCH  22  83
ATOM     83  CB  TRP d   1       8.215  92.309 142.274  0.00  0.00     0.036 C 
ATOM     84  H38 TRP d   1       9.272  92.403 142.563  0.00  0.00     0.051 H 
ATOM     85  H39 TRP d   1       7.917  93.188 141.684  0.00  0.00     0.051 H 
BRANCH  83  86
ATOM     86  CG  TRP d   1       8.075  91.096 141.407  0.00  0.00     0.217 A 
ATOM     87  OD1 TRP d   1       8.317  89.962 141.841  0.00  0.00    -0.274 OA
ATOM     88  ND2 TRP d   1       7.837  91.328 140.124  0.00  0.00    -0.370 N 
ATOM     89  H40 TRP d   1       7.732  90.563 139.488  0.00  0.00     0.159 HD
ATOM     90  H41 TRP d   1       7.762  92.268 139.791  0.00  0.00     0.159 HD
ENDBRANCH  83  86
ENDBRANCH  22  83
BRANCH  14  91
ATOM     91  CB  TRP d   1       4.963  92.121 138.280  0.00  0.00     0.036 C 
ATOM     92  H26 TRP d   1       5.413  91.120 138.354  0.00  0.00     0.051 H 
ATOM     93  H27 TRP d   1       5.718  92.882 138.527  0.00  0.00     0.051 H 
BRANCH  91  94
ATOM     94  CG  TRP d   1       4.486  92.343 136.858  0.00  0.00     0.217 A 
ATOM     95  OD1 TRP d   1       3.431  91.828 136.455  0.00  0.00    -0.274 OA
ATOM     96  ND2 TRP d   1       5.267  93.070 136.047  0.00  0.00    -0.370 N 
ATOM     97  H28 TRP d   1       4.987  93.239 135.102  0.00  0.00     0.159 HD
ATOM     98  H29 TRP d   1       6.130  93.444 136.387  0.00  0.00     0.159 HD
ENDBRANCH  91  94
ENDBRANCH  14  91
BRANCH  18  99
ATOM     99  CB  TRP d   1       3.001  89.929 143.003  0.00  0.00     0.036 C 
ATOM    100  H32 TRP d   1       3.603  89.232 142.401  0.00  0.00     0.051 H 
ATOM    101  H33 TRP d   1       2.016  90.064 142.532  0.00  0.00     0.051 H 
BRANCH  99 102
ATOM    102  CG  TRP d   1       2.789  89.312 144.359  0.00  0.00     0.217 A 
ATOM    103  OD1 TRP d   1       2.331  89.947 145.314  0.00  0.00    -0.274 OA
ATOM    104  ND2 TRP d   1       3.072  88.023 144.456  0.00  0.00    -0.370 N 
ATOM    105  H34 TRP d   1       2.954  87.549 145.329  0.00  0.00     0.159 HD
ATOM    106  H35 TRP d   1       3.404  87.522 143.656  0.00  0.00     0.159 HD
ENDBRANCH  99 102
ENDBRANCH  18  99
TORSDOF 14
