REMARK  10 active torsions:
REMARK  status: ('A' for Active; 'I' for Inactive)
REMARK    1  A    between atoms: CA_2  and  CB_5 
REMARK    2  A    between atoms: CB_5  and  CG1_6 
REMARK    3  A    between atoms: CB_5  and  CG2_7 
REMARK    4  A    between atoms: CG1_6  and  CD1_8 
REMARK    5  A    between atoms: CA_10  and  CB_13 
REMARK    6  A    between atoms: CB_13  and  CG_14 
REMARK       I    between atoms: CG_14  and  ND2_16 
REMARK    7  A    between atoms: CA_18  and  CB_21 
REMARK    8  A    between atoms: CB_21  and  CG_22 
REMARK       I    between atoms: CG_22  and  ND2_24 
REMARK    9  A    between atoms: CA_26  and  CB_29 
REMARK   10  A    between atoms: CB_29  and  CG_30 
REMARK       I    between atoms: CG_30  and  ND2_32 
ROOT
ATOM      1  N   ILE d   1      13.609  10.111  10.051  0.00  0.00    -0.347 N 
ATOM      2  CA  ILE d   1      14.124   9.552   8.811  0.00  0.00     0.092 C 
ATOM      3  C   ILE d   1      13.005   9.559   7.758  0.00  0.00     0.241 C 
ATOM      4  O   ILE d   1      11.852   9.877   8.067  0.00  0.00    -0.271 OA
ATOM      5  N   ILE d   1      13.365   9.160   6.530  0.00  0.00    -0.346 N 
ATOM      6  CA  ILE d   1      12.393   9.112   5.413  0.00  0.00     0.097 C 
ATOM      7  C   ILE d   1      11.752  10.477   5.146  0.00  0.00     0.241 C 
ATOM      8  O   ILE d   1      10.631  10.546   4.618  0.00  0.00    -0.271 OA
ATOM      9  N   ILE d   1      12.487  11.583   5.493  0.00  0.00    -0.346 N 
ATOM     10  CA  ILE d   1      12.038  12.940   5.230  0.00  0.00     0.097 C 
ATOM     11  C   ILE d   1      10.738  13.245   5.986  0.00  0.00     0.241 C 
ATOM     12  O   ILE d   1       9.972  14.116   5.561  0.00  0.00    -0.271 OA
ATOM     13  N   ILE d   1      10.521  12.557   7.122  0.00  0.00    -0.346 N 
ATOM     14  CA  ILE d   1       9.320  12.747   7.948  0.00  0.00     0.097 C 
ATOM     15  C   ILE d   1       9.637  13.328   9.347  0.00  0.00     0.240 C 
ATOM     16  O   ILE d   1       8.693  13.594  10.078  0.00  0.00    -0.271 OA
ATOM     17  N   ILE d   1      10.931  13.431   9.687  0.00  0.00    -0.359 N 
ATOM     18  CA  ILE d   1      11.244  13.845  11.117  0.00  0.00    -0.004 C 
ATOM     19  CB  ILE d   1      12.626  13.423  11.549  0.00  0.00    -0.042 C 
ATOM     20  CG  ILE d   1      12.878  11.921  11.470  0.00  0.00     0.011 C 
ATOM     21  CD  ILE d   1      13.313  11.433  10.106  0.00  0.00     0.218 C 
ATOM     22  OE1 ILE d   1      13.415  12.205   9.144  0.00  0.00    -0.274 OA
ATOM     23  H1  ILE d   1      13.475   9.528  10.852  0.00  0.00     0.163 HD
ATOM     24  H2  ILE d   1      14.939  10.201   8.457  0.00  0.00     0.088 H 
ATOM     25  H12 ILE d   1      14.313   8.888   6.364  0.00  0.00     0.163 HD
ATOM     26  H13 ILE d   1      12.957   8.839   4.509  0.00  0.00     0.088 H 
ATOM     27  H18 ILE d   1      13.368  11.450   5.946  0.00  0.00     0.163 HD
ATOM     28  H19 ILE d   1      12.811  13.625   5.608  0.00  0.00     0.088 H 
ATOM     29  H24 ILE d   1      11.205  11.889   7.416  0.00  0.00     0.163 HD
ATOM     30  H25 ILE d   1       8.656  13.450   7.423  0.00  0.00     0.088 H 
ATOM     31  H30 ILE d   1      11.659  13.243   9.028  0.00  0.00     0.162 HD
ATOM     32  H31 ILE d   1      10.507  13.380  11.789  0.00  0.00     0.064 H 
ATOM     33  H32 ILE d   1      11.170  14.940  11.192  0.00  0.00     0.064 H 
ATOM     34  H33 ILE d   1      12.774  13.742  12.591  0.00  0.00     0.036 H 
ATOM     35  H34 ILE d   1      13.358  13.929  10.903  0.00  0.00     0.036 H 
ATOM     36  H35 ILE d   1      11.947  11.401  11.741  0.00  0.00     0.047 H 
ATOM     37  H36 ILE d   1      13.665  11.665  12.194  0.00  0.00     0.047 H 
ENDROOT
BRANCH   2  38
ATOM     38  CB  ILE d   1      14.706   8.118   8.993  0.00  0.00    -0.030 C 
ATOM     39  H3  ILE d   1      15.096   7.795   8.017  0.00  0.00     0.043 H 
BRANCH  38  40
ATOM     40  CG1 ILE d   1      13.593   7.105   9.399  0.00  0.00    -0.063 C 
ATOM     41  H4  ILE d   1      12.720   7.272   8.751  0.00  0.00     0.033 H 
ATOM     42  H5  ILE d   1      13.315   7.298  10.446  0.00  0.00     0.033 H 
BRANCH  40  43
ATOM     43  CD1 ILE d   1      14.023   5.594   9.271  0.00  0.00    -0.076 C 
ATOM     44  H9  ILE d   1      13.186   4.948   9.575  0.00  0.00     0.027 H 
ATOM     45  H10 ILE d   1      14.889   5.403   9.922  0.00  0.00     0.027 H 
ATOM     46  H11 ILE d   1      14.294   5.377   8.227  0.00  0.00     0.027 H 
ENDBRANCH  40  43
ENDBRANCH  38  40
BRANCH  38  47
ATOM     47  CG2 ILE d   1      15.906   8.126   9.985  0.00  0.00    -0.071 C 
ATOM     48  H6  ILE d   1      16.656   8.857   9.648  0.00  0.00     0.028 H 
ATOM     49  H7  ILE d   1      16.360   7.125  10.020  0.00  0.00     0.028 H 
ATOM     50  H8  ILE d   1      15.550   8.402  10.989  0.00  0.00     0.028 H 
ENDBRANCH  38  47
ENDBRANCH   2  38
BRANCH   6  51
ATOM     51  CB  ILE d   1      11.315   8.006   5.631  0.00  0.00     0.036 C 
ATOM     52  H14 ILE d   1      10.459   8.202   4.969  0.00  0.00     0.051 H 
ATOM     53  H15 ILE d   1      10.981   8.029   6.679  0.00  0.00     0.051 H 
BRANCH  51  54
ATOM     54  CG  ILE d   1      11.876   6.646   5.322  0.00  0.00     0.217 C 
ATOM     55  OD1 ILE d   1      12.598   6.476   4.330  0.00  0.00    -0.274 OA
ATOM     56  ND2 ILE d   1      11.521   5.653   6.143  0.00  0.00    -0.370 N 
ATOM     57  H16 ILE d   1      11.864   4.727   5.986  0.00  0.00     0.159 HD
ATOM     58  H17 ILE d   1      10.912   5.836   6.915  0.00  0.00     0.159 HD
ENDBRANCH  51  54
ENDBRANCH   6  51
BRANCH  10  59
ATOM     59  CB  ILE d   1      11.885  13.201   3.718  0.00  0.00     0.036 C 
ATOM     60  H20 ILE d   1      10.920  12.787   3.391  0.00  0.00     0.051 H 
ATOM     61  H21 ILE d   1      12.702  12.684   3.193  0.00  0.00     0.051 H 
BRANCH  59  62
ATOM     62  CG  ILE d   1      11.927  14.673   3.337  0.00  0.00     0.217 C 
ATOM     63  OD1 ILE d   1      12.592  15.511   3.976  0.00  0.00    -0.274 OA
ATOM     64  ND2 ILE d   1      11.172  15.037   2.317  0.00  0.00    -0.370 N 
ATOM     65  H22 ILE d   1      11.159  15.992   2.021  0.00  0.00     0.159 HD
ATOM     66  H23 ILE d   1      10.614  14.358   1.841  0.00  0.00     0.159 HD
ENDBRANCH  59  62
ENDBRANCH  10  59
BRANCH  14  67
ATOM     67  CB  ILE d   1       8.583  11.417   8.138  0.00  0.00     0.036 C 
ATOM     68  H26 ILE d   1       7.709  11.586   8.784  0.00  0.00     0.051 H 
ATOM     69  H27 ILE d   1       9.264  10.702   8.623  0.00  0.00     0.051 H 
BRANCH  67  70
ATOM     70  CG  ILE d   1       8.114  10.830   6.832  0.00  0.00     0.217 C 
ATOM     71  OD1 ILE d   1       7.536  11.536   6.003  0.00  0.00    -0.274 OA
ATOM     72  ND2 ILE d   1       8.370   9.531   6.642  0.00  0.00    -0.370 N 
ATOM     73  H28 ILE d   1       8.084   9.084   5.795  0.00  0.00     0.159 HD
ATOM     74  H29 ILE d   1       8.848   9.007   7.347  0.00  0.00     0.159 HD
ENDBRANCH  67  70
ENDBRANCH  14  67
TORSDOF 10
