REMARK  21 active torsions:
REMARK  status: ('A' for Active; 'I' for Inactive)
REMARK    1  A    between atoms: C1_1  and  C_3 
REMARK    2  A    between atoms: C10_5  and  C11_6 
REMARK    3  A    between atoms: C9_46  and  C10_5 
REMARK       I    between atoms: C11_6  and  N3_49 
REMARK    4  A    between atoms: C12_7  and  C13_8 
REMARK    5  A    between atoms: N3_49  and  C12_7 
REMARK    6  A    between atoms: C13_8  and  O1_56 
REMARK    7  A    between atoms: C14_9  and  C15_10 
REMARK    8  A    between atoms: O1_56  and  C14_9 
REMARK    9  A    between atoms: C15_10  and  O2_57 
REMARK   10  A    between atoms: C16_11  and  C17_12 
REMARK   11  A    between atoms: O2_57  and  C16_11 
REMARK   12  A    between atoms: C17_12  and  N4_50 
REMARK   13  A    between atoms: C18_13  and  C19_14 
REMARK       I    between atoms: N4_50  and  C18_13 
REMARK   14  A    between atoms: C19_14  and  C20_16 
REMARK   15  A    between atoms: C2_15  and  C3_26 
REMARK   16  A    between atoms: C21_17  and  C31_28 
REMARK   17  A    between atoms: C24_20  and  C25_21 
REMARK   18  A    between atoms: C26_22  and  C27_23 
REMARK   19  A    between atoms: C28_24  and  C29_25 
REMARK   20  A    between atoms: C37_34  and  C38_35 
REMARK   21  A    between atoms: C6_43  and  C7_44 
ROOT
ATOM      1  C14 H1V d   1     -25.845   9.252  -3.588  0.00  0.00     0.039 C 
ATOM      2  H10 H1V d   1     -24.928   9.679  -3.156  0.00  0.00     0.077 H 
ATOM      3  H11 H1V d   1     -26.361   8.647  -2.828  0.00  0.00     0.077 H 
ENDROOT
BRANCH   1   4
ATOM      4  C15 H1V d   1     -25.482   8.370  -4.777  0.00  0.00     0.039 C 
ATOM      5  H12 H1V d   1     -26.398   8.093  -5.319  0.00  0.00     0.077 H 
ATOM      6  H13 H1V d   1     -24.980   7.460  -4.416  0.00  0.00     0.077 H 
BRANCH   4   7
ATOM      7  O2  H1V d   1     -24.609   9.073  -5.656  0.00  0.00    -0.387 OA
BRANCH   7   8
ATOM      8  C16 H1V d   1     -24.242   8.269  -6.775  0.00  0.00     0.034 C 
ATOM      9  H14 H1V d   1     -24.001   7.253  -6.429  0.00  0.00     0.076 H 
ATOM     10  H15 H1V d   1     -25.082   8.226  -7.483  0.00  0.00     0.076 H 
BRANCH   8  11
ATOM     11  C17 H1V d   1     -23.025   8.866  -7.472  0.00  0.00     0.015 C 
ATOM     12  H16 H1V d   1     -23.226   9.925  -7.691  0.00  0.00     0.067 H 
ATOM     13  H17 H1V d   1     -22.854   8.323  -8.413  0.00  0.00     0.067 H 
BRANCH  11  14
ATOM     14  N4  H1V d   1     -21.827   8.777  -6.656  0.00  0.00    -0.359 N 
ATOM     15  C18 H1V d   1     -20.909   9.740  -6.676  0.00  0.00     0.220 C 
ATOM     16  O3  H1V d   1     -21.088  10.807  -7.238  0.00  0.00    -0.274 OA
ATOM     17  H46 H1V d   1     -21.690   7.979  -6.069  0.00  0.00     0.162 HD
BRANCH  15  18
ATOM     18  C19 H1V d   1     -19.606   9.461  -5.964  0.00  0.00     0.036 C 
ATOM     19  H18 H1V d   1     -19.396   8.382  -5.992  0.00  0.00     0.051 H 
ATOM     20  H19 H1V d   1     -19.680   9.793  -4.918  0.00  0.00     0.051 H 
BRANCH  18  21
ATOM     21  C20 H1V d   1     -18.480  10.217  -6.659  0.00  0.00     0.100 C 
ATOM     22  C30 H1V d   1     -17.188   9.977  -5.987  0.00  0.00     0.161 A 
ATOM     23  N6  H1V d   1     -16.030  10.541  -6.308  0.00  0.00    -0.275 N 
ATOM     24  N8  H1V d   1     -16.905   9.133  -4.977  0.00  0.00    -0.132 NA
ATOM     25  C23 H1V d   1     -16.007  11.447  -7.304  0.00  0.00     0.097 A 
ATOM     26  C28 H1V d   1     -14.994  10.148  -5.561  0.00  0.00     0.131 A 
ATOM     27  C22 H1V d   1     -16.770  11.275  -8.568  0.00  0.00     0.035 A 
ATOM     28  S1  H1V d   1     -15.179  12.970  -7.291  0.00  0.00    -0.075 SA
ATOM     29  C21 H1V d   1     -17.579  10.062  -8.849  0.00  0.00     0.075 C 
ATOM     30  C26 H1V d   1     -16.598  12.446  -9.501  0.00  0.00    -0.034 A 
ATOM     31  N5  H1V d   1     -18.351   9.594  -7.969  0.00  0.00    -0.275 NA
ATOM     32  C24 H1V d   1     -15.706  13.471  -8.868  0.00  0.00    -0.012 A 
ATOM     33  N7  H1V d   1     -15.525   9.246  -4.706  0.00  0.00    -0.135 NA
ATOM     34  H20 H1V d   1     -18.702  11.292  -6.725  0.00  0.00     0.089 H 
BRANCH  29  35
ATOM     35  C31 H1V d   1     -17.442   9.382 -10.177  0.00  0.00    -0.007 A 
ATOM     36  C32 H1V d   1     -18.509   8.715 -10.768  0.00  0.00    -0.069 A 
ATOM     37  C33 H1V d   1     -18.330   8.080 -11.999  0.00  0.00    -0.061 A 
ATOM     38  H33 H1V d   1     -19.475   8.688 -10.276  0.00  0.00     0.085 H 
ATOM     39  C34 H1V d   1     -17.092   8.112 -12.632  0.00  0.00     0.034 A 
ATOM     40  H34 H1V d   1     -19.160   7.560 -12.463  0.00  0.00     0.086 H 
ATOM     41  C35 H1V d   1     -16.030   8.775 -12.038  0.00  0.00    -0.061 A 
ATOM     42 CL   H1V d   1     -16.852   7.306 -14.216  0.00  0.00    -0.084 Cl
ATOM     43  C36 H1V d   1     -16.205   9.400 -10.812  0.00  0.00    -0.069 A 
ATOM     44  H35 H1V d   1     -15.065   8.805 -12.530  0.00  0.00     0.086 H 
ATOM     45  H36 H1V d   1     -15.369   9.908 -10.344  0.00  0.00     0.085 H 
ENDBRANCH  29  35
BRANCH  30  46
ATOM     46  C27 H1V d   1     -17.207  12.610 -10.867  0.00  0.00    -0.049 C 
ATOM     47  H24 H1V d   1     -17.818  11.727 -11.104  0.00  0.00     0.033 H 
ATOM     48  H25 H1V d   1     -16.407  12.714 -11.615  0.00  0.00     0.033 H 
ATOM     49  H26 H1V d   1     -17.841  13.509 -10.880  0.00  0.00     0.033 H 
ENDBRANCH  30  46
BRANCH  32  50
ATOM     50  C25 H1V d   1     -15.197  14.812  -9.326  0.00  0.00    -0.045 C 
ATOM     51  H21 H1V d   1     -14.556  15.247  -8.545  0.00  0.00     0.034 H 
ATOM     52  H22 H1V d   1     -16.049  15.482  -9.517  0.00  0.00     0.034 H 
ATOM     53  H23 H1V d   1     -14.614  14.687 -10.251  0.00  0.00     0.034 H 
ENDBRANCH  32  50
BRANCH  26  54
ATOM     54  C29 H1V d   1     -13.549  10.569  -5.623  0.00  0.00    -0.019 C 
ATOM     55  H27 H1V d   1     -12.978  10.035  -4.849  0.00  0.00     0.037 H 
ATOM     56  H28 H1V d   1     -13.475  11.653  -5.450  0.00  0.00     0.037 H 
ATOM     57  H29 H1V d   1     -13.139  10.327  -6.614  0.00  0.00     0.037 H 
ENDBRANCH  26  54
ENDBRANCH  18  21
ENDBRANCH  15  18
ENDBRANCH  11  14
ENDBRANCH   8  11
ENDBRANCH   7   8
ENDBRANCH   4   7
ENDBRANCH   1   4
BRANCH   1  58
ATOM     58  O1  H1V d   1     -26.704  10.309  -4.018  0.00  0.00    -0.387 OA
BRANCH  58  59
ATOM     59  C13 H1V d   1     -27.628  10.701  -3.002  0.00  0.00     0.034 C 
ATOM     60  H8  H1V d   1     -28.318   9.869  -2.800  0.00  0.00     0.076 H 
ATOM     61  H9  H1V d   1     -27.074  10.949  -2.085  0.00  0.00     0.076 H 
BRANCH  59  62
ATOM     62  C12 H1V d   1     -28.429  11.921  -3.450  0.00  0.00     0.015 C 
ATOM     63  H6  H1V d   1     -27.765  12.579  -4.030  0.00  0.00     0.067 H 
ATOM     64  H7  H1V d   1     -28.781  12.454  -2.554  0.00  0.00     0.067 H 
BRANCH  62  65
ATOM     65  N3  H1V d   1     -29.581  11.592  -4.271  0.00  0.00    -0.359 N 
ATOM     66  C11 H1V d   1     -30.629  10.972  -3.734  0.00  0.00     0.220 C 
ATOM     67  O   H1V d   1     -30.758  10.831  -2.528  0.00  0.00    -0.274 OA
ATOM     68  H45 H1V d   1     -29.587  11.832  -5.242  0.00  0.00     0.162 HD
BRANCH  66  69
ATOM     69  C10 H1V d   1     -31.679  10.419  -4.671  0.00  0.00     0.036 C 
ATOM     70  H4  H1V d   1     -32.082   9.487  -4.247  0.00  0.00     0.051 H 
ATOM     71  H5  H1V d   1     -31.214  10.208  -5.645  0.00  0.00     0.051 H 
BRANCH  69  72
ATOM     72  C9  H1V d   1     -32.822  11.410  -4.870  0.00  0.00     0.100 C 
ATOM     73  C8  H1V d   1     -34.087  10.663  -5.028  0.00  0.00     0.161 A 
ATOM     74  N   H1V d   1     -35.266  11.184  -5.340  0.00  0.00    -0.275 N 
ATOM     75  N2  H1V d   1     -34.315   9.343  -4.853  0.00  0.00    -0.132 NA
ATOM     76  C5  H1V d   1     -35.330  12.503  -5.579  0.00  0.00     0.097 A 
ATOM     77  C6  H1V d   1     -36.261  10.294  -5.413  0.00  0.00     0.131 A 
ATOM     78  C4  H1V d   1     -34.608  13.504  -4.753  0.00  0.00     0.035 A 
ATOM     79  S   H1V d   1     -36.154  13.269  -6.892  0.00  0.00    -0.075 SA
ATOM     80  C2  H1V d   1     -34.811  14.913  -5.258  0.00  0.00    -0.034 A 
ATOM     81  C37 H1V d   1     -33.807  13.112  -3.557  0.00  0.00     0.075 C 
ATOM     82  C1  H1V d   1     -35.683  14.889  -6.477  0.00  0.00    -0.012 A 
ATOM     83  N9  H1V d   1     -32.995  12.148  -3.629  0.00  0.00    -0.275 NA
ATOM     84  N1  H1V d   1     -35.685   9.111  -5.102  0.00  0.00    -0.135 NA
ATOM     85  H44 H1V d   1     -32.628  12.075  -5.725  0.00  0.00     0.089 H 
BRANCH  80  86
ATOM     86  C3  H1V d   1     -34.248  16.178  -4.670  0.00  0.00    -0.049 C 
ATOM     87  H30 H1V d   1     -34.579  17.040  -5.268  0.00  0.00     0.033 H 
ATOM     88  H31 H1V d   1     -33.149  16.128  -4.676  0.00  0.00     0.033 H 
ATOM     89  H32 H1V d   1     -34.604  16.291  -3.635  0.00  0.00     0.033 H 
ENDBRANCH  80  86
BRANCH  82  90
ATOM     90  C   H1V d   1     -36.209  15.968  -7.387  0.00  0.00    -0.045 C 
ATOM     91  H1  H1V d   1     -36.824  15.513  -8.177  0.00  0.00     0.034 H 
ATOM     92  H2  H1V d   1     -35.365  16.506  -7.843  0.00  0.00     0.034 H 
ATOM     93  H3  H1V d   1     -36.822  16.672  -6.805  0.00  0.00     0.034 H 
ENDBRANCH  82  90
BRANCH  81  94
ATOM     94  C38 H1V d   1     -33.992  13.824  -2.249  0.00  0.00    -0.007 A 
ATOM     95  C39 H1V d   1     -32.959  13.875  -1.323  0.00  0.00    -0.069 A 
ATOM     96  C40 H1V d   1     -33.148  14.526  -0.109  0.00  0.00    -0.061 A 
ATOM     97  H37 H1V d   1     -32.007  13.408  -1.546  0.00  0.00     0.085 H 
ATOM     98  C41 H1V d   1     -34.371  15.118   0.181  0.00  0.00     0.034 A 
ATOM     99  H38 H1V d   1     -32.340  14.572   0.612  0.00  0.00     0.086 H 
ATOM    100  C42 H1V d   1     -35.409  15.063  -0.740  0.00  0.00    -0.061 A 
ATOM    101 CL1  H1V d   1     -34.602  15.954   1.751  0.00  0.00    -0.084 Cl
ATOM    102  C43 H1V d   1     -35.218  14.411  -1.952  0.00  0.00    -0.069 A 
ATOM    103  H39 H1V d   1     -36.363  15.526  -0.515  0.00  0.00     0.086 H 
ATOM    104  H40 H1V d   1     -36.029  14.359  -2.670  0.00  0.00     0.085 H 
ENDBRANCH  81  94
BRANCH  77 105
ATOM    105  C7  H1V d   1     -37.714  10.504  -5.746  0.00  0.00    -0.019 C 
ATOM    106  H41 H1V d   1     -38.241   9.539  -5.711  0.00  0.00     0.037 H 
ATOM    107  H42 H1V d   1     -37.801  10.932  -6.755  0.00  0.00     0.037 H 
ATOM    108  H43 H1V d   1     -38.162  11.194  -5.015  0.00  0.00     0.037 H 
ENDBRANCH  77 105
ENDBRANCH  69  72
ENDBRANCH  66  69
ENDBRANCH  62  65
ENDBRANCH  59  62
ENDBRANCH  58  59
ENDBRANCH   1  58
TORSDOF 21
