REMARK  6 active torsions:
REMARK  status: ('A' for Active; 'I' for Inactive)
REMARK    1  A    between atoms: C08_9  and  C10_1 
REMARK    2  A    between atoms: C10_1  and  C11_10 
REMARK    3  A    between atoms: C11_10  and  C13_2 
REMARK    4  A    between atoms: C02_4  and  C01_3 
REMARK    5  A    between atoms: C07_8  and  C08_9 
REMARK    6  A    between atoms: C11_10  and  O12_15 
ROOT
ATOM      1  C02 GZV d   1      32.416  77.125  62.427  0.00  0.00    -0.022 A 
ATOM      2  C03 GZV d   1      32.752  76.065  63.252  0.00  0.00    -0.071 A 
ATOM      3  C04 GZV d   1      33.954  76.078  63.941  0.00  0.00    -0.044 A 
ATOM      4  C05 GZV d   1      34.813  77.162  63.812  0.00  0.00     0.133 A 
ATOM      5  C07 GZV d   1      34.478  78.237  62.995  0.00  0.00     0.087 A 
ATOM      6  C16 GZV d   1      33.274  78.211  62.303  0.00  0.00     0.139 A 
ATOM      7  F06 GZV d   1      35.973  77.167  64.482  0.00  0.00    -0.205 F 
ATOM      8  F17 GZV d   1      32.948  79.239  61.517  0.00  0.00    -0.204 F 
ATOM      9  H6  GZV d   1      32.075  75.225  63.359  0.00  0.00     0.084 H 
ATOM     10  H7  GZV d   1      34.223  75.244  64.579  0.00  0.00     0.088 H 
ENDROOT
BRANCH   5  11
ATOM     11  C08 GZV d   1      35.410  79.419  62.799  0.00  0.00     0.168 C 
ATOM     12  O09 GZV d   1      35.719  79.744  61.632  0.00  0.00    -0.292 OA
BRANCH  11  13
ATOM     13  C10 GZV d   1      35.992  80.190  63.939  0.00  0.00     0.028 C 
ATOM     14  H1  GZV d   1      36.397  79.445  64.640  0.00  0.00     0.049 H 
ATOM     15  H2  GZV d   1      35.153  80.721  64.413  0.00  0.00     0.049 H 
BRANCH  13  16
ATOM     16  C11 GZV d   1      36.969  81.111  63.757  0.00  0.00     0.125 C 
ATOM     17  H8  GZV d   1      36.437  81.903  64.304  0.00  0.00     0.100 H 
BRANCH  16  18
ATOM     18  C13 GZV d   1      38.161  81.089  64.670  0.00  0.00     0.203 C 
ATOM     19  O14 GZV d   1      39.312  81.236  64.176  0.00  0.00    -0.646 OA
ATOM     20  O15 GZV d   1      37.989  80.934  65.926  0.00  0.00    -0.646 OA
ENDBRANCH  16  18
BRANCH  16  21
ATOM     21  O12 GZV d   1      37.090  81.854  62.576  0.00  0.00    -0.384 OA
ATOM     22  H9  GZV d   1      37.805  81.507  62.056  0.00  0.00     0.210 HD
ENDBRANCH  16  21
ENDBRANCH  13  16
ENDBRANCH  11  13
ENDBRANCH   5  11
BRANCH   1  23
ATOM     23  C01 GZV d   1      31.112  77.123  61.664  0.00  0.00    -0.048 C 
ATOM     24  H3  GZV d   1      30.563  76.194  61.879  0.00  0.00     0.033 H 
ATOM     25  H4  GZV d   1      31.318  77.186  60.585  0.00  0.00     0.033 H 
ATOM     26  H5  GZV d   1      30.505  77.987  61.973  0.00  0.00     0.033 H 
ENDBRANCH   1  23
TORSDOF 6
