REMARK WARNING: 32 MAX_TORS EXCEEDED!!!
REMARK  36 active torsions:
REMARK  status: ('A' for Active; 'I' for Inactive)
REMARK    1  A    between atoms: N_1  and  CA_2 
REMARK    2  A    between atoms: N_1  and  CN_5 
REMARK    3  A    between atoms: CA_2  and  C_3 
REMARK       I    between atoms: C_3  and  N_6 
REMARK    4  A    between atoms: N_6  and  CA_7 
REMARK    5  A    between atoms: CA_7  and  C_8 
REMARK    6  A    between atoms: CA_7  and  CB_10 
REMARK       I    between atoms: C_8  and  N_17 
REMARK    7  A    between atoms: CB_10  and  CG_11 
REMARK    8  A    between atoms: CG_11  and  CD_12 
REMARK    9  A    between atoms: CD_12  and  NE_13 
REMARK       I    between atoms: NE_13  and  CZ_14 
REMARK       I    between atoms: CZ_14  and  NH1_15 
REMARK       I    between atoms: CZ_14  and  NH2_16 
REMARK   10  A    between atoms: N_17  and  CA_18 
REMARK   11  A    between atoms: CA_18  and  C_19 
REMARK   12  A    between atoms: CA_18  and  CB_21 
REMARK       I    between atoms: C_19  and  N_24 
REMARK   13  A    between atoms: CB_21  and  CG1_22 
REMARK   14  A    between atoms: CB_21  and  CG2_23 
REMARK   15  A    between atoms: N_24  and  CA_25 
REMARK   16  A    between atoms: CA_25  and  C_26 
REMARK   17  A    between atoms: CA_25  and  CB_28 
REMARK       I    between atoms: C_26  and  N_36 
REMARK   18  A    between atoms: CB_28  and  CG_29 
REMARK   19  A    between atoms: CZ_34  and  OH_35 
REMARK   20  A    between atoms: N_36  and  CA_37 
REMARK   21  A    between atoms: CA_37  and  C_38 
REMARK   22  A    between atoms: CA_37  and  CB_40 
REMARK       I    between atoms: C_38  and  N_44 
REMARK   23  A    between atoms: CB_40  and  CG1_41 
REMARK   24  A    between atoms: CB_40  and  CG2_42 
REMARK   25  A    between atoms: CG1_41  and  CD1_43 
REMARK   26  A    between atoms: N_44  and  CA_45 
REMARK   27  A    between atoms: CA_45  and  C_46 
REMARK   28  A    between atoms: CA_45  and  CB_48 
REMARK       I    between atoms: C_46  and  N_54 
REMARK   29  A    between atoms: CB_48  and  CG_49 
REMARK   30  A    between atoms: CA_55  and  C_56 
REMARK       I    between atoms: C_56  and  N_61 
REMARK   31  A    between atoms: N_61  and  CA_62 
REMARK   32  A    between atoms: CA_62  and  C_63 
REMARK   33  A    between atoms: CA_62  and  CB_65 
REMARK   34  A    between atoms: CB_65  and  CG1_66 
REMARK   35  A    between atoms: CB_65  and  CG2_67 
REMARK   36  A    between atoms: CG1_66  and  CD1_68 
ROOT
ATOM      1  C   SAR d   1      22.584  42.433  11.874  0.00  0.00     0.241 C 
ATOM      2  O   SAR d   1      22.021  43.117  11.020  0.00  0.00    -0.271 OA
ATOM      3  N   SAR d   1      22.050  42.212  13.081  0.00  0.00    -0.346 N 
ATOM      4  H39 SAR d   1      22.590  41.737  13.776  0.00  0.00     0.163 HD
ENDROOT
BRANCH   1   5
ATOM      5  CA  SAR d   1      23.951  41.808  11.619  0.00  0.00     0.093 C 
ATOM      6  H31 SAR d   1      24.492  41.739  12.575  0.00  0.00     0.088 H 
BRANCH   5   7
ATOM      7  N   SAR d   1      23.757  40.460  11.081  0.00  0.00    -0.346 N 
ATOM      8  C   SAR d   1      23.670  39.367  11.839  0.00  0.00     0.241 C 
ATOM      9  O   SAR d   1      23.689  39.398  13.076  0.00  0.00    -0.271 OA
ATOM     10  H30 SAR d   1      23.686  40.353  10.089  0.00  0.00     0.163 HD
BRANCH   8  11
ATOM     11  CA  SAR d   1      23.536  38.044  11.094  0.00  0.00     0.092 C 
ATOM     12  H22 SAR d   1      23.331  38.257  10.034  0.00  0.00     0.088 H 
BRANCH  11  13
ATOM     13  N   SAR d   1      24.804  37.328  11.187  0.00  0.00    -0.346 N 
ATOM     14  C   SAR d   1      25.595  37.131  10.137  0.00  0.00     0.241 C 
ATOM     15  O   SAR d   1      25.352  37.594   9.023  0.00  0.00    -0.271 OA
ATOM     16  H21 SAR d   1      25.089  36.971  12.076  0.00  0.00     0.163 HD
BRANCH  14  17
ATOM     17  CA  SAR d   1      26.842  36.284  10.369  0.00  0.00     0.089 C 
ATOM     18  H9  SAR d   1      26.775  35.826  11.367  0.00  0.00     0.087 H 
BRANCH  17  19
ATOM     19  N   SAR d   1      26.906  35.225   9.369  0.00  0.00    -0.346 N 
ATOM     20  C   SAR d   1      26.455  33.997   9.600  0.00  0.00     0.244 C 
ATOM     21  O   SAR d   1      26.028  33.610  10.727  0.00  0.00    -0.272 OA
ATOM     22  H8  SAR d   1      27.305  35.431   8.475  0.00  0.00     0.163 HD
BRANCH  20  23
ATOM     23  CA  SAR d   1      26.482  33.021   8.396  0.00  0.00     0.153 C 
ATOM     24  H3  SAR d   1      26.508  33.627   7.479  0.00  0.00     0.090 H 
ATOM     25  H4  SAR d   1      27.406  32.429   8.470  0.00  0.00     0.090 H 
BRANCH  23  26
ATOM     26  N   SAR d   1      25.374  32.090   8.274  0.00  0.00    -0.071 N 
ATOM     27  H1  SAR d   1      24.664  32.511   7.695  0.00  0.00     0.277 HD
ATOM     28  H2  SAR d   1      24.999  31.916   9.193  0.00  0.00     0.277 HD
BRANCH  26  29
ATOM     29  CN  SAR d   1      25.756  30.827   7.687  0.00  0.00     0.065 C 
ATOM     30  H5  SAR d   1      24.875  30.171   7.623  0.00  0.00     0.067 H 
ATOM     31  H6  SAR d   1      26.524  30.349   8.312  0.00  0.00     0.067 H 
ATOM     32  H7  SAR d   1      26.159  30.999   6.678  0.00  0.00     0.067 H 
ENDBRANCH  26  29
ENDBRANCH  23  26
ENDBRANCH  20  23
ENDBRANCH  17  19
BRANCH  17  33
ATOM     33  CB  SAR d   1      28.107  37.143  10.313  0.00  0.00    -0.036 C 
ATOM     34  H10 SAR d   1      28.299  37.398   9.260  0.00  0.00     0.036 H 
ATOM     35  H11 SAR d   1      28.943  36.544  10.704  0.00  0.00     0.036 H 
BRANCH  33  36
ATOM     36  CG  SAR d   1      28.044  38.437  11.106  0.00  0.00    -0.048 C 
ATOM     37  H12 SAR d   1      27.026  38.848  11.033  0.00  0.00     0.035 H 
ATOM     38  H13 SAR d   1      28.760  39.152  10.675  0.00  0.00     0.035 H 
BRANCH  36  39
ATOM     39  CD  SAR d   1      28.383  38.229  12.573  0.00  0.00     0.009 C 
ATOM     40  H14 SAR d   1      29.000  37.324  12.671  0.00  0.00     0.064 H 
ATOM     41  H15 SAR d   1      27.449  38.099  13.139  0.00  0.00     0.064 H 
BRANCH  39  42
ATOM     42  NE  SAR d   1      29.118  39.364  13.127  0.00  0.00    -0.227 N 
ATOM     43  CZ  SAR d   1      28.566  40.528  13.459  0.00  0.00     0.665 C 
ATOM     44  NH1 SAR d   1      29.318  41.502  13.952  0.00  0.00    -0.235 N 
ATOM     45  NH2 SAR d   1      27.264  40.723  13.297  0.00  0.00    -0.235 N 
ATOM     46  H17 SAR d   1      28.890  42.403  14.209  0.00  0.00     0.174 HD
ATOM     47  H18 SAR d   1      30.330  41.358  14.078  0.00  0.00     0.174 HD
ATOM     48  H19 SAR d   1      26.674  39.970  12.914  0.00  0.00     0.174 HD
ATOM     49  H20 SAR d   1      26.843  41.627  13.554  0.00  0.00     0.174 HD
ATOM     50  H16 SAR d   1      30.132  39.255  13.270  0.00  0.00     0.177 HD
ENDBRANCH  39  42
ENDBRANCH  36  39
ENDBRANCH  33  36
ENDBRANCH  17  33
ENDBRANCH  14  17
ENDBRANCH  11  13
BRANCH  11  51
ATOM     51  CB  SAR d   1      22.372  37.208  11.644  0.00  0.00    -0.033 C 
ATOM     52  H23 SAR d   1      22.543  37.028  12.716  0.00  0.00     0.042 H 
BRANCH  51  53
ATOM     53  CG1 SAR d   1      21.065  37.957  11.481  0.00  0.00    -0.071 C 
ATOM     54  H24 SAR d   1      20.241  37.347  11.879  0.00  0.00     0.028 H 
ATOM     55  H25 SAR d   1      20.889  38.160  10.414  0.00  0.00     0.028 H 
ATOM     56  H26 SAR d   1      21.116  38.908  12.032  0.00  0.00     0.028 H 
ENDBRANCH  51  53
BRANCH  51  57
ATOM     57  CG2 SAR d   1      22.305  35.866  10.929  0.00  0.00    -0.071 C 
ATOM     58  H27 SAR d   1      23.260  35.335  11.056  0.00  0.00     0.028 H 
ATOM     59  H28 SAR d   1      22.117  36.030   9.858  0.00  0.00     0.028 H 
ATOM     60  H29 SAR d   1      21.490  35.263  11.356  0.00  0.00     0.028 H 
ENDBRANCH  51  57
ENDBRANCH  11  51
ENDBRANCH   8  11
ENDBRANCH   5   7
BRANCH   5  61
ATOM     61  CB  SAR d   1      24.783  42.642  10.654  0.00  0.00    -0.014 C 
ATOM     62  H32 SAR d   1      24.168  42.845   9.765  0.00  0.00     0.043 H 
ATOM     63  H33 SAR d   1      25.662  42.048  10.364  0.00  0.00     0.043 H 
BRANCH  61  64
ATOM     64  CG  SAR d   1      25.275  43.969  11.192  0.00  0.00    -0.056 A 
ATOM     65  CD1 SAR d   1      24.486  45.109  11.104  0.00  0.00    -0.074 A 
ATOM     66  CE1 SAR d   1      24.930  46.326  11.585  0.00  0.00    -0.051 A 
ATOM     67  H34 SAR d   1      23.504  45.043  10.650  0.00  0.00     0.084 H 
ATOM     68  CZ  SAR d   1      26.177  46.417  12.163  0.00  0.00     0.065 A 
ATOM     69  H36 SAR d   1      24.300  47.205  11.508  0.00  0.00     0.087 H 
ATOM     70  CE2 SAR d   1      26.984  45.301  12.261  0.00  0.00    -0.051 A 
ATOM     71  CD2 SAR d   1      26.531  44.086  11.775  0.00  0.00    -0.074 A 
ATOM     72  H37 SAR d   1      27.965  45.375  12.715  0.00  0.00     0.087 H 
ATOM     73  H35 SAR d   1      27.167  43.211  11.851  0.00  0.00     0.084 H 
BRANCH  68  74
ATOM     74  OH  SAR d   1      26.614  47.631  12.642  0.00  0.00    -0.361 OA
ATOM     75  H38 SAR d   1      25.943  48.288  12.497  0.00  0.00     0.217 HD
ENDBRANCH  68  74
ENDBRANCH  61  64
ENDBRANCH   5  61
ENDBRANCH   1   5
BRANCH   3  76
ATOM     76  CA  SAR d   1      20.692  42.651  13.404  0.00  0.00     0.092 C 
ATOM     77  H40 SAR d   1      20.078  42.514  12.502  0.00  0.00     0.088 H 
BRANCH  76  78
ATOM     78  C   SAR d   1      20.615  44.113  13.808  0.00  0.00     0.241 C 
ATOM     79  O   SAR d   1      19.517  44.603  14.107  0.00  0.00    -0.271 OA
ATOM     80  N   SAR d   1      21.732  44.828  13.813  0.00  0.00    -0.346 N 
ATOM     81  H50 SAR d   1      22.580  44.417  13.479  0.00  0.00     0.163 HD
BRANCH  80  82
ATOM     82  CA  SAR d   1      21.743  46.197  14.296  0.00  0.00     0.095 C 
ATOM     83  H51 SAR d   1      21.110  46.255  15.193  0.00  0.00     0.088 H 
BRANCH  82  84
ATOM     84  C   SAR d   1      21.185  47.154  13.244  0.00  0.00     0.243 C 
ATOM     85  O   SAR d   1      21.302  46.898  12.043  0.00  0.00    -0.271 OA
ATOM     86  N   SAR d   1      20.557  48.254  13.678  0.00  0.00    -0.337 N 
ATOM     87  CA  SAR d   1      19.988  49.211  12.708  0.00  0.00     0.091 C 
ATOM     88  CD  SAR d   1      20.207  48.593  15.069  0.00  0.00    -0.001 C 
ATOM     89  CB  SAR d   1      19.553  50.380  13.600  0.00  0.00    -0.036 C 
ATOM     90  H57 SAR d   1      19.113  48.763  12.215  0.00  0.00     0.087 H 
ATOM     91  CG  SAR d   1      19.277  49.768  14.922  0.00  0.00    -0.048 C 
ATOM     92  H58 SAR d   1      18.647  50.858  13.198  0.00  0.00     0.036 H 
ATOM     93  H59 SAR d   1      20.357  51.127  13.679  0.00  0.00     0.036 H 
ATOM     94  H60 SAR d   1      18.231  49.430  14.970  0.00  0.00     0.035 H 
ATOM     95  H61 SAR d   1      19.463  50.499  15.723  0.00  0.00     0.035 H 
ATOM     96  H62 SAR d   1      21.103  48.871  15.643  0.00  0.00     0.064 H 
ATOM     97  H63 SAR d   1      19.701  47.751  15.563  0.00  0.00     0.064 H 
BRANCH  87  98
ATOM     98  C   SAR d   1      20.959  49.656  11.625  0.00  0.00     0.241 C 
ATOM     99  O   SAR d   1      20.605  49.652  10.439  0.00  0.00    -0.271 OA
ATOM    100  N   SAR d   1      22.173  50.050  11.997  0.00  0.00    -0.344 N 
ATOM    101  H64 SAR d   1      22.403  50.081  12.970  0.00  0.00     0.163 HD
BRANCH 100 102
ATOM    102  CA  SAR d   1      23.174  50.438  11.012  0.00  0.00     0.099 C 
ATOM    103  H65 SAR d   1      22.833  50.101  10.022  0.00  0.00     0.090 H 
BRANCH 102 104
ATOM    104  C   SAR d   1      24.502  49.755  11.317  0.00  0.00     0.197 C 
ATOM    105  O   SAR d   1      24.752  49.339  12.449  0.00  0.00    -0.646 OA
ATOM    106  OXT SAR d   1      25.361  49.600  10.448  0.00  0.00    -0.646 OA
ENDBRANCH 102 104
BRANCH 102 107
ATOM    107  CB  SAR d   1      23.331  51.971  10.967  0.00  0.00    -0.029 C 
ATOM    108  H66 SAR d   1      22.333  52.413  10.832  0.00  0.00     0.043 H 
BRANCH 107 109
ATOM    109  CG1 SAR d   1      24.206  52.401   9.789  0.00  0.00    -0.063 C 
ATOM    110  H67 SAR d   1      23.746  52.034   8.860  0.00  0.00     0.033 H 
ATOM    111  H68 SAR d   1      25.201  51.949   9.909  0.00  0.00     0.033 H 
BRANCH 109 112
ATOM    112  CD1 SAR d   1      24.368  53.894   9.685  0.00  0.00    -0.076 C 
ATOM    113  H72 SAR d   1      25.005  54.134   8.821  0.00  0.00     0.027 H 
ATOM    114  H73 SAR d   1      24.836  54.277  10.604  0.00  0.00     0.027 H 
ATOM    115  H74 SAR d   1      23.381  54.362   9.554  0.00  0.00     0.027 H 
ENDBRANCH 109 112
ENDBRANCH 107 109
BRANCH 107 116
ATOM    116  CG2 SAR d   1      23.909  52.491  12.276  0.00  0.00    -0.070 C 
ATOM    117  H69 SAR d   1      23.268  52.173  13.112  0.00  0.00     0.028 H 
ATOM    118  H70 SAR d   1      23.954  53.590  12.246  0.00  0.00     0.028 H 
ATOM    119  H71 SAR d   1      24.922  52.086  12.416  0.00  0.00     0.028 H 
ENDBRANCH 107 116
ENDBRANCH 102 107
ENDBRANCH 100 102
ENDBRANCH  87  98
ENDBRANCH  82  84
BRANCH  82 120
ATOM    120  CB  SAR d   1      23.159  46.609  14.670  0.00  0.00     0.004 C 
ATOM    121  H52 SAR d   1      23.128  47.629  15.081  0.00  0.00     0.046 H 
ATOM    122  H53 SAR d   1      23.776  46.600  13.759  0.00  0.00     0.046 H 
BRANCH 120 123
ATOM    123  CG  SAR d   1      23.796  45.710  15.682  0.00  0.00     0.053 A 
ATOM    124  ND1 SAR d   1      23.454  45.733  17.017  0.00  0.00    -0.247 NA
ATOM    125  CE1 SAR d   1      24.170  44.834  17.667  0.00  0.00     0.064 A 
ATOM    126  NE2 SAR d   1      24.959  44.223  16.802  0.00  0.00    -0.359 N 
ATOM    127  H55 SAR d   1      24.119  44.631  18.736  0.00  0.00     0.143 H 
ATOM    128  CD2 SAR d   1      24.742  44.750  15.552  0.00  0.00     0.002 A 
ATOM    129  H56 SAR d   1      25.628  43.473  17.028  0.00  0.00     0.166 HD
ATOM    130  H54 SAR d   1      25.238  44.452  14.630  0.00  0.00     0.114 H 
ENDBRANCH 120 123
ENDBRANCH  82 120
ENDBRANCH  80  82
ENDBRANCH  76  78
BRANCH  76 131
ATOM    131  CB  SAR d   1      20.081  41.808  14.542  0.00  0.00    -0.030 C 
ATOM    132  H41 SAR d   1      18.998  42.000  14.567  0.00  0.00     0.043 H 
BRANCH 131 133
ATOM    133  CG1 SAR d   1      20.666  42.215  15.901  0.00  0.00    -0.063 C 
ATOM    134  H42 SAR d   1      19.984  41.859  16.687  0.00  0.00     0.033 H 
ATOM    135  H43 SAR d   1      20.722  43.313  15.934  0.00  0.00     0.033 H 
BRANCH 133 136
ATOM    136  CD1 SAR d   1      22.049  41.664  16.192  0.00  0.00    -0.076 C 
ATOM    137  H47 SAR d   1      22.380  42.009  17.183  0.00  0.00     0.027 H 
ATOM    138  H48 SAR d   1      22.754  42.019  15.426  0.00  0.00     0.027 H 
ATOM    139  H49 SAR d   1      22.016  40.565  16.179  0.00  0.00     0.027 H 
ENDBRANCH 133 136
ENDBRANCH 131 133
BRANCH 131 140
ATOM    140  CG2 SAR d   1      20.291  40.326  14.277  0.00  0.00    -0.071 C 
ATOM    141  H44 SAR d   1      19.863  40.064  13.298  0.00  0.00     0.028 H 
ATOM    142  H45 SAR d   1      19.794  39.739  15.063  0.00  0.00     0.028 H 
ATOM    143  H46 SAR d   1      21.368  40.102  14.277  0.00  0.00     0.028 H 
ENDBRANCH 131 140
ENDBRANCH  76 131
ENDBRANCH   3  76
TORSDOF 36
