REMARK  16 active torsions:
REMARK  status: ('A' for Active; 'I' for Inactive)
REMARK    1  A    between atoms: CA_2  and  C_3 
REMARK       I    between atoms: C_3  and  N_8 
REMARK    2  A    between atoms: CA_9  and  C_10 
REMARK       I    between atoms: C_10  and  N_15 
REMARK    3  A    between atoms: CA_16  and  C_17 
REMARK       I    between atoms: C_17  and  N_22 
REMARK    4  A    between atoms: N_22  and  CA_23 
REMARK    5  A    between atoms: CA_23  and  C_24 
REMARK    6  A    between atoms: CA_23  and  CB_26 
REMARK       I    between atoms: C_24  and  N_30 
REMARK    7  A    between atoms: CB_26  and  CG_27 
REMARK    8  A    between atoms: CG_27  and  SD_28 
REMARK    9  A    between atoms: SD_28  and  CE_29 
REMARK   10  A    between atoms: N_30  and  CA_31 
REMARK   11  A    between atoms: CA_31  and  C_32 
REMARK   12  A    between atoms: CA_31  and  CB_34 
REMARK       I    between atoms: C_32  and  N_35 
REMARK   13  A    between atoms: N_35  and  CA_36 
REMARK   14  A    between atoms: CA_36  and  C_37 
REMARK       I    between atoms: C_37  and  N_39 
REMARK   15  A    between atoms: N_39  and  CA_40 
REMARK   16  A    between atoms: CA_40  and  C_41 
ROOT
ATOM      1  C   PRO d   1     157.779   4.834  13.849  0.00  0.00     0.241 C 
ATOM      2  O   PRO d   1     156.831   4.844  14.639  0.00  0.00    -0.271 OA
ATOM      3  N   MET d   1     159.033   4.905  14.273  0.00  0.00    -0.346 N 
ATOM      4  H24 MET d   1     159.793   5.002  13.631  0.00  0.00     0.163 HD
ENDROOT
BRANCH   1   5
ATOM      5  CA  PRO d   1     157.516   4.772  12.335  0.00  0.00     0.091 C 
ATOM      6  N   PRO d   1     158.592   5.320  11.482  0.00  0.00    -0.337 N 
ATOM      7  C   PRO d   1     158.882   6.638  11.624  0.00  0.00     0.243 C 
ATOM      8  CD  PRO d   1     159.052   4.333  10.485  0.00  0.00    -0.001 C 
ATOM      9  O   PRO d   1     158.294   7.382  12.411  0.00  0.00    -0.271 OA
ATOM     10  CG  PRO d   1     158.642   3.016  11.082  0.00  0.00    -0.048 C 
ATOM     11  H22 PRO d   1     160.143   4.384  10.356  0.00  0.00     0.064 H 
ATOM     12  H23 PRO d   1     158.560   4.495   9.515  0.00  0.00     0.064 H 
ATOM     13  CB  PRO d   1     157.400   3.305  11.878  0.00  0.00    -0.036 C 
ATOM     14  H20 PRO d   1     158.429   2.284  10.289  0.00  0.00     0.035 H 
ATOM     15  H21 PRO d   1     159.436   2.627  11.736  0.00  0.00     0.035 H 
ATOM     16  H18 PRO d   1     156.506   3.170  11.252  0.00  0.00     0.036 H 
ATOM     17  H19 PRO d   1     157.342   2.637  12.750  0.00  0.00     0.036 H 
ATOM     18  H17 PRO d   1     156.580   5.312  12.130  0.00  0.00     0.087 H 
BRANCH   7  19
ATOM     19  CA  PRO d   1     159.986   7.291  10.765  0.00  0.00     0.092 C 
ATOM     20  N   PRO d   1     161.202   6.501  10.511  0.00  0.00    -0.337 N 
ATOM     21  C   PRO d   1     161.910   5.807  11.421  0.00  0.00     0.251 C 
ATOM     22  CD  PRO d   1     161.597   6.563   9.093  0.00  0.00    -0.001 C 
ATOM     23  O   PRO d   1     161.525   5.612  12.575  0.00  0.00    -0.271 OA
ATOM     24  CG  PRO d   1     160.677   7.630   8.522  0.00  0.00    -0.048 C 
ATOM     25  H15 PRO d   1     161.435   5.595   8.596  0.00  0.00     0.064 H 
ATOM     26  H16 PRO d   1     162.652   6.856   8.990  0.00  0.00     0.064 H 
ATOM     27  CB  PRO d   1     159.460   7.573   9.350  0.00  0.00    -0.036 C 
ATOM     28  H13 PRO d   1     161.146   8.622   8.593  0.00  0.00     0.035 H 
ATOM     29  H14 PRO d   1     160.439   7.412   7.471  0.00  0.00     0.035 H 
ATOM     30  H11 PRO d   1     158.920   8.531   9.317  0.00  0.00     0.036 H 
ATOM     31  H12 PRO d   1     158.795   6.765   9.012  0.00  0.00     0.036 H 
ATOM     32  H10 PRO d   1     160.272   8.231  11.259  0.00  0.00     0.087 H 
BRANCH  21  33
ATOM     33  CA  PRO d   1     163.272   5.244  10.972  0.00  0.00     0.178 C 
ATOM     34  N   PRO d   1     164.292   5.325  12.032  0.00  0.00    -0.062 N 
ATOM     35  CD  PRO d   1     164.825   4.003  12.406  0.00  0.00     0.083 C 
ATOM     36  H1  PRO d   1     163.878   5.749  12.847  0.00  0.00     0.278 HD
ATOM     37  H2  PRO d   1     165.053   5.899  11.705  0.00  0.00     0.278 HD
ATOM     38  CG  PRO d   1     163.810   3.056  11.835  0.00  0.00    -0.040 C 
ATOM     39  H8  PRO d   1     164.892   3.899  13.499  0.00  0.00     0.075 H 
ATOM     40  H9  PRO d   1     165.816   3.836  11.960  0.00  0.00     0.075 H 
ATOM     41  CB  PRO d   1     163.184   3.741  10.666  0.00  0.00    -0.028 C 
ATOM     42  H6  PRO d   1     164.301   2.127  11.510  0.00  0.00     0.035 H 
ATOM     43  H7  PRO d   1     163.045   2.822  12.590  0.00  0.00     0.035 H 
ATOM     44  H4  PRO d   1     163.733   3.504   9.743  0.00  0.00     0.036 H 
ATOM     45  H5  PRO d   1     162.134   3.432  10.557  0.00  0.00     0.036 H 
ATOM     46  H3  PRO d   1     163.605   5.797  10.082  0.00  0.00     0.099 H 
ENDBRANCH  21  33
ENDBRANCH   7  19
ENDBRANCH   1   5
BRANCH   3  47
ATOM     47  CA  MET d   1     159.262   4.837  15.712  0.00  0.00     0.090 C 
ATOM     48  H25 MET d   1     158.326   4.500  16.181  0.00  0.00     0.087 H 
BRANCH  47  49
ATOM     49  C   MET d   1     159.611   6.196  16.311  0.00  0.00     0.241 C 
ATOM     50  O   MET d   1     159.780   6.312  17.526  0.00  0.00    -0.271 OA
ATOM     51  N   ALA d   1     159.692   7.218  15.458  0.00  0.00    -0.346 N 
ATOM     52  H33 ALA d   1     159.667   7.034  14.475  0.00  0.00     0.163 HD
BRANCH  51  53
ATOM     53  CA  ALA d   1     159.816   8.594  15.917  0.00  0.00     0.086 C 
ATOM     54  H34 ALA d   1     160.765   8.693  16.464  0.00  0.00     0.086 H 
BRANCH  53  55
ATOM     55  C   ALA d   1     158.668   8.964  16.867  0.00  0.00     0.240 C 
ATOM     56  O   ALA d   1     157.522   8.571  16.651  0.00  0.00    -0.271 OA
ATOM     57  N   GLY d   1     158.976   9.714  17.921  0.00  0.00    -0.351 N 
ATOM     58  H38 GLY d   1     159.934   9.932  18.108  0.00  0.00     0.163 HD
BRANCH  57  59
ATOM     59  CA  GLY d   1     157.942  10.221  18.804  0.00  0.00     0.069 C 
ATOM     60  H39 GLY d   1     157.036  10.391  18.204  0.00  0.00     0.078 H 
ATOM     61  H40 GLY d   1     158.290  11.177  19.222  0.00  0.00     0.078 H 
BRANCH  59  62
ATOM     62  C   GLY d   1     157.576   9.308  19.960  0.00  0.00     0.235 C 
ATOM     63  O   GLY d   1     156.806   9.690  20.835  0.00  0.00    -0.272 OA
ATOM     64  N   GLY d   1     158.131   8.101  19.971  0.00  0.00    -0.350 N 
ATOM     65  H41 GLY d   1     158.672   7.800  19.186  0.00  0.00     0.163 HD
BRANCH  64  66
ATOM     66  CA  GLY d   1     157.962   7.214  21.108  0.00  0.00     0.075 C 
ATOM     67  H42 GLY d   1     157.811   6.189  20.737  0.00  0.00     0.080 H 
ATOM     68  H43 GLY d   1     157.075   7.533  21.675  0.00  0.00     0.080 H 
BRANCH  66  69
ATOM     69  C   GLY d   1     159.165   7.224  22.037  0.00  0.00     0.191 C 
ATOM     70  O   GLY d   1     160.198   7.862  21.750  0.00  0.00    -0.647 OA
ATOM     71  OXT GLY d   1     159.132   6.584  23.105  0.00  0.00    -0.647 OA
ENDBRANCH  66  69
ENDBRANCH  64  66
ENDBRANCH  59  62
ENDBRANCH  57  59
ENDBRANCH  53  55
BRANCH  53  72
ATOM     72  CB  ALA d   1     159.838   9.539  14.738  0.00  0.00    -0.049 C 
ATOM     73  H35 ALA d   1     159.932  10.574  15.099  0.00  0.00     0.030 H 
ATOM     74  H36 ALA d   1     158.904   9.434  14.166  0.00  0.00     0.030 H 
ATOM     75  H37 ALA d   1     160.694   9.298  14.091  0.00  0.00     0.030 H 
ENDBRANCH  53  72
ENDBRANCH  51  53
ENDBRANCH  47  49
BRANCH  47  76
ATOM     76  CB  MET d   1     160.341   3.810  16.034  0.00  0.00    -0.030 C 
ATOM     77  H26 MET d   1     160.025   2.841  15.620  0.00  0.00     0.037 H 
ATOM     78  H27 MET d   1     160.422   3.732  17.128  0.00  0.00     0.037 H 
BRANCH  76  79
ATOM     79  CG  MET d   1     161.700   4.128  15.488  0.00  0.00    -0.021 C 
ATOM     80  H28 MET d   1     162.282   4.699  16.227  0.00  0.00     0.049 H 
ATOM     81  H29 MET d   1     161.609   4.714  14.562  0.00  0.00     0.049 H 
BRANCH  79  82
ATOM     82  SD  MET d   1     162.501   2.554  15.150  0.00  0.00    -0.173 SA
BRANCH  82  83
ATOM     83  CE  MET d   1     161.336   1.968  13.924  0.00  0.00    -0.035 C 
ATOM     84  H30 MET d   1     161.648   0.976  13.566  0.00  0.00     0.041 H 
ATOM     85  H31 MET d   1     161.309   2.671  13.078  0.00  0.00     0.041 H 
ATOM     86  H32 MET d   1     160.335   1.897  14.374  0.00  0.00     0.041 H 
ENDBRANCH  82  83
ENDBRANCH  79  82
ENDBRANCH  76  79
ENDBRANCH  47  76
ENDBRANCH   3  47
TORSDOF 16
