REMARK  21 active torsions:
REMARK  status: ('A' for Active; 'I' for Inactive)
REMARK    1  A    between atoms: N_1  and  CA_2 
REMARK    2  A    between atoms: CA_2  and  C_3 
REMARK    3  A    between atoms: CA_2  and  CB_5 
REMARK       I    between atoms: C_3  and  N_6 
REMARK    4  A    between atoms: N_6  and  CA_7 
REMARK    5  A    between atoms: CA_7  and  C_8 
REMARK       I    between atoms: C_8  and  N_10 
REMARK    6  A    between atoms: N_10  and  CA_11 
REMARK    7  A    between atoms: CA_11  and  C_12 
REMARK    8  A    between atoms: CA_11  and  CB_14 
REMARK       I    between atoms: C_12  and  N_18 
REMARK    9  A    between atoms: CB_14  and  CG_15 
REMARK   10  A    between atoms: CG_15  and  CD1_16 
REMARK   11  A    between atoms: CG_15  and  CD2_17 
REMARK   12  A    between atoms: N_18  and  CA_19 
REMARK   13  A    between atoms: CA_19  and  C_20 
REMARK   14  A    between atoms: CA_19  and  CB_22 
REMARK       I    between atoms: C_20  and  N_26 
REMARK   15  A    between atoms: CB_22  and  CG_23 
REMARK   16  A    between atoms: CG_23  and  CD1_24 
REMARK   17  A    between atoms: CG_23  and  CD2_25 
REMARK   18  A    between atoms: N_26  and  CA_27 
REMARK   19  A    between atoms: CA_27  and  C_28 
REMARK       I    between atoms: C_28  and  N_30 
REMARK   20  A    between atoms: N_30  and  CA_31 
REMARK   21  A    between atoms: CA_31  and  C_32 
ROOT
ATOM      1  CA  LEU d   1     225.320   2.505 100.598  0.00  0.00     0.089 C 
ATOM      2  H12 LEU d   1     224.867   1.702 101.198  0.00  0.00     0.087 H 
ENDROOT
BRANCH   1   3
ATOM      3  N   LEU d   1     224.572   2.617  99.361  0.00  0.00    -0.346 N 
ATOM      4  C   GLY d   1     223.264   2.779  99.273  0.00  0.00     0.236 C 
ATOM      5  O   GLY d   1     222.542   2.887 100.214  0.00  0.00    -0.272 OA
ATOM      6  H11 LEU d   1     225.088   2.568  98.506  0.00  0.00     0.163 HD
BRANCH   4   7
ATOM      7  CA  GLY d   1     222.724   2.834  97.866  0.00  0.00     0.069 C 
ATOM      8  H9  GLY d   1     222.058   1.973  97.706  0.00  0.00     0.078 H 
ATOM      9  H10 GLY d   1     222.155   3.767  97.739  0.00  0.00     0.078 H 
BRANCH   7  10
ATOM     10  N   GLY d   1     223.785   2.795  96.885  0.00  0.00    -0.351 N 
ATOM     11  C   ILE d   1     224.474   3.869  96.516  0.00  0.00     0.248 C 
ATOM     12  O   ILE d   1     224.205   5.005  96.891  0.00  0.00    -0.271 OA
ATOM     13  H8  GLY d   1     224.011   1.917  96.464  0.00  0.00     0.163 HD
BRANCH  11  14
ATOM     14  CA  ILE d   1     225.648   3.619  95.567  0.00  0.00     0.172 C 
ATOM     15  H4  ILE d   1     225.622   4.416  94.809  0.00  0.00     0.098 H 
BRANCH  14  16
ATOM     16  N   ILE d   1     226.925   3.725  96.231  0.00  0.00    -0.067 N 
ATOM     17  H1  ILE d   1     227.664   3.553  95.567  0.00  0.00     0.275 HD
ATOM     18  H2  ILE d   1     226.975   3.045  96.974  0.00  0.00     0.275 HD
ATOM     19  H3  ILE d   1     227.028   4.651  96.616  0.00  0.00     0.275 HD
ENDBRANCH  14  16
BRANCH  14  20
ATOM     20  CB  ILE d   1     225.473   2.267  94.808  0.00  0.00    -0.042 C 
ATOM     21  H5  ILE d   1     224.486   2.244  94.324  0.00  0.00     0.030 H 
ATOM     22  H6  ILE d   1     225.552   1.433  95.521  0.00  0.00     0.030 H 
ATOM     23  H7  ILE d   1     226.258   2.171  94.044  0.00  0.00     0.030 H 
ENDBRANCH  14  20
ENDBRANCH  11  14
ENDBRANCH   7  10
ENDBRANCH   4   7
ENDBRANCH   1   3
BRANCH   1  24
ATOM     24  C   LEU d   1     225.332   3.757 101.419  0.00  0.00     0.241 C 
ATOM     25  O   LEU d   1     225.355   3.711 102.613  0.00  0.00    -0.271 OA
ATOM     26  N   LEU d   1     225.357   4.877 100.741  0.00  0.00    -0.346 N 
ATOM     27  H22 LEU d   1     225.348   4.822  99.743  0.00  0.00     0.163 HD
BRANCH  26  28
ATOM     28  CA  LEU d   1     225.396   6.175 101.342  0.00  0.00     0.089 C 
ATOM     29  H23 LEU d   1     226.331   6.244 101.917  0.00  0.00     0.087 H 
BRANCH  28  30
ATOM     30  C   LEU d   1     224.250   6.517 102.302  0.00  0.00     0.240 C 
ATOM     31  O   LEU d   1     223.140   6.181 102.065  0.00  0.00    -0.271 OA
ATOM     32  N   GLY d   1     224.556   7.219 103.383  0.00  0.00    -0.351 N 
ATOM     33  H33 GLY d   1     225.517   7.415 103.580  0.00  0.00     0.163 HD
BRANCH  32  34
ATOM     34  CA  GLY d   1     223.540   7.708 104.284  0.00  0.00     0.069 C 
ATOM     35  H34 GLY d   1     222.656   7.959 103.680  0.00  0.00     0.078 H 
ATOM     36  H35 GLY d   1     223.931   8.620 104.759  0.00  0.00     0.078 H 
BRANCH  34  37
ATOM     37  C   GLY d   1     223.087   6.784 105.385  0.00  0.00     0.235 C 
ATOM     38  O   GLY d   1     222.343   7.160 106.198  0.00  0.00    -0.272 OA
ATOM     39  N   GLY d   1     223.595   5.578 105.365  0.00  0.00    -0.350 N 
ATOM     40  H36 GLY d   1     224.047   5.273 104.527  0.00  0.00     0.163 HD
BRANCH  39  41
ATOM     41  CA  GLY d   1     223.544   4.674 106.462  0.00  0.00     0.075 C 
ATOM     42  H37 GLY d   1     223.389   3.659 106.066  0.00  0.00     0.080 H 
ATOM     43  H38 GLY d   1     222.692   4.953 107.100  0.00  0.00     0.080 H 
BRANCH  41  44
ATOM     44  C   GLY d   1     224.798   4.665 107.318  0.00  0.00     0.191 C 
ATOM     45  O   GLY d   1     225.827   5.303 106.937  0.00  0.00    -0.647 OA
ATOM     46  OXT GLY d   1     224.682   3.972 108.358  0.00  0.00    -0.647 OA
ENDBRANCH  41  44
ENDBRANCH  39  41
ENDBRANCH  34  37
ENDBRANCH  32  34
ENDBRANCH  28  30
BRANCH  28  47
ATOM     47  CB  LEU d   1     225.433   7.195 100.220  0.00  0.00    -0.035 C 
ATOM     48  H24 LEU d   1     224.423   7.617 100.113  0.00  0.00     0.037 H 
ATOM     49  H25 LEU d   1     225.711   6.669  99.294  0.00  0.00     0.037 H 
BRANCH  47  50
ATOM     50  CG  LEU d   1     226.396   8.341 100.409  0.00  0.00    -0.059 C 
ATOM     51  H26 LEU d   1     226.163   8.819 101.372  0.00  0.00     0.038 H 
BRANCH  50  52
ATOM     52  CD1 LEU d   1     227.819   7.855 100.478  0.00  0.00    -0.073 C 
ATOM     53  H27 LEU d   1     228.493   8.713 100.616  0.00  0.00     0.028 H 
ATOM     54  H28 LEU d   1     228.074   7.334  99.543  0.00  0.00     0.028 H 
ATOM     55  H29 LEU d   1     227.929   7.162 101.325  0.00  0.00     0.028 H 
ENDBRANCH  50  52
BRANCH  50  56
ATOM     56  CD2 LEU d   1     226.210   9.373  99.330  0.00  0.00    -0.073 C 
ATOM     57  H30 LEU d   1     225.160   9.701  99.313  0.00  0.00     0.028 H 
ATOM     58  H31 LEU d   1     226.473   8.936  98.355  0.00  0.00     0.028 H 
ATOM     59  H32 LEU d   1     226.860  10.237  99.533  0.00  0.00     0.028 H 
ENDBRANCH  50  56
ENDBRANCH  47  50
ENDBRANCH  28  47
ENDBRANCH  26  28
ENDBRANCH   1  24
BRANCH   1  60
ATOM     60  CB  LEU d   1     226.751   2.150 100.289  0.00  0.00    -0.035 C 
ATOM     61  H13 LEU d   1     227.203   1.820 101.236  0.00  0.00     0.037 H 
ATOM     62  H14 LEU d   1     227.238   3.077  99.953  0.00  0.00     0.037 H 
BRANCH  60  63
ATOM     63  CG  LEU d   1     227.082   1.103  99.272  0.00  0.00    -0.059 C 
ATOM     64  H15 LEU d   1     226.811   1.492  98.279  0.00  0.00     0.038 H 
BRANCH  63  65
ATOM     65  CD1 LEU d   1     228.550   0.788  99.255  0.00  0.00    -0.073 C 
ATOM     66  H16 LEU d   1     228.751   0.017  98.497  0.00  0.00     0.028 H 
ATOM     67  H17 LEU d   1     228.857   0.418 100.244  0.00  0.00     0.028 H 
ATOM     68  H18 LEU d   1     229.118   1.698  99.011  0.00  0.00     0.028 H 
ENDBRANCH  63  65
BRANCH  63  69
ATOM     69  CD2 LEU d   1     226.266  -0.116  99.532  0.00  0.00    -0.073 C 
ATOM     70  H19 LEU d   1     225.199   0.151  99.537  0.00  0.00     0.028 H 
ATOM     71  H20 LEU d   1     226.542  -0.541 100.508  0.00  0.00     0.028 H 
ATOM     72  H21 LEU d   1     226.454  -0.858  98.742  0.00  0.00     0.028 H 
ENDBRANCH  63  69
ENDBRANCH  60  63
ENDBRANCH   1  60
TORSDOF 21
