REMARK  7 active torsions:
REMARK  status: ('A' for Active; 'I' for Inactive)
REMARK    1  A    between atoms: C15_2  and  C16_16 
REMARK       I    between atoms: N14_23  and  C15_2 
REMARK    2  A    between atoms: C22_5  and  C23_18 
REMARK    3  A    between atoms: C04_9  and  C02_8 
REMARK    4  A    between atoms: C05_10  and  C04_9 
REMARK    5  A    between atoms: N06_21  and  C05_10 
REMARK    6  A    between atoms: C07_11  and  N06_21 
REMARK    7  A    between atoms: N10_22  and  C09_13 
ROOT
ATOM      1  C22 H6G d   1     -24.897  21.540   2.034  0.00  0.00     0.182 A 
ATOM      2  C07 H6G d   1     -24.443  20.256   3.864  0.00  0.00     0.129 A 
ATOM      3  C08 H6G d   1     -24.795  21.313   4.696  0.00  0.00     0.005 A 
ATOM      4  C09 H6G d   1     -25.216  22.496   4.098  0.00  0.00     0.131 A 
ATOM      5  N21 H6G d   1     -25.242  22.571   2.778  0.00  0.00    -0.209 NA
ATOM      6  N29 H6G d   1     -24.498  20.398   2.554  0.00  0.00    -0.209 NA
ATOM      7  H13 H6G d   1     -24.743  21.218   5.775  0.00  0.00     0.095 H 
ENDROOT
BRANCH   4   8
ATOM      8  N10 H6G d   1     -25.595  23.645   4.911  0.00  0.00    -0.364 N 
ATOM      9  C20 H6G d   1     -26.299  24.718   4.218  0.00  0.00     0.011 C 
ATOM     10  C19 H6G d   1     -27.661  24.360   3.619  0.00  0.00     0.013 C 
ATOM     11  H5  H6G d   1     -26.454  25.536   4.937  0.00  0.00     0.066 H 
ATOM     12  H6  H6G d   1     -25.654  25.067   3.398  0.00  0.00     0.066 H 
ATOM     13  N14 H6G d   1     -28.423  23.478   4.476  0.00  0.00    -0.347 N 
ATOM     14  H19 H6G d   1     -27.502  23.862   2.651  0.00  0.00     0.066 H 
ATOM     15  H20 H6G d   1     -28.234  25.286   3.465  0.00  0.00     0.066 H 
ATOM     16  C13 H6G d   1     -28.428  23.726   5.902  0.00  0.00    -0.001 C 
ATOM     17  C15 H6G d   1     -29.155  22.354   3.927  0.00  0.00     0.242 C 
ATOM     18  C12 H6G d   1     -27.353  22.902   6.599  0.00  0.00    -0.035 C 
ATOM     19  H1  H6G d   1     -28.237  24.794   6.083  0.00  0.00     0.064 H 
ATOM     20  H2  H6G d   1     -29.412  23.455   6.311  0.00  0.00     0.064 H 
ATOM     21  C11 H6G d   1     -25.923  23.355   6.302  0.00  0.00    -0.002 C 
ATOM     22  H16 H6G d   1     -27.457  21.856   6.276  0.00  0.00     0.037 H 
ATOM     23  H17 H6G d   1     -27.517  22.969   7.685  0.00  0.00     0.037 H 
ATOM     24  H14 H6G d   1     -25.245  22.559   6.644  0.00  0.00     0.064 H 
ATOM     25  H15 H6G d   1     -25.737  24.270   6.884  0.00  0.00     0.064 H 
ATOM     26  O18 H6G d   1     -29.767  21.643   4.650  0.00  0.00    -0.268 OA
BRANCH  17  27
ATOM     27  C16 H6G d   1     -29.144  22.085   2.426  0.00  0.00    -0.026 C 
ATOM     28  C17 H6G d   1     -28.881  20.874   1.984  0.00  0.00    -0.116 C 
ATOM     29  H3  H6G d   1     -28.872  20.675   0.913  0.00  0.00     0.067 H 
ATOM     30  H4  H6G d   1     -28.673  20.070   2.689  0.00  0.00     0.067 H 
ATOM     31  H18 H6G d   1     -29.353  22.891   1.724  0.00  0.00     0.090 H 
ENDBRANCH  17  27
ENDBRANCH   4   8
BRANCH   2  32
ATOM     32  N06 H6G d   1     -23.995  18.996   4.425  0.00  0.00    -0.374 N 
ATOM     33  H23 H6G d   1     -23.677  18.238   3.805  0.00  0.00     0.161 HD
BRANCH  32  34
ATOM     34  C05 H6G d   1     -23.997  18.809   5.861  0.00  0.00     0.003 C 
ATOM     35  H11 H6G d   1     -24.608  19.595   6.330  0.00  0.00     0.064 H 
ATOM     36  H12 H6G d   1     -24.422  17.823   6.100  0.00  0.00     0.064 H 
BRANCH  34  37
ATOM     37  C04 H6G d   1     -22.571  18.889   6.397  0.00  0.00     0.030 C 
ATOM     38  H9  H6G d   1     -22.040  17.961   6.139  0.00  0.00     0.051 H 
ATOM     39  H10 H6G d   1     -22.061  19.745   5.930  0.00  0.00     0.051 H 
BRANCH  37  40
ATOM     40  C02 H6G d   1     -22.552  19.067   7.913  0.00  0.00     0.174 C 
ATOM     41  O01 H6G d   1     -23.445  19.755   8.474  0.00  0.00    -0.648 OA
ATOM     42  O03 H6G d   1     -21.645  18.527   8.596  0.00  0.00    -0.648 OA
ENDBRANCH  37  40
ENDBRANCH  34  37
ENDBRANCH  32  34
ENDBRANCH   2  32
BRANCH   1  43
ATOM     43  C23 H6G d   1     -24.953  21.673   0.515  0.00  0.00     0.104 A 
ATOM     44  C24 H6G d   1     -25.631  22.734  -0.063  0.00  0.00    -0.051 A 
ATOM     45  C25 H6G d   1     -25.683  22.859  -1.444  0.00  0.00    -0.079 A 
ATOM     46  H7  H6G d   1     -26.122  23.468   0.565  0.00  0.00     0.087 H 
ATOM     47  C26 H6G d   1     -25.037  21.890  -2.197  0.00  0.00    -0.066 A 
ATOM     48  H21 H6G d   1     -26.208  23.682  -1.916  0.00  0.00     0.083 H 
ATOM     49  C27 H6G d   1     -24.376  20.852  -1.562  0.00  0.00     0.003 A 
ATOM     50  H8  H6G d   1     -25.049  21.945  -3.280  0.00  0.00     0.085 H 
ATOM     51  N28 H6G d   1     -24.354  20.777  -0.246  0.00  0.00    -0.257 NA
ATOM     52  H22 H6G d   1     -23.872  20.095  -2.152  0.00  0.00     0.114 H 
ENDBRANCH   1  43
TORSDOF 7
