REMARK  8 active torsions:
REMARK  status: ('A' for Active; 'I' for Inactive)
REMARK    1  A    between atoms: S15_30  and  C17_2 
REMARK    2  A    between atoms: C23_17  and  C24_5 
REMARK    3  A    between atoms: C04_9  and  C02_8 
REMARK    4  A    between atoms: C05_10  and  C04_9 
REMARK    5  A    between atoms: N06_20  and  C05_10 
REMARK    6  A    between atoms: C07_11  and  N06_20 
REMARK    7  A    between atoms: N10_21  and  C09_13 
REMARK    8  A    between atoms: N14_22  and  S15_30 
ROOT
ATOM      1  C07 H6J d   1     -24.525  20.222   3.899  0.00  0.00     0.129 A 
ATOM      2  C08 H6J d   1     -24.774  21.331   4.787  0.00  0.00     0.005 A 
ATOM      3  C09 H6J d   1     -25.128  22.597   4.199  0.00  0.00     0.131 A 
ATOM      4  C23 H6J d   1     -24.968  21.632   2.031  0.00  0.00     0.182 A 
ATOM      5  N22 H6J d   1     -25.212  22.731   2.823  0.00  0.00    -0.209 NA
ATOM      6  N30 H6J d   1     -24.628  20.397   2.534  0.00  0.00    -0.209 NA
ATOM      7  H14 H6J d   1     -24.697  21.215   5.862  0.00  0.00     0.095 H 
ENDROOT
BRANCH   3   8
ATOM      8  N10 H6J d   1     -25.390  23.799   5.089  0.00  0.00    -0.364 N 
ATOM      9  C21 H6J d   1     -26.125  25.023   4.494  0.00  0.00     0.012 C 
ATOM     10  C20 H6J d   1     -27.524  24.766   3.764  0.00  0.00     0.020 C 
ATOM     11  H6  H6J d   1     -26.309  25.728   5.318  0.00  0.00     0.066 H 
ATOM     12  H7  H6J d   1     -25.451  25.486   3.759  0.00  0.00     0.066 H 
ATOM     13  N14 H6J d   1     -28.487  23.830   4.454  0.00  0.00    -0.306 N 
ATOM     14  H4  H6J d   1     -27.309  24.349   2.769  0.00  0.00     0.067 H 
ATOM     15  H5  H6J d   1     -28.026  25.738   3.654  0.00  0.00     0.067 H 
ATOM     16  C13 H6J d   1     -28.351  24.004   5.935  0.00  0.00     0.007 C 
ATOM     17  C12 H6J d   1     -27.322  23.052   6.617  0.00  0.00    -0.035 C 
ATOM     18  H1  H6J d   1     -28.038  25.041   6.130  0.00  0.00     0.065 H 
ATOM     19  H2  H6J d   1     -29.336  23.826   6.392  0.00  0.00     0.065 H 
ATOM     20  C11 H6J d   1     -25.838  23.481   6.494  0.00  0.00    -0.002 C 
ATOM     21  H17 H6J d   1     -27.427  22.056   6.161  0.00  0.00     0.037 H 
ATOM     22  H18 H6J d   1     -27.571  22.993   7.687  0.00  0.00     0.037 H 
ATOM     23  H15 H6J d   1     -25.211  22.662   6.877  0.00  0.00     0.064 H 
ATOM     24  H16 H6J d   1     -25.688  24.378   7.113  0.00  0.00     0.064 H 
BRANCH  13  25
ATOM     25  S15 H6J d   1     -29.453  22.649   3.699  0.00  0.00     0.250 S 
ATOM     26  O16 H6J d   1     -30.495  23.261   2.905  0.00  0.00    -0.201 OA
ATOM     27  O19 H6J d   1     -30.121  21.813   4.669  0.00  0.00    -0.201 OA
BRANCH  25  28
ATOM     28  C17 H6J d   1     -28.434  21.599   2.636  0.00  0.00     0.018 C 
ATOM     29  C18 H6J d   1     -28.756  21.217   1.365  0.00  0.00    -0.109 C 
ATOM     30  H19 H6J d   1     -28.077  20.581   0.799  0.00  0.00     0.067 H 
ATOM     31  H20 H6J d   1     -29.692  21.549   0.917  0.00  0.00     0.067 H 
ATOM     32  H3  H6J d   1     -27.488  21.243   3.042  0.00  0.00     0.103 H 
ENDBRANCH  25  28
ENDBRANCH  13  25
ENDBRANCH   3   8
BRANCH   1  33
ATOM     33  N06 H6J d   1     -24.170  18.917   4.410  0.00  0.00    -0.374 N 
ATOM     34  H23 H6J d   1     -24.054  18.150   3.732  0.00  0.00     0.161 HD
BRANCH  33  35
ATOM     35  C05 H6J d   1     -23.958  18.605   5.874  0.00  0.00     0.003 C 
ATOM     36  H12 H6J d   1     -24.722  19.144   6.453  0.00  0.00     0.064 H 
ATOM     37  H13 H6J d   1     -24.086  17.522   6.016  0.00  0.00     0.064 H 
BRANCH  35  38
ATOM     38  C04 H6J d   1     -22.557  19.005   6.428  0.00  0.00     0.030 C 
ATOM     39  H10 H6J d   1     -21.827  18.248   6.106  0.00  0.00     0.051 H 
ATOM     40  H11 H6J d   1     -22.282  19.983   6.005  0.00  0.00     0.051 H 
BRANCH  38  41
ATOM     41  C02 H6J d   1     -22.507  19.107   7.963  0.00  0.00     0.174 C 
ATOM     42  O01 H6J d   1     -23.469  19.710   8.585  0.00  0.00    -0.648 OA
ATOM     43  O03 H6J d   1     -21.535  18.602   8.649  0.00  0.00    -0.648 OA
ENDBRANCH  38  41
ENDBRANCH  35  38
ENDBRANCH  33  35
ENDBRANCH   1  33
BRANCH   4  44
ATOM     44  C24 H6J d   1     -25.068  21.778   0.453  0.00  0.00     0.104 A 
ATOM     45  C25 H6J d   1     -25.796  22.819  -0.192  0.00  0.00    -0.051 A 
ATOM     46  C26 H6J d   1     -25.852  22.901  -1.612  0.00  0.00    -0.079 A 
ATOM     47  H21 H6J d   1     -26.314  23.559   0.407  0.00  0.00     0.087 H 
ATOM     48  C27 H6J d   1     -25.171  21.925  -2.380  0.00  0.00    -0.066 A 
ATOM     49  H8  H6J d   1     -26.406  23.696  -2.097  0.00  0.00     0.083 H 
ATOM     50  C28 H6J d   1     -24.466  20.912  -1.684  0.00  0.00     0.003 A 
ATOM     51  H22 H6J d   1     -25.189  21.952  -3.463  0.00  0.00     0.085 H 
ATOM     52  N29 H6J d   1     -24.428  20.857  -0.322  0.00  0.00    -0.257 NA
ATOM     53  H9  H6J d   1     -23.939  20.155  -2.253  0.00  0.00     0.114 H 
ENDBRANCH   4  44
TORSDOF 8
