REMARK  8 active torsions:
REMARK  status: ('A' for Active; 'I' for Inactive)
REMARK    1  A    between atoms: C08_7  and  C07_6 
REMARK    2  A    between atoms: C08_7  and  C18_15 
REMARK    3  A    between atoms: O09_25  and  C08_7 
REMARK    4  A    between atoms: C11_9  and  C10_8 
REMARK    5  A    between atoms: C10_8  and  O09_25 
REMARK    6  A    between atoms: C12_10  and  C11_9 
REMARK    7  A    between atoms: N13_23  and  C14_11 
REMARK    8  A    between atoms: C23_19  and  C24_20 
ROOT
ATOM      1  C08 H6S d   1     -25.948  22.529   3.521  0.00  0.00     0.097 C 
ATOM      2  H5  H6S d   1     -25.948  22.442   2.425  0.00  0.00     0.099 H 
ENDROOT
BRANCH   1   3
ATOM      3  C07 H6S d   1     -27.392  22.584   3.983  0.00  0.00    -0.003 A 
ATOM      4  C02 H6S d   1     -27.817  23.148   5.195  0.00  0.00     0.043 A 
ATOM      5  C03 H6S d   1     -29.154  23.147   5.539  0.00  0.00    -0.061 A 
ATOM      6 CL   H6S d   1     -26.707  23.876   6.307  0.00  0.00    -0.084 Cl
ATOM      7  C04 H6S d   1     -30.098  22.587   4.706  0.00  0.00    -0.081 A 
ATOM      8  H1  H6S d   1     -29.465  23.593   6.477  0.00  0.00     0.086 H 
ATOM      9  C05 H6S d   1     -29.699  22.022   3.515  0.00  0.00    -0.082 A 
ATOM     10  H2  H6S d   1     -31.145  22.591   4.986  0.00  0.00     0.083 H 
ATOM     11  C06 H6S d   1     -28.365  22.020   3.163  0.00  0.00    -0.072 A 
ATOM     12  H3  H6S d   1     -30.434  21.578   2.853  0.00  0.00     0.083 H 
ATOM     13  H4  H6S d   1     -28.067  21.568   2.224  0.00  0.00     0.084 H 
ENDBRANCH   1   3
BRANCH   1  14
ATOM     14  C18 H6S d   1     -25.225  21.336   4.094  0.00  0.00     0.019 A 
ATOM     15  C20 H6S d   1     -24.843  20.209   3.423  0.00  0.00    -0.038 A 
ATOM     16  C21 H6S d   1     -24.189  19.228   4.185  0.00  0.00     0.075 A 
ATOM     17  H20 H6S d   1     -25.035  20.079   2.359  0.00  0.00     0.088 H 
ATOM     18  C22 H6S d   1     -24.032  19.562   5.530  0.00  0.00     0.051 A 
ATOM     19  N29 H6S d   1     -23.747  18.057   3.662  0.00  0.00    -0.260 NA
ATOM     20  C23 H6S d   1     -23.363  18.605   6.402  0.00  0.00     0.061 A 
ATOM     21  S19 H6S d   1     -24.756  21.184   5.787  0.00  0.00    -0.088 SA
ATOM     22  C27 H6S d   1     -22.924  17.420   5.835  0.00  0.00    -0.048 A 
ATOM     23  C28 H6S d   1     -23.131  17.179   4.479  0.00  0.00     0.004 A 
ATOM     24  H21 H6S d   1     -22.420  16.680   6.446  0.00  0.00     0.087 H 
ATOM     25  H22 H6S d   1     -22.781  16.242   4.061  0.00  0.00     0.114 H 
BRANCH  20  26
ATOM     26  C24 H6S d   1     -23.144  18.866   7.850  0.00  0.00     0.210 C 
ATOM     27  O25 H6S d   1     -22.393  18.165   8.522  0.00  0.00    -0.644 OA
ATOM     28  O26 H6S d   1     -23.766  19.879   8.419  0.00  0.00    -0.644 OA
ENDBRANCH  20  26
ENDBRANCH   1  14
BRANCH   1  29
ATOM     29  O09 H6S d   1     -25.234  23.716   3.880  0.00  0.00    -0.376 OA
BRANCH  29  30
ATOM     30  C10 H6S d   1     -25.584  24.867   3.127  0.00  0.00     0.023 C 
ATOM     31  H6  H6S d   1     -25.858  24.574   2.103  0.00  0.00     0.074 H 
ATOM     32  H7  H6S d   1     -26.434  25.379   3.601  0.00  0.00     0.074 H 
BRANCH  30  33
ATOM     33  C11 H6S d   1     -24.393  25.779   3.095  0.00  0.00    -0.018 C 
ATOM     34  H8  H6S d   1     -24.343  26.322   4.051  0.00  0.00     0.039 H 
ATOM     35  H9  H6S d   1     -24.525  26.497   2.272  0.00  0.00     0.039 H 
BRANCH  33  36
ATOM     36  C12 H6S d   1     -23.087  25.047   2.889  0.00  0.00     0.105 C 
ATOM     37  C17 H6S d   1     -21.944  25.573   3.758  0.00  0.00    -0.037 C 
ATOM     38  C16 H6S d   1     -21.066  26.345   2.809  0.00  0.00    -0.040 C 
ATOM     39  H18 H6S d   1     -21.387  24.740   4.212  0.00  0.00     0.036 H 
ATOM     40  H19 H6S d   1     -22.330  26.230   4.551  0.00  0.00     0.036 H 
ATOM     41  C15 H6S d   1     -21.260  25.652   1.485  0.00  0.00     0.084 C 
ATOM     42  H16 H6S d   1     -21.384  27.396   2.750  0.00  0.00     0.035 H 
ATOM     43  H17 H6S d   1     -20.013  26.297   3.124  0.00  0.00     0.035 H 
ATOM     44  N13 H6S d   1     -22.641  25.172   1.478  0.00  0.00    -0.071 N 
ATOM     45  H14 H6S d   1     -20.562  24.807   1.390  0.00  0.00     0.076 H 
ATOM     46  H15 H6S d   1     -21.097  26.358   0.657  0.00  0.00     0.076 H 
ATOM     47  H23 H6S d   1     -23.228  25.851   1.019  0.00  0.00     0.279 HD
ATOM     48  H10 H6S d   1     -23.251  23.986   3.127  0.00  0.00     0.084 H 
BRANCH  44  49
ATOM     49  C14 H6S d   1     -22.709  23.928   0.718  0.00  0.00     0.067 C 
ATOM     50  H11 H6S d   1     -22.363  24.107  -0.311  0.00  0.00     0.068 H 
ATOM     51  H12 H6S d   1     -23.748  23.567   0.698  0.00  0.00     0.068 H 
ATOM     52  H13 H6S d   1     -22.067  23.172   1.194  0.00  0.00     0.068 H 
ENDBRANCH  44  49
ENDBRANCH  33  36
ENDBRANCH  30  33
ENDBRANCH  29  30
ENDBRANCH   1  29
TORSDOF 8
