REMARK  8 active torsions:
REMARK  status: ('A' for Active; 'I' for Inactive)
REMARK    1  A    between atoms: C04_2  and  C02_1 
REMARK    2  A    between atoms: C09_7  and  C08_6 
REMARK    3  A    between atoms: C09_7  and  C10_8 
REMARK    4  A    between atoms: O21_28  and  C09_7 
REMARK    5  A    between atoms: C14_12  and  N15_23 
REMARK    6  A    between atoms: C23_15  and  C22_14 
REMARK    7  A    between atoms: C22_14  and  O21_28 
REMARK    8  A    between atoms: N24_24  and  C23_15 
ROOT
ATOM      1  C09 H6V d   1     -25.719  21.653   3.692  0.00  0.00     0.095 C 
ATOM      2  H2  H6V d   1     -25.990  21.602   2.627  0.00  0.00     0.099 H 
ENDROOT
BRANCH   1   3
ATOM      3  C08 H6V d   1     -25.068  20.372   4.181  0.00  0.00     0.019 A 
ATOM      4  C07 H6V d   1     -24.751  19.286   3.378  0.00  0.00    -0.038 A 
ATOM      5  C06 H6V d   1     -24.129  18.231   4.139  0.00  0.00     0.075 A 
ATOM      6  H1  H6V d   1     -24.947  19.237   2.308  0.00  0.00     0.088 H 
ATOM      7  C05 H6V d   1     -24.001  18.530   5.497  0.00  0.00     0.051 A 
ATOM      8  N31 H6V d   1     -23.731  17.068   3.633  0.00  0.00    -0.260 NA
ATOM      9  C04 H6V d   1     -23.418  17.606   6.340  0.00  0.00     0.061 A 
ATOM     10  S30 H6V d   1     -24.641  20.078   5.809  0.00  0.00    -0.088 SA
ATOM     11  C33 H6V d   1     -22.994  16.403   5.781  0.00  0.00    -0.048 A 
ATOM     12  C32 H6V d   1     -23.168  16.167   4.413  0.00  0.00     0.004 A 
ATOM     13  H22 H6V d   1     -22.529  15.649   6.406  0.00  0.00     0.087 H 
ATOM     14  H21 H6V d   1     -22.834  15.227   3.987  0.00  0.00     0.114 H 
BRANCH   9  15
ATOM     15  C02 H6V d   1     -23.270  17.939   7.826  0.00  0.00     0.210 C 
ATOM     16  O01 H6V d   1     -22.516  17.264   8.569  0.00  0.00    -0.644 OA
ATOM     17  O03 H6V d   1     -23.904  18.916   8.302  0.00  0.00    -0.644 OA
ENDBRANCH   9  15
ENDBRANCH   1   3
BRANCH   1  18
ATOM     18  C10 H6V d   1     -26.923  21.902   4.569  0.00  0.00    -0.022 A 
ATOM     19  C11 H6V d   1     -26.794  22.640   5.743  0.00  0.00    -0.074 A 
ATOM     20  C12 H6V d   1     -27.906  22.859   6.526  0.00  0.00    -0.080 A 
ATOM     21  H3  H6V d   1     -25.829  23.038   6.037  0.00  0.00     0.084 H 
ATOM     22  C13 H6V d   1     -29.142  22.350   6.148  0.00  0.00    -0.058 A 
ATOM     23  H4  H6V d   1     -27.816  23.432   7.442  0.00  0.00     0.083 H 
ATOM     24  C14 H6V d   1     -29.258  21.627   4.968  0.00  0.00     0.026 A 
ATOM     25  H5  H6V d   1     -30.013  22.517   6.772  0.00  0.00     0.086 H 
ATOM     26  C20 H6V d   1     -28.147  21.393   4.185  0.00  0.00    -0.049 A 
ATOM     27  H6  H6V d   1     -28.235  20.813   3.273  0.00  0.00     0.087 H 
BRANCH  24  28
ATOM     28  N15 H6V d   1     -30.537  21.080   4.551  0.00  0.00    -0.399 N 
ATOM     29  H23 H6V d   1     -31.378  21.244   5.122  0.00  0.00     0.156 HD
ATOM     30  H24 H6V d   1     -30.603  20.528   3.684  0.00  0.00     0.156 HD
ENDBRANCH  24  28
ENDBRANCH   1  18
BRANCH   1  31
ATOM     31  O21 H6V d   1     -24.797  22.667   3.953  0.00  0.00    -0.374 OA
BRANCH  31  32
ATOM     32  C22 H6V d   1     -24.817  23.685   2.996  0.00  0.00     0.043 C 
ATOM     33  H7  H6V d   1     -24.738  23.254   1.987  0.00  0.00     0.076 H 
ATOM     34  H8  H6V d   1     -25.752  24.259   3.078  0.00  0.00     0.076 H 
BRANCH  32  35
ATOM     35  C23 H6V d   1     -23.622  24.592   3.270  0.00  0.00     0.103 C 
ATOM     36  H9  H6V d   1     -23.100  24.256   4.178  0.00  0.00     0.079 H 
ATOM     37  H10 H6V d   1     -23.964  25.629   3.406  0.00  0.00     0.079 H 
BRANCH  35  38
ATOM     38  N24 H6V d   1     -22.727  24.515   2.132  0.00  0.00    -0.069 N 
ATOM     39  C25 H6V d   1     -23.428  25.074   0.941  0.00  0.00     0.084 C 
ATOM     40  C26 H6V d   1     -22.674  24.821  -0.362  0.00  0.00    -0.042 C 
ATOM     41  H11 H6V d   1     -24.422  24.609   0.868  0.00  0.00     0.076 H 
ATOM     42  H12 H6V d   1     -23.540  26.160   1.077  0.00  0.00     0.076 H 
ATOM     43  C27 H6V d   1     -22.353  23.378  -0.541  0.00  0.00    -0.062 C 
ATOM     44  H13 H6V d   1     -21.736  25.396  -0.349  0.00  0.00     0.035 H 
ATOM     45  H14 H6V d   1     -23.297  25.155  -1.205  0.00  0.00     0.035 H 
ATOM     46  C28 H6V d   1     -21.614  22.841   0.633  0.00  0.00    -0.042 C 
ATOM     47  H15 H6V d   1     -21.732  23.258  -1.441  0.00  0.00     0.033 H 
ATOM     48  H16 H6V d   1     -23.290  22.815  -0.663  0.00  0.00     0.033 H 
ATOM     49  C29 H6V d   1     -22.378  23.081   1.931  0.00  0.00     0.084 C 
ATOM     50  H17 H6V d   1     -20.635  23.338   0.697  0.00  0.00     0.035 H 
ATOM     51  H18 H6V d   1     -21.468  21.759   0.499  0.00  0.00     0.035 H 
ATOM     52  H19 H6V d   1     -21.754  22.748   2.774  0.00  0.00     0.076 H 
ATOM     53  H20 H6V d   1     -23.307  22.492   1.907  0.00  0.00     0.076 H 
ATOM     54  H25 H6V d   1     -21.889  25.047   2.310  0.00  0.00     0.280 HD
ENDBRANCH  35  38
ENDBRANCH  32  35
ENDBRANCH  31  32
ENDBRANCH   1  31
TORSDOF 8
