REMARK  12 active torsions:
REMARK  status: ('A' for Active; 'I' for Inactive)
REMARK    1  A    between atoms: C04_2  and  C02_1 
REMARK    2  A    between atoms: C09_7  and  C08_6 
REMARK    3  A    between atoms: C10_8  and  C09_7 
REMARK    4  A    between atoms: C09_7  and  O25_29 
REMARK    5  A    between atoms: N15_23  and  C14_12 
REMARK    6  A    between atoms: C16_13  and  C17_14 
REMARK       I    between atoms: N15_23  and  C16_13 
REMARK    7  A    between atoms: C17_14  and  C18_15 
REMARK    8  A    between atoms: C18_15  and  C19_16 
REMARK    9  A    between atoms: C19_16  and  N20_24 
REMARK   10  A    between atoms: N20_24  and  C21_17 
REMARK   11  A    between atoms: N20_24  and  C22_18 
REMARK   12  A    between atoms: O25_29  and  C26_20 
ROOT
ATOM      1  C10 HZM d   1     -26.560  22.405   4.525  0.00  0.00    -0.022 A 
ATOM      2  C11 HZM d   1     -25.839  23.268   5.334  0.00  0.00    -0.074 A 
ATOM      3  C12 HZM d   1     -26.495  24.020   6.295  0.00  0.00    -0.080 A 
ATOM      4  C13 HZM d   1     -27.868  23.916   6.443  0.00  0.00    -0.057 A 
ATOM      5  C14 HZM d   1     -28.596  23.054   5.636  0.00  0.00     0.035 A 
ATOM      6  C24 HZM d   1     -27.938  22.307   4.667  0.00  0.00    -0.048 A 
ATOM      7  H3  HZM d   1     -24.765  23.355   5.215  0.00  0.00     0.084 H 
ATOM      8  H4  HZM d   1     -25.932  24.692   6.933  0.00  0.00     0.083 H 
ATOM      9  H5  HZM d   1     -28.376  24.511   7.193  0.00  0.00     0.086 H 
ATOM     10  H18 HZM d   1     -28.502  21.645   4.020  0.00  0.00     0.087 H 
ENDROOT
BRANCH   5  11
ATOM     11  N15 HZM d   1     -30.045  22.988   5.817  0.00  0.00    -0.327 N 
ATOM     12  C16 HZM d   1     -30.908  21.958   5.253  0.00  0.00     0.222 C 
ATOM     13  O23 HZM d   1     -30.476  21.066   4.604  0.00  0.00    -0.273 OA
ATOM     14  H24 HZM d   1     -30.476  23.702   6.369  0.00  0.00     0.169 HD
BRANCH  12  15
ATOM     15  C17 HZM d   1     -32.414  22.030   5.514  0.00  0.00     0.011 C 
ATOM     16  H6  HZM d   1     -32.936  22.126   4.550  0.00  0.00     0.047 H 
ATOM     17  H7  HZM d   1     -32.624  22.914   6.134  0.00  0.00     0.047 H 
BRANCH  15  18
ATOM     18  C18 HZM d   1     -32.938  20.789   6.235  0.00  0.00    -0.035 C 
ATOM     19  H8  HZM d   1     -32.181  20.453   6.959  0.00  0.00     0.036 H 
ATOM     20  H9  HZM d   1     -33.115  19.995   5.494  0.00  0.00     0.036 H 
BRANCH  18  21
ATOM     21  C19 HZM d   1     -34.245  21.070   6.980  0.00  0.00     0.083 C 
ATOM     22  H10 HZM d   1     -34.621  20.136   7.424  0.00  0.00     0.075 H 
ATOM     23  H11 HZM d   1     -34.990  21.466   6.274  0.00  0.00     0.075 H 
BRANCH  21  24
ATOM     24  N20 HZM d   1     -34.010  22.045   8.032  0.00  0.00    -0.079 N 
ATOM     25  H25 HZM d   1     -33.656  22.896   7.625  0.00  0.00     0.278 HD
BRANCH  24  26
ATOM     26  C21 HZM d   1     -35.250  22.328   8.732  0.00  0.00     0.066 C 
ATOM     27  H12 HZM d   1     -35.063  23.066   9.526  0.00  0.00     0.068 H 
ATOM     28  H13 HZM d   1     -35.639  21.401   9.178  0.00  0.00     0.068 H 
ATOM     29  H14 HZM d   1     -35.988  22.731   8.023  0.00  0.00     0.068 H 
ENDBRANCH  24  26
BRANCH  24  30
ATOM     30  C22 HZM d   1     -33.035  21.515   8.965  0.00  0.00     0.066 C 
ATOM     31  H15 HZM d   1     -32.096  21.301   8.433  0.00  0.00     0.068 H 
ATOM     32  H16 HZM d   1     -33.422  20.588   9.412  0.00  0.00     0.068 H 
ATOM     33  H17 HZM d   1     -32.847  22.254   9.758  0.00  0.00     0.068 H 
ENDBRANCH  24  30
ENDBRANCH  21  24
ENDBRANCH  18  21
ENDBRANCH  15  18
ENDBRANCH  12  15
ENDBRANCH   5  11
BRANCH   1  34
ATOM     34  C09 HZM d   1     -25.833  21.586   3.464  0.00  0.00     0.095 C 
ATOM     35  H2  HZM d   1     -25.050  22.207   3.004  0.00  0.00     0.099 H 
BRANCH  34  36
ATOM     36  C08 HZM d   1     -25.189  20.347   4.079  0.00  0.00     0.019 A 
ATOM     37  C07 HZM d   1     -24.858  19.184   3.371  0.00  0.00    -0.038 A 
ATOM     38  C06 HZM d   1     -24.251  18.151   4.174  0.00  0.00     0.075 A 
ATOM     39  H1  HZM d   1     -25.044  19.070   2.304  0.00  0.00     0.088 H 
ATOM     40  C05 HZM d   1     -24.115  18.510   5.515  0.00  0.00     0.051 A 
ATOM     41  N35 HZM d   1     -23.860  16.960   3.716  0.00  0.00    -0.260 NA
ATOM     42  C04 HZM d   1     -23.542  17.594   6.387  0.00  0.00     0.061 A 
ATOM     43  S34 HZM d   1     -24.736  20.095   5.695  0.00  0.00    -0.088 SA
ATOM     44  C37 HZM d   1     -23.135  16.353   5.882  0.00  0.00    -0.048 A 
ATOM     45  C36 HZM d   1     -23.314  16.067   4.522  0.00  0.00     0.004 A 
ATOM     46  H23 HZM d   1     -22.684  15.618   6.539  0.00  0.00     0.087 H 
ATOM     47  H22 HZM d   1     -23.002  15.106   4.128  0.00  0.00     0.114 H 
BRANCH  42  48
ATOM     48  C02 HZM d   1     -23.375  17.977   7.854  0.00  0.00     0.210 C 
ATOM     49  O01 HZM d   1     -23.965  18.995   8.299  0.00  0.00    -0.644 OA
ATOM     50  O03 HZM d   1     -22.640  17.288   8.600  0.00  0.00    -0.644 OA
ENDBRANCH  42  48
ENDBRANCH  34  36
BRANCH  34  51
ATOM     51  O25 HZM d   1     -26.747  21.190   2.485  0.00  0.00    -0.381 OA
BRANCH  51  52
ATOM     52  C26 HZM d   1     -26.229  21.238   1.183  0.00  0.00     0.005 C 
ATOM     53  H19 HZM d   1     -27.001  20.914   0.469  0.00  0.00     0.066 H 
ATOM     54  H20 HZM d   1     -25.358  20.570   1.110  0.00  0.00     0.066 H 
ATOM     55  H21 HZM d   1     -25.921  22.268   0.949  0.00  0.00     0.066 H 
ENDBRANCH  51  52
ENDBRANCH  34  51
ENDBRANCH   1  34
TORSDOF 12
