REMARK WARNING: 32 MAX_TORS EXCEEDED!!!
REMARK  44 active torsions:
REMARK  status: ('A' for Active; 'I' for Inactive)
REMARK    1  A    between atoms: N_1  and  CA_2 
REMARK    2  A    between atoms: CA_2  and  C_3 
REMARK    3  A    between atoms: CA_2  and  CB_5 
REMARK       I    between atoms: C_3  and  N_9 
REMARK    4  A    between atoms: CB_5  and  CG_6 
REMARK    5  A    between atoms: CG_6  and  SD_7 
REMARK    6  A    between atoms: SD_7  and  CE_8 
REMARK    7  A    between atoms: N_9  and  CA_10 
REMARK    8  A    between atoms: CA_10  and  C_11 
REMARK    9  A    between atoms: CA_10  and  CB_13 
REMARK       I    between atoms: C_11  and  N_23 
REMARK   10  A    between atoms: CB_13  and  CG_14 
REMARK   11  A    between atoms: N_23  and  CA_24 
REMARK   12  A    between atoms: CA_24  and  C_25 
REMARK   13  A    between atoms: CA_24  and  CB_27 
REMARK       I    between atoms: C_25  and  N_31 
REMARK   14  A    between atoms: CB_27  and  CG_28 
REMARK   15  A    between atoms: CG_28  and  CD1_29 
REMARK   16  A    between atoms: CG_28  and  CD2_30 
REMARK   17  A    between atoms: N_31  and  CA_32 
REMARK   18  A    between atoms: CA_32  and  C_33 
REMARK   19  A    between atoms: CA_32  and  CB_35 
REMARK       I    between atoms: C_33  and  N_39 
REMARK   20  A    between atoms: CB_35  and  CG_36 
REMARK   21  A    between atoms: CG_36  and  CD1_37 
REMARK   22  A    between atoms: CG_36  and  CD2_38 
REMARK   23  A    between atoms: N_39  and  CA_40 
REMARK   24  A    between atoms: CA_40  and  C_41 
REMARK   25  A    between atoms: CA_40  and  CB_43 
REMARK       I    between atoms: C_41  and  N_47 
REMARK   26  A    between atoms: CB_43  and  CG_44 
REMARK   27  A    between atoms: CG_44  and  CD1_45 
REMARK   28  A    between atoms: CG_44  and  CD2_46 
REMARK   29  A    between atoms: N_47  and  CA_48 
REMARK   30  A    between atoms: CA_48  and  C_49 
REMARK   31  A    between atoms: CA_48  and  CB_51 
REMARK       I    between atoms: C_49  and  N_55 
REMARK   32  A    between atoms: CB_51  and  CG_52 
REMARK   33  A    between atoms: CG_52  and  CD1_53 
REMARK   34  A    between atoms: CG_52  and  CD2_54 
REMARK   35  A    between atoms: N_55  and  CA_56 
REMARK   36  A    between atoms: CA_56  and  C_57 
REMARK   37  A    between atoms: CA_56  and  CB_59 
REMARK       I    between atoms: C_57  and  N_66 
REMARK   38  A    between atoms: CB_59  and  CG_60 
REMARK   39  A    between atoms: N_66  and  CA_67 
REMARK   40  A    between atoms: CA_67  and  C_68 
REMARK   41  A    between atoms: CA_67  and  CB_70 
REMARK   42  A    between atoms: CB_70  and  CG_71 
REMARK   43  A    between atoms: CG_71  and  CD1_72 
REMARK   44  A    between atoms: CG_71  and  CD2_73 
ROOT
ATOM      1  C   MET d   1       6.991 -31.250  20.736  0.00  0.00     0.241 C 
ATOM      2  O   MET d   1       5.915 -31.115  20.151  0.00  0.00    -0.271 OA
ATOM      3  N   MET d   1       7.639 -30.247  21.339  0.00  0.00    -0.346 N 
ATOM      4  H44 MET d   1       8.507 -30.444  21.795  0.00  0.00     0.163 HD
ENDROOT
BRANCH   1   5
ATOM      5  CA  MET d   1       7.662 -32.607  20.797  0.00  0.00     0.089 C 
ATOM      6  H34 MET d   1       7.692 -32.954  21.840  0.00  0.00     0.087 H 
BRANCH   5   7
ATOM      7  N   MET d   1       6.870 -33.568  20.008  0.00  0.00    -0.346 N 
ATOM      8  C   MET d   1       6.560 -34.792  20.445  0.00  0.00     0.241 C 
ATOM      9  O   MET d   1       6.911 -35.223  21.549  0.00  0.00    -0.271 OA
ATOM     10  H33 MET d   1       6.549 -33.291  19.102  0.00  0.00     0.163 HD
BRANCH   8  11
ATOM     11  CA  MET d   1       5.703 -35.650  19.490  0.00  0.00     0.089 C 
ATOM     12  H23 MET d   1       4.849 -35.025  19.188  0.00  0.00     0.087 H 
BRANCH  11  13
ATOM     13  N   MET d   1       6.386 -36.076  18.241  0.00  0.00    -0.346 N 
ATOM     14  C   MET d   1       6.267 -35.407  17.090  0.00  0.00     0.241 C 
ATOM     15  O   MET d   1       5.566 -34.400  16.971  0.00  0.00    -0.271 OA
ATOM     16  H22 MET d   1       6.958 -36.896  18.262  0.00  0.00     0.163 HD
BRANCH  14  17
ATOM     17  CA  MET d   1       7.051 -35.941  15.877  0.00  0.00     0.093 C 
ATOM     18  H13 MET d   1       7.106 -37.038  15.937  0.00  0.00     0.088 H 
BRANCH  17  19
ATOM     19  N   MET d   1       6.277 -35.546  14.701  0.00  0.00    -0.346 N 
ATOM     20  C   MET d   1       5.197 -36.214  14.298  0.00  0.00     0.249 C 
ATOM     21  O   MET d   1       4.805 -37.267  14.814  0.00  0.00    -0.271 OA
ATOM     22  H12 MET d   1       6.569 -34.744  14.180  0.00  0.00     0.163 HD
BRANCH  20  23
ATOM     23  CA  MET d   1       4.473 -35.597  13.114  0.00  0.00     0.176 C 
ATOM     24  H4  MET d   1       4.369 -34.516  13.287  0.00  0.00     0.099 H 
BRANCH  23  25
ATOM     25  N   MET d   1       5.301 -35.808  11.896  0.00  0.00    -0.066 N 
ATOM     26  H1  MET d   1       4.835 -35.404  11.099  0.00  0.00     0.275 HD
ATOM     27  H2  MET d   1       5.430 -36.796  11.745  0.00  0.00     0.275 HD
ATOM     28  H3  MET d   1       6.199 -35.367  12.019  0.00  0.00     0.275 HD
ENDBRANCH  23  25
BRANCH  23  29
ATOM     29  CB  MET d   1       3.063 -36.195  12.949  0.00  0.00    -0.022 C 
ATOM     30  H5  MET d   1       2.443 -35.835  13.783  0.00  0.00     0.037 H 
ATOM     31  H6  MET d   1       3.151 -37.290  13.003  0.00  0.00     0.037 H 
BRANCH  29  32
ATOM     32  CG  MET d   1       2.346 -35.845  11.645  0.00  0.00    -0.021 C 
ATOM     33  H7  MET d   1       1.269 -35.786  11.860  0.00  0.00     0.049 H 
ATOM     34  H8  MET d   1       2.533 -36.660  10.931  0.00  0.00     0.049 H 
BRANCH  32  35
ATOM     35  SD  MET d   1       2.836 -34.292  10.850  0.00  0.00    -0.173 SA
BRANCH  35  36
ATOM     36  CE  MET d   1       3.792 -34.843   9.427  0.00  0.00    -0.035 C 
ATOM     37  H9  MET d   1       4.146 -33.968   8.862  0.00  0.00     0.041 H 
ATOM     38  H10 MET d   1       3.159 -35.467   8.779  0.00  0.00     0.041 H 
ATOM     39  H11 MET d   1       4.656 -35.431   9.771  0.00  0.00     0.041 H 
ENDBRANCH  35  36
ENDBRANCH  32  35
ENDBRANCH  29  32
ENDBRANCH  23  29
ENDBRANCH  20  23
ENDBRANCH  17  19
BRANCH  17  40
ATOM     40  CB  MET d   1       8.496 -35.385  15.780  0.00  0.00    -0.012 C 
ATOM     41  H14 MET d   1       8.436 -34.342  15.437  0.00  0.00     0.044 H 
ATOM     42  H15 MET d   1       9.042 -35.985  15.037  0.00  0.00     0.044 H 
BRANCH  40  43
ATOM     43  CG  MET d   1       9.284 -35.408  17.067  0.00  0.00    -0.028 A 
ATOM     44  CD1 MET d   1       8.899 -34.889  18.232  0.00  0.00    -0.015 A 
ATOM     45  NE1 MET d   1       9.838 -35.085  19.195  0.00  0.00    -0.365 N 
ATOM     46  H16 MET d   1       7.953 -34.374  18.392  0.00  0.00     0.112 H 
ATOM     47  CE2 MET d   1      10.911 -35.717  18.648  0.00  0.00     0.042 A 
ATOM     48  H17 MET d   1       9.751 -34.800  20.181  0.00  0.00     0.165 HD
ATOM     49  CD2 MET d   1      10.597 -35.947  17.295  0.00  0.00    -0.002 A 
ATOM     50  CZ2 MET d   1      12.119 -36.121  19.228  0.00  0.00    -0.056 A 
ATOM     51  CE3 MET d   1      11.531 -36.601  16.494  0.00  0.00    -0.070 A 
ATOM     52  CZ3 MET d   1      12.740 -37.001  17.068  0.00  0.00    -0.082 A 
ATOM     53  H18 MET d   1      11.324 -36.795  15.448  0.00  0.00     0.084 H 
ATOM     54  CH2 MET d   1      13.018 -36.759  18.422  0.00  0.00    -0.081 A 
ATOM     55  H20 MET d   1      13.477 -37.508  16.456  0.00  0.00     0.083 H 
ATOM     56  H21 MET d   1      13.965 -37.085  18.836  0.00  0.00     0.083 H 
ATOM     57  H19 MET d   1      12.332 -35.935  20.274  0.00  0.00     0.086 H 
ENDBRANCH  40  43
ENDBRANCH  17  40
ENDBRANCH  14  17
ENDBRANCH  11  13
BRANCH  11  58
ATOM     58  CB  MET d   1       5.144 -36.882  20.218  0.00  0.00    -0.035 C 
ATOM     59  H24 MET d   1       4.999 -36.607  21.273  0.00  0.00     0.037 H 
ATOM     60  H25 MET d   1       5.898 -37.680  20.148  0.00  0.00     0.037 H 
BRANCH  58  61
ATOM     61  CG  MET d   1       3.815 -37.454  19.701  0.00  0.00    -0.059 C 
ATOM     62  H26 MET d   1       3.825 -38.534  19.912  0.00  0.00     0.038 H 
BRANCH  61  63
ATOM     63  CD1 MET d   1       2.633 -36.853  20.449  0.00  0.00    -0.073 C 
ATOM     64  H27 MET d   1       1.697 -37.280  20.059  0.00  0.00     0.028 H 
ATOM     65  H28 MET d   1       2.626 -35.762  20.307  0.00  0.00     0.028 H 
ATOM     66  H29 MET d   1       2.722 -37.083  21.521  0.00  0.00     0.028 H 
ENDBRANCH  61  63
BRANCH  61  67
ATOM     67  CD2 MET d   1       3.642 -37.293  18.192  0.00  0.00    -0.073 C 
ATOM     68  H30 MET d   1       4.507 -37.734  17.675  0.00  0.00     0.028 H 
ATOM     69  H31 MET d   1       3.572 -36.224  17.943  0.00  0.00     0.028 H 
ATOM     70  H32 MET d   1       2.723 -37.805  17.872  0.00  0.00     0.028 H 
ENDBRANCH  61  67
ENDBRANCH  58  61
ENDBRANCH  11  58
ENDBRANCH   8  11
ENDBRANCH   5   7
BRANCH   5  71
ATOM     71  CB  MET d   1       9.108 -32.453  20.288  0.00  0.00    -0.035 C 
ATOM     72  H35 MET d   1       9.139 -31.530  19.691  0.00  0.00     0.037 H 
ATOM     73  H36 MET d   1       9.310 -33.317  19.638  0.00  0.00     0.037 H 
BRANCH  71  74
ATOM     74  CG  MET d   1      10.277 -32.371  21.300  0.00  0.00    -0.059 C 
ATOM     75  H37 MET d   1      11.031 -31.718  20.835  0.00  0.00     0.038 H 
BRANCH  74  76
ATOM     76  CD1 MET d   1       9.907 -31.760  22.645  0.00  0.00    -0.073 C 
ATOM     77  H38 MET d   1      10.793 -31.742  23.296  0.00  0.00     0.028 H 
ATOM     78  H39 MET d   1       9.117 -32.363  23.117  0.00  0.00     0.028 H 
ATOM     79  H40 MET d   1       9.543 -30.733  22.494  0.00  0.00     0.028 H 
ENDBRANCH  74  76
BRANCH  74  80
ATOM     80  CD2 MET d   1      10.949 -33.691  21.609  0.00  0.00    -0.073 C 
ATOM     81  H41 MET d   1      11.241 -34.183  20.669  0.00  0.00     0.028 H 
ATOM     82  H42 MET d   1      10.250 -34.338  22.160  0.00  0.00     0.028 H 
ATOM     83  H43 MET d   1      11.844 -33.512  22.223  0.00  0.00     0.028 H 
ENDBRANCH  74  80
ENDBRANCH  71  74
ENDBRANCH   5  71
ENDBRANCH   1   5
BRANCH   3  84
ATOM     84  CA  MET d   1       7.132 -28.869  21.361  0.00  0.00     0.089 C 
ATOM     85  H45 MET d   1       7.468 -28.394  20.427  0.00  0.00     0.087 H 
BRANCH  84  86
ATOM     86  C   MET d   1       7.657 -27.994  22.520  0.00  0.00     0.241 C 
ATOM     87  O   MET d   1       7.640 -28.409  23.679  0.00  0.00    -0.271 OA
ATOM     88  N   MET d   1       8.111 -26.783  22.188  0.00  0.00    -0.346 N 
ATOM     89  H55 MET d   1       8.106 -26.526  21.222  0.00  0.00     0.163 HD
BRANCH  88  90
ATOM     90  CA  MET d   1       8.622 -25.798  23.170  0.00  0.00     0.089 C 
ATOM     91  H56 MET d   1       8.645 -24.834  22.641  0.00  0.00     0.087 H 
BRANCH  90  92
ATOM     92  C   MET d   1      10.053 -26.039  23.671  0.00  0.00     0.241 C 
ATOM     93  O   MET d   1      11.009 -25.543  23.061  0.00  0.00    -0.271 OA
ATOM     94  N   MET d   1      10.171 -26.756  24.797  0.00  0.00    -0.346 N 
ATOM     95  H66 MET d   1       9.322 -27.064  25.226  0.00  0.00     0.163 HD
BRANCH  94  96
ATOM     96  CA  MET d   1      11.406 -27.128  25.453  0.00  0.00     0.093 C 
ATOM     97  H67 MET d   1      11.155 -27.822  26.269  0.00  0.00     0.088 H 
BRANCH  96  98
ATOM     98  C   MET d   1      12.040 -25.884  26.108  0.00  0.00     0.241 C 
ATOM     99  O   MET d   1      11.506 -25.368  27.099  0.00  0.00    -0.271 OA
ATOM    100  N   MET d   1      13.167 -25.412  25.567  0.00  0.00    -0.345 N 
ATOM    101  H75 MET d   1      13.535 -25.863  24.754  0.00  0.00     0.163 HD
BRANCH 100 102
ATOM    102  CA  MET d   1      13.878 -24.269  26.115  0.00  0.00     0.096 C 
ATOM    103  H76 MET d   1      13.881 -24.325  27.214  0.00  0.00     0.089 H 
BRANCH 102 104
ATOM    104  C   MET d   1      13.133 -23.019  25.647  0.00  0.00     0.196 C 
ATOM    105  O   MET d   1      11.919 -23.023  25.390  0.00  0.00    -0.646 OA
ATOM    106  OXT MET d   1      13.734 -21.955  25.470  0.00  0.00    -0.646 OA
ENDBRANCH 102 104
BRANCH 102 107
ATOM    107  CB  MET d   1      15.330 -24.197  25.602  0.00  0.00    -0.034 C 
ATOM    108  H77 MET d   1      15.772 -23.295  26.051  0.00  0.00     0.037 H 
ATOM    109  H78 MET d   1      15.266 -24.070  24.511  0.00  0.00     0.037 H 
BRANCH 107 110
ATOM    110  CG  MET d   1      16.328 -25.329  25.844  0.00  0.00    -0.059 C 
ATOM    111  H79 MET d   1      16.216 -25.689  26.877  0.00  0.00     0.038 H 
BRANCH 110 112
ATOM    112  CD1 MET d   1      16.093 -26.458  24.880  0.00  0.00    -0.073 C 
ATOM    113  H80 MET d   1      16.820 -27.261  25.071  0.00  0.00     0.028 H 
ATOM    114  H81 MET d   1      16.213 -26.092  23.850  0.00  0.00     0.028 H 
ATOM    115  H82 MET d   1      15.073 -26.848  25.014  0.00  0.00     0.028 H 
ENDBRANCH 110 112
BRANCH 110 116
ATOM    116  CD2 MET d   1      17.734 -24.868  25.617  0.00  0.00    -0.073 C 
ATOM    117  H83 MET d   1      17.962 -24.037  26.300  0.00  0.00     0.028 H 
ATOM    118  H84 MET d   1      17.845 -24.528  24.577  0.00  0.00     0.028 H 
ATOM    119  H85 MET d   1      18.428 -25.700  25.807  0.00  0.00     0.028 H 
ENDBRANCH 110 116
ENDBRANCH 107 110
ENDBRANCH 102 107
ENDBRANCH 100 102
ENDBRANCH  96  98
BRANCH  96 120
ATOM    120  CB  MET d   1      12.324 -27.904  24.483  0.00  0.00    -0.014 C 
ATOM    121  H68 MET d   1      12.604 -27.228  23.662  0.00  0.00     0.043 H 
ATOM    122  H69 MET d   1      11.756 -28.755  24.080  0.00  0.00     0.043 H 
BRANCH 120 123
ATOM    123  CG  MET d   1      13.586 -28.435  25.104  0.00  0.00    -0.056 A 
ATOM    124  CD1 MET d   1      13.894 -28.204  26.442  0.00  0.00    -0.077 A 
ATOM    125  CE1 MET d   1      15.064 -28.663  26.971  0.00  0.00    -0.082 A 
ATOM    126  H70 MET d   1      13.199 -27.655  27.067  0.00  0.00     0.084 H 
ATOM    127  CZ  MET d   1      15.975 -29.346  26.201  0.00  0.00    -0.083 A 
ATOM    128  H72 MET d   1      15.280 -28.486  28.018  0.00  0.00     0.083 H 
ATOM    129  CE2 MET d   1      15.702 -29.573  24.866  0.00  0.00    -0.082 A 
ATOM    130  H74 MET d   1      16.900 -29.704  26.638  0.00  0.00     0.083 H 
ATOM    131  CD2 MET d   1      14.516 -29.110  24.320  0.00  0.00    -0.077 A 
ATOM    132  H73 MET d   1      16.412 -30.111  24.249  0.00  0.00     0.083 H 
ATOM    133  H71 MET d   1      14.310 -29.276  23.269  0.00  0.00     0.084 H 
ENDBRANCH 120 123
ENDBRANCH  96 120
ENDBRANCH  94  96
ENDBRANCH  90  92
BRANCH  90 134
ATOM    134  CB  MET d   1       7.656 -25.628  24.362  0.00  0.00    -0.035 C 
ATOM    135  H57 MET d   1       6.714 -25.222  23.965  0.00  0.00     0.037 H 
ATOM    136  H58 MET d   1       8.109 -24.898  25.049  0.00  0.00     0.037 H 
BRANCH 134 137
ATOM    137  CG  MET d   1       7.300 -26.890  25.198  0.00  0.00    -0.059 C 
ATOM    138  H59 MET d   1       8.119 -27.604  25.026  0.00  0.00     0.038 H 
BRANCH 137 139
ATOM    139  CD1 MET d   1       7.238 -26.661  26.695  0.00  0.00    -0.073 C 
ATOM    140  H60 MET d   1       6.981 -27.604  27.200  0.00  0.00     0.028 H 
ATOM    141  H61 MET d   1       6.471 -25.905  26.919  0.00  0.00     0.028 H 
ATOM    142  H62 MET d   1       8.216 -26.308  27.053  0.00  0.00     0.028 H 
ENDBRANCH 137 139
BRANCH 137 143
ATOM    143  CD2 MET d   1       6.043 -27.557  24.740  0.00  0.00    -0.073 C 
ATOM    144  H63 MET d   1       6.090 -27.722  23.654  0.00  0.00     0.028 H 
ATOM    145  H64 MET d   1       5.181 -26.916  24.976  0.00  0.00     0.028 H 
ATOM    146  H65 MET d   1       5.933 -28.524  25.253  0.00  0.00     0.028 H 
ENDBRANCH 137 143
ENDBRANCH 134 137
ENDBRANCH  90 134
ENDBRANCH  88  90
ENDBRANCH  84  86
BRANCH  84 147
ATOM    147  CB  MET d   1       5.601 -28.868  21.361  0.00  0.00    -0.035 C 
ATOM    148  H46 MET d   1       5.266 -29.102  22.382  0.00  0.00     0.037 H 
ATOM    149  H47 MET d   1       5.265 -29.659  20.675  0.00  0.00     0.037 H 
BRANCH 147 150
ATOM    150  CG  MET d   1       4.924 -27.563  20.935  0.00  0.00    -0.059 C 
ATOM    151  H48 MET d   1       3.838 -27.682  21.063  0.00  0.00     0.038 H 
BRANCH 150 152
ATOM    152  CD1 MET d   1       5.382 -26.408  21.813  0.00  0.00    -0.073 C 
ATOM    153  H49 MET d   1       4.884 -25.482  21.490  0.00  0.00     0.028 H 
ATOM    154  H50 MET d   1       6.472 -26.289  21.723  0.00  0.00     0.028 H 
ATOM    155  H51 MET d   1       5.121 -26.618  22.861  0.00  0.00     0.028 H 
ENDBRANCH 150 152
BRANCH 150 156
ATOM    156  CD2 MET d   1       5.200 -27.269  19.469  0.00  0.00    -0.073 C 
ATOM    157  H52 MET d   1       4.861 -28.116  18.855  0.00  0.00     0.028 H 
ATOM    158  H53 MET d   1       6.280 -27.119  19.322  0.00  0.00     0.028 H 
ATOM    159  H54 MET d   1       4.659 -26.360  19.169  0.00  0.00     0.028 H 
ENDBRANCH 150 156
ENDBRANCH 147 150
ENDBRANCH  84 147
ENDBRANCH   3  84
TORSDOF 44
