REMARK  14 active torsions:
REMARK  status: ('A' for Active; 'I' for Inactive)
REMARK    1  A    between atoms: C26_1  and  C27_20 
REMARK    2  A    between atoms: C26_1  and  C28_21 
REMARK    3  A    between atoms: C26_1  and  C29_22 
REMARK    4  A    between atoms: S1_35  and  C26_1 
REMARK    5  A    between atoms: C10_3  and  C11_4 
REMARK    6  A    between atoms: C9_29  and  C10_3 
REMARK    7  A    between atoms: C11_4  and  C12_5 
REMARK    8  A    between atoms: C12_5  and  C13_6 
REMARK    9  A    between atoms: C19_12  and  C20_14 
REMARK   10  A    between atoms: C8_28  and  C19_12 
REMARK   11  A    between atoms: N1_31  and  C2_13 
REMARK   12  A    between atoms: C23_17  and  S1_35 
REMARK       I    between atoms: N2_30  and  C7_27 
REMARK       I    between atoms: C7_27  and  N1_31 
REMARK   13  A    between atoms: N2_30  and  C8_28 
REMARK   14  A    between atoms: C9_29  and  N2_30 
ROOT
ATOM      1  C7  MOL d   1      -0.052   2.586   0.302  0.00  0.00     0.318 C 
ATOM      2  N2  MOL d   1       0.346   2.216  -0.949  0.00  0.00    -0.334 N 
ATOM      3  N1  MOL d   1      -0.357   3.890   0.470  0.00  0.00    -0.338 N 
ATOM      4  O1  MOL d   1      -0.129   1.779   1.230  0.00  0.00    -0.247 OA
ATOM      5  H45 MOL d   1      -0.470   4.444  -0.355  0.00  0.00     0.164 HD
ENDROOT
BRANCH   2   6
ATOM      6  C8  MOL d   1       0.585   0.798  -1.263  0.00  0.00     0.003 C 
ATOM      7  H41 MOL d   1      -0.314   0.224  -0.992  0.00  0.00     0.065 H 
ATOM      8  H42 MOL d   1       0.767   0.706  -2.344  0.00  0.00     0.065 H 
BRANCH   6   9
ATOM      9  C19 MOL d   1       1.795   0.199  -0.509  0.00  0.00    -0.026 C 
ATOM     10  H20 MOL d   1       2.652   0.174  -1.198  0.00  0.00     0.042 H 
ATOM     11  H21 MOL d   1       2.029   0.854   0.343  0.00  0.00     0.042 H 
BRANCH   9  12
ATOM     12  C20 MOL d   1       1.569  -1.202   0.018  0.00  0.00    -0.057 A 
ATOM     13  C21 MOL d   1       2.576  -2.149  -0.146  0.00  0.00    -0.076 A 
ATOM     14  C22 MOL d   1       2.391  -3.437   0.333  0.00  0.00    -0.066 A 
ATOM     15  H23 MOL d   1       3.500  -1.881  -0.646  0.00  0.00     0.084 H 
ATOM     16  C23 MOL d   1       1.206  -3.777   0.976  0.00  0.00     0.001 A 
ATOM     17  H24 MOL d   1       3.171  -4.179   0.206  0.00  0.00     0.085 H 
ATOM     18  C24 MOL d   1       0.207  -2.828   1.169  0.00  0.00    -0.066 A 
ATOM     19  C25 MOL d   1       0.390  -1.535   0.696  0.00  0.00    -0.076 A 
ATOM     20  H25 MOL d   1      -0.708  -3.096   1.685  0.00  0.00     0.085 H 
ATOM     21  H26 MOL d   1      -0.378  -0.786   0.851  0.00  0.00     0.084 H 
BRANCH  16  22
ATOM     22  S1  MOL d   1       0.921  -5.430   1.529  0.00  0.00    -0.110 SA
BRANCH  22  23
ATOM     23  C26 MOL d   1       1.641  -6.684   0.388  0.00  0.00     0.094 C 
BRANCH  23  24
ATOM     24  C27 MOL d   1       1.489  -6.229  -1.092  0.00  0.00     0.192 C 
ATOM     25  O2  MOL d   1       0.554  -5.456  -1.402  0.00  0.00    -0.647 OA
ATOM     26  O3  MOL d   1       2.277  -6.717  -1.931  0.00  0.00    -0.647 OA
ENDBRANCH  23  24
BRANCH  23  27
ATOM     27  C28 MOL d   1       0.796  -7.956   0.539  0.00  0.00    -0.051 C 
ATOM     28  H27 MOL d   1       0.868  -8.323   1.573  0.00  0.00     0.030 H 
ATOM     29  H28 MOL d   1       1.169  -8.728  -0.151  0.00  0.00     0.030 H 
ATOM     30  H29 MOL d   1      -0.254  -7.729   0.302  0.00  0.00     0.030 H 
ENDBRANCH  23  27
BRANCH  23  31
ATOM     31  C29 MOL d   1       3.120  -7.005   0.718  0.00  0.00    -0.051 C 
ATOM     32  H30 MOL d   1       3.726  -6.093   0.610  0.00  0.00     0.030 H 
ATOM     33  H31 MOL d   1       3.491  -7.776   0.027  0.00  0.00     0.030 H 
ATOM     34  H32 MOL d   1       3.193  -7.373   1.752  0.00  0.00     0.030 H 
ENDBRANCH  23  31
ENDBRANCH  22  23
ENDBRANCH  16  22
ENDBRANCH   9  12
ENDBRANCH   6   9
ENDBRANCH   2   6
BRANCH   2  35
ATOM     35  C9  MOL d   1       0.497   3.128  -2.095  0.00  0.00    -0.001 C 
ATOM     36  H43 MOL d   1       0.586   2.520  -3.007  0.00  0.00     0.064 H 
ATOM     37  H44 MOL d   1      -0.406   3.753  -2.157  0.00  0.00     0.064 H 
BRANCH  35  38
ATOM     38  C10 MOL d   1       1.720   4.059  -2.017  0.00  0.00    -0.050 C 
ATOM     39  H3  MOL d   1       1.664   4.759  -2.863  0.00  0.00     0.035 H 
ATOM     40  H4  MOL d   1       1.657   4.619  -1.073  0.00  0.00     0.035 H 
BRANCH  38  41
ATOM     41  C11 MOL d   1       3.099   3.370  -2.065  0.00  0.00    -0.063 C 
ATOM     42  H5  MOL d   1       3.457   3.366  -3.105  0.00  0.00     0.033 H 
ATOM     43  H6  MOL d   1       2.991   2.334  -1.710  0.00  0.00     0.033 H 
BRANCH  41  44
ATOM     44  C12 MOL d   1       4.135   4.089  -1.187  0.00  0.00    -0.062 C 
ATOM     45  H7  MOL d   1       3.966   5.173  -1.261  0.00  0.00     0.033 H 
ATOM     46  H8  MOL d   1       5.141   3.848  -1.562  0.00  0.00     0.033 H 
BRANCH  44  47
ATOM     47  C13 MOL d   1       4.052   3.677   0.301  0.00  0.00    -0.054 C 
ATOM     48  C14 MOL d   1       4.519   4.794   1.263  0.00  0.00    -0.062 C 
ATOM     49  C15 MOL d   1       4.375   4.413   2.762  0.00  0.00    -0.065 C 
ATOM     50  H10 MOL d   1       3.916   5.694   1.072  0.00  0.00     0.033 H 
ATOM     51  H11 MOL d   1       5.578   5.011   1.058  0.00  0.00     0.033 H 
ATOM     52  C16 MOL d   1       4.306   2.891   3.020  0.00  0.00    -0.065 C 
ATOM     53  H12 MOL d   1       3.453   4.871   3.148  0.00  0.00     0.033 H 
ATOM     54  H13 MOL d   1       5.241   4.817   3.306  0.00  0.00     0.033 H 
ATOM     55  C17 MOL d   1       5.222   2.142   2.041  0.00  0.00    -0.065 C 
ATOM     56  H14 MOL d   1       3.270   2.546   2.884  0.00  0.00     0.033 H 
ATOM     57  H15 MOL d   1       4.629   2.683   4.051  0.00  0.00     0.033 H 
ATOM     58  C18 MOL d   1       4.808   2.345   0.570  0.00  0.00    -0.062 C 
ATOM     59  H16 MOL d   1       5.183   1.067   2.273  0.00  0.00     0.033 H 
ATOM     60  H17 MOL d   1       6.251   2.508   2.171  0.00  0.00     0.033 H 
ATOM     61  H18 MOL d   1       5.717   2.333  -0.049  0.00  0.00     0.033 H 
ATOM     62  H19 MOL d   1       4.153   1.511   0.277  0.00  0.00     0.033 H 
ATOM     63  H9  MOL d   1       2.990   3.494   0.520  0.00  0.00     0.040 H 
ENDBRANCH  44  47
ENDBRANCH  41  44
ENDBRANCH  38  41
ENDBRANCH  35  38
ENDBRANCH   2  35
BRANCH   3  64
ATOM     64  C2  MOL d   1      -0.537   4.563   1.760  0.00  0.00     0.014 C 
ATOM     65  C1  MOL d   1       0.801   4.879   2.477  0.00  0.00    -0.046 C 
ATOM     66  C6  MOL d   1       0.690   5.051   4.008  0.00  0.00    -0.063 C 
ATOM     67  H1  MOL d   1       1.203   5.812   2.056  0.00  0.00     0.035 H 
ATOM     68  H2  MOL d   1       1.501   4.054   2.275  0.00  0.00     0.035 H 
ATOM     69  C55 MOL d   1      -0.670   5.636   4.432  0.00  0.00    -0.065 C 
ATOM     70  H39 MOL d   1       1.488   5.728   4.347  0.00  0.00     0.033 H 
ATOM     71  H40 MOL d   1       0.817   4.068   4.485  0.00  0.00     0.033 H 
ATOM     72  C4  MOL d   1      -1.876   4.801   3.944  0.00  0.00    -0.063 C 
ATOM     73  H37 MOL d   1      -0.701   5.685   5.530  0.00  0.00     0.033 H 
ATOM     74  H38 MOL d   1      -0.758   6.651   4.017  0.00  0.00     0.033 H 
ATOM     75  C3  MOL d   1      -1.545   3.906   2.737  0.00  0.00    -0.046 C 
ATOM     76  H35 MOL d   1      -2.216   4.161   4.771  0.00  0.00     0.033 H 
ATOM     77  H36 MOL d   1      -2.685   5.489   3.658  0.00  0.00     0.033 H 
ATOM     78  H33 MOL d   1      -1.113   2.964   3.106  0.00  0.00     0.035 H 
ATOM     79  H34 MOL d   1      -2.476   3.694   2.191  0.00  0.00     0.035 H 
ATOM     80  H22 MOL d   1      -0.977   5.539   1.506  0.00  0.00     0.072 H 
ENDBRANCH   3  64
TORSDOF 14
