REMARK WARNING: 32 MAX_TORS EXCEEDED!!!
REMARK  38 active torsions:
REMARK  status: ('A' for Active; 'I' for Inactive)
REMARK    1  A    between atoms: N_1  and  CA_2 
REMARK    2  A    between atoms: CA_2  and  C_3 
REMARK    3  A    between atoms: CA_2  and  CB_5 
REMARK       I    between atoms: C_3  and  N_10 
REMARK    4  A    between atoms: CB_5  and  CG_6 
REMARK    5  A    between atoms: CG_6  and  CD_7 
REMARK    6  A    between atoms: N_10  and  CA_11 
REMARK    7  A    between atoms: CA_11  and  C_12 
REMARK       I    between atoms: C_12  and  N_14 
REMARK    8  A    between atoms: N_14  and  CA_15 
REMARK    9  A    between atoms: CA_15  and  C_16 
REMARK   10  A    between atoms: CA_15  and  CB_18 
REMARK       I    between atoms: C_16  and  N_22 
REMARK   11  A    between atoms: CB_18  and  CG_19 
REMARK   12  A    between atoms: CG_19  and  CD1_20 
REMARK   13  A    between atoms: CG_19  and  CD2_21 
REMARK   14  A    between atoms: N_22  and  CA_23 
REMARK   15  A    between atoms: CA_23  and  C_24 
REMARK   16  A    between atoms: CA_23  and  CB_26 
REMARK       I    between atoms: C_24  and  N_30 
REMARK   17  A    between atoms: CB_26  and  CG_27 
REMARK   18  A    between atoms: N_30  and  CA_31 
REMARK   19  A    between atoms: CA_31  and  C_32 
REMARK   20  A    between atoms: CA_31  and  CB_34 
REMARK       I    between atoms: C_32  and  N_41 
REMARK   21  A    between atoms: CB_34  and  CG_35 
REMARK   22  A    between atoms: N_41  and  CA_42 
REMARK   23  A    between atoms: CA_42  and  C_43 
REMARK   24  A    between atoms: CA_42  and  CB_45 
REMARK       I    between atoms: C_43  and  N_49 
REMARK   25  A    between atoms: CB_45  and  CG_46 
REMARK   26  A    between atoms: CG_46  and  CD1_47 
REMARK   27  A    between atoms: CG_46  and  CD2_48 
REMARK   28  A    between atoms: N_49  and  CA_50 
REMARK   29  A    between atoms: CA_50  and  C_51 
REMARK   30  A    between atoms: CA_50  and  CB_53 
REMARK       I    between atoms: C_51  and  N_60 
REMARK   31  A    between atoms: CB_53  and  CG_54 
REMARK   32  A    between atoms: N_60  and  CA_61 
REMARK   33  A    between atoms: CA_61  and  C_62 
REMARK   34  A    between atoms: CA_61  and  CB_64 
REMARK       I    between atoms: C_62  and  N_68 
REMARK   35  A    between atoms: CB_64  and  CG_65 
REMARK   36  A    between atoms: N_68  and  CA_69 
REMARK   37  A    between atoms: CA_69  and  C_70 
REMARK   38  A    between atoms: CA_69  and  CB_72 
ROOT
ATOM      1  CA  PHE d   1       9.639   8.620  33.283  0.00  0.00     0.093 C 
ATOM      2  H28 PHE d   1      10.352   8.471  34.107  0.00  0.00     0.088 H 
ENDROOT
BRANCH   1   3
ATOM      3  N   PHE d   1       9.919   7.617  32.262  0.00  0.00    -0.346 N 
ATOM      4  C   ASP d   1      10.017   6.326  32.589  0.00  0.00     0.241 C 
ATOM      5  O   ASP d   1       9.893   5.929  33.754  0.00  0.00    -0.271 OA
ATOM      6  H27 PHE d   1      10.039   7.898  31.310  0.00  0.00     0.163 HD
BRANCH   4   7
ATOM      7  CA  ASP d   1      10.284   5.329  31.471  0.00  0.00     0.098 C 
ATOM      8  H24 ASP d   1       9.825   4.370  31.753  0.00  0.00     0.088 H 
BRANCH   7   9
ATOM      9  N   ASP d   1       9.694   5.758  30.207  0.00  0.00    -0.346 N 
ATOM     10  C   LEU d   1       8.369   5.883  30.086  0.00  0.00     0.241 C 
ATOM     11  O   LEU d   1       7.596   5.697  31.032  0.00  0.00    -0.271 OA
ATOM     12  H23 ASP d   1      10.285   5.960  29.426  0.00  0.00     0.163 HD
BRANCH  10  13
ATOM     13  CA  LEU d   1       7.815   6.276  28.722  0.00  0.00     0.089 C 
ATOM     14  H13 LEU d   1       7.664   7.365  28.721  0.00  0.00     0.087 H 
BRANCH  13  15
ATOM     15  N   LEU d   1       8.730   5.953  27.636  0.00  0.00    -0.346 N 
ATOM     16  C   GLY d   1       9.525   6.860  27.069  0.00  0.00     0.236 C 
ATOM     17  O   GLY d   1       9.540   8.043  27.418  0.00  0.00    -0.272 OA
ATOM     18  H12 LEU d   1       8.763   5.011  27.302  0.00  0.00     0.163 HD
BRANCH  16  19
ATOM     19  CA  GLY d   1      10.430   6.375  25.955  0.00  0.00     0.069 C 
ATOM     20  H10 GLY d   1      10.266   5.296  25.815  0.00  0.00     0.078 H 
ATOM     21  H11 GLY d   1      10.165   6.909  25.031  0.00  0.00     0.078 H 
BRANCH  19  22
ATOM     22  N   GLY d   1      11.836   6.597  26.231  0.00  0.00    -0.351 N 
ATOM     23  C   GLU d   1      12.593   5.654  26.788  0.00  0.00     0.248 C 
ATOM     24  O   GLU d   1      12.157   4.553  27.123  0.00  0.00    -0.271 OA
ATOM     25  H9  GLY d   1      12.246   7.479  25.998  0.00  0.00     0.163 HD
BRANCH  23  26
ATOM     26  CA  GLU d   1      14.066   6.009  27.001  0.00  0.00     0.176 C 
ATOM     27  H4  GLU d   1      14.157   7.104  27.044  0.00  0.00     0.099 H 
BRANCH  26  28
ATOM     28  N   GLU d   1      14.560   5.459  28.258  0.00  0.00    -0.066 N 
ATOM     29  H1  GLU d   1      15.530   5.706  28.375  0.00  0.00     0.275 HD
ATOM     30  H2  GLU d   1      14.468   4.455  28.245  0.00  0.00     0.275 HD
ATOM     31  H3  GLU d   1      14.023   5.835  29.023  0.00  0.00     0.275 HD
ENDBRANCH  26  28
BRANCH  26  32
ATOM     32  CB  GLU d   1      14.902   5.498  25.827  0.00  0.00    -0.021 C 
ATOM     33  H5  GLU d   1      14.805   4.403  25.783  0.00  0.00     0.037 H 
ATOM     34  H6  GLU d   1      15.953   5.766  26.008  0.00  0.00     0.037 H 
BRANCH  32  35
ATOM     35  CG  GLU d   1      14.487   6.069  24.481  0.00  0.00     0.018 C 
ATOM     36  H7  GLU d   1      15.191   6.867  24.205  0.00  0.00     0.049 H 
ATOM     37  H8  GLU d   1      13.475   6.489  24.574  0.00  0.00     0.049 H 
BRANCH  35  38
ATOM     38  CD  GLU d   1      14.481   5.027  23.383  0.00  0.00     0.172 C 
ATOM     39  OE1 GLU d   1      15.279   4.071  23.464  0.00  0.00    -0.648 OA
ATOM     40  OE2 GLU d   1      13.669   5.160  22.442  0.00  0.00    -0.648 OA
ENDBRANCH  35  38
ENDBRANCH  32  35
ENDBRANCH  26  32
ENDBRANCH  23  26
ENDBRANCH  19  22
ENDBRANCH  16  19
ENDBRANCH  13  15
BRANCH  13  41
ATOM     41  CB  LEU d   1       6.461   5.604  28.490  0.00  0.00    -0.035 C 
ATOM     42  H14 LEU d   1       5.836   5.798  29.375  0.00  0.00     0.037 H 
ATOM     43  H15 LEU d   1       6.637   4.522  28.395  0.00  0.00     0.037 H 
BRANCH  41  44
ATOM     44  CG  LEU d   1       5.674   6.056  27.258  0.00  0.00    -0.059 C 
ATOM     45  H16 LEU d   1       6.301   5.896  26.368  0.00  0.00     0.038 H 
BRANCH  44  46
ATOM     46  CD1 LEU d   1       4.408   5.230  27.106  0.00  0.00    -0.073 C 
ATOM     47  H17 LEU d   1       3.855   5.567  26.217  0.00  0.00     0.028 H 
ATOM     48  H18 LEU d   1       3.779   5.356  27.999  0.00  0.00     0.028 H 
ATOM     49  H19 LEU d   1       4.674   4.169  26.992  0.00  0.00     0.028 H 
ENDBRANCH  44  46
BRANCH  44  50
ATOM     50  CD2 LEU d   1       5.343   7.538  27.349  0.00  0.00    -0.073 C 
ATOM     51  H20 LEU d   1       6.273   8.115  27.458  0.00  0.00     0.028 H 
ATOM     52  H21 LEU d   1       4.696   7.716  28.221  0.00  0.00     0.028 H 
ATOM     53  H22 LEU d   1       4.821   7.854  26.434  0.00  0.00     0.028 H 
ENDBRANCH  44  50
ENDBRANCH  41  44
ENDBRANCH  13  41
ENDBRANCH  10  13
ENDBRANCH   7   9
BRANCH   7  54
ATOM     54  CB  ASP d   1      11.789   5.112  31.305  0.00  0.00     0.043 C 
ATOM     55  H25 ASP d   1      12.236   4.968  32.300  0.00  0.00     0.052 H 
ATOM     56  H26 ASP d   1      12.224   6.006  30.834  0.00  0.00     0.052 H 
BRANCH  54  57
ATOM     57  CG  ASP d   1      12.112   3.904  30.447  0.00  0.00     0.175 C 
ATOM     58  OD1 ASP d   1      11.288   2.967  30.404  0.00  0.00    -0.648 OA
ATOM     59  OD2 ASP d   1      13.192   3.891  29.819  0.00  0.00    -0.648 OA
ENDBRANCH  54  57
ENDBRANCH   7  54
ENDBRANCH   4   7
ENDBRANCH   1   3
BRANCH   1  60
ATOM     60  C   PHE d   1       8.233   8.486  33.853  0.00  0.00     0.241 C 
ATOM     61  O   PHE d   1       7.963   9.019  34.935  0.00  0.00    -0.271 OA
ATOM     62  N   LEU d   1       7.338   7.789  33.156  0.00  0.00    -0.346 N 
ATOM     63  H36 LEU d   1       7.590   7.452  32.249  0.00  0.00     0.163 HD
BRANCH  62  64
ATOM     64  CA  LEU d   1       6.005   7.499  33.668  0.00  0.00     0.089 C 
ATOM     65  H37 LEU d   1       5.794   8.213  34.478  0.00  0.00     0.087 H 
BRANCH  64  66
ATOM     66  C   LEU d   1       5.879   6.094  34.236  0.00  0.00     0.241 C 
ATOM     67  O   LEU d   1       5.044   5.867  35.118  0.00  0.00    -0.271 OA
ATOM     68  N   PHE d   1       6.687   5.147  33.749  0.00  0.00    -0.346 N 
ATOM     69  H47 PHE d   1       7.312   5.367  33.000  0.00  0.00     0.163 HD
BRANCH  68  70
ATOM     70  CA  PHE d   1       6.666   3.796  34.298  0.00  0.00     0.093 C 
ATOM     71  H48 PHE d   1       5.628   3.432  34.273  0.00  0.00     0.088 H 
BRANCH  70  72
ATOM     72  C   PHE d   1       7.145   3.769  35.744  0.00  0.00     0.241 C 
ATOM     73  O   PHE d   1       6.682   2.938  36.533  0.00  0.00    -0.271 OA
ATOM     74  N   ASP d   1       8.065   4.661  36.107  0.00  0.00    -0.345 N 
ATOM     75  H56 ASP d   1       8.396   5.322  35.434  0.00  0.00     0.163 HD
BRANCH  74  76
ATOM     76  CA  ASP d   1       8.601   4.697  37.462  0.00  0.00     0.098 C 
ATOM     77  H57 ASP d   1       8.203   3.833  38.015  0.00  0.00     0.088 H 
BRANCH  76  78
ATOM     78  C   ASP d   1       8.167   5.968  38.181  0.00  0.00     0.241 C 
ATOM     79  O   ASP d   1       8.997   6.673  38.764  0.00  0.00    -0.271 OA
ATOM     80  N   ALA d   1       6.873   6.267  38.144  0.00  0.00    -0.345 N 
ATOM     81  H60 ALA d   1       6.247   5.659  37.656  0.00  0.00     0.163 HD
BRANCH  80  82
ATOM     82  CA  ALA d   1       6.342   7.458  38.796  0.00  0.00     0.093 C 
ATOM     83  H61 ALA d   1       7.176   8.152  38.979  0.00  0.00     0.089 H 
BRANCH  82  84
ATOM     84  C   ALA d   1       5.707   7.109  40.138  0.00  0.00     0.196 C 
ATOM     85  O   ALA d   1       6.319   6.438  40.969  0.00  0.00    -0.646 OA
ATOM     86  OXT ALA d   1       4.570   7.492  40.416  0.00  0.00    -0.646 OA
ENDBRANCH  82  84
BRANCH  82  87
ATOM     87  CB  ALA d   1       5.332   8.150  37.894  0.00  0.00    -0.048 C 
ATOM     88  H62 ALA d   1       4.941   9.045  38.400  0.00  0.00     0.030 H 
ATOM     89  H63 ALA d   1       4.503   7.461  37.676  0.00  0.00     0.030 H 
ATOM     90  H64 ALA d   1       5.821   8.444  36.954  0.00  0.00     0.030 H 
ENDBRANCH  82  87
ENDBRANCH  80  82
ENDBRANCH  76  78
BRANCH  76  91
ATOM     91  CB  ASP d   1      10.127   4.593  37.435  0.00  0.00     0.043 C 
ATOM     92  H58 ASP d   1      10.494   4.526  38.470  0.00  0.00     0.052 H 
ATOM     93  H59 ASP d   1      10.534   5.498  36.960  0.00  0.00     0.052 H 
BRANCH  91  94
ATOM     94  CG  ASP d   1      10.615   3.380  36.667  0.00  0.00     0.175 C 
ATOM     95  OD1 ASP d   1       9.877   2.373  36.613  0.00  0.00    -0.648 OA
ATOM     96  OD2 ASP d   1      11.735   3.433  36.116  0.00  0.00    -0.648 OA
ENDBRANCH  91  94
ENDBRANCH  76  91
ENDBRANCH  74  76
ENDBRANCH  70  72
BRANCH  70  97
ATOM     97  CB  PHE d   1       7.526   2.864  33.444  0.00  0.00    -0.014 C 
ATOM     98  H49 PHE d   1       7.704   1.939  34.013  0.00  0.00     0.043 H 
ATOM     99  H50 PHE d   1       8.486   3.363  33.247  0.00  0.00     0.043 H 
BRANCH  97 100
ATOM    100  CG  PHE d   1       6.905   2.496  32.126  0.00  0.00    -0.056 A 
ATOM    101  CD1 PHE d   1       5.528   2.454  31.980  0.00  0.00    -0.077 A 
ATOM    102  CE1 PHE d   1       4.957   2.110  30.769  0.00  0.00    -0.082 A 
ATOM    103  H51 PHE d   1       4.892   2.693  32.824  0.00  0.00     0.084 H 
ATOM    104  CZ  PHE d   1       5.761   1.805  29.688  0.00  0.00    -0.083 A 
ATOM    105  H53 PHE d   1       3.878   2.080  30.668  0.00  0.00     0.083 H 
ATOM    106  CE2 PHE d   1       7.134   1.843  29.821  0.00  0.00    -0.082 A 
ATOM    107  H55 PHE d   1       5.314   1.536  28.737  0.00  0.00     0.083 H 
ATOM    108  CD2 PHE d   1       7.700   2.186  31.035  0.00  0.00    -0.077 A 
ATOM    109  H54 PHE d   1       7.768   1.604  28.975  0.00  0.00     0.083 H 
ATOM    110  H52 PHE d   1       8.779   2.213  31.134  0.00  0.00     0.084 H 
ENDBRANCH  97 100
ENDBRANCH  70  97
ENDBRANCH  68  70
ENDBRANCH  64  66
BRANCH  64 111
ATOM    111  CB  LEU d   1       4.958   7.691  32.565  0.00  0.00    -0.035 C 
ATOM    112  H38 LEU d   1       3.981   7.393  32.972  0.00  0.00     0.037 H 
ATOM    113  H39 LEU d   1       5.224   7.028  31.729  0.00  0.00     0.037 H 
BRANCH 111 114
ATOM    114  CG  LEU d   1       4.823   9.110  32.013  0.00  0.00    -0.059 C 
ATOM    115  H40 LEU d   1       5.808   9.424  31.636  0.00  0.00     0.038 H 
BRANCH 114 116
ATOM    116  CD1 LEU d   1       3.840   9.154  30.854  0.00  0.00    -0.073 C 
ATOM    117  H41 LEU d   1       3.763  10.185  30.477  0.00  0.00     0.028 H 
ATOM    118  H42 LEU d   1       2.852   8.815  31.198  0.00  0.00     0.028 H 
ATOM    119  H43 LEU d   1       4.194   8.495  30.048  0.00  0.00     0.028 H 
ENDBRANCH 114 116
BRANCH 114 120
ATOM    120  CD2 LEU d   1       4.408  10.079  33.112  0.00  0.00    -0.073 C 
ATOM    121  H44 LEU d   1       5.133  10.029  33.938  0.00  0.00     0.028 H 
ATOM    122  H45 LEU d   1       3.409   9.806  33.484  0.00  0.00     0.028 H 
ATOM    123  H46 LEU d   1       4.382  11.102  32.708  0.00  0.00     0.028 H 
ENDBRANCH 114 120
ENDBRANCH 111 114
ENDBRANCH  64 111
ENDBRANCH  62  64
ENDBRANCH   1  60
BRANCH   1 124
ATOM    124  CB  PHE d   1       9.849  10.026  32.714  0.00  0.00    -0.014 C 
ATOM    125  H29 PHE d   1      10.840  10.062  32.238  0.00  0.00     0.043 H 
ATOM    126  H30 PHE d   1       9.816  10.744  33.546  0.00  0.00     0.043 H 
BRANCH 124 127
ATOM    127  CG  PHE d   1       8.822  10.434  31.697  0.00  0.00    -0.056 A 
ATOM    128  CD1 PHE d   1       8.845   9.909  30.414  0.00  0.00    -0.077 A 
ATOM    129  CE1 PHE d   1       7.902  10.287  29.477  0.00  0.00    -0.082 A 
ATOM    130  H31 PHE d   1       9.612   9.193  30.142  0.00  0.00     0.084 H 
ATOM    131  CZ  PHE d   1       6.928  11.205  29.813  0.00  0.00    -0.083 A 
ATOM    132  H33 PHE d   1       7.927   9.863  28.480  0.00  0.00     0.083 H 
ATOM    133  CE2 PHE d   1       6.898  11.741  31.085  0.00  0.00    -0.082 A 
ATOM    134  H35 PHE d   1       6.188  11.505  29.080  0.00  0.00     0.083 H 
ATOM    135  CD2 PHE d   1       7.841  11.357  32.019  0.00  0.00    -0.077 A 
ATOM    136  H34 PHE d   1       6.135  12.463  31.351  0.00  0.00     0.083 H 
ATOM    137  H32 PHE d   1       7.813  11.783  33.015  0.00  0.00     0.084 H 
ENDBRANCH 124 127
ENDBRANCH   1 124
TORSDOF 38
