REMARK  6 active torsions:
REMARK  status: ('A' for Active; 'I' for Inactive)
REMARK    1  A    between atoms: CAJ_9  and  CAA_1 
REMARK    2  A    between atoms: CAK_10  and  CAB_2 
REMARK    3  A    between atoms: NAX_23  and  CAC_3 
REMARK    4  A    between atoms: NAY_24  and  CAJ_9 
REMARK    5  A    between atoms: NAY_24  and  CAK_10 
REMARK       I    between atoms: NAN_21  and  CAP_13 
REMARK       I    between atoms: CAP_13  and  NAY_24 
REMARK    6  A    between atoms: CAV_19  and  NAN_21 
ROOT
ATOM      1  CAE H8G d   1     -21.178 -17.135   9.192  0.00  0.00    -0.071 C 
ATOM      2  CAF H8G d   1     -23.722 -13.783   9.817  0.00  0.00    -0.080 A 
ATOM      3  CAG H8G d   1     -22.948 -14.929   9.670  0.00  0.00    -0.071 A 
ATOM      4  CAH H8G d   1     -23.996 -12.998   8.701  0.00  0.00    -0.056 A 
ATOM      5  CAI H8G d   1     -22.898 -13.663   5.490  0.00  0.00    -0.015 A 
ATOM      6  CAL H8G d   1     -21.593 -15.792   5.815  0.00  0.00    -0.008 C 
ATOM      7  CAM H8G d   1     -20.866 -18.952   7.701  0.00  0.00     0.105 C 
ATOM      8  CAQ H8G d   1     -21.697 -16.378   8.141  0.00  0.00    -0.018 C 
ATOM      9  CAR H8G d   1     -22.374 -14.688   6.138  0.00  0.00    -0.027 A 
ATOM     10  CAS H8G d   1     -22.475 -15.258   8.405  0.00  0.00    -0.015 A 
ATOM     11  CAT H8G d   1     -23.523 -13.344   7.498  0.00  0.00     0.043 A 
ATOM     12  CAU H8G d   1     -22.780 -14.460   7.392  0.00  0.00     0.009 A 
ATOM     13  CAV H8G d   1     -20.742 -18.456   9.129  0.00  0.00     0.054 C 
ATOM     14  CAW H8G d   1     -21.739 -16.910   6.854  0.00  0.00     0.133 C 
ATOM     15  NAO H8G d   1     -23.584 -12.851   6.264  0.00  0.00    -0.365 N 
ATOM     16  NAX H8G d   1     -20.673 -17.906   6.692  0.00  0.00    -0.064 N 
ATOM     17  H10 H8G d   1     -21.107 -16.642  10.161  0.00  0.00     0.081 H 
ATOM     18  H11 H8G d   1     -24.108 -13.504  10.791  0.00  0.00     0.083 H 
ATOM     19  H12 H8G d   1     -22.718 -15.554  10.525  0.00  0.00     0.084 H 
ATOM     20  H13 H8G d   1     -24.596 -12.101   8.807  0.00  0.00     0.086 H 
ATOM     21  H14 H8G d   1     -22.774 -13.506   4.420  0.00  0.00     0.112 H 
ATOM     22  H19 H8G d   1     -20.538 -15.482   5.770  0.00  0.00     0.043 H 
ATOM     23  H20 H8G d   1     -21.905 -16.175   4.832  0.00  0.00     0.043 H 
ATOM     24  H21 H8G d   1     -21.870 -19.380   7.569  0.00  0.00     0.079 H 
ATOM     25  H22 H8G d   1     -20.110 -19.734   7.539  0.00  0.00     0.079 H 
ATOM     26  H23 H8G d   1     -21.356 -19.078   9.797  0.00  0.00     0.081 H 
ATOM     27  H24 H8G d   1     -22.710 -17.404   6.706  0.00  0.00     0.092 H 
ATOM     28  H26 H8G d   1     -24.076 -11.995   5.970  0.00  0.00     0.165 HD
ATOM     29  H27 H8G d   1     -19.774 -17.468   6.817  0.00  0.00     0.280 HD
ENDROOT
BRANCH  13  30
ATOM     30  NAN H8G d   1     -19.354 -18.548   9.517  0.00  0.00    -0.333 N 
ATOM     31  CAP H8G d   1     -18.983 -19.139  10.796  0.00  0.00     0.318 C 
ATOM     32  NAY H8G d   1     -17.573 -19.225  11.155  0.00  0.00    -0.335 N 
ATOM     33  OAD H8G d   1     -19.856 -19.558  11.562  0.00  0.00    -0.247 OA
ATOM     34  H25 H8G d   1     -18.643 -18.204   8.904  0.00  0.00     0.165 HD
BRANCH  32  35
ATOM     35  CAJ H8G d   1     -16.584 -18.734  10.242  0.00  0.00    -0.004 C 
ATOM     36  H15 H8G d   1     -16.937 -17.796   9.789  0.00  0.00     0.063 H 
ATOM     37  H16 H8G d   1     -15.645 -18.549  10.784  0.00  0.00     0.063 H 
BRANCH  35  38
ATOM     38  CAA H8G d   1     -16.347 -19.751   9.164  0.00  0.00    -0.061 C 
ATOM     39  H1  H8G d   1     -15.588 -19.373   8.464  0.00  0.00     0.029 H 
ATOM     40  H2  H8G d   1     -17.286 -19.936   8.622  0.00  0.00     0.029 H 
ATOM     41  H3  H8G d   1     -15.994 -20.689   9.616  0.00  0.00     0.029 H 
ENDBRANCH  35  38
ENDBRANCH  32  35
BRANCH  32  42
ATOM     42  CAK H8G d   1     -17.180 -19.792  12.394  0.00  0.00    -0.004 C 
ATOM     43  H17 H8G d   1     -17.712 -20.742  12.549  0.00  0.00     0.063 H 
ATOM     44  H18 H8G d   1     -16.095 -19.975  12.388  0.00  0.00     0.063 H 
BRANCH  42  45
ATOM     45  CAB H8G d   1     -17.528 -18.822  13.521  0.00  0.00    -0.061 C 
ATOM     46  H4  H8G d   1     -17.225 -19.256  14.485  0.00  0.00     0.029 H 
ATOM     47  H5  H8G d   1     -18.613 -18.639  13.526  0.00  0.00     0.029 H 
ATOM     48  H6  H8G d   1     -16.997 -17.872  13.364  0.00  0.00     0.029 H 
ENDBRANCH  42  45
ENDBRANCH  32  42
ENDBRANCH  13  30
BRANCH  16  49
ATOM     49  CAC H8G d   1     -20.745 -18.474   5.427  0.00  0.00     0.067 C 
ATOM     50  H7  H8G d   1     -19.944 -19.219   5.313  0.00  0.00     0.068 H 
ATOM     51  H8  H8G d   1     -20.627 -17.689   4.665  0.00  0.00     0.068 H 
ATOM     52  H9  H8G d   1     -21.722 -18.964   5.300  0.00  0.00     0.068 H 
ENDBRANCH  16  49
TORSDOF 6
