REMARK  7 active torsions:
REMARK  status: ('A' for Active; 'I' for Inactive)
REMARK    1  A    between atoms: C14_2  and  C16_18 
REMARK    2  A    between atoms: N2_13  and  C12_10 
REMARK       I    between atoms: C16_18  and  N3_15 
REMARK    3  A    between atoms: N3_15  and  C19_19 
REMARK    4  A    between atoms: C19_19  and  C20_21 
REMARK    5  A    between atoms: C19_19  and  C22_23 
REMARK    6  A    between atoms: C20_21  and  C21_22 
REMARK    7  A    between atoms: C22_23  and  O2_25 
ROOT
ATOM      1  C4  H8D d   1     -26.390 -13.029   8.218  0.00  0.00    -0.056 A 
ATOM      2  C14 H8D d   1     -22.698 -18.023   9.927  0.00  0.00     0.051 C 
ATOM      3  C5  H8D d   1     -26.156 -13.593   9.475  0.00  0.00    -0.080 A 
ATOM      4  C6  H8D d   1     -24.632 -15.145   8.439  0.00  0.00    -0.015 A 
ATOM      5  C11 H8D d   1     -23.744 -16.937   7.397  0.00  0.00     0.133 C 
ATOM      6  C7  H8D d   1     -24.330 -14.986   6.217  0.00  0.00    -0.027 A 
ATOM      7  C8  H8D d   1     -24.824 -14.189   5.269  0.00  0.00    -0.015 A 
ATOM      8  C9  H8D d   1     -23.753 -16.221   8.598  0.00  0.00    -0.019 C 
ATOM      9  C10 H8D d   1     -23.457 -16.856   9.811  0.00  0.00    -0.081 C 
ATOM     10  C13 H8D d   1     -22.957 -18.790   8.642  0.00  0.00     0.097 C 
ATOM     11  N1  H8D d   1     -25.681 -13.312   5.828  0.00  0.00    -0.365 N 
ATOM     12  N2  H8D d   1     -22.703 -17.975   7.455  0.00  0.00    -0.065 N 
ATOM     13  C3  H8D d   1     -24.920 -14.542   7.295  0.00  0.00     0.009 A 
ATOM     14  C1  H8D d   1     -25.758 -13.526   7.152  0.00  0.00     0.043 A 
ATOM     15  C15 H8D d   1     -23.439 -16.042   6.200  0.00  0.00    -0.008 C 
ATOM     16  C2  H8D d   1     -25.261 -14.670   9.590  0.00  0.00    -0.071 A 
ATOM     17  H1  H8D d   1     -27.077 -12.197   8.110  0.00  0.00     0.086 H 
ATOM     18  H2  H8D d   1     -21.641 -17.721   9.949  0.00  0.00     0.061 H 
ATOM     19  H3  H8D d   1     -26.660 -13.204  10.352  0.00  0.00     0.083 H 
ATOM     20  H4  H8D d   1     -24.729 -17.406   7.256  0.00  0.00     0.092 H 
ATOM     21  H5  H8D d   1     -24.574 -14.239   4.210  0.00  0.00     0.112 H 
ATOM     22  H6  H8D d   1     -23.845 -16.410  10.726  0.00  0.00     0.079 H 
ATOM     23  H10 H8D d   1     -24.007 -19.117   8.630  0.00  0.00     0.077 H 
ATOM     24  H11 H8D d   1     -22.298 -19.671   8.615  0.00  0.00     0.077 H 
ATOM     25  H12 H8D d   1     -26.200 -12.585   5.316  0.00  0.00     0.165 HD
ATOM     26  H13 H8D d   1     -21.790 -17.552   7.508  0.00  0.00     0.280 HD
ATOM     27  H15 H8D d   1     -23.556 -16.614   5.267  0.00  0.00     0.043 H 
ATOM     28  H16 H8D d   1     -22.409 -15.662   6.271  0.00  0.00     0.043 H 
ATOM     29  H18 H8D d   1     -25.063 -15.123  10.555  0.00  0.00     0.084 H 
ENDROOT
BRANCH   2  30
ATOM     30  C16 H8D d   1     -22.906 -18.908  11.147  0.00  0.00     0.161 C 
ATOM     31  N3  H8D d   1     -21.822 -19.644  11.568  0.00  0.00    -0.365 N 
ATOM     32  H14 H8D d   1     -20.985 -19.661  11.021  0.00  0.00     0.161 HD
ATOM     33  O1  H8D d   1     -24.112 -18.969  11.761  0.00  0.00    -0.177 OA
BRANCH  31  34
ATOM     34  C19 H8D d   1     -21.896 -20.388  12.796  0.00  0.00     0.031 C 
ATOM     35  H17 H8D d   1     -22.906 -20.274  13.216  0.00  0.00     0.075 H 
BRANCH  34  36
ATOM     36  C20 H8D d   1     -21.625 -21.859  12.564  0.00  0.00    -0.048 C 
ATOM     37  H19 H8D d   1     -21.385 -22.341  13.523  0.00  0.00     0.035 H 
ATOM     38  H20 H8D d   1     -20.774 -21.969  11.875  0.00  0.00     0.035 H 
BRANCH  36  39
ATOM     39  C21 H8D d   1     -22.857 -22.526  11.957  0.00  0.00    -0.075 C 
ATOM     40  H21 H8D d   1     -22.652 -23.594  11.792  0.00  0.00     0.027 H 
ATOM     41  H22 H8D d   1     -23.098 -22.046  10.997  0.00  0.00     0.027 H 
ATOM     42  H23 H8D d   1     -23.709 -22.419  12.645  0.00  0.00     0.027 H 
ENDBRANCH  36  39
ENDBRANCH  34  36
BRANCH  34  43
ATOM     43  C22 H8D d   1     -20.888 -19.860  13.784  0.00  0.00     0.035 C 
ATOM     44  H24 H8D d   1     -19.933 -19.672  13.271  0.00  0.00     0.077 H 
ATOM     45  H25 H8D d   1     -20.735 -20.599  14.584  0.00  0.00     0.077 H 
BRANCH  43  46
ATOM     46  O2  H8D d   1     -21.372 -18.654  14.340  0.00  0.00    -0.399 OA
ATOM     47  H26 H8D d   1     -20.739 -18.318  14.964  0.00  0.00     0.209 HD
ENDBRANCH  43  46
ENDBRANCH  34  43
ENDBRANCH  31  34
ENDBRANCH   2  30
BRANCH  12  48
ATOM     48  C12 H8D d   1     -22.791 -18.789   6.311  0.00  0.00     0.067 C 
ATOM     49  H7  H8D d   1     -22.013 -19.566   6.353  0.00  0.00     0.068 H 
ATOM     50  H8  H8D d   1     -22.646 -18.173   5.411  0.00  0.00     0.068 H 
ATOM     51  H9  H8D d   1     -23.782 -19.264   6.275  0.00  0.00     0.068 H 
ENDBRANCH  12  48
TORSDOF 7
