REMARK  8 active torsions:
REMARK  status: ('A' for Active; 'I' for Inactive)
REMARK    1  A    between atoms: CAK_9  and  CAA_1 
REMARK    2  A    between atoms: NAY_23  and  CAB_2 
REMARK    3  A    between atoms: NAZ_24  and  CAC_3 
REMARK    4  A    between atoms: CAW_20  and  CAK_9 
REMARK    5  A    between atoms: CAW_20  and  CAL_10 
REMARK    6  A    between atoms: CAL_10  and  OAE_26 
REMARK    7  A    between atoms: CAP_13  and  CAV_19 
REMARK       I    between atoms: NAO_22  and  CAP_13 
REMARK    8  A    between atoms: CAW_20  and  NAO_22 
ROOT
ATOM      1  CAF H8J d   1      22.943  16.706   9.672  0.00  0.00    -0.080 C 
ATOM      2  CAG H8J d   1      25.819  13.499   9.499  0.00  0.00    -0.080 A 
ATOM      3  CAH H8J d   1      24.998  14.618   9.664  0.00  0.00    -0.071 A 
ATOM      4  CAI H8J d   1      26.121  12.991   8.239  0.00  0.00    -0.056 A 
ATOM      5  CAJ H8J d   1      24.934  14.354   5.270  0.00  0.00    -0.013 A 
ATOM      6  CAM H8J d   1      23.565  16.289   6.121  0.00  0.00    -0.008 C 
ATOM      7  CAN H8J d   1      22.423  18.736   8.616  0.00  0.00     0.098 C 
ATOM      8  CAQ H8J d   1      23.652  16.355   8.517  0.00  0.00    -0.019 C 
ATOM      9  CAR H8J d   1      24.386  15.165   6.157  0.00  0.00    -0.027 A 
ATOM     10  CAS H8J d   1      24.484  15.219   8.514  0.00  0.00    -0.015 A 
ATOM     11  CAT H8J d   1      25.612  13.592   7.166  0.00  0.00     0.045 A 
ATOM     12  CAU H8J d   1      24.816  14.678   7.334  0.00  0.00     0.009 A 
ATOM     13  CAV H8J d   1      22.133  17.849   9.811  0.00  0.00     0.064 C 
ATOM     14  CAX H8J d   1      23.662  17.160   7.375  0.00  0.00     0.133 C 
ATOM     15  NAY H8J d   1      22.465  17.997   7.363  0.00  0.00    -0.065 N 
ATOM     16  NAZ H8J d   1      25.661  13.421   5.849  0.00  0.00    -0.360 N 
ATOM     17  H10 H8J d   1      23.025  16.042  10.531  0.00  0.00     0.079 H 
ATOM     18  H11 H8J d   1      26.232  13.014  10.376  0.00  0.00     0.083 H 
ATOM     19  H12 H8J d   1      24.769  15.005  10.650  0.00  0.00     0.084 H 
ATOM     20  H13 H8J d   1      26.759  12.121   8.133  0.00  0.00     0.087 H 
ATOM     21  H14 H8J d   1      24.801  14.446   4.193  0.00  0.00     0.112 H 
ATOM     22  H19 H8J d   1      22.523  15.955   6.010  0.00  0.00     0.043 H 
ATOM     23  H20 H8J d   1      23.849  16.899   5.251  0.00  0.00     0.043 H 
ATOM     24  H21 H8J d   1      23.397  19.225   8.769  0.00  0.00     0.077 H 
ATOM     25  H22 H8J d   1      21.636  19.501   8.547  0.00  0.00     0.077 H 
ATOM     26  H23 H8J d   1      21.076  17.543   9.802  0.00  0.00     0.063 H 
ATOM     27  H25 H8J d   1      24.573  17.776   7.355  0.00  0.00     0.092 H 
ATOM     28  H27 H8J d   1      21.643  17.421   7.272  0.00  0.00     0.280 HD
ENDROOT
BRANCH  13  29
ATOM     29  CAP H8J d   1      22.404  18.639  11.109  0.00  0.00     0.227 C 
ATOM     30  NAO H8J d   1      21.444  19.573  11.633  0.00  0.00    -0.354 N 
ATOM     31  H26 H8J d   1      20.578  19.729  11.157  0.00  0.00     0.163 HD
ATOM     32  OAD H8J d   1      23.458  18.472  11.694  0.00  0.00    -0.273 OA
BRANCH  30  33
ATOM     33  CAW H8J d   1      21.742  20.278  12.846  0.00  0.00     0.032 C 
ATOM     34  H24 H8J d   1      22.777  20.050  13.140  0.00  0.00     0.075 H 
BRANCH  33  35
ATOM     35  CAK H8J d   1      21.605  21.780  12.644  0.00  0.00    -0.048 C 
ATOM     36  H15 H8J d   1      20.996  21.973  11.748  0.00  0.00     0.035 H 
ATOM     37  H16 H8J d   1      21.115  22.223  13.523  0.00  0.00     0.035 H 
BRANCH  35  38
ATOM     38  CAA H8J d   1      22.959  22.397  12.467  0.00  0.00    -0.075 C 
ATOM     39  H1  H8J d   1      22.851  23.482  12.322  0.00  0.00     0.027 H 
ATOM     40  H2  H8J d   1      23.451  21.956  11.587  0.00  0.00     0.027 H 
ATOM     41  H3  H8J d   1      23.569  22.206  13.362  0.00  0.00     0.027 H 
ENDBRANCH  35  38
ENDBRANCH  33  35
BRANCH  33  42
ATOM     42  CAL H8J d   1      20.806  19.842  13.955  0.00  0.00     0.035 C 
ATOM     43  H17 H8J d   1      19.803  19.663  13.540  0.00  0.00     0.077 H 
ATOM     44  H18 H8J d   1      20.751  20.630  14.721  0.00  0.00     0.077 H 
BRANCH  42  45
ATOM     45  OAE H8J d   1      21.303  18.634  14.545  0.00  0.00    -0.399 OA
ATOM     46  H28 H8J d   1      20.718  18.359  15.241  0.00  0.00     0.209 HD
ENDBRANCH  42  45
ENDBRANCH  33  42
ENDBRANCH  30  33
ENDBRANCH  13  29
BRANCH  15  47
ATOM     47  CAB H8J d   1      22.530  18.930   6.267  0.00  0.00     0.067 C 
ATOM     48  H4  H8J d   1      21.626  19.556   6.265  0.00  0.00     0.068 H 
ATOM     49  H5  H8J d   1      22.596  18.377   5.318  0.00  0.00     0.068 H 
ATOM     50  H6  H8J d   1      23.418  19.569   6.381  0.00  0.00     0.068 H 
ENDBRANCH  15  47
BRANCH  16  51
ATOM     51  CAC H8J d   1      26.389  12.385   5.162  0.00  0.00    -0.014 C 
ATOM     52  H7  H8J d   1      26.244  12.493   4.077  0.00  0.00     0.057 H 
ATOM     53  H8  H8J d   1      26.019  11.401   5.485  0.00  0.00     0.057 H 
ATOM     54  H9  H8J d   1      27.460  12.470   5.400  0.00  0.00     0.057 H 
ENDBRANCH  16  51
TORSDOF 8
