REMARK  7 active torsions:
REMARK  status: ('A' for Active; 'I' for Inactive)
REMARK    1  A    between atoms: OAO_24  and  CAA_1 
REMARK    2  A    between atoms: OAP_25  and  CAB_2 
REMARK    3  A    between atoms: CAQ_12  and  CAC_3 
REMARK    4  A    between atoms: CAL_11  and  CAR_13 
REMARK    5  A    between atoms: CAZ_21  and  CAL_11 
REMARK    6  A    between atoms: CAT_15  and  OAO_24 
REMARK    7  A    between atoms: CAV_17  and  OAP_25 
ROOT
ATOM      1  CAG H8M d   1      23.728  13.365   9.974  0.00  0.00    -0.075 A 
ATOM      2  CAH H8M d   1      23.059  14.490  10.578  0.00  0.00    -0.056 A 
ATOM      3  CAI H8M d   1      23.139  14.300   7.752  0.00  0.00    -0.065 A 
ATOM      4  CAJ H8M d   1      20.961  18.654   6.638  0.00  0.00     0.086 C 
ATOM      5  CAK H8M d   1      21.403  17.170   6.552  0.00  0.00    -0.016 C 
ATOM      6  CAQ H8M d   1      23.763  13.276   8.529  0.00  0.00    -0.061 A 
ATOM      7  CAU H8M d   1      21.736  16.638   7.892  0.00  0.00    -0.019 A 
ATOM      8  CAW H8M d   1      21.344  17.307   9.077  0.00  0.00     0.048 A 
ATOM      9  CAX H8M d   1      22.479  15.440   9.785  0.00  0.00     0.043 A 
ATOM     10  CAY H8M d   1      22.508  15.362   8.386  0.00  0.00    -0.001 A 
ATOM     11  CAZ H8M d   1      20.589  18.583   9.079  0.00  0.00     0.145 C 
ATOM     12  NAM H8M d   1      19.977  18.795   7.766  0.00  0.00    -0.065 N 
ATOM     13  NAN H8M d   1      21.814  16.555  10.026  0.00  0.00    -0.357 N 
ATOM     14  H12 H8M d   1      24.194  12.603  10.588  0.00  0.00     0.084 H 
ATOM     15  H13 H8M d   1      23.016  14.582  11.657  0.00  0.00     0.087 H 
ATOM     16  H14 H8M d   1      23.158  14.248   6.669  0.00  0.00     0.085 H 
ATOM     17  H15 H8M d   1      20.487  18.955   5.692  0.00  0.00     0.076 H 
ATOM     18  H16 H8M d   1      21.837  19.291   6.828  0.00  0.00     0.076 H 
ATOM     19  H17 H8M d   1      22.289  17.095   5.905  0.00  0.00     0.042 H 
ATOM     20  H18 H8M d   1      20.584  16.575   6.122  0.00  0.00     0.042 H 
ATOM     21  H21 H8M d   1      21.295  19.403   9.277  0.00  0.00     0.094 H 
ATOM     22  H22 H8M d   1      19.242  18.117   7.639  0.00  0.00     0.278 HD
ATOM     23  H23 H8M d   1      19.586  19.724   7.739  0.00  0.00     0.278 HD
ATOM     24  H24 H8M d   1      21.662  16.839  11.004  0.00  0.00     0.166 HD
ENDROOT
BRANCH  11  25
ATOM     25  CAL H8M d   1      19.520  18.602  10.158  0.00  0.00    -0.007 C 
ATOM     26  H19 H8M d   1      18.679  17.957   9.864  0.00  0.00     0.043 H 
ATOM     27  H20 H8M d   1      19.941  18.244  11.109  0.00  0.00     0.043 H 
BRANCH  25  28
ATOM     28  CAR H8M d   1      19.032  20.073  10.314  0.00  0.00    -0.031 A 
ATOM     29  CAE H8M d   1      17.909  20.510   9.601  0.00  0.00    -0.072 A 
ATOM     30  CAF H8M d   1      17.463  21.841   9.726  0.00  0.00    -0.047 A 
ATOM     31  H10 H8M d   1      17.381  19.822   8.951  0.00  0.00     0.084 H 
ATOM     32  CAT H8M d   1      18.142  22.732  10.563  0.00  0.00     0.103 A 
ATOM     33  H11 H8M d   1      16.593  22.174   9.173  0.00  0.00     0.087 H 
ATOM     34  CAV H8M d   1      19.269  22.303  11.276  0.00  0.00     0.123 A 
ATOM     35  CAS H8M d   1      19.718  20.973  11.152  0.00  0.00     0.076 A 
ATOM     36 CLAD H8M d   1      21.110  20.447  12.036  0.00  0.00    -0.081 Cl
BRANCH  32  37
ATOM     37  OAO H8M d   1      17.698  24.040  10.679  0.00  0.00    -0.353 OA
BRANCH  37  38
ATOM     38  CAA H8M d   1      16.420  24.154  11.230  0.00  0.00     0.010 C 
ATOM     39  H1  H8M d   1      16.140  25.216  11.289  0.00  0.00     0.066 H 
ATOM     40  H2  H8M d   1      16.416  23.717  12.239  0.00  0.00     0.066 H 
ATOM     41  H3  H8M d   1      15.698  23.619  10.595  0.00  0.00     0.066 H 
ENDBRANCH  37  38
ENDBRANCH  32  37
BRANCH  34  42
ATOM     42  OAP H8M d   1      19.958  23.213  12.125  0.00  0.00    -0.351 OA
BRANCH  42  43
ATOM     43  CAB H8M d   1      19.388  23.340  13.439  0.00  0.00     0.011 C 
ATOM     44  H4  H8M d   1      19.978  24.059  14.027  0.00  0.00     0.067 H 
ATOM     45  H5  H8M d   1      19.399  22.361  13.940  0.00  0.00     0.067 H 
ATOM     46  H6  H8M d   1      18.351  23.698  13.356  0.00  0.00     0.067 H 
ENDBRANCH  42  43
ENDBRANCH  34  42
ENDBRANCH  25  28
ENDBRANCH  11  25
BRANCH   6  47
ATOM     47  CAC H8M d   1      24.441  12.131   7.854  0.00  0.00    -0.051 C 
ATOM     48  H7  H8M d   1      24.858  11.453   8.613  0.00  0.00     0.033 H 
ATOM     49  H8  H8M d   1      25.253  12.510   7.216  0.00  0.00     0.033 H 
ATOM     50  H9  H8M d   1      23.712  11.586   7.236  0.00  0.00     0.033 H 
ENDBRANCH   6  47
TORSDOF 7
