REMARK WARNING: 32 MAX_TORS EXCEEDED!!!
REMARK  39 active torsions:
REMARK  status: ('A' for Active; 'I' for Inactive)
REMARK    1  A    between atoms: C2_2  and  C1_1 
REMARK    2  A    between atoms: C1_1  and  N_30 
REMARK    3  A    between atoms: C3_3  and  C2_2 
REMARK    4  A    between atoms: N2_10  and  C3_3 
REMARK    5  A    between atoms: N2_10  and  C4_4 
REMARK    6  A    between atoms: C4_4  and  C10_11 
REMARK    7  A    between atoms: C10_11  and  C5_5 
REMARK    8  A    between atoms: C5_5  and  N3_12 
REMARK    9  A    between atoms: C5_5  and  C11_13 
REMARK   10  A    between atoms: C6_6  and  N2_10 
REMARK   11  A    between atoms: C12_16  and  C6_6 
REMARK   12  A    between atoms: C7_7  and  O5_21 
REMARK   13  A    between atoms: C13_18  and  N4_22 
REMARK   14  A    between atoms: C14_19  and  O4_20 
REMARK   15  A    between atoms: C15_24  and  N6_25 
REMARK   16  A    between atoms: CA_31  and  C_32 
REMARK       I    between atoms: C_32  and  N_37 
REMARK   17  A    between atoms: CA_38  and  C_39 
REMARK       I    between atoms: C_39  and  N_44 
REMARK   18  A    between atoms: N_44  and  CA_45 
REMARK   19  A    between atoms: CA_45  and  C_46 
REMARK   20  A    between atoms: CA_45  and  CB_48 
REMARK       I    between atoms: C_46  and  N_53 
REMARK   21  A    between atoms: CB_48  and  CG_49 
REMARK   22  A    between atoms: CG_49  and  CD_50 
REMARK   23  A    between atoms: CD_50  and  CE_51 
REMARK   24  A    between atoms: CE_51  and  NZ_52 
REMARK   25  A    between atoms: N_53  and  CA_54 
REMARK   26  A    between atoms: CA_54  and  C_55 
REMARK   27  A    between atoms: CA_54  and  CB_57 
REMARK       I    between atoms: C_55  and  N_64 
REMARK   28  A    between atoms: CB_57  and  CG_58 
REMARK   29  A    between atoms: CG_58  and  CD_59 
REMARK   30  A    between atoms: CD_59  and  NE_60 
REMARK       I    between atoms: NE_60  and  CZ_61 
REMARK       I    between atoms: CZ_61  and  NH1_62 
REMARK   31  A    between atoms: N_64  and  CA_65 
REMARK   32  A    between atoms: CA_65  and  C_66 
REMARK   33  A    between atoms: CA_65  and  CB_68 
REMARK       I    between atoms: C_66  and  N_72 
REMARK   34  A    between atoms: CB_68  and  CG1_69 
REMARK   35  A    between atoms: CB_68  and  CG2_70 
REMARK   36  A    between atoms: CG1_69  and  CD1_71 
REMARK   37  A    between atoms: N_72  and  CA_73 
REMARK   38  A    between atoms: CA_73  and  C_74 
REMARK   39  A    between atoms: CA_73  and  CB_76 
REMARK       I    between atoms: C_74  and  N_77 
ROOT
ATOM      1  C   MOL d   1      27.959 -10.263  -3.823  0.00  0.00     0.251 C 
ATOM      2  O   MOL d   1      27.194  -9.349  -3.626  0.00  0.00    -0.271 OA
ATOM      3  N   MOL d   1      28.895 -10.230  -4.768  0.00  0.00    -0.337 N 
ATOM      4  CA  MOL d   1      28.756  -9.283  -5.881  0.00  0.00     0.091 C 
ATOM      5  CB  MOL d   1      29.948  -9.615  -6.789  0.00  0.00    -0.036 C 
ATOM      6  CG  MOL d   1      30.296 -11.003  -6.442  0.00  0.00    -0.048 C 
ATOM      7  CD  MOL d   1      29.936 -11.243  -5.020  0.00  0.00    -0.001 C 
ATOM      8  H36 MOL d   1      28.792  -8.238  -5.540  0.00  0.00     0.087 H 
ATOM      9  H37 MOL d   1      30.792  -8.940  -6.586  0.00  0.00     0.036 H 
ATOM     10  H38 MOL d   1      29.663  -9.538  -7.849  0.00  0.00     0.036 H 
ATOM     11  H39 MOL d   1      31.376 -11.160  -6.582  0.00  0.00     0.035 H 
ATOM     12  H40 MOL d   1      29.738 -11.697  -7.087  0.00  0.00     0.035 H 
ATOM     13  H41 MOL d   1      29.541 -12.260  -4.878  0.00  0.00     0.064 H 
ATOM     14  H42 MOL d   1      30.804 -11.091  -4.361  0.00  0.00     0.064 H 
ENDROOT
BRANCH   4  15
ATOM     15  C   MOL d   1      27.439  -9.569  -6.574  0.00  0.00     0.241 C 
ATOM     16  O   MOL d   1      26.906 -10.681  -6.498  0.00  0.00    -0.271 OA
ATOM     17  N   MOL d   1      26.873  -8.543  -7.212  0.00  0.00    -0.346 N 
ATOM     18  H43 MOL d   1      27.301  -7.640  -7.247  0.00  0.00     0.163 HD
BRANCH  17  19
ATOM     19  CA  MOL d   1      25.596  -8.816  -7.853  0.00  0.00     0.089 C 
ATOM     20  H44 MOL d   1      25.640  -9.848  -8.231  0.00  0.00     0.087 H 
BRANCH  19  21
ATOM     21  C   MOL d   1      25.342  -7.910  -9.055  0.00  0.00     0.241 C 
ATOM     22  O   MOL d   1      25.894  -6.809  -9.183  0.00  0.00    -0.271 OA
ATOM     23  N   MOL d   1      24.445  -8.393  -9.909  0.00  0.00    -0.346 N 
ATOM     24  H56 MOL d   1      24.020  -9.278  -9.720  0.00  0.00     0.163 HD
BRANCH  23  25
ATOM     25  CA  MOL d   1      24.065  -7.667 -11.112  0.00  0.00     0.089 C 
ATOM     26  H57 MOL d   1      24.968  -7.458 -11.704  0.00  0.00     0.087 H 
BRANCH  25  27
ATOM     27  C   MOL d   1      23.368  -6.360 -10.776  0.00  0.00     0.241 C 
ATOM     28  O   MOL d   1      22.498  -6.282  -9.892  0.00  0.00    -0.271 OA
ATOM     29  N   MOL d   1      23.770  -5.316 -11.490  0.00  0.00    -0.346 N 
ATOM     30  H69 MOL d   1      24.556  -5.423 -12.099  0.00  0.00     0.163 HD
BRANCH  29  31
ATOM     31  CA  MOL d   1      23.107  -4.018 -11.418  0.00  0.00     0.092 C 
ATOM     32  H70 MOL d   1      23.202  -3.618 -10.398  0.00  0.00     0.088 H 
BRANCH  31  33
ATOM     33  C   MOL d   1      21.633  -4.207 -11.725  0.00  0.00     0.241 C 
ATOM     34  O   MOL d   1      21.260  -4.686 -12.803  0.00  0.00    -0.271 OA
ATOM     35  N   MOL d   1      20.781  -3.848 -10.767  0.00  0.00    -0.346 N 
ATOM     36  H80 MOL d   1      21.126  -3.386  -9.950  0.00  0.00     0.163 HD
BRANCH  35  37
ATOM     37  CA  MOL d   1      19.352  -4.118 -10.890  0.00  0.00     0.086 C 
ATOM     38  H81 MOL d   1      19.224  -5.100 -11.368  0.00  0.00     0.086 H 
BRANCH  37  39
ATOM     39  C   MOL d   1      18.700  -3.060 -11.787  0.00  0.00     0.237 C 
ATOM     40  O   MOL d   1      19.067  -1.879 -11.749  0.00  0.00    -0.271 OA
ATOM     41  N   MOL d   1      17.742  -3.494 -12.601  0.00  0.00    -0.368 N 
ATOM     42  H85 MOL d   1      17.277  -2.853 -13.212  0.00  0.00     0.159 HD
ATOM     43  H86 MOL d   1      17.487  -4.461 -12.602  0.00  0.00     0.159 HD
ENDBRANCH  37  39
BRANCH  37  44
ATOM     44  CB  MOL d   1      18.688  -4.173  -9.504  0.00  0.00    -0.049 C 
ATOM     45  H82 MOL d   1      17.613  -4.377  -9.620  0.00  0.00     0.030 H 
ATOM     46  H83 MOL d   1      18.825  -3.208  -8.993  0.00  0.00     0.030 H 
ATOM     47  H84 MOL d   1      19.151  -4.973  -8.907  0.00  0.00     0.030 H 
ENDBRANCH  37  44
ENDBRANCH  35  37
ENDBRANCH  31  33
BRANCH  31  48
ATOM     48  CB  MOL d   1      23.801  -3.047 -12.385  0.00  0.00    -0.030 C 
ATOM     49  H71 MOL d   1      24.223  -3.643 -13.207  0.00  0.00     0.043 H 
BRANCH  48  50
ATOM     50  CG1 MOL d   1      24.974  -2.378 -11.669  0.00  0.00    -0.063 C 
ATOM     51  H72 MOL d   1      25.541  -3.150 -11.127  0.00  0.00     0.033 H 
ATOM     52  H73 MOL d   1      24.575  -1.645 -10.952  0.00  0.00     0.033 H 
BRANCH  50  53
ATOM     53  CD1 MOL d   1      25.927  -1.655 -12.628  0.00  0.00    -0.076 C 
ATOM     54  H77 MOL d   1      26.746  -1.196 -12.055  0.00  0.00     0.027 H 
ATOM     55  H78 MOL d   1      25.377  -0.873 -13.171  0.00  0.00     0.027 H 
ATOM     56  H79 MOL d   1      26.342  -2.377 -13.346  0.00  0.00     0.027 H 
ENDBRANCH  50  53
ENDBRANCH  48  50
BRANCH  48  57
ATOM     57  CG2 MOL d   1      22.816  -2.077 -13.017  0.00  0.00    -0.071 C 
ATOM     58  H74 MOL d   1      22.009  -2.641 -13.507  0.00  0.00     0.028 H 
ATOM     59  H75 MOL d   1      23.337  -1.459 -13.763  0.00  0.00     0.028 H 
ATOM     60  H76 MOL d   1      22.389  -1.429 -12.238  0.00  0.00     0.028 H 
ENDBRANCH  48  57
ENDBRANCH  31  48
ENDBRANCH  29  31
ENDBRANCH  25  27
BRANCH  25  61
ATOM     61  CB  MOL d   1      23.085  -8.513 -11.940  0.00  0.00    -0.036 C 
ATOM     62  H58 MOL d   1      22.574  -7.837 -12.641  0.00  0.00     0.036 H 
ATOM     63  H59 MOL d   1      22.350  -8.944 -11.244  0.00  0.00     0.036 H 
BRANCH  61  64
ATOM     64  CG  MOL d   1      23.669  -9.651 -12.749  0.00  0.00    -0.048 C 
ATOM     65  H60 MOL d   1      24.180 -10.351 -12.071  0.00  0.00     0.035 H 
ATOM     66  H61 MOL d   1      24.393  -9.246 -13.472  0.00  0.00     0.035 H 
BRANCH  64  67
ATOM     67  CD  MOL d   1      22.536 -10.419 -13.527  0.00  0.00     0.009 C 
ATOM     68  H62 MOL d   1      22.541 -11.472 -13.209  0.00  0.00     0.064 H 
ATOM     69  H63 MOL d   1      22.746 -10.360 -14.605  0.00  0.00     0.064 H 
BRANCH  67  70
ATOM     70  NE  MOL d   1      21.202  -9.857 -13.275  0.00  0.00    -0.227 N 
ATOM     71  CZ  MOL d   1      20.377  -9.364 -14.202  0.00  0.00     0.665 C 
ATOM     72  NH1 MOL d   1      20.707  -9.376 -15.491  0.00  0.00    -0.235 N 
ATOM     73  NH2 MOL d   1      19.204  -8.866 -13.835  0.00  0.00    -0.235 N 
ATOM     74  H65 MOL d   1      20.058  -8.991 -16.192  0.00  0.00     0.174 HD
ATOM     75  H66 MOL d   1      21.611  -9.770 -15.787  0.00  0.00     0.174 HD
ATOM     76  H67 MOL d   1      18.939  -8.852 -12.840  0.00  0.00     0.174 HD
ATOM     77  H68 MOL d   1      18.558  -8.493 -14.545  0.00  0.00     0.174 HD
ATOM     78  H64 MOL d   1      20.875  -9.842 -12.299  0.00  0.00     0.177 HD
ENDBRANCH  67  70
ENDBRANCH  64  67
ENDBRANCH  61  64
ENDBRANCH  25  61
ENDBRANCH  23  25
ENDBRANCH  19  21
BRANCH  19  79
ATOM     79  CB  MOL d   1      24.448  -8.749  -6.861  0.00  0.00    -0.038 C 
ATOM     80  H45 MOL d   1      24.541  -9.590  -6.158  0.00  0.00     0.036 H 
ATOM     81  H46 MOL d   1      23.500  -8.835  -7.413  0.00  0.00     0.036 H 
BRANCH  79  82
ATOM     82  CG  MOL d   1      24.433  -7.494  -6.093  0.00  0.00    -0.061 C 
ATOM     83  H47 MOL d   1      24.252  -6.652  -6.777  0.00  0.00     0.033 H 
ATOM     84  H48 MOL d   1      25.405  -7.360  -5.596  0.00  0.00     0.033 H 
BRANCH  82  85
ATOM     85  CD  MOL d   1      23.327  -7.535  -5.037  0.00  0.00    -0.043 C 
ATOM     86  H49 MOL d   1      22.372  -7.737  -5.545  0.00  0.00     0.035 H 
ATOM     87  H50 MOL d   1      23.281  -6.551  -4.546  0.00  0.00     0.035 H 
BRANCH  85  88
ATOM     88  CE  MOL d   1      23.533  -8.605  -3.954  0.00  0.00     0.080 C 
ATOM     89  H51 MOL d   1      24.511  -8.448  -3.474  0.00  0.00     0.075 H 
ATOM     90  H52 MOL d   1      23.509  -9.600  -4.422  0.00  0.00     0.075 H 
BRANCH  88  91
ATOM     91  NZ  MOL d   1      22.459  -8.527  -2.914  0.00  0.00    -0.079 N 
ATOM     92  H53 MOL d   1      22.615  -9.237  -2.216  0.00  0.00     0.274 HD
ATOM     93  H54 MOL d   1      21.561  -8.674  -3.347  0.00  0.00     0.274 HD
ATOM     94  H55 MOL d   1      22.478  -7.618  -2.479  0.00  0.00     0.274 HD
ENDBRANCH  88  91
ENDBRANCH  85  88
ENDBRANCH  82  85
ENDBRANCH  79  82
ENDBRANCH  19  79
ENDBRANCH  17  19
ENDBRANCH   4  15
BRANCH   1  95
ATOM     95  CA  MOL d   1      27.844 -11.532  -2.966  0.00  0.00     0.180 C 
ATOM     96  N   MOL d   1      26.932 -11.396  -1.830  0.00  0.00    -0.058 N 
ATOM     97  CD  MOL d   1      25.533 -11.541  -2.283  0.00  0.00     0.085 C 
ATOM     98  H28 MOL d   1      27.097 -10.457  -1.502  0.00  0.00     0.280 HD
ATOM     99  CG  MOL d   1      25.686 -12.360  -3.587  0.00  0.00    -0.040 C 
ATOM    100  H34 MOL d   1      25.076 -10.560  -2.481  0.00  0.00     0.076 H 
ATOM    101  H35 MOL d   1      24.929 -12.084  -1.541  0.00  0.00     0.076 H 
ATOM    102  CB  MOL d   1      27.137 -12.589  -3.825  0.00  0.00    -0.028 C 
ATOM    103  H32 MOL d   1      25.169 -13.325  -3.483  0.00  0.00     0.035 H 
ATOM    104  H33 MOL d   1      25.254 -11.801  -4.430  0.00  0.00     0.035 H 
ATOM    105  H30 MOL d   1      27.427 -13.602  -3.510  0.00  0.00     0.036 H 
ATOM    106  H31 MOL d   1      27.382 -12.452  -4.888  0.00  0.00     0.036 H 
ATOM    107  H29 MOL d   1      28.841 -11.857  -2.635  0.00  0.00     0.100 H 
BRANCH  96 108
ATOM    108  C1  MOL d   1      26.812 -12.212  -0.656  0.00  0.00     0.086 C 
ATOM    109  H1  MOL d   1      25.979 -11.817  -0.056  0.00  0.00     0.076 H 
ATOM    110  H2  MOL d   1      26.577 -13.236  -0.981  0.00  0.00     0.076 H 
BRANCH 108 111
ATOM    111  C2  MOL d   1      28.082 -12.280   0.269  0.00  0.00    -0.020 C 
ATOM    112  H3  MOL d   1      28.004 -11.510   1.050  0.00  0.00     0.037 H 
ATOM    113  H4  MOL d   1      28.982 -12.099  -0.336  0.00  0.00     0.037 H 
BRANCH 111 114
ATOM    114  C3  MOL d   1      28.185 -13.672   0.933  0.00  0.00     0.085 C 
ATOM    115  H5  MOL d   1      28.927 -14.275   0.390  0.00  0.00     0.076 H 
ATOM    116  H6  MOL d   1      27.204 -14.167   0.883  0.00  0.00     0.076 H 
BRANCH 114 117
ATOM    117  N2  MOL d   1      28.604 -13.558   2.370  0.00  0.00    -0.068 N 
ATOM    118  H14 MOL d   1      28.620 -14.503   2.721  0.00  0.00     0.280 HD
BRANCH 117 119
ATOM    119  C4  MOL d   1      29.968 -13.044   2.513  0.00  0.00     0.086 C 
ATOM    120  H7  MOL d   1      30.035 -12.336   3.352  0.00  0.00     0.076 H 
ATOM    121  H8  MOL d   1      30.301 -12.550   1.588  0.00  0.00     0.076 H 
BRANCH 119 122
ATOM    122  C10 MOL d   1      30.817 -14.330   2.797  0.00  0.00    -0.006 C 
ATOM    123  H15 MOL d   1      30.687 -15.069   1.993  0.00  0.00     0.039 H 
ATOM    124  H16 MOL d   1      30.533 -14.781   3.759  0.00  0.00     0.039 H 
BRANCH 122 125
ATOM    125  C5  MOL d   1      32.268 -13.820   2.840  0.00  0.00     0.184 C 
ATOM    126  H9  MOL d   1      32.860 -14.469   3.502  0.00  0.00     0.101 H 
BRANCH 125 127
ATOM    127  N3  MOL d   1      32.308 -12.487   3.348  0.00  0.00    -0.065 N 
ATOM    128  H17 MOL d   1      33.263 -12.165   3.371  0.00  0.00     0.275 HD
ATOM    129  H18 MOL d   1      31.925 -12.471   4.280  0.00  0.00     0.275 HD
ATOM    130  H19 MOL d   1      31.764 -11.883   2.751  0.00  0.00     0.275 HD
ENDBRANCH 125 127
BRANCH 125 131
ATOM    131  C11 MOL d   1      32.863 -13.883   1.395  0.00  0.00     0.204 C 
ATOM    132  O1  MOL d   1      33.115 -12.799   0.770  0.00  0.00    -0.646 OA
ATOM    133  O2  MOL d   1      33.127 -14.996   0.901  0.00  0.00    -0.646 OA
ENDBRANCH 125 131
ENDBRANCH 122 125
ENDBRANCH 119 122
ENDBRANCH 117 119
BRANCH 117 134
ATOM    134  C6  MOL d   1      27.671 -12.827   3.239  0.00  0.00     0.110 C 
ATOM    135  H10 MOL d   1      26.641 -12.948   2.873  0.00  0.00     0.080 H 
ATOM    136  H11 MOL d   1      27.931 -11.758   3.257  0.00  0.00     0.080 H 
BRANCH 134 137
ATOM    137  C12 MOL d   1      27.804 -13.429   4.658  0.00  0.00     0.091 C 
ATOM    138  C7  MOL d   1      27.137 -14.821   4.825  0.00  0.00     0.091 C 
ATOM    139  C14 MOL d   1      26.013 -14.476   5.829  0.00  0.00     0.105 C 
ATOM    140  H12 MOL d   1      26.723 -15.176   3.870  0.00  0.00     0.091 H 
ATOM    141  C13 MOL d   1      26.490 -13.459   6.605  0.00  0.00     0.139 C 
ATOM    142  H22 MOL d   1      25.091 -14.180   5.307  0.00  0.00     0.093 H 
ATOM    143  O3  MOL d   1      27.143 -12.559   5.483  0.00  0.00    -0.354 OA
ATOM    144  H21 MOL d   1      27.183 -13.840   7.370  0.00  0.00     0.122 H 
ATOM    145  H20 MOL d   1      28.867 -13.502   4.931  0.00  0.00     0.090 H 
BRANCH 138 146
ATOM    146  O5  MOL d   1      27.999 -15.784   5.321  0.00  0.00    -0.390 OA
ATOM    147  H24 MOL d   1      28.402 -15.465   6.120  0.00  0.00     0.210 HD
ENDBRANCH 138 146
BRANCH 139 148
ATOM    148  O4  MOL d   1      25.776 -15.633   6.678  0.00  0.00    -0.388 OA
ATOM    149  H23 MOL d   1      26.591 -15.894   7.090  0.00  0.00     0.210 HD
ENDBRANCH 139 148
BRANCH 141 150
ATOM    150  N4  MOL d   1      25.570 -12.482   7.172  0.00  0.00    -0.294 N 
ATOM    151  C8  MOL d   1      24.431 -11.974   6.658  0.00  0.00     0.071 A 
ATOM    152  N5  MOL d   1      23.918 -11.102   7.539  0.00  0.00    -0.236 NA
ATOM    153  H13 MOL d   1      24.000 -12.229   5.691  0.00  0.00     0.144 H 
ATOM    154  C9  MOL d   1      24.749 -11.054   8.614  0.00  0.00     0.149 A 
ATOM    155  C15 MOL d   1      24.751 -10.354   9.808  0.00  0.00     0.155 A 
ATOM    156  C17 MOL d   1      25.769 -11.921   8.379  0.00  0.00     0.167 A 
ATOM    157  N7  MOL d   1      25.743 -10.519  10.697  0.00  0.00    -0.222 NA
ATOM    158  C16 MOL d   1      26.734 -11.390  10.456  0.00  0.00     0.091 A 
ATOM    159  N8  MOL d   1      26.780 -12.104   9.304  0.00  0.00    -0.222 NA
ATOM    160  H27 MOL d   1      27.514 -11.526  11.197  0.00  0.00     0.146 H 
BRANCH 155 161
ATOM    161  N6  MOL d   1      23.772  -9.448  10.205  0.00  0.00    -0.382 N 
ATOM    162  H25 MOL d   1      23.852  -8.969  11.113  0.00  0.00     0.157 HD
ATOM    163  H26 MOL d   1      22.968  -9.256   9.590  0.00  0.00     0.157 HD
ENDBRANCH 155 161
ENDBRANCH 141 150
ENDBRANCH 134 137
ENDBRANCH 117 134
ENDBRANCH 114 117
ENDBRANCH 111 114
ENDBRANCH 108 111
ENDBRANCH  96 108
ENDBRANCH   1  95
TORSDOF 39
