REMARK  6 active torsions:
REMARK  status: ('A' for Active; 'I' for Inactive)
REMARK    1  A    between atoms: O0A_28  and  C04_7 
REMARK    2  A    between atoms: C05_8  and  O0B_29 
REMARK    3  A    between atoms: C0C_9  and  O0A_28 
REMARK    4  A    between atoms: C0D_10  and  C0E_11 
REMARK    5  A    between atoms: O0B_29  and  C0D_10 
REMARK    6  A    between atoms: C0E_11  and  N0H_25 
ROOT
ATOM      1  N19 H9Y d   1     192.476 -28.547 147.735  0.00  0.00    -0.191 NA
ATOM      2  C16 H9Y d   1     192.956 -27.787 147.013  0.00  0.00     0.101 C 
ATOM      3  C0C H9Y d   1     195.975 -25.558 143.618  0.00  0.00     0.106 A 
ATOM      4  C0V H9Y d   1     194.998 -25.970 144.575  0.00  0.00     0.074 A 
ATOM      5  C0X H9Y d   1     193.970 -23.731 144.390  0.00  0.00     0.022 A 
ATOM      6  C0Y H9Y d   1     194.877 -23.311 143.484  0.00  0.00     0.135 A 
ATOM      7  C0Z H9Y d   1     195.908 -24.241 143.083  0.00  0.00    -0.009 A 
ATOM      8  C10 H9Y d   1     194.705 -27.135 145.332  0.00  0.00    -0.033 A 
ATOM      9  C11 H9Y d   1     193.171 -25.544 145.835  0.00  0.00     0.005 A 
ATOM     10  C14 H9Y d   1     193.553 -26.826 146.109  0.00  0.00     0.062 A 
ATOM     11  F13 H9Y d   1     194.856 -22.084 142.955  0.00  0.00    -0.205 F 
ATOM     12  N0W H9Y d   1     194.042 -25.012 144.904  0.00  0.00    -0.326 N 
ATOM     13  H10 H9Y d   1     193.179 -23.058 144.718  0.00  0.00     0.117 H 
ATOM     14  H11 H9Y d   1     196.652 -23.926 142.353  0.00  0.00     0.092 H 
ATOM     15  H12 H9Y d   1     195.252 -28.076 145.321  0.00  0.00     0.089 H 
ATOM     16  H13 H9Y d   1     192.321 -25.027 146.277  0.00  0.00     0.114 H 
ENDROOT
BRANCH   3  17
ATOM     17  O0A H9Y d   1     196.943 -26.471 143.259  0.00  0.00    -0.306 OA
BRANCH  17  18
ATOM     18  C04 H9Y d   1     198.030 -26.131 142.490  0.00  0.00     0.109 A 
ATOM     19  C03 H9Y d   1     199.171 -25.537 143.086  0.00  0.00    -0.045 A 
ATOM     20  C02 H9Y d   1     200.281 -25.193 142.286  0.00  0.00    -0.043 A 
ATOM     21  H3  H9Y d   1     199.190 -25.348 144.153  0.00  0.00     0.088 H 
ATOM     22  C01 H9Y d   1     200.257 -25.439 140.894  0.00  0.00     0.119 A 
ATOM     23  H2  H9Y d   1     201.155 -24.739 142.740  0.00  0.00     0.088 H 
ATOM     24  C00 H9Y d   1     199.122 -26.030 140.299  0.00  0.00    -0.011 A 
ATOM     25  F07 H9Y d   1     201.318 -25.111 140.124  0.00  0.00    -0.206 F 
ATOM     26  C05 H9Y d   1     197.993 -26.383 141.096  0.00  0.00     0.105 A 
ATOM     27  H1  H9Y d   1     199.108 -26.217 139.231  0.00  0.00     0.092 H 
BRANCH  26  28
ATOM     28  O0B H9Y d   1     196.841 -26.966 140.606  0.00  0.00    -0.347 OA
BRANCH  28  29
ATOM     29  C0D H9Y d   1     196.691 -27.177 139.205  0.00  0.00     0.041 C 
ATOM     30  H4  H9Y d   1     196.476 -26.218 138.710  0.00  0.00     0.077 H 
ATOM     31  H5  H9Y d   1     197.620 -27.600 138.796  0.00  0.00     0.077 H 
BRANCH  29  32
ATOM     32  C0E H9Y d   1     195.524 -28.159 138.956  0.00  0.00     0.024 C 
ATOM     33  H6  H9Y d   1     195.301 -28.173 137.879  0.00  0.00     0.068 H 
ATOM     34  H7  H9Y d   1     194.642 -27.802 139.508  0.00  0.00     0.068 H 
BRANCH  32  35
ATOM     35  N0H H9Y d   1     195.826 -29.540 139.392  0.00  0.00    -0.308 N 
ATOM     36  C0K H9Y d   1     196.785 -30.324 138.792  0.00  0.00     0.329 A 
ATOM     37  N0M H9Y d   1     196.943 -31.572 139.308  0.00  0.00    -0.275 N 
ATOM     38  O0Q H9Y d   1     197.479 -29.959 137.846  0.00  0.00    -0.246 OA
ATOM     39  C0N H9Y d   1     196.275 -32.141 140.340  0.00  0.00     0.250 A 
ATOM     40  H14 H9Y d   1     197.639 -32.141 138.871  0.00  0.00     0.173 HD
ATOM     41  C0O H9Y d   1     195.259 -31.285 140.962  0.00  0.00    -0.002 A 
ATOM     42  O0S H9Y d   1     196.525 -33.288 140.703  0.00  0.00    -0.268 OA
ATOM     43  C0P H9Y d   1     195.059 -30.028 140.484  0.00  0.00    -0.011 A 
ATOM     44  H8  H9Y d   1     194.669 -31.654 141.800  0.00  0.00     0.094 H 
ATOM     45  H9  H9Y d   1     194.305 -29.390 140.942  0.00  0.00     0.112 H 
ENDBRANCH  32  35
ENDBRANCH  29  32
ENDBRANCH  28  29
ENDBRANCH  26  28
ENDBRANCH  17  18
ENDBRANCH   3  17
TORSDOF 6
