REMARK  6 active torsions:
REMARK  status: ('A' for Active; 'I' for Inactive)
REMARK    1  A    between atoms: O0A_28  and  C04_7 
REMARK    2  A    between atoms: C05_8  and  O0B_29 
REMARK    3  A    between atoms: C0C_9  and  O0A_28 
REMARK    4  A    between atoms: C0D_10  and  C0E_11 
REMARK    5  A    between atoms: O0B_29  and  C0D_10 
REMARK    6  A    between atoms: C0E_11  and  N0H_25 
ROOT
ATOM      1  N19 H9Y d   1     272.678 -24.634  29.403  0.00  0.00    -0.191 NA
ATOM      2  C16 H9Y d   1     272.121 -24.152  28.514  0.00  0.00     0.101 C 
ATOM      3  C0C H9Y d   1     270.195 -23.201  23.931  0.00  0.00     0.106 A 
ATOM      4  C0V H9Y d   1     270.616 -23.253  25.297  0.00  0.00     0.074 A 
ATOM      5  C0X H9Y d   1     269.349 -21.172  25.700  0.00  0.00     0.022 A 
ATOM      6  C0Y H9Y d   1     268.931 -21.092  24.418  0.00  0.00     0.135 A 
ATOM      7  C0Z H9Y d   1     269.360 -22.129  23.506  0.00  0.00    -0.009 A 
ATOM      8  C10 H9Y d   1     271.413 -24.105  26.105  0.00  0.00    -0.033 A 
ATOM      9  C11 H9Y d   1     270.649 -22.404  27.391  0.00  0.00     0.005 A 
ATOM     10  C14 H9Y d   1     271.411 -23.537  27.411  0.00  0.00     0.062 A 
ATOM     11  F13 H9Y d   1     268.146 -20.104  23.969  0.00  0.00    -0.205 F 
ATOM     12  N0W H9Y d   1     270.159 -22.216  26.110  0.00  0.00    -0.326 N 
ATOM     13  H10 H9Y d   1     269.046 -20.409  26.416  0.00  0.00     0.117 H 
ATOM     14  H11 H9Y d   1     269.036 -22.089  22.467  0.00  0.00     0.092 H 
ATOM     15  H12 H9Y d   1     271.925 -25.013  25.789  0.00  0.00     0.089 H 
ATOM     16  H13 H9Y d   1     270.458 -21.754  28.244  0.00  0.00     0.114 H 
ENDROOT
BRANCH   3  17
ATOM     17  O0A H9Y d   1     270.611 -24.198  23.069  0.00  0.00    -0.306 OA
BRANCH  17  18
ATOM     18  C04 H9Y d   1     270.208 -24.191  21.756  0.00  0.00     0.109 A 
ATOM     19  C03 H9Y d   1     271.010 -23.560  20.772  0.00  0.00    -0.045 A 
ATOM     20  C02 H9Y d   1     270.590 -23.547  19.425  0.00  0.00    -0.043 A 
ATOM     21  H3  H9Y d   1     271.944 -23.088  21.054  0.00  0.00     0.088 H 
ATOM     22  C01 H9Y d   1     269.370 -24.153  19.053  0.00  0.00     0.119 A 
ATOM     23  H2  H9Y d   1     271.207 -23.070  18.672  0.00  0.00     0.088 H 
ATOM     24  C00 H9Y d   1     268.565 -24.781  20.033  0.00  0.00    -0.011 A 
ATOM     25  F07 H9Y d   1     268.970 -24.135  17.761  0.00  0.00    -0.206 F 
ATOM     26  C05 H9Y d   1     268.976 -24.803  21.401  0.00  0.00     0.105 A 
ATOM     27  H1  H9Y d   1     267.631 -25.248  19.744  0.00  0.00     0.092 H 
BRANCH  26  28
ATOM     28  O0B H9Y d   1     268.257 -25.393  22.427  0.00  0.00    -0.347 OA
BRANCH  28  29
ATOM     29  C0D H9Y d   1     267.004 -26.020  22.165  0.00  0.00     0.041 C 
ATOM     30  H4  H9Y d   1     266.202 -25.269  22.221  0.00  0.00     0.077 H 
ATOM     31  H5  H9Y d   1     267.022 -26.464  21.159  0.00  0.00     0.077 H 
BRANCH  29  32
ATOM     32  C0E H9Y d   1     266.740 -27.130  23.210  0.00  0.00     0.024 C 
ATOM     33  H6  H9Y d   1     265.663 -27.353  23.207  0.00  0.00     0.068 H 
ATOM     34  H7  H9Y d   1     267.033 -26.746  24.198  0.00  0.00     0.068 H 
BRANCH  32  35
ATOM     35  N0H H9Y d   1     267.474 -28.396  22.971  0.00  0.00    -0.308 N 
ATOM     36  C0K H9Y d   1     267.334 -29.155  21.827  0.00  0.00     0.329 A 
ATOM     37  N0M H9Y d   1     268.077 -30.291  21.765  0.00  0.00    -0.275 N 
ATOM     38  O0Q H9Y d   1     266.595 -28.862  20.890  0.00  0.00    -0.246 OA
ATOM     39  C0N H9Y d   1     268.942 -30.777  22.688  0.00  0.00     0.250 A 
ATOM     40  H14 H9Y d   1     267.972 -30.837  20.934  0.00  0.00     0.173 HD
ATOM     41  C0O H9Y d   1     269.072 -29.955  23.899  0.00  0.00    -0.002 A 
ATOM     42  O0S H9Y d   1     269.551 -31.827  22.497  0.00  0.00    -0.268 OA
ATOM     43  C0P H9Y d   1     268.351 -28.807  24.011  0.00  0.00    -0.011 A 
ATOM     44  H8  H9Y d   1     269.741 -30.263  24.701  0.00  0.00     0.094 H 
ATOM     45  H9  H9Y d   1     268.447 -28.196  24.907  0.00  0.00     0.112 H 
ENDBRANCH  32  35
ENDBRANCH  29  32
ENDBRANCH  28  29
ENDBRANCH  26  28
ENDBRANCH  17  18
ENDBRANCH   3  17
TORSDOF 6
