REMARK  19 active torsions:
REMARK  status: ('A' for Active; 'I' for Inactive)
REMARK    1  A    between atoms: C_2  and  CA_3 
REMARK       I    between atoms: C_2  and  N_7 
REMARK    2  A    between atoms: CA_3  and  CB_4 
REMARK    3  A    between atoms: CA_3  and  N_6 
REMARK    4  A    between atoms: CB_4  and  OG_5 
REMARK    5  A    between atoms: CA_8  and  C_9 
REMARK       I    between atoms: C_9  and  N_14 
REMARK    6  A    between atoms: N_14  and  CA_15 
REMARK    7  A    between atoms: CA_15  and  C_16 
REMARK    8  A    between atoms: CA_15  and  CB_18 
REMARK       I    between atoms: C_16  and  N_23 
REMARK    9  A    between atoms: CB_18  and  CG_19 
REMARK   10  A    between atoms: CG_19  and  CD_20 
REMARK   11  A    between atoms: CD_20  and  CE_21 
REMARK   12  A    between atoms: CE_21  and  NZ_22 
REMARK   13  A    between atoms: N_23  and  CA_24 
REMARK   14  A    between atoms: CA_24  and  C_25 
REMARK   15  A    between atoms: CA_24  and  CB_27 
REMARK       I    between atoms: C_25  and  N_34 
REMARK   16  A    between atoms: CB_27  and  CG_28 
REMARK   17  A    between atoms: CG_28  and  CD_29 
REMARK   18  A    between atoms: CD_29  and  NE_30 
REMARK       I    between atoms: NE_30  and  CZ_31 
REMARK       I    between atoms: CZ_31  and  NH1_32 
REMARK   19  A    between atoms: N_34  and  CA_35 
ROOT
ATOM      1  CA  LYS d   1      22.896   3.275 200.631  0.00  0.00     0.089 C 
ATOM      2  H16 LYS d   1      22.214   2.843 199.884  0.00  0.00     0.087 H 
ENDROOT
BRANCH   1   3
ATOM      3  N   LYS d   1      22.114   4.125 201.542  0.00  0.00    -0.346 N 
ATOM      4  C   PRO d   1      20.943   4.634 201.195  0.00  0.00     0.241 C 
ATOM      5  O   PRO d   1      20.338   4.374 200.145  0.00  0.00    -0.271 OA
ATOM      6  H15 LYS d   1      22.479   4.324 202.452  0.00  0.00     0.163 HD
BRANCH   4   7
ATOM      7  CA  PRO d   1      20.264   5.462 202.256  0.00  0.00     0.091 C 
ATOM      8  N   PRO d   1      19.233   6.327 201.684  0.00  0.00    -0.337 N 
ATOM      9  C   5JP d   1      19.584   7.208 200.762  0.00  0.00     0.253 C 
ATOM     10  CD  PRO d   1      17.894   6.026 202.215  0.00  0.00    -0.001 C 
ATOM     11  O   5JP d   1      20.771   7.410 200.468  0.00  0.00    -0.271 OA
ATOM     12  CG  PRO d   1      18.227   5.307 203.486  0.00  0.00    -0.048 C 
ATOM     13  H13 PRO d   1      17.325   5.383 201.528  0.00  0.00     0.064 H 
ATOM     14  H14 PRO d   1      17.325   6.946 202.412  0.00  0.00     0.064 H 
ATOM     15  CB  PRO d   1      19.480   4.577 203.251  0.00  0.00    -0.036 C 
ATOM     16  H11 PRO d   1      18.358   6.029 204.305  0.00  0.00     0.035 H 
ATOM     17  H12 PRO d   1      17.422   4.603 203.744  0.00  0.00     0.035 H 
ATOM     18  H9  PRO d   1      20.041   4.456 204.189  0.00  0.00     0.036 H 
ATOM     19  H10 PRO d   1      19.277   3.588 202.815  0.00  0.00     0.036 H 
ATOM     20  H8  PRO d   1      21.022   6.060 202.784  0.00  0.00     0.087 H 
BRANCH   9  21
ATOM     21  CA  5JP d   1      18.462   7.849 199.970  0.00  0.00     0.196 C 
ATOM     22  H1  5JP d   1      17.699   8.227 200.666  0.00  0.00     0.102 H 
BRANCH  21  23
ATOM     23  CB  5JP d   1      17.807   6.810 199.047  0.00  0.00     0.051 C 
ATOM     24  H2  5JP d   1      16.986   7.289 198.493  0.00  0.00     0.077 H 
ATOM     25  H3  5JP d   1      17.406   5.988 199.659  0.00  0.00     0.077 H 
BRANCH  23  26
ATOM     26  OG  5JP d   1      18.738   6.288 198.130  0.00  0.00    -0.398 OA
ATOM     27  H4  5JP d   1      18.308   5.650 197.573  0.00  0.00     0.209 HD
ENDBRANCH  23  26
ENDBRANCH  21  23
BRANCH  21  28
ATOM     28  N   5JP d   1      19.001   8.950 199.233  0.00  0.00    -0.064 N 
ATOM     29  H5  5JP d   1      19.421   9.608 199.871  0.00  0.00     0.275 HD
ATOM     30  H6  5JP d   1      18.262   9.404 198.719  0.00  0.00     0.275 HD
ATOM     31  H7  5JP d   1      19.700   8.614 198.589  0.00  0.00     0.275 HD
ENDBRANCH  21  28
ENDBRANCH   9  21
ENDBRANCH   4   7
ENDBRANCH   1   3
BRANCH   1  32
ATOM     32  C   LYS d   1      23.551   2.135 201.412  0.00  0.00     0.241 C 
ATOM     33  O   LYS d   1      23.805   2.248 202.584  0.00  0.00    -0.271 OA
ATOM     34  N   ARG d   1      23.812   1.041 200.723  0.00  0.00    -0.346 N 
ATOM     35  H28 ARG d   1      23.409   0.919 199.816  0.00  0.00     0.163 HD
BRANCH  34  36
ATOM     36  CA  ARG d   1      24.684   0.005 201.272  0.00  0.00     0.089 C 
ATOM     37  H29 ARG d   1      24.642   0.084 202.368  0.00  0.00     0.087 H 
BRANCH  36  38
ATOM     38  C   ARG d   1      26.088   0.285 200.880  0.00  0.00     0.240 C 
ATOM     39  O   ARG d   1      26.338   0.933 199.825  0.00  0.00    -0.271 OA
ATOM     40  N   ILE d   1      26.974  -0.210 201.725  0.00  0.00    -0.364 N 
ATOM     41  H41 ILE d   1      26.646  -0.862 202.409  0.00  0.00     0.161 HD
BRANCH  40  42
ATOM     42  CA  ILE d   1      28.381   0.118 201.737  0.00  0.00    -0.018 C 
ATOM     43  H42 ILE d   1      28.880  -0.438 202.544  0.00  0.00     0.056 H 
ATOM     44  H43 ILE d   1      28.504   1.198 201.905  0.00  0.00     0.056 H 
ATOM     45  H44 ILE d   1      28.830  -0.156 200.771  0.00  0.00     0.056 H 
ENDBRANCH  40  42
ENDBRANCH  36  38
BRANCH  36  46
ATOM     46  CB  ARG d   1      24.183  -1.359 200.932  0.00  0.00    -0.036 C 
ATOM     47  H30 ARG d   1      24.985  -2.096 201.083  0.00  0.00     0.036 H 
ATOM     48  H31 ARG d   1      23.857  -1.382 199.881  0.00  0.00     0.036 H 
BRANCH  46  49
ATOM     49  CG  ARG d   1      23.011  -1.689 201.836  0.00  0.00    -0.048 C 
ATOM     50  H32 ARG d   1      22.357  -0.809 201.927  0.00  0.00     0.035 H 
ATOM     51  H33 ARG d   1      23.383  -1.974 202.831  0.00  0.00     0.035 H 
BRANCH  49  52
ATOM     52  CD  ARG d   1      22.229  -2.841 201.239  0.00  0.00     0.009 C 
ATOM     53  H34 ARG d   1      21.938  -2.564 200.215  0.00  0.00     0.064 H 
ATOM     54  H35 ARG d   1      21.326  -2.995 201.848  0.00  0.00     0.064 H 
BRANCH  52  55
ATOM     55  NE  ARG d   1      22.958  -4.102 201.180  0.00  0.00    -0.227 N 
ATOM     56  CZ  ARG d   1      22.490  -5.190 200.582  0.00  0.00     0.665 C 
ATOM     57  NH1 ARG d   1      21.335  -5.157 199.920  0.00  0.00    -0.235 N 
ATOM     58  NH2 ARG d   1      23.218  -6.295 200.584  0.00  0.00    -0.235 N 
ATOM     59  H37 ARG d   1      20.981  -6.008 199.459  0.00  0.00     0.174 HD
ATOM     60  H38 ARG d   1      20.796  -4.281 199.869  0.00  0.00     0.174 HD
ATOM     61  H39 ARG d   1      24.112  -6.322 201.096  0.00  0.00     0.174 HD
ATOM     62  H40 ARG d   1      22.891  -7.128 200.074  0.00  0.00     0.174 HD
ATOM     63  H36 ARG d   1      23.885  -4.151 201.626  0.00  0.00     0.177 HD
ENDBRANCH  52  55
ENDBRANCH  49  52
ENDBRANCH  46  49
ENDBRANCH  36  46
ENDBRANCH  34  36
ENDBRANCH   1  32
BRANCH   1  64
ATOM     64  CB  LYS d   1      23.961   4.101 199.897  0.00  0.00    -0.038 C 
ATOM     65  H17 LYS d   1      24.603   3.405 199.337  0.00  0.00     0.036 H 
ATOM     66  H18 LYS d   1      24.562   4.627 200.653  0.00  0.00     0.036 H 
BRANCH  64  67
ATOM     67  CG  LYS d   1      23.420   5.152 198.905  0.00  0.00    -0.061 C 
ATOM     68  H19 LYS d   1      24.267   5.743 198.526  0.00  0.00     0.033 H 
ATOM     69  H20 LYS d   1      22.724   5.812 199.442  0.00  0.00     0.033 H 
BRANCH  67  70
ATOM     70  CD  LYS d   1      22.690   4.544 197.721  0.00  0.00    -0.043 C 
ATOM     71  H21 LYS d   1      21.862   3.923 198.094  0.00  0.00     0.035 H 
ATOM     72  H22 LYS d   1      23.393   3.916 197.154  0.00  0.00     0.035 H 
BRANCH  70  73
ATOM     73  CE  LYS d   1      22.126   5.610 196.794  0.00  0.00     0.080 C 
ATOM     74  H23 LYS d   1      21.526   6.314 197.390  0.00  0.00     0.075 H 
ATOM     75  H24 LYS d   1      21.483   5.122 196.046  0.00  0.00     0.075 H 
BRANCH  73  76
ATOM     76  NZ  LYS d   1      23.181   6.367 196.089  0.00  0.00    -0.079 N 
ATOM     77  H25 LYS d   1      22.756   7.058 195.490  0.00  0.00     0.274 HD
ATOM     78  H26 LYS d   1      23.734   5.734 195.532  0.00  0.00     0.274 HD
ATOM     79  H27 LYS d   1      23.773   6.826 196.763  0.00  0.00     0.274 HD
ENDBRANCH  73  76
ENDBRANCH  70  73
ENDBRANCH  67  70
ENDBRANCH  64  67
ENDBRANCH   1  64
TORSDOF 19
