REMARK  2 active torsions:
REMARK  status: ('A' for Active; 'I' for Inactive)
REMARK    1  A    between atoms: C6_3  and  C7_2 
REMARK    2  A    between atoms: C16_8  and  N19_20 
ROOT
ATOM      1  C4  HB4 d   1      -1.613  18.409  -5.868  0.00  0.00    -0.004 A 
ATOM      2  C6  HB4 d   1      -0.704  16.476  -4.709  0.00  0.00     0.018 A 
ATOM      3  C18 HB4 d   1      -3.893  19.032  -6.061  0.00  0.00     0.028 C 
ATOM      4  C16 HB4 d   1      -1.638  19.725  -6.617  0.00  0.00     0.127 C 
ATOM      5  C1  HB4 d   1      -2.016  16.111  -4.386  0.00  0.00     0.001 A 
ATOM      6  C2  HB4 d   1      -3.103  16.870  -4.801  0.00  0.00    -0.004 A 
ATOM      7  C3  HB4 d   1      -2.901  18.027  -5.539  0.00  0.00    -0.024 A 
ATOM      8  C5  HB4 d   1      -0.513  17.649  -5.460  0.00  0.00    -0.001 A 
ATOM      9  C17 HB4 d   1      -3.089  19.777  -7.140  0.00  0.00     0.034 C 
ENDROOT
BRANCH   2  10
ATOM     10  C7  HB4 d   1       0.443  15.629  -4.268  0.00  0.00     0.086 A 
ATOM     11  C8  HB4 d   1       0.382  14.206  -4.141  0.00  0.00     0.055 A 
ATOM     12  C9  HB4 d   1      -0.550  13.150  -4.398  0.00  0.00     0.025 A 
ATOM     13  C12 HB4 d   1       1.570  13.592  -3.696  0.00  0.00     0.166 A 
ATOM     14  C10 HB4 d   1       0.090  11.985  -4.110  0.00  0.00     0.101 A 
ATOM     15  N11 HB4 d   1       1.376  12.237  -3.681  0.00  0.00    -0.225 NA
ATOM     16  N13 HB4 d   1       2.717  14.244  -3.412  0.00  0.00    -0.205 NA
ATOM     17  C14 HB4 d   1       2.636  15.569  -3.596  0.00  0.00     0.200 A 
ATOM     18  N15 HB4 d   1       1.585  16.289  -3.998  0.00  0.00    -0.224 NA
ENDBRANCH   2  10
BRANCH   4  19
ATOM     19  N19 HB4 d   1      -0.625  19.839  -7.660  0.00  0.00    -0.246 NA
ATOM     20  C20 HB4 d   1      -0.006  21.006  -7.965  0.00  0.00     0.217 C 
ATOM     21  N21 HB4 d   1      -0.183  22.188  -7.457  0.00  0.00    -0.124 N 
ENDBRANCH   4  19
TORSDOF 2
