REMARK  11 active torsions:
REMARK  status: ('A' for Active; 'I' for Inactive)
REMARK    1  A    between atoms: C02_2  and  C01_1 
REMARK    2  A    between atoms: C04_4  and  C05_5 
REMARK    3  A    between atoms: C10_9  and  C11_10 
REMARK    4  A    between atoms: O13_36  and  C12_11 
REMARK    5  A    between atoms: C14_12  and  O13_36 
REMARK    6  A    between atoms: C16_13  and  N17_32 
REMARK    7  A    between atoms: N17_32  and  C18_14 
REMARK    8  A    between atoms: C22_17  and  C23_18 
REMARK    9  A    between atoms: N21_33  and  C22_17 
REMARK   10  A    between atoms: C26_21  and  S27_39 
REMARK   11  A    between atoms: S27_39  and  N28_34 
ROOT
ATOM      1  C05 K5C d   1      48.621 -28.998  39.153  0.00  0.00    -0.063 C 
ATOM      2  C06 K5C d   1      48.789 -30.111  39.874  0.00  0.00    -0.006 C 
ATOM      3  C07 K5C d   1      47.663 -30.752  40.353  0.00  0.00     0.087 C 
ATOM      4  N08 K5C d   1      46.707 -31.292  40.788  0.00  0.00    -0.192 NA
ATOM      5  H5  K5C d   1      47.590 -28.710  38.956  0.00  0.00     0.085 H 
ATOM      6  H6  K5C d   1      49.785 -30.501  40.078  0.00  0.00     0.100 H 
ENDROOT
BRANCH   1   7
ATOM      7  C04 K5C d   1      49.660 -28.108  38.589  0.00  0.00    -0.034 A 
ATOM      8  C03 K5C d   1      51.047 -28.426  38.498  0.00  0.00    -0.065 A 
ATOM      9  C02 K5C d   1      52.016 -27.540  37.996  0.00  0.00    -0.027 A 
ATOM     10  H4  K5C d   1      51.372 -29.404  38.834  0.00  0.00     0.085 H 
ATOM     11  C12 K5C d   1      51.547 -26.266  37.577  0.00  0.00     0.089 A 
ATOM     12  C10 K5C d   1      50.187 -25.900  37.680  0.00  0.00    -0.027 A 
ATOM     13  C09 K5C d   1      49.288 -26.824  38.182  0.00  0.00    -0.065 A 
ATOM     14  H7  K5C d   1      48.245 -26.538  38.264  0.00  0.00     0.085 H 
BRANCH   9  15
ATOM     15  C01 K5C d   1      53.534 -27.842  37.872  0.00  0.00    -0.049 C 
ATOM     16  H1  K5C d   1      53.736 -28.861  38.234  0.00  0.00     0.033 H 
ATOM     17  H2  K5C d   1      54.102 -27.119  38.475  0.00  0.00     0.033 H 
ATOM     18  H3  K5C d   1      53.839 -27.761  36.818  0.00  0.00     0.033 H 
ENDBRANCH   9  15
BRANCH  11  19
ATOM     19  O13 K5C d   1      52.386 -25.317  37.115  0.00  0.00    -0.289 OA
BRANCH  19  20
ATOM     20  C14 K5C d   1      52.832 -25.339  35.873  0.00  0.00     0.208 A 
ATOM     21  C40 K5C d   1      53.605 -24.328  35.444  0.00  0.00     0.088 A 
ATOM     22  C36 K5C d   1      54.038 -24.379  34.134  0.00  0.00     0.098 A 
ATOM     23  S39 K5C d   1      54.168 -22.915  36.231  0.00  0.00    -0.095 SA
ATOM     24  C37 K5C d   1      54.852 -23.237  33.790  0.00  0.00    -0.047 A 
ATOM     25  N35 K5C d   1      53.720 -25.413  33.298  0.00  0.00    -0.062 NA
ATOM     26  C38 K5C d   1      55.002 -22.380  34.840  0.00  0.00    -0.042 A 
ATOM     27  H26 K5C d   1      55.294 -23.079  32.807  0.00  0.00     0.087 H 
ATOM     28  H27 K5C d   1      55.586 -21.462  34.797  0.00  0.00     0.095 H 
ATOM     29  C16 K5C d   1      52.946 -26.373  33.841  0.00  0.00     0.725 A 
ATOM     30  N15 K5C d   1      52.471 -26.398  35.127  0.00  0.00    -0.037 NA
BRANCH  29  31
ATOM     31  N17 K5C d   1      52.628 -27.442  32.956  0.00  0.00    -0.218 N 
ATOM     32  H28 K5C d   1      53.006 -27.499  32.000  0.00  0.00     0.178 HD
BRANCH  31  33
ATOM     33  C18 K5C d   1      51.720 -28.459  33.508  0.00  0.00     0.029 C 
ATOM     34  C19 K5C d   1      52.385 -29.500  34.376  0.00  0.00    -0.023 C 
ATOM     35  C20 K5C d   1      51.486 -30.716  34.598  0.00  0.00     0.086 C 
ATOM     36  H12 K5C d   1      52.623 -29.051  35.352  0.00  0.00     0.038 H 
ATOM     37  H13 K5C d   1      53.314 -29.829  33.888  0.00  0.00     0.038 H 
ATOM     38  N21 K5C d   1      50.875 -31.195  33.247  0.00  0.00    -0.067 N 
ATOM     39  H14 K5C d   1      50.673 -30.444  35.287  0.00  0.00     0.076 H 
ATOM     40  H15 K5C d   1      52.081 -31.531  35.036  0.00  0.00     0.076 H 
ATOM     41  C33 K5C d   1      50.060 -30.132  32.620  0.00  0.00     0.086 C 
ATOM     42  H29 K5C d   1      51.579 -31.526  32.606  0.00  0.00     0.280 HD
ATOM     43  C34 K5C d   1      51.026 -29.020  32.249  0.00  0.00    -0.023 C 
ATOM     44  H22 K5C d   1      49.558 -30.517  31.720  0.00  0.00     0.076 H 
ATOM     45  H23 K5C d   1      49.306 -29.761  33.330  0.00  0.00     0.076 H 
ATOM     46  H24 K5C d   1      51.788 -29.418  31.563  0.00  0.00     0.038 H 
ATOM     47  H25 K5C d   1      50.471 -28.211  31.751  0.00  0.00     0.038 H 
ATOM     48  H11 K5C d   1      50.968 -27.960  34.137  0.00  0.00     0.073 H 
BRANCH  38  49
ATOM     49  C22 K5C d   1      49.999 -32.253  33.710  0.00  0.00     0.107 C 
ATOM     50  H16 K5C d   1      49.406 -31.864  34.551  0.00  0.00     0.083 H 
ATOM     51  H17 K5C d   1      49.327 -32.529  32.884  0.00  0.00     0.083 H 
BRANCH  49  52
ATOM     52  C23 K5C d   1      50.715 -33.503  34.175  0.00  0.00    -0.033 A 
ATOM     53  C24 K5C d   1      52.027 -33.845  33.733  0.00  0.00    -0.074 A 
ATOM     54  C25 K5C d   1      52.650 -35.000  34.191  0.00  0.00    -0.060 A 
ATOM     55  H18 K5C d   1      52.543 -33.198  33.033  0.00  0.00     0.084 H 
ATOM     56  C26 K5C d   1      52.083 -35.903  35.102  0.00  0.00     0.079 A 
ATOM     57  H19 K5C d   1      53.644 -35.218  33.818  0.00  0.00     0.085 H 
ATOM     58  C31 K5C d   1      50.821 -35.523  35.487  0.00  0.00    -0.060 A 
ATOM     59  C32 K5C d   1      50.164 -34.382  35.027  0.00  0.00    -0.074 A 
ATOM     60  H20 K5C d   1      50.299 -36.154  36.198  0.00  0.00     0.085 H 
ATOM     61  H21 K5C d   1      49.155 -34.195  35.376  0.00  0.00     0.084 H 
BRANCH  56  62
ATOM     62  S27 K5C d   1      52.888 -37.372  35.683  0.00  0.00     0.256 S 
ATOM     63  O29 K5C d   1      54.019 -37.059  36.506  0.00  0.00    -0.201 OA
ATOM     64  O30 K5C d   1      51.909 -38.176  36.304  0.00  0.00    -0.201 OA
BRANCH  62  65
ATOM     65  N28 K5C d   1      53.457 -38.121  34.323  0.00  0.00    -0.324 N 
ATOM     66  H30 K5C d   1      53.956 -38.984  34.399  0.00  0.00     0.169 HD
ATOM     67  H31 K5C d   1      53.303 -37.711  33.424  0.00  0.00     0.169 HD
ENDBRANCH  62  65
ENDBRANCH  56  62
ENDBRANCH  49  52
ENDBRANCH  38  49
ENDBRANCH  31  33
ENDBRANCH  29  31
ENDBRANCH  19  20
ENDBRANCH  11  19
BRANCH  12  68
ATOM     68  C11 K5C d   1      49.697 -24.520  37.236  0.00  0.00    -0.049 C 
ATOM     69  H8  K5C d   1      48.612 -24.445  37.402  0.00  0.00     0.033 H 
ATOM     70  H9  K5C d   1      49.915 -24.380  36.167  0.00  0.00     0.033 H 
ATOM     71  H10 K5C d   1      50.212 -23.743  37.820  0.00  0.00     0.033 H 
ENDBRANCH  12  68
ENDBRANCH   1   7
TORSDOF 11
