REMARK  11 active torsions:
REMARK  status: ('A' for Active; 'I' for Inactive)
REMARK    1  A    between atoms: C02_2  and  C01_1 
REMARK    2  A    between atoms: C04_4  and  C05_5 
REMARK    3  A    between atoms: C10_9  and  C11_10 
REMARK    4  A    between atoms: O13_36  and  C12_11 
REMARK    5  A    between atoms: C14_12  and  O13_36 
REMARK    6  A    between atoms: C16_13  and  N17_32 
REMARK    7  A    between atoms: N17_32  and  C18_14 
REMARK    8  A    between atoms: C22_17  and  C23_18 
REMARK    9  A    between atoms: N21_33  and  C22_17 
REMARK   10  A    between atoms: C26_21  and  S27_39 
REMARK   11  A    between atoms: S27_39  and  N28_34 
ROOT
ATOM      1  C05 K5C d   1      48.450 -28.330  40.272  0.00  0.00    -0.063 C 
ATOM      2  C06 K5C d   1      47.594 -27.946  41.241  0.00  0.00    -0.006 C 
ATOM      3  C07 K5C d   1      46.776 -28.899  41.821  0.00  0.00     0.087 C 
ATOM      4  N08 K5C d   1      46.089 -29.711  42.335  0.00  0.00    -0.192 NA
ATOM      5  H5  K5C d   1      48.409 -29.383  39.996  0.00  0.00     0.085 H 
ATOM      6  H6  K5C d   1      47.548 -26.906  41.561  0.00  0.00     0.100 H 
ENDROOT
BRANCH   1   7
ATOM      7  C04 K5C d   1      49.451 -27.501  39.524  0.00  0.00    -0.034 A 
ATOM      8  C03 K5C d   1      50.791 -27.879  39.277  0.00  0.00    -0.065 A 
ATOM      9  C02 K5C d   1      51.739 -27.083  38.592  0.00  0.00    -0.027 A 
ATOM     10  H4  K5C d   1      51.115 -28.848  39.638  0.00  0.00     0.085 H 
ATOM     11  C12 K5C d   1      51.296 -25.815  38.110  0.00  0.00     0.089 A 
ATOM     12  C10 K5C d   1      49.971 -25.395  38.352  0.00  0.00    -0.027 A 
ATOM     13  C09 K5C d   1      49.088 -26.240  39.045  0.00  0.00    -0.065 A 
ATOM     14  H7  K5C d   1      48.074 -25.896  39.217  0.00  0.00     0.085 H 
BRANCH   9  15
ATOM     15  C01 K5C d   1      53.182 -27.515  38.335  0.00  0.00    -0.049 C 
ATOM     16  H1  K5C d   1      53.350 -28.510  38.772  0.00  0.00     0.033 H 
ATOM     17  H2  K5C d   1      53.869 -26.791  38.797  0.00  0.00     0.033 H 
ATOM     18  H3  K5C d   1      53.365 -27.555  37.251  0.00  0.00     0.033 H 
ENDBRANCH   9  15
BRANCH  11  19
ATOM     19  O13 K5C d   1      52.123 -24.899  37.438  0.00  0.00    -0.289 OA
BRANCH  19  20
ATOM     20  C14 K5C d   1      52.583 -25.107  36.169  0.00  0.00     0.208 A 
ATOM     21  C40 K5C d   1      53.498 -24.236  35.585  0.00  0.00     0.088 A 
ATOM     22  C36 K5C d   1      53.912 -24.539  34.270  0.00  0.00     0.098 A 
ATOM     23  S39 K5C d   1      54.280 -22.799  36.118  0.00  0.00    -0.095 SA
ATOM     24  C37 K5C d   1      54.867 -23.565  33.756  0.00  0.00    -0.047 A 
ATOM     25  N35 K5C d   1      53.461 -25.615  33.588  0.00  0.00    -0.062 NA
ATOM     26  C38 K5C d   1      55.149 -22.585  34.649  0.00  0.00    -0.042 A 
ATOM     27  H26 K5C d   1      55.307 -23.619  32.761  0.00  0.00     0.087 H 
ATOM     28  H27 K5C d   1      55.840 -21.765  34.460  0.00  0.00     0.095 H 
ATOM     29  C16 K5C d   1      52.561 -26.405  34.250  0.00  0.00     0.725 A 
ATOM     30  N15 K5C d   1      52.089 -26.207  35.534  0.00  0.00    -0.037 NA
BRANCH  29  31
ATOM     31  N17 K5C d   1      52.113 -27.539  33.487  0.00  0.00    -0.218 N 
ATOM     32  H28 K5C d   1      52.507 -27.741  32.557  0.00  0.00     0.178 HD
BRANCH  31  33
ATOM     33  C18 K5C d   1      51.058 -28.416  34.083  0.00  0.00     0.029 C 
ATOM     34  C19 K5C d   1      51.600 -29.402  35.071  0.00  0.00    -0.023 C 
ATOM     35  C20 K5C d   1      50.670 -30.517  35.351  0.00  0.00     0.086 C 
ATOM     36  H12 K5C d   1      51.807 -28.875  36.014  0.00  0.00     0.038 H 
ATOM     37  H13 K5C d   1      52.536 -29.819  34.671  0.00  0.00     0.038 H 
ATOM     38  N21 K5C d   1      50.246 -31.160  34.064  0.00  0.00    -0.067 N 
ATOM     39  H14 K5C d   1      49.784 -30.130  35.875  0.00  0.00     0.076 H 
ATOM     40  H15 K5C d   1      51.174 -31.263  35.983  0.00  0.00     0.076 H 
ATOM     41  C33 K5C d   1      49.469 -30.231  33.212  0.00  0.00     0.086 C 
ATOM     42  H29 K5C d   1      51.023 -31.539  33.546  0.00  0.00     0.280 HD
ATOM     43  C34 K5C d   1      50.317 -29.023  32.862  0.00  0.00    -0.023 C 
ATOM     44  H22 K5C d   1      49.170 -30.747  32.288  0.00  0.00     0.076 H 
ATOM     45  H23 K5C d   1      48.571 -29.902  33.755  0.00  0.00     0.076 H 
ATOM     46  H24 K5C d   1      51.066 -29.327  32.115  0.00  0.00     0.038 H 
ATOM     47  H25 K5C d   1      49.663 -28.250  32.432  0.00  0.00     0.038 H 
ATOM     48  H11 K5C d   1      50.346 -27.783  34.634  0.00  0.00     0.073 H 
BRANCH  38  49
ATOM     49  C22 K5C d   1      49.374 -32.199  34.626  0.00  0.00     0.107 C 
ATOM     50  H16 K5C d   1      48.846 -31.782  35.496  0.00  0.00     0.083 H 
ATOM     51  H17 K5C d   1      48.642 -32.496  33.860  0.00  0.00     0.083 H 
BRANCH  49  52
ATOM     52  C23 K5C d   1      50.128 -33.415  35.063  0.00  0.00    -0.033 A 
ATOM     53  C24 K5C d   1      51.384 -33.701  34.473  0.00  0.00    -0.074 A 
ATOM     54  C25 K5C d   1      52.119 -34.825  34.856  0.00  0.00    -0.060 A 
ATOM     55  H18 K5C d   1      51.780 -33.037  33.713  0.00  0.00     0.084 H 
ATOM     56  C26 K5C d   1      51.698 -35.763  35.826  0.00  0.00     0.079 A 
ATOM     57  H19 K5C d   1      53.077 -34.989  34.377  0.00  0.00     0.085 H 
ATOM     58  C31 K5C d   1      50.452 -35.430  36.369  0.00  0.00    -0.060 A 
ATOM     59  C32 K5C d   1      49.686 -34.315  36.014  0.00  0.00    -0.074 A 
ATOM     60  H20 K5C d   1      50.047 -36.091  37.127  0.00  0.00     0.085 H 
ATOM     61  H21 K5C d   1      48.727 -34.154  36.494  0.00  0.00     0.084 H 
BRANCH  56  62
ATOM     62  S27 K5C d   1      52.646 -37.176  36.284  0.00  0.00     0.256 S 
ATOM     63  O29 K5C d   1      53.929 -36.801  36.775  0.00  0.00    -0.201 OA
ATOM     64  O30 K5C d   1      51.897 -37.974  37.193  0.00  0.00    -0.201 OA
BRANCH  62  65
ATOM     65  N28 K5C d   1      52.901 -38.072  34.916  0.00  0.00    -0.324 N 
ATOM     66  H30 K5C d   1      53.425 -38.923  34.966  0.00  0.00     0.169 HD
ATOM     67  H31 K5C d   1      52.532 -37.763  34.040  0.00  0.00     0.169 HD
ENDBRANCH  62  65
ENDBRANCH  56  62
ENDBRANCH  49  52
ENDBRANCH  38  49
ENDBRANCH  31  33
ENDBRANCH  29  31
ENDBRANCH  19  20
ENDBRANCH  11  19
BRANCH  12  68
ATOM     68  C11 K5C d   1      49.491 -24.057  37.863  0.00  0.00    -0.049 C 
ATOM     69  H8  K5C d   1      48.438 -23.918  38.150  0.00  0.00     0.033 H 
ATOM     70  H9  K5C d   1      49.581 -24.013  36.768  0.00  0.00     0.033 H 
ATOM     71  H10 K5C d   1      50.102 -23.261  38.314  0.00  0.00     0.033 H 
ENDBRANCH  12  68
ENDBRANCH   1   7
TORSDOF 11
