REMARK  11 active torsions:
REMARK  status: ('A' for Active; 'I' for Inactive)
REMARK    1  A    between atoms: C02_2  and  C01_1 
REMARK    2  A    between atoms: C04_4  and  C05_5 
REMARK    3  A    between atoms: C10_9  and  C11_10 
REMARK    4  A    between atoms: O13_36  and  C12_11 
REMARK    5  A    between atoms: C14_12  and  O13_36 
REMARK    6  A    between atoms: C16_13  and  N17_32 
REMARK    7  A    between atoms: N17_32  and  C18_14 
REMARK    8  A    between atoms: C22_17  and  C23_18 
REMARK    9  A    between atoms: N21_33  and  C22_17 
REMARK   10  A    between atoms: C26_21  and  S27_39 
REMARK   11  A    between atoms: S27_39  and  N28_34 
ROOT
ATOM      1  C05 K5C d   1      48.169 -28.939  40.221  0.00  0.00    -0.063 C 
ATOM      2  C06 K5C d   1      47.452 -28.609  41.317  0.00  0.00    -0.006 C 
ATOM      3  C07 K5C d   1      46.582 -29.517  41.891  0.00  0.00     0.087 C 
ATOM      4  N08 K5C d   1      45.839 -30.277  42.408  0.00  0.00    -0.192 NA
ATOM      5  H5  K5C d   1      48.021 -29.937  39.811  0.00  0.00     0.085 H 
ATOM      6  H6  K5C d   1      47.560 -27.617  41.753  0.00  0.00     0.100 H 
ENDROOT
BRANCH   1   7
ATOM      7  C04 K5C d   1      49.149 -28.052  39.522  0.00  0.00    -0.034 A 
ATOM      8  C03 K5C d   1      50.526 -28.332  39.329  0.00  0.00    -0.065 A 
ATOM      9  C02 K5C d   1      51.431 -27.452  38.690  0.00  0.00    -0.027 A 
ATOM     10  H4  K5C d   1      50.908 -29.279  39.694  0.00  0.00     0.085 H 
ATOM     11  C12 K5C d   1      50.907 -26.219  38.204  0.00  0.00     0.089 A 
ATOM     12  C10 K5C d   1      49.544 -25.894  38.399  0.00  0.00    -0.027 A 
ATOM     13  C09 K5C d   1      48.707 -26.814  39.046  0.00  0.00    -0.065 A 
ATOM     14  H7  K5C d   1      47.664 -26.552  39.184  0.00  0.00     0.085 H 
BRANCH   9  15
ATOM     15  C01 K5C d   1      52.920 -27.750  38.475  0.00  0.00    -0.049 C 
ATOM     16  H1  K5C d   1      53.163 -28.733  38.905  0.00  0.00     0.033 H 
ATOM     17  H2  K5C d   1      53.524 -26.974  38.968  0.00  0.00     0.033 H 
ATOM     18  H3  K5C d   1      53.141 -27.757  37.397  0.00  0.00     0.033 H 
ENDBRANCH   9  15
BRANCH  11  19
ATOM     19  O13 K5C d   1      51.699 -25.251  37.591  0.00  0.00    -0.289 OA
BRANCH  19  20
ATOM     20  C14 K5C d   1      52.142 -25.344  36.316  0.00  0.00     0.208 A 
ATOM     21  C40 K5C d   1      53.003 -24.386  35.794  0.00  0.00     0.088 A 
ATOM     22  C36 K5C d   1      53.417 -24.548  34.461  0.00  0.00     0.098 A 
ATOM     23  S39 K5C d   1      53.706 -22.982  36.441  0.00  0.00    -0.095 SA
ATOM     24  C37 K5C d   1      54.318 -23.479  34.025  0.00  0.00    -0.047 A 
ATOM     25  N35 K5C d   1      53.002 -25.584  33.702  0.00  0.00    -0.062 NA
ATOM     26  C38 K5C d   1      54.553 -22.573  35.000  0.00  0.00    -0.042 A 
ATOM     27  H26 K5C d   1      54.750 -23.421  33.027  0.00  0.00     0.087 H 
ATOM     28  H27 K5C d   1      55.194 -21.700  34.888  0.00  0.00     0.095 H 
ATOM     29  C16 K5C d   1      52.155 -26.473  34.314  0.00  0.00     0.725 A 
ATOM     30  N15 K5C d   1      51.694 -26.405  35.616  0.00  0.00    -0.037 NA
BRANCH  29  31
ATOM     31  N17 K5C d   1      51.755 -27.559  33.455  0.00  0.00    -0.218 N 
ATOM     32  H28 K5C d   1      52.166 -27.653  32.515  0.00  0.00     0.178 HD
BRANCH  31  33
ATOM     33  C18 K5C d   1      50.740 -28.550  33.933  0.00  0.00     0.029 C 
ATOM     34  C19 K5C d   1      51.253 -29.479  34.990  0.00  0.00    -0.023 C 
ATOM     35  C20 K5C d   1      50.330 -30.611  35.251  0.00  0.00     0.086 C 
ATOM     36  H12 K5C d   1      51.387 -28.912  35.923  0.00  0.00     0.038 H 
ATOM     37  H13 K5C d   1      52.223 -29.883  34.664  0.00  0.00     0.038 H 
ATOM     38  N21 K5C d   1      50.029 -31.336  33.959  0.00  0.00    -0.067 N 
ATOM     39  H14 K5C d   1      49.393 -30.227  35.681  0.00  0.00     0.076 H 
ATOM     40  H15 K5C d   1      50.799 -31.309  35.960  0.00  0.00     0.076 H 
ATOM     41  C33 K5C d   1      49.366 -30.461  32.956  0.00  0.00     0.086 C 
ATOM     42  H29 K5C d   1      50.857 -31.745  33.554  0.00  0.00     0.280 HD
ATOM     43  C34 K5C d   1      50.243 -29.252  32.652  0.00  0.00    -0.023 C 
ATOM     44  H22 K5C d   1      49.199 -31.031  32.030  0.00  0.00     0.076 H 
ATOM     45  H23 K5C d   1      48.400 -30.118  33.355  0.00  0.00     0.076 H 
ATOM     46  H24 K5C d   1      51.115 -29.585  32.071  0.00  0.00     0.038 H 
ATOM     47  H25 K5C d   1      49.660 -28.533  32.058  0.00  0.00     0.038 H 
ATOM     48  H11 K5C d   1      49.897 -28.001  34.378  0.00  0.00     0.073 H 
BRANCH  38  49
ATOM     49  C22 K5C d   1      49.099 -32.358  34.481  0.00  0.00     0.107 C 
ATOM     50  H16 K5C d   1      48.521 -31.921  35.308  0.00  0.00     0.083 H 
ATOM     51  H17 K5C d   1      48.414 -32.658  33.674  0.00  0.00     0.083 H 
BRANCH  49  52
ATOM     52  C23 K5C d   1      49.817 -33.578  34.985  0.00  0.00    -0.033 A 
ATOM     53  C24 K5C d   1      51.178 -33.766  34.630  0.00  0.00    -0.074 A 
ATOM     54  C25 K5C d   1      51.895 -34.874  35.075  0.00  0.00    -0.060 A 
ATOM     55  H18 K5C d   1      51.669 -33.033  34.000  0.00  0.00     0.084 H 
ATOM     56  C26 K5C d   1      51.360 -35.894  35.889  0.00  0.00     0.079 A 
ATOM     57  H19 K5C d   1      52.934 -34.958  34.776  0.00  0.00     0.085 H 
ATOM     58  C31 K5C d   1      50.012 -35.663  36.205  0.00  0.00    -0.060 A 
ATOM     59  C32 K5C d   1      49.255 -34.564  35.778  0.00  0.00    -0.074 A 
ATOM     60  H20 K5C d   1      49.516 -36.395  36.831  0.00  0.00     0.085 H 
ATOM     61  H21 K5C d   1      48.215 -34.485  36.073  0.00  0.00     0.084 H 
BRANCH  56  62
ATOM     62  S27 K5C d   1      52.299 -37.286  36.426  0.00  0.00     0.256 S 
ATOM     63  O29 K5C d   1      53.527 -36.882  37.026  0.00  0.00    -0.201 OA
ATOM     64  O30 K5C d   1      51.497 -38.103  37.271  0.00  0.00    -0.201 OA
BRANCH  62  65
ATOM     65  N28 K5C d   1      52.691 -38.154  35.074  0.00  0.00    -0.324 N 
ATOM     66  H30 K5C d   1      53.229 -38.993  35.157  0.00  0.00     0.169 HD
ATOM     67  H31 K5C d   1      52.390 -37.840  34.174  0.00  0.00     0.169 HD
ENDBRANCH  62  65
ENDBRANCH  56  62
ENDBRANCH  49  52
ENDBRANCH  38  49
ENDBRANCH  31  33
ENDBRANCH  29  31
ENDBRANCH  19  20
ENDBRANCH  11  19
BRANCH  12  68
ATOM     68  C11 K5C d   1      48.973 -24.586  37.905  0.00  0.00    -0.049 C 
ATOM     69  H8  K5C d   1      47.904 -24.534  38.158  0.00  0.00     0.033 H 
ATOM     70  H9  K5C d   1      49.095 -24.521  36.814  0.00  0.00     0.033 H 
ATOM     71  H10 K5C d   1      49.504 -23.750  38.384  0.00  0.00     0.033 H 
ENDBRANCH  12  68
ENDBRANCH   1   7
TORSDOF 11
