REMARK  7 active torsions:
REMARK  status: ('A' for Active; 'I' for Inactive)
REMARK    1  A    between atoms: C09_5  and  C02_1 
REMARK       I    between atoms: C02_1  and  N03_31 
REMARK    2  A    between atoms: N03_31  and  C04_2 
REMARK    3  A    between atoms: C09_5  and  C32_24 
REMARK    4  A    between atoms: N10_33  and  C09_5 
REMARK    5  A    between atoms: C15_10  and  C14_9 
REMARK    6  A    between atoms: N19_34  and  C18_13 
REMARK    7  A    between atoms: C38_29  and  O39_38 
ROOT
ATOM      1  C11 JBJ d   1      40.293  91.731 -61.796  0.00  0.00     0.255 A 
ATOM      2  C12 JBJ d   1      41.502  92.092 -61.349  0.00  0.00     0.041 A 
ATOM      3  C13 JBJ d   1      42.017  93.306 -61.060  0.00  0.00    -0.056 A 
ATOM      4  C14 JBJ d   1      43.333  93.444 -60.602  0.00  0.00    -0.025 A 
ATOM      5  C27 JBJ d   1      44.073  92.284 -60.420  0.00  0.00    -0.072 A 
ATOM      6  C28 JBJ d   1      43.489  91.054 -60.733  0.00  0.00    -0.073 A 
ATOM      7  C29 JBJ d   1      42.232  90.962 -61.180  0.00  0.00    -0.025 A 
ATOM      8  C30 JBJ d   1      41.467  89.837 -61.532  0.00  0.00     0.024 A 
ATOM      9  N10 JBJ d   1      40.178  90.385 -61.915  0.00  0.00    -0.326 N 
ATOM     10  O31 JBJ d   1      39.397  92.545 -62.038  0.00  0.00    -0.267 OA
ATOM     11  H4  JBJ d   1      41.401  94.189 -61.185  0.00  0.00     0.086 H 
ATOM     12  H17 JBJ d   1      45.087  92.332 -60.041  0.00  0.00     0.084 H 
ATOM     13  H18 JBJ d   1      44.072  90.148 -60.610  0.00  0.00     0.084 H 
ATOM     14  H19 JBJ d   1      41.361  89.154 -60.676  0.00  0.00     0.071 H 
ATOM     15  H20 JBJ d   1      41.928  89.300 -62.374  0.00  0.00     0.071 H 
ENDROOT
BRANCH   4  16
ATOM     16  C15 JBJ d   1      43.886  94.689 -60.254  0.00  0.00    -0.026 A 
ATOM     17  C16 JBJ d   1      43.056  95.810 -60.117  0.00  0.00    -0.070 A 
ATOM     18  C17 JBJ d   1      43.575  97.043 -59.729  0.00  0.00    -0.061 A 
ATOM     19  H5  JBJ d   1      41.995  95.716 -60.316  0.00  0.00     0.084 H 
ATOM     20  C18 JBJ d   1      44.934  97.195 -59.456  0.00  0.00     0.010 A 
ATOM     21  H6  JBJ d   1      42.913  97.897 -59.638  0.00  0.00     0.086 H 
ATOM     22  C25 JBJ d   1      45.760  96.073 -59.545  0.00  0.00    -0.061 A 
ATOM     23  C26 JBJ d   1      45.233  94.832 -59.931  0.00  0.00    -0.070 A 
ATOM     24  H15 JBJ d   1      46.816  96.162 -59.314  0.00  0.00     0.086 H 
ATOM     25  H16 JBJ d   1      45.886  93.968 -59.979  0.00  0.00     0.084 H 
BRANCH  20  26
ATOM     26  N19 JBJ d   1      45.400  98.394 -59.028  0.00  0.00    -0.280 NA
ATOM     27  C20 JBJ d   1      46.845  98.636 -59.217  0.00  0.00     0.006 C 
ATOM     28  C21 JBJ d   1      47.255  99.847 -58.366  0.00  0.00     0.093 C 
ATOM     29  H7  JBJ d   1      47.414  97.750 -58.899  0.00  0.00     0.058 H 
ATOM     30  H8  JBJ d   1      47.050  98.842 -60.278  0.00  0.00     0.058 H 
ATOM     31  N22 JBJ d   1      46.511 101.046 -58.771  0.00  0.00    -0.073 N 
ATOM     32  H9  JBJ d   1      48.332 100.030 -58.495  0.00  0.00     0.077 H 
ATOM     33  H10 JBJ d   1      47.044  99.632 -57.308  0.00  0.00     0.077 H 
ATOM     34  C23 JBJ d   1      45.055 100.813 -58.667  0.00  0.00     0.093 C 
ATOM     35  H25 JBJ d   1      46.743 101.273 -59.725  0.00  0.00     0.277 HD
ATOM     36  H26 JBJ d   1      46.767 101.814 -58.170  0.00  0.00     0.277 HD
ATOM     37  C24 JBJ d   1      44.645  99.575 -59.505  0.00  0.00     0.006 C 
ATOM     38  H11 JBJ d   1      44.790 100.642 -57.613  0.00  0.00     0.077 H 
ATOM     39  H12 JBJ d   1      44.519 101.698 -59.041  0.00  0.00     0.077 H 
ATOM     40  H13 JBJ d   1      44.875  99.755 -60.565  0.00  0.00     0.058 H 
ATOM     41  H14 JBJ d   1      43.566  99.393 -59.390  0.00  0.00     0.058 H 
ENDBRANCH  20  26
ENDBRANCH   4  16
BRANCH   9  42
ATOM     42  C09 JBJ d   1      38.926  89.707 -62.378  0.00  0.00     0.121 C 
ATOM     43  H3  JBJ d   1      38.096  90.403 -62.187  0.00  0.00     0.096 H 
BRANCH  42  44
ATOM     44  C02 JBJ d   1      39.051  89.525 -63.877  0.00  0.00     0.251 C 
ATOM     45  N03 JBJ d   1      37.954  89.837 -64.604  0.00  0.00    -0.304 N 
ATOM     46  H24 JBJ d   1      37.127  90.180 -64.159  0.00  0.00     0.171 HD
ATOM     47  O01 JBJ d   1      40.112  89.112 -64.343  0.00  0.00    -0.270 OA
BRANCH  45  48
ATOM     48  C04 JBJ d   1      38.000  89.676 -65.939  0.00  0.00     0.172 A 
ATOM     49  N05 JBJ d   1      37.042  90.095 -66.767  0.00  0.00    -0.236 NA
ATOM     50  C06 JBJ d   1      37.300  89.845 -68.067  0.00  0.00     0.011 A 
ATOM     51  C07 JBJ d   1      38.457  89.201 -68.337  0.00  0.00    -0.025 A 
ATOM     52  H1  JBJ d   1      36.613  90.146 -68.857  0.00  0.00     0.115 H 
ATOM     53  S08 JBJ d   1      39.230  88.926 -66.905  0.00  0.00    -0.062 SA
ATOM     54  H2  JBJ d   1      38.816  88.914 -69.325  0.00  0.00     0.097 H 
ENDBRANCH  45  48
ENDBRANCH  42  44
BRANCH  42  55
ATOM     55  C32 JBJ d   1      38.571  88.474 -61.725  0.00  0.00     0.010 A 
ATOM     56  C33 JBJ d   1      38.232  87.346 -62.482  0.00  0.00    -0.034 A 
ATOM     57  C34 JBJ d   1      37.840  86.160 -61.846  0.00  0.00     0.117 A 
ATOM     58  H21 JBJ d   1      38.273  87.390 -63.564  0.00  0.00     0.089 H 
ATOM     59  C36 JBJ d   1      37.787  86.064 -60.460  0.00  0.00    -0.043 A 
ATOM     60  F35 JBJ d   1      37.508  85.052 -62.577  0.00  0.00    -0.206 F 
ATOM     61  C37 JBJ d   1      38.117  87.174 -59.705  0.00  0.00    -0.048 A 
ATOM     62  H22 JBJ d   1      37.493  85.137 -59.981  0.00  0.00     0.088 H 
ATOM     63  C38 JBJ d   1      38.499  88.359 -60.334  0.00  0.00     0.074 A 
ATOM     64  H23 JBJ d   1      38.079  87.124 -58.623  0.00  0.00     0.087 H 
BRANCH  63  65
ATOM     65  O39 JBJ d   1      38.803  89.465 -59.591  0.00  0.00    -0.360 OA
ATOM     66  H27 JBJ d   1      38.047  89.715 -59.073  0.00  0.00     0.217 HD
ENDBRANCH  63  65
ENDBRANCH  42  55
ENDBRANCH   9  42
TORSDOF 7
