REMARK  10 active torsions:
REMARK  status: ('A' for Active; 'I' for Inactive)
REMARK    1  A    between atoms: C02_2  and  C01_1 
REMARK    2  A    between atoms: C04_4  and  C05_5 
REMARK    3  A    between atoms: C08_8  and  C07_7 
REMARK       I    between atoms: N10_26  and  C08_8 
REMARK    4  A    between atoms: C11_9  and  C12_10 
REMARK    5  A    between atoms: N10_26  and  C11_9 
REMARK       I    between atoms: C12_10  and  N14_27 
REMARK    6  A    between atoms: N14_27  and  C15_11 
REMARK    7  A    between atoms: C21_17  and  C22_18 
REMARK    8  A    between atoms: C21_17  and  N10_26 
REMARK    9  A    between atoms: C25_21  and  C26_22 
REMARK       I    between atoms: C26_22  and  N28_28 
REMARK   10  A    between atoms: N28_28  and  O29_32 
ROOT
ATOM      1  C08 HBG d   1     -14.995   6.219 -43.408  0.00  0.00     0.254 C 
ATOM      2  N10 HBG d   1     -15.942   5.274 -43.973  0.00  0.00    -0.335 N 
ATOM      3  O09 HBG d   1     -15.474   7.189 -42.850  0.00  0.00    -0.267 OA
ENDROOT
BRANCH   2   4
ATOM      4  C11 HBG d   1     -17.418   5.495 -43.887  0.00  0.00     0.072 C 
ATOM      5  H9  HBG d   1     -17.895   4.551 -44.190  0.00  0.00     0.079 H 
ATOM      6  H10 HBG d   1     -17.644   5.698 -42.830  0.00  0.00     0.079 H 
BRANCH   4   7
ATOM      7  C12 HBG d   1     -18.102   6.626 -44.714  0.00  0.00     0.235 C 
ATOM      8  N14 HBG d   1     -17.474   7.201 -45.823  0.00  0.00    -0.355 N 
ATOM      9  H29 HBG d   1     -16.573   6.834 -46.052  0.00  0.00     0.162 HD
ATOM     10  O13 HBG d   1     -19.208   7.011 -44.369  0.00  0.00    -0.272 OA
BRANCH   8  11
ATOM     11  C15 HBG d   1     -17.968   8.277 -46.697  0.00  0.00     0.012 C 
ATOM     12  C16 HBG d   1     -18.428   7.757 -48.056  0.00  0.00    -0.046 C 
ATOM     13  C17 HBG d   1     -19.063   8.837 -48.885  0.00  0.00    -0.063 C 
ATOM     14  H12 HBG d   1     -19.161   6.952 -47.899  0.00  0.00     0.035 H 
ATOM     15  H13 HBG d   1     -17.557   7.359 -48.598  0.00  0.00     0.035 H 
ATOM     16  C18 HBG d   1     -18.067   9.922 -49.258  0.00  0.00    -0.065 C 
ATOM     17  H14 HBG d   1     -19.884   9.290 -48.311  0.00  0.00     0.033 H 
ATOM     18  H15 HBG d   1     -19.463   8.389 -49.807  0.00  0.00     0.033 H 
ATOM     19  C19 HBG d   1     -17.125  10.373 -48.100  0.00  0.00    -0.063 C 
ATOM     20  H16 HBG d   1     -18.632  10.801 -49.601  0.00  0.00     0.033 H 
ATOM     21  H17 HBG d   1     -17.441   9.544 -50.080  0.00  0.00     0.033 H 
ATOM     22  C20 HBG d   1     -16.871   9.360 -46.945  0.00  0.00    -0.046 C 
ATOM     23  H18 HBG d   1     -17.561  11.279 -47.654  0.00  0.00     0.033 H 
ATOM     24  H19 HBG d   1     -16.149  10.617 -48.545  0.00  0.00     0.033 H 
ATOM     25  H20 HBG d   1     -15.930   8.835 -47.166  0.00  0.00     0.035 H 
ATOM     26  H21 HBG d   1     -16.759   9.938 -46.016  0.00  0.00     0.035 H 
ATOM     27  H11 HBG d   1     -18.825   8.751 -46.196  0.00  0.00     0.072 H 
ENDBRANCH   8  11
ENDBRANCH   4   7
ENDBRANCH   2   4
BRANCH   2  28
ATOM     28  C21 HBG d   1     -15.385   4.080 -44.645  0.00  0.00     0.022 C 
ATOM     29  H22 HBG d   1     -15.895   3.975 -45.614  0.00  0.00     0.071 H 
ATOM     30  H23 HBG d   1     -14.313   4.262 -44.813  0.00  0.00     0.071 H 
BRANCH  28  31
ATOM     31  C22 HBG d   1     -15.516   2.759 -43.912  0.00  0.00    -0.040 A 
ATOM     32  C23 HBG d   1     -15.893   2.706 -42.569  0.00  0.00    -0.074 A 
ATOM     33  C24 HBG d   1     -16.028   1.499 -41.870  0.00  0.00    -0.067 A 
ATOM     34  H24 HBG d   1     -16.089   3.635 -42.046  0.00  0.00     0.084 H 
ATOM     35  C25 HBG d   1     -15.789   0.245 -42.482  0.00  0.00     0.034 A 
ATOM     36  H25 HBG d   1     -16.325   1.526 -40.828  0.00  0.00     0.085 H 
ATOM     37  C30 HBG d   1     -15.412   0.320 -43.820  0.00  0.00    -0.067 A 
ATOM     38  C31 HBG d   1     -15.277   1.520 -44.516  0.00  0.00    -0.074 A 
ATOM     39  H26 HBG d   1     -15.213  -0.605 -44.349  0.00  0.00     0.085 H 
ATOM     40  H27 HBG d   1     -14.978   1.492 -45.557  0.00  0.00     0.084 H 
BRANCH  35  41
ATOM     41  C26 HBG d   1     -15.943  -1.035 -41.693  0.00  0.00     0.275 C 
ATOM     42  N28 HBG d   1     -16.556  -1.029 -40.416  0.00  0.00    -0.233 N 
ATOM     43  H30 HBG d   1     -16.892  -0.172 -40.027  0.00  0.00     0.197 HD
ATOM     44  O27 HBG d   1     -15.543  -2.101 -42.131  0.00  0.00    -0.265 OA
BRANCH  42  45
ATOM     45  O29 HBG d   1     -16.687  -2.190 -39.719  0.00  0.00    -0.287 OA
ATOM     46  H31 HBG d   1     -17.115  -2.014 -38.890  0.00  0.00     0.244 HD
ENDBRANCH  42  45
ENDBRANCH  35  41
ENDBRANCH  28  31
ENDBRANCH   2  28
BRANCH   1  47
ATOM     47  C07 HBG d   1     -13.467   6.043 -43.462  0.00  0.00     0.033 A 
ATOM     48  C06 HBG d   1     -12.737   5.802 -42.280  0.00  0.00    -0.062 A 
ATOM     49  C04 HBG d   1     -11.344   5.631 -42.278  0.00  0.00    -0.061 A 
ATOM     50  H8  HBG d   1     -13.271   5.747 -41.338  0.00  0.00     0.085 H 
ATOM     51  C03 HBG d   1     -10.666   5.706 -43.508  0.00  0.00    -0.071 A 
ATOM     52  C02 HBG d   1     -11.333   5.940 -44.717  0.00  0.00    -0.061 A 
ATOM     53  H4  HBG d   1      -9.590   5.578 -43.521  0.00  0.00     0.085 H 
ATOM     54  C32 HBG d   1     -12.725   6.105 -44.659  0.00  0.00    -0.062 A 
ATOM     55  H28 HBG d   1     -13.259   6.290 -45.584  0.00  0.00     0.085 H 
BRANCH  49  56
ATOM     56  C05 HBG d   1     -10.593   5.381 -41.004  0.00  0.00    -0.051 C 
ATOM     57  H5  HBG d   1     -11.299   5.358 -40.161  0.00  0.00     0.033 H 
ATOM     58  H6  HBG d   1      -9.860   6.186 -40.847  0.00  0.00     0.033 H 
ATOM     59  H7  HBG d   1     -10.070   4.416 -41.070  0.00  0.00     0.033 H 
ENDBRANCH  49  56
BRANCH  52  60
ATOM     60  C01 HBG d   1     -10.584   6.018 -46.043  0.00  0.00    -0.051 C 
ATOM     61  H1  HBG d   1      -9.509   5.862 -45.867  0.00  0.00     0.033 H 
ATOM     62  H2  HBG d   1     -10.742   7.008 -46.495  0.00  0.00     0.033 H 
ATOM     63  H3  HBG d   1     -10.961   5.240 -46.723  0.00  0.00     0.033 H 
ENDBRANCH  52  60
ENDBRANCH   1  47
TORSDOF 10
