REMARK  12 active torsions:
REMARK  status: ('A' for Active; 'I' for Inactive)
REMARK    1  A    between atoms: C15_2  and  C16_1 
REMARK       I    between atoms: C16_1  and  N18_29 
REMARK    2  A    between atoms: C11_6  and  C12_5 
REMARK    3  A    between atoms: N10_28  and  C11_6 
REMARK    4  A    between atoms: C02_8  and  C01_7 
REMARK    5  A    between atoms: N06_27  and  C05_11 
REMARK    6  A    between atoms: C09_13  and  C07_12 
REMARK       I    between atoms: C07_12  and  N06_27 
REMARK    7  A    between atoms: N10_28  and  C09_13 
REMARK    8  A    between atoms: C22_16  and  C24_17 
REMARK       I    between atoms: C22_16  and  N10_28 
REMARK    9  A    between atoms: C27_20  and  N28_30 
REMARK   10  A    between atoms: N28_30  and  C29_21 
REMARK   11  A    between atoms: N28_30  and  C30_22 
REMARK   12  A    between atoms: N18_29  and  O19_33 
ROOT
ATOM      1  C22 HBJ d   1      28.957  -5.584  13.240  0.00  0.00     0.254 C 
ATOM      2  N10 HBJ d   1      27.780  -4.879  12.857  0.00  0.00    -0.335 N 
ATOM      3  O23 HBJ d   1      28.999  -5.955  14.359  0.00  0.00    -0.267 OA
ENDROOT
BRANCH   2   4
ATOM      4  C11 HBJ d   1      27.467  -4.422  11.541  0.00  0.00     0.022 C 
ATOM      5  H3  HBJ d   1      27.056  -3.403  11.601  0.00  0.00     0.071 H 
ATOM      6  H4  HBJ d   1      28.385  -4.412  10.935  0.00  0.00     0.071 H 
BRANCH   4   7
ATOM      7  C12 HBJ d   1      26.469  -5.311  10.897  0.00  0.00    -0.040 A 
ATOM      8  C13 HBJ d   1      25.321  -4.833  10.271  0.00  0.00    -0.074 A 
ATOM      9  C14 HBJ d   1      24.427  -5.683   9.633  0.00  0.00    -0.067 A 
ATOM     10  H2  HBJ d   1      25.119  -3.768  10.282  0.00  0.00     0.084 H 
ATOM     11  C15 HBJ d   1      24.606  -7.079   9.616  0.00  0.00     0.034 A 
ATOM     12  H1  HBJ d   1      23.564  -5.258   9.133  0.00  0.00     0.085 H 
ATOM     13  C20 HBJ d   1      25.759  -7.563  10.218  0.00  0.00    -0.067 A 
ATOM     14  C21 HBJ d   1      26.651  -6.714  10.857  0.00  0.00    -0.074 A 
ATOM     15  H12 HBJ d   1      25.967  -8.627  10.188  0.00  0.00     0.085 H 
ATOM     16  H13 HBJ d   1      27.520  -7.141  11.344  0.00  0.00     0.084 H 
BRANCH  11  17
ATOM     17  C16 HBJ d   1      23.650  -7.923   8.841  0.00  0.00     0.275 C 
ATOM     18  N18 HBJ d   1      23.637  -9.311   9.016  0.00  0.00    -0.233 N 
ATOM     19  H27 HBJ d   1      24.229  -9.748   9.694  0.00  0.00     0.197 HD
ATOM     20  O17 HBJ d   1      22.984  -7.444   7.939  0.00  0.00    -0.265 OA
BRANCH  18  21
ATOM     21  O19 HBJ d   1      22.806 -10.045   8.247  0.00  0.00    -0.287 OA
ATOM     22  H28 HBJ d   1      22.899 -10.964   8.469  0.00  0.00     0.244 HD
ENDBRANCH  18  21
ENDBRANCH  11  17
ENDBRANCH   4   7
ENDBRANCH   2   4
BRANCH   2  23
ATOM     23  C09 HBJ d   1      26.719  -4.758  13.875  0.00  0.00     0.072 C 
ATOM     24  H10 HBJ d   1      25.898  -4.152  13.464  0.00  0.00     0.079 H 
ATOM     25  H11 HBJ d   1      26.345  -5.763  14.121  0.00  0.00     0.079 H 
BRANCH  23  26
ATOM     26  C07 HBJ d   1      27.238  -4.089  15.163  0.00  0.00     0.240 C 
ATOM     27  N06 HBJ d   1      28.295  -3.130  14.990  0.00  0.00    -0.326 N 
ATOM     28  H26 HBJ d   1      28.541  -2.918  14.044  0.00  0.00     0.169 HD
ATOM     29  O08 HBJ d   1      26.820  -4.389  16.219  0.00  0.00    -0.271 OA
BRANCH  27  30
ATOM     30  C05 HBJ d   1      29.028  -2.450  15.983  0.00  0.00     0.034 A 
ATOM     31  C04 HBJ d   1      29.585  -3.148  17.079  0.00  0.00    -0.057 A 
ATOM     32  C03 HBJ d   1      30.366  -2.496  18.049  0.00  0.00    -0.075 A 
ATOM     33  H9  HBJ d   1      29.405  -4.213  17.174  0.00  0.00     0.086 H 
ATOM     34  C02 HBJ d   1      30.645  -1.119  17.968  0.00  0.00    -0.062 A 
ATOM     35  H8  HBJ d   1      30.763  -3.068  18.880  0.00  0.00     0.084 H 
ATOM     36  C34 HBJ d   1      30.099  -0.455  16.868  0.00  0.00    -0.075 A 
ATOM     37  C33 HBJ d   1      29.326  -1.099  15.906  0.00  0.00    -0.057 A 
ATOM     38  H25 HBJ d   1      30.285   0.607  16.758  0.00  0.00     0.084 H 
ATOM     39  H24 HBJ d   1      28.945  -0.525  15.069  0.00  0.00     0.086 H 
BRANCH  34  40
ATOM     40  C01 HBJ d   1      31.479  -0.376  19.009  0.00  0.00    -0.051 C 
ATOM     41  H5  HBJ d   1      31.810  -1.082  19.785  0.00  0.00     0.033 H 
ATOM     42  H6  HBJ d   1      30.870   0.416  19.469  0.00  0.00     0.033 H 
ATOM     43  H7  HBJ d   1      32.358   0.072  18.523  0.00  0.00     0.033 H 
ENDBRANCH  34  40
ENDBRANCH  27  30
ENDBRANCH  23  26
ENDBRANCH   2  23
BRANCH   1  44
ATOM     44  C24 HBJ d   1      30.153  -5.773  12.375  0.00  0.00     0.032 A 
ATOM     45  C25 HBJ d   1      30.891  -6.927  12.514  0.00  0.00    -0.066 A 
ATOM     46  C26 HBJ d   1      32.063  -7.124  11.796  0.00  0.00    -0.056 A 
ATOM     47  H14 HBJ d   1      30.550  -7.697  13.197  0.00  0.00     0.085 H 
ATOM     48  C27 HBJ d   1      32.558  -6.143  10.897  0.00  0.00     0.029 A 
ATOM     49  H15 HBJ d   1      32.613  -8.049  11.925  0.00  0.00     0.086 H 
ATOM     50  C31 HBJ d   1      31.818  -4.957  10.807  0.00  0.00    -0.056 A 
ATOM     51  C32 HBJ d   1      30.660  -4.767  11.534  0.00  0.00    -0.066 A 
ATOM     52  H22 HBJ d   1      32.164  -4.168  10.149  0.00  0.00     0.086 H 
ATOM     53  H23 HBJ d   1      30.131  -3.824  11.455  0.00  0.00     0.085 H 
BRANCH  48  54
ATOM     54  N28 HBJ d   1      33.737  -6.350  10.218  0.00  0.00    -0.390 N 
BRANCH  54  55
ATOM     55  C29 HBJ d   1      34.543  -7.561  10.449  0.00  0.00    -0.019 C 
ATOM     56  H16 HBJ d   1      35.439  -7.532   9.812  0.00  0.00     0.056 H 
ATOM     57  H17 HBJ d   1      33.946  -8.451  10.202  0.00  0.00     0.056 H 
ATOM     58  H18 HBJ d   1      34.846  -7.604  11.506  0.00  0.00     0.056 H 
ENDBRANCH  54  55
BRANCH  54  59
ATOM     59  C30 HBJ d   1      34.320  -5.312   9.372  0.00  0.00    -0.019 C 
ATOM     60  H19 HBJ d   1      33.616  -4.471   9.285  0.00  0.00     0.056 H 
ATOM     61  H20 HBJ d   1      34.523  -5.725   8.373  0.00  0.00     0.056 H 
ATOM     62  H21 HBJ d   1      35.260  -4.958   9.821  0.00  0.00     0.056 H 
ENDBRANCH  54  59
ENDBRANCH  48  54
ENDBRANCH   1  44
TORSDOF 12
