REMARK  12 active torsions:
REMARK  status: ('A' for Active; 'I' for Inactive)
REMARK    1  A    between atoms: C15_2  and  N16_29 
REMARK    2  A    between atoms: N16_29  and  C17_3 
REMARK    3  A    between atoms: N16_29  and  C18_4 
REMARK    4  A    between atoms: C11_7  and  C12_6 
REMARK       I    between atoms: N10_28  and  C11_7 
REMARK    5  A    between atoms: C05_9  and  C02_8 
REMARK       I    between atoms: C02_8  and  N03_27 
REMARK    6  A    between atoms: C09_13  and  C08_12 
REMARK    7  A    between atoms: N10_28  and  C09_13 
REMARK    8  A    between atoms: C23_17  and  C22_16 
REMARK    9  A    between atoms: C22_16  and  N10_28 
REMARK       I    between atoms: N24_30  and  C23_17 
REMARK   10  A    between atoms: C25_18  and  C26_19 
REMARK   11  A    between atoms: C25_18  and  N24_30 
REMARK   12  A    between atoms: N03_27  and  O04_32 
ROOT
ATOM      1  C11 HB7 d   1     -38.888  -6.860  30.201  0.00  0.00     0.254 C 
ATOM      2  N10 HB7 d   1     -40.235  -6.438  29.764  0.00  0.00    -0.335 N 
ATOM      3  O21 HB7 d   1     -38.750  -7.096  31.382  0.00  0.00    -0.267 OA
ENDROOT
BRANCH   2   4
ATOM      4  C09 HB7 d   1     -40.498  -6.143  28.358  0.00  0.00     0.022 C 
ATOM      5  H11 HB7 d   1     -40.881  -5.113  28.310  0.00  0.00     0.071 H 
ATOM      6  H12 HB7 d   1     -39.535  -6.201  27.830  0.00  0.00     0.071 H 
BRANCH   4   7
ATOM      7  C08 HB7 d   1     -41.462  -7.005  27.608  0.00  0.00    -0.040 A 
ATOM      8  C07 HB7 d   1     -41.276  -8.369  27.496  0.00  0.00    -0.074 A 
ATOM      9  C06 HB7 d   1     -42.165  -9.186  26.818  0.00  0.00    -0.067 A 
ATOM     10  H10 HB7 d   1     -40.402  -8.816  27.956  0.00  0.00     0.084 H 
ATOM     11  C05 HB7 d   1     -43.296  -8.661  26.225  0.00  0.00     0.034 A 
ATOM     12  H9  HB7 d   1     -41.971 -10.250  26.752  0.00  0.00     0.085 H 
ATOM     13  C34 HB7 d   1     -43.523  -7.287  26.330  0.00  0.00    -0.067 A 
ATOM     14  C33 HB7 d   1     -42.619  -6.472  27.018  0.00  0.00    -0.074 A 
ATOM     15  H25 HB7 d   1     -44.405  -6.850  25.876  0.00  0.00     0.085 H 
ATOM     16  H24 HB7 d   1     -42.815  -5.409  27.097  0.00  0.00     0.084 H 
BRANCH  11  17
ATOM     17  C02 HB7 d   1     -44.252  -9.540  25.499  0.00  0.00     0.275 C 
ATOM     18  N03 HB7 d   1     -44.089 -10.943  25.782  0.00  0.00    -0.233 N 
ATOM     19  H26 HB7 d   1     -43.406 -11.320  26.407  0.00  0.00     0.197 HD
ATOM     20  O01 HB7 d   1     -45.098  -9.148  24.731  0.00  0.00    -0.265 OA
BRANCH  18  21
ATOM     21  O04 HB7 d   1     -44.992 -11.687  25.082  0.00  0.00    -0.287 OA
ATOM     22  H28 HB7 d   1     -45.872 -11.425  25.325  0.00  0.00     0.244 HD
ENDBRANCH  18  21
ENDBRANCH  11  17
ENDBRANCH   4   7
ENDBRANCH   2   4
BRANCH   2  23
ATOM     23  C22 HB7 d   1     -41.282  -6.361  30.805  0.00  0.00     0.072 C 
ATOM     24  H15 HB7 d   1     -42.230  -6.132  30.296  0.00  0.00     0.079 H 
ATOM     25  H16 HB7 d   1     -41.348  -7.354  31.274  0.00  0.00     0.079 H 
BRANCH  23  26
ATOM     26  C23 HB7 d   1     -41.113  -5.328  31.944  0.00  0.00     0.235 C 
ATOM     27  N24 HB7 d   1     -40.310  -4.197  31.700  0.00  0.00    -0.355 N 
ATOM     28  H27 HB7 d   1     -39.888  -4.099  30.799  0.00  0.00     0.162 HD
ATOM     29  O32 HB7 d   1     -41.641  -5.488  33.036  0.00  0.00    -0.272 OA
BRANCH  27  30
ATOM     30  C25 HB7 d   1     -40.061  -3.148  32.712  0.00  0.00     0.019 C 
ATOM     31  H17 HB7 d   1     -39.939  -2.182  32.200  0.00  0.00     0.071 H 
ATOM     32  H18 HB7 d   1     -40.926  -3.097  33.390  0.00  0.00     0.071 H 
BRANCH  30  33
ATOM     33  C26 HB7 d   1     -38.815  -3.429  33.529  0.00  0.00    -0.041 A 
ATOM     34  C27 HB7 d   1     -38.254  -4.715  33.582  0.00  0.00    -0.075 A 
ATOM     35  C28 HB7 d   1     -37.110  -4.973  34.334  0.00  0.00    -0.082 A 
ATOM     36  H19 HB7 d   1     -38.719  -5.522  33.028  0.00  0.00     0.084 H 
ATOM     37  C29 HB7 d   1     -36.496  -3.955  35.051  0.00  0.00    -0.083 A 
ATOM     38  H20 HB7 d   1     -36.697  -5.975  34.359  0.00  0.00     0.083 H 
ATOM     39  C30 HB7 d   1     -37.046  -2.679  35.005  0.00  0.00    -0.082 A 
ATOM     40  H21 HB7 d   1     -35.605  -4.151  35.636  0.00  0.00     0.083 H 
ATOM     41  C31 HB7 d   1     -38.189  -2.424  34.253  0.00  0.00    -0.075 A 
ATOM     42  H22 HB7 d   1     -36.580  -1.874  35.561  0.00  0.00     0.083 H 
ATOM     43  H23 HB7 d   1     -38.598  -1.421  34.232  0.00  0.00     0.084 H 
ENDBRANCH  30  33
ENDBRANCH  27  30
ENDBRANCH  23  26
ENDBRANCH   2  23
BRANCH   1  44
ATOM     44  C12 HB7 d   1     -37.661  -7.012  29.333  0.00  0.00     0.032 A 
ATOM     45  C13 HB7 d   1     -37.217  -5.966  28.498  0.00  0.00    -0.066 A 
ATOM     46  C14 HB7 d   1     -36.073  -6.100  27.711  0.00  0.00    -0.056 A 
ATOM     47  H1  HB7 d   1     -37.776  -5.038  28.467  0.00  0.00     0.085 H 
ATOM     48  C15 HB7 d   1     -35.309  -7.278  27.736  0.00  0.00     0.029 A 
ATOM     49  H8  HB7 d   1     -35.769  -5.281  27.069  0.00  0.00     0.086 H 
ATOM     50  C19 HB7 d   1     -35.750  -8.302  28.580  0.00  0.00    -0.056 A 
ATOM     51  C20 HB7 d   1     -36.892  -8.165  29.359  0.00  0.00    -0.066 A 
ATOM     52  H13 HB7 d   1     -35.186  -9.227  28.628  0.00  0.00     0.086 H 
ATOM     53  H14 HB7 d   1     -37.190  -8.983  30.005  0.00  0.00     0.085 H 
BRANCH  48  54
ATOM     54  N16 HB7 d   1     -34.128  -7.427  26.942  0.00  0.00    -0.390 N 
BRANCH  54  55
ATOM     55  C17 HB7 d   1     -33.216  -8.571  27.033  0.00  0.00    -0.019 C 
ATOM     56  H2  HB7 d   1     -32.391  -8.440  26.317  0.00  0.00     0.056 H 
ATOM     57  H3  HB7 d   1     -33.763  -9.496  26.797  0.00  0.00     0.056 H 
ATOM     58  H4  HB7 d   1     -32.810  -8.636  28.053  0.00  0.00     0.056 H 
ENDBRANCH  54  55
BRANCH  54  59
ATOM     59  C18 HB7 d   1     -33.751  -6.398  25.976  0.00  0.00    -0.019 C 
ATOM     60  H5  HB7 d   1     -34.499  -5.591  25.989  0.00  0.00     0.056 H 
ATOM     61  H6  HB7 d   1     -33.705  -6.839  24.969  0.00  0.00     0.056 H 
ATOM     62  H7  HB7 d   1     -32.765  -5.989  26.242  0.00  0.00     0.056 H 
ENDBRANCH  54  59
ENDBRANCH  48  54
ENDBRANCH   1  44
TORSDOF 12
