REMARK  7 active torsions:
REMARK  status: ('A' for Active; 'I' for Inactive)
REMARK    1  A    between atoms: C11_11  and  C10_1 
REMARK    2  A    between atoms: C10_1  and  N01_22 
REMARK    3  A    between atoms: N01_22  and  C01_3 
REMARK    4  A    between atoms: C02_4  and  C03_5 
REMARK    5  A    between atoms: N01_22  and  C02_4 
REMARK    6  A    between atoms: C06_8  and  C07_9 
REMARK       I    between atoms: C07_9  and  N02_23 
REMARK    7  A    between atoms: N02_23  and  O01_24 
ROOT
ATOM      1  C10 HBV d   1     -48.505 -24.593 -10.372  0.00  0.00     0.090 C 
ATOM      2  H1  HBV d   1     -49.383 -24.592  -9.710  0.00  0.00     0.077 H 
ATOM      3  H2  HBV d   1     -48.836 -24.540 -11.420  0.00  0.00     0.077 H 
ENDROOT
BRANCH   1   4
ATOM      4  C11 HBV d   1     -47.721 -25.966 -10.163  0.00  0.00    -0.015 C 
ATOM      5  C12 HBV d   1     -48.545 -27.137 -10.728  0.00  0.00    -0.053 C 
ATOM      6  C13 HBV d   1     -47.827 -28.487 -10.549  0.00  0.00    -0.053 C 
ATOM      7  H12 HBV d   1     -49.511 -27.177 -10.204  0.00  0.00     0.034 H 
ATOM      8  H13 HBV d   1     -48.716 -26.965 -11.801  0.00  0.00     0.034 H 
ATOM      9  C14 HBV d   1     -47.630 -28.770  -9.044  0.00  0.00    -0.058 C 
ATOM     10  C19 HBV d   1     -46.455 -28.449 -11.239  0.00  0.00    -0.058 C 
ATOM     11  H3  HBV d   1     -48.438 -29.286 -10.995  0.00  0.00     0.040 H 
ATOM     12  C15 HBV d   1     -46.827 -27.628  -8.416  0.00  0.00    -0.053 C 
ATOM     13  H14 HBV d   1     -47.084 -29.716  -8.916  0.00  0.00     0.034 H 
ATOM     14  H15 HBV d   1     -48.611 -28.843  -8.552  0.00  0.00     0.034 H 
ATOM     15  C16 HBV d   1     -45.455 -27.605  -9.085  0.00  0.00    -0.058 C 
ATOM     16  C20 HBV d   1     -47.530 -26.269  -8.643  0.00  0.00    -0.053 C 
ATOM     17  H16 HBV d   1     -46.716 -27.804  -7.336  0.00  0.00     0.040 H 
ATOM     18  C17 HBV d   1     -45.620 -27.320 -10.595  0.00  0.00    -0.053 C 
ATOM     19  H17 HBV d   1     -44.964 -28.580  -8.948  0.00  0.00     0.034 H 
ATOM     20  H18 HBV d   1     -44.838 -26.817  -8.629  0.00  0.00     0.034 H 
ATOM     21  C18 HBV d   1     -46.329 -25.967 -10.834  0.00  0.00    -0.053 C 
ATOM     22  H19 HBV d   1     -44.625 -27.290 -11.063  0.00  0.00     0.040 H 
ATOM     23  H20 HBV d   1     -45.719 -25.157 -10.407  0.00  0.00     0.034 H 
ATOM     24  H21 HBV d   1     -46.447 -25.805 -11.916  0.00  0.00     0.034 H 
ATOM     25  H24 HBV d   1     -48.517 -26.292  -8.157  0.00  0.00     0.034 H 
ATOM     26  H25 HBV d   1     -46.919 -25.472  -8.194  0.00  0.00     0.034 H 
ATOM     27  H22 HBV d   1     -46.584 -28.250 -12.313  0.00  0.00     0.034 H 
ATOM     28  H23 HBV d   1     -45.944 -29.413 -11.104  0.00  0.00     0.034 H 
ENDBRANCH   1   4
BRANCH   1  29
ATOM     29  N01 HBV d   1     -47.683 -23.363 -10.071  0.00  0.00    -0.070 N 
ATOM     30  H26 HBV d   1     -46.705 -23.595 -10.150  0.00  0.00     0.279 HD
BRANCH  29  31
ATOM     31  C01 HBV d   1     -48.020 -22.270 -11.014  0.00  0.00     0.067 C 
ATOM     32  H4  HBV d   1     -47.412 -21.383 -10.780  0.00  0.00     0.068 H 
ATOM     33  H5  HBV d   1     -49.087 -22.019 -10.918  0.00  0.00     0.068 H 
ATOM     34  H6  HBV d   1     -47.811 -22.596 -12.043  0.00  0.00     0.068 H 
ENDBRANCH  29  31
BRANCH  29  35
ATOM     35  C02 HBV d   1     -47.966 -22.850  -8.712  0.00  0.00     0.109 C 
ATOM     36  H7  HBV d   1     -48.934 -22.328  -8.734  0.00  0.00     0.083 H 
ATOM     37  H8  HBV d   1     -48.027 -23.707  -8.025  0.00  0.00     0.083 H 
BRANCH  35  38
ATOM     38  C03 HBV d   1     -46.919 -21.889  -8.184  0.00  0.00     0.006 A 
ATOM     39  C04 HBV d   1     -47.303 -21.001  -7.155  0.00  0.00     0.125 A 
ATOM     40  C05 HBV d   1     -46.374 -20.066  -6.602  0.00  0.00    -0.030 A 
ATOM     41  F01 HBV d   1     -48.526 -21.072  -6.747  0.00  0.00    -0.205 F 
ATOM     42  C06 HBV d   1     -45.031 -19.998  -7.055  0.00  0.00     0.037 A 
ATOM     43  H9  HBV d   1     -46.703 -19.393  -5.818  0.00  0.00     0.089 H 
ATOM     44  C08 HBV d   1     -44.683 -20.889  -8.068  0.00  0.00    -0.067 A 
ATOM     45  C09 HBV d   1     -45.598 -21.803  -8.612  0.00  0.00    -0.071 A 
ATOM     46  H10 HBV d   1     -43.669 -20.876  -8.450  0.00  0.00     0.085 H 
ATOM     47  H11 HBV d   1     -45.262 -22.470  -9.398  0.00  0.00     0.084 H 
BRANCH  42  48
ATOM     48  C07 HBV d   1     -44.027 -18.968  -6.467  0.00  0.00     0.275 C 
ATOM     49  N02 HBV d   1     -44.429 -17.618  -6.063  0.00  0.00    -0.233 N 
ATOM     50  H27 HBV d   1     -45.391 -17.366  -6.166  0.00  0.00     0.197 HD
ATOM     51  O02 HBV d   1     -42.852 -19.235  -6.359  0.00  0.00    -0.265 OA
BRANCH  49  52
ATOM     52  O01 HBV d   1     -43.585 -16.695  -5.562  0.00  0.00    -0.287 OA
ATOM     53  H28 HBV d   1     -44.066 -15.898  -5.372  0.00  0.00     0.244 HD
ENDBRANCH  49  52
ENDBRANCH  42  48
ENDBRANCH  35  38
ENDBRANCH  29  35
ENDBRANCH   1  29
TORSDOF 7
