REMARK  10 active torsions:
REMARK  status: ('A' for Active; 'I' for Inactive)
REMARK    1  A    between atoms: C16_3  and  C30_23 
REMARK    2  A    between atoms: C12_6  and  N11_26 
REMARK    3  A    between atoms: C02_8  and  C01_7 
REMARK    4  A    between atoms: N03_24  and  C02_8 
REMARK    5  A    between atoms: C05_9  and  C06_10 
REMARK    6  A    between atoms: C09_13  and  C08_12 
REMARK       I    between atoms: N11_26  and  C09_13 
REMARK    7  A    between atoms: C21_15  and  C22_16 
REMARK    8  A    between atoms: C21_15  and  N20_28 
REMARK    9  A    between atoms: C22_16  and  C24_17 
REMARK   10  A    between atoms: C22_16  and  O23_31 
REMARK       I    between atoms: C30_23  and  N31_29 
ROOT
ATOM      1  C18 HGJ d   1      -1.671  31.584 -14.943  0.00  0.00    -0.053 A 
ATOM      2  C17 HGJ d   1      -2.533  32.492 -14.307  0.00  0.00    -0.065 A 
ATOM      3  C16 HGJ d   1      -3.697  32.066 -13.656  0.00  0.00     0.034 A 
ATOM      4  C15 HGJ d   1      -4.031  30.708 -13.623  0.00  0.00    -0.037 A 
ATOM      5  C14 HGJ d   1      -3.182  29.786 -14.261  0.00  0.00     0.104 A 
ATOM      6  C12 HGJ d   1      -2.209  28.064 -15.069  0.00  0.00     0.710 A 
ATOM      7  C19 HGJ d   1      -2.025  30.244 -14.897  0.00  0.00     0.081 A 
ATOM      8  N13 HGJ d   1      -3.283  28.421 -14.380  0.00  0.00    -0.062 NA
ATOM      9  N20 HGJ d   1      -1.421  29.116 -15.390  0.00  0.00    -0.176 N 
ATOM     10  H1  HGJ d   1      -0.770  31.915 -15.447  0.00  0.00     0.087 H 
ATOM     11  H2  HGJ d   1      -2.291  33.549 -14.320  0.00  0.00     0.085 H 
ATOM     12  H3  HGJ d   1      -4.928  30.372 -13.115  0.00  0.00     0.088 H 
ENDROOT
BRANCH   6  13
ATOM     13  N11 HGJ d   1      -1.871  26.775 -15.406  0.00  0.00    -0.152 N 
ATOM     14  C09 HGJ d   1      -2.733  25.700 -15.386  0.00  0.00     0.288 C 
ATOM     15  O10 HGJ d   1      -3.920  25.871 -15.102  0.00  0.00    -0.265 OA
ATOM     16  H21 HGJ d   1      -0.927  26.604 -15.687  0.00  0.00     0.188 HD
BRANCH  14  17
ATOM     17  C08 HGJ d   1      -2.182  24.364 -15.754  0.00  0.00     0.123 A 
ATOM     18  C07 HGJ d   1      -2.932  23.354 -16.387  0.00  0.00    -0.025 A 
ATOM     19  C05 HGJ d   1      -2.072  22.288 -16.518  0.00  0.00     0.053 A 
ATOM     20  H12 HGJ d   1      -3.972  23.406 -16.705  0.00  0.00     0.090 H 
ATOM     21  N04 HGJ d   1      -0.900  22.704 -15.982  0.00  0.00    -0.177 NA
ATOM     22  N03 HGJ d   1      -0.923  23.959 -15.511  0.00  0.00    -0.265 N 
BRANCH  19  23
ATOM     23  C06 HGJ d   1      -2.223  20.949 -17.089  0.00  0.00    -0.034 C 
ATOM     24  H9  HGJ d   1      -3.249  20.824 -17.465  0.00  0.00     0.035 H 
ATOM     25  H10 HGJ d   1      -2.022  20.195 -16.314  0.00  0.00     0.035 H 
ATOM     26  H11 HGJ d   1      -1.511  20.821 -17.918  0.00  0.00     0.035 H 
ENDBRANCH  19  23
BRANCH  22  27
ATOM     27  C02 HGJ d   1       0.224  24.543 -14.879  0.00  0.00     0.014 C 
ATOM     28  H7  HGJ d   1      -0.094  25.456 -14.355  0.00  0.00     0.066 H 
ATOM     29  H8  HGJ d   1       0.625  23.823 -14.150  0.00  0.00     0.066 H 
BRANCH  27  30
ATOM     30  C01 HGJ d   1       1.323  24.905 -15.848  0.00  0.00    -0.059 C 
ATOM     31  H4  HGJ d   1       2.167  25.346 -15.297  0.00  0.00     0.029 H 
ATOM     32  H5  HGJ d   1       0.942  25.633 -16.579  0.00  0.00     0.029 H 
ATOM     33  H6  HGJ d   1       1.661  24.000 -16.374  0.00  0.00     0.029 H 
ENDBRANCH  27  30
ENDBRANCH  22  27
ENDBRANCH  14  17
ENDBRANCH   6  13
BRANCH   9  34
ATOM     34  C21 HGJ d   1      -0.219  29.061 -16.202  0.00  0.00     0.045 C 
ATOM     35  H13 HGJ d   1      -0.338  28.205 -16.883  0.00  0.00     0.070 H 
ATOM     36  H14 HGJ d   1      -0.190  29.993 -16.786  0.00  0.00     0.070 H 
BRANCH  34  37
ATOM     37  C22 HGJ d   1       1.149  28.913 -15.549  0.00  0.00     0.077 C 
ATOM     38  H15 HGJ d   1       1.208  27.956 -15.010  0.00  0.00     0.093 H 
BRANCH  37  39
ATOM     39  C24 HGJ d   1       2.233  28.971 -16.614  0.00  0.00    -0.028 A 
ATOM     40  C25 HGJ d   1       2.904  27.821 -17.047  0.00  0.00    -0.074 A 
ATOM     41  C26 HGJ d   1       3.893  27.920 -18.041  0.00  0.00    -0.082 A 
ATOM     42  H16 HGJ d   1       2.661  26.856 -16.617  0.00  0.00     0.084 H 
ATOM     43  C27 HGJ d   1       4.194  29.165 -18.598  0.00  0.00    -0.083 A 
ATOM     44  H17 HGJ d   1       4.420  27.033 -18.374  0.00  0.00     0.083 H 
ATOM     45  C28 HGJ d   1       3.524  30.307 -18.174  0.00  0.00    -0.082 A 
ATOM     46  H18 HGJ d   1       4.955  29.241 -19.366  0.00  0.00     0.083 H 
ATOM     47  C29 HGJ d   1       2.537  30.206 -17.190  0.00  0.00    -0.074 A 
ATOM     48  H19 HGJ d   1       3.766  31.272 -18.605  0.00  0.00     0.083 H 
ATOM     49  H20 HGJ d   1       2.003  31.094 -16.871  0.00  0.00     0.084 H 
ENDBRANCH  37  39
BRANCH  37  50
ATOM     50  O23 HGJ d   1       1.319  29.999 -14.641  0.00  0.00    -0.389 OA
ATOM     51  H24 HGJ d   1       0.642  29.963 -13.976  0.00  0.00     0.210 HD
ENDBRANCH  37  50
ENDBRANCH  34  37
ENDBRANCH   9  34
BRANCH   3  52
ATOM     52  C30 HGJ d   1      -4.559  33.041 -12.978  0.00  0.00     0.249 C 
ATOM     53  N31 HGJ d   1      -5.580  32.556 -12.152  0.00  0.00    -0.366 N 
ATOM     54  H22 HGJ d   1      -6.184  33.195 -11.676  0.00  0.00     0.159 HD
ATOM     55  H23 HGJ d   1      -5.705  31.570 -12.038  0.00  0.00     0.159 HD
ATOM     56  O32 HGJ d   1      -4.388  34.269 -13.106  0.00  0.00    -0.268 OA
ENDBRANCH   3  52
TORSDOF 10
