REMARK  17 active torsions:
REMARK  status: ('A' for Active; 'I' for Inactive)
REMARK    1  A    between atoms: C10_1  and  C11_9 
REMARK    2  A    between atoms: C18_10  and  C17_3 
REMARK    3  A    between atoms: C22_4  and  N20_37 
REMARK    4  A    between atoms: C05_8  and  C01_7 
REMARK    5  A    between atoms: N08_35  and  C05_8 
REMARK       I    between atoms: N20_37  and  C18_10 
REMARK    6  A    between atoms: C27_12  and  C84_34 
REMARK    7  A    between atoms: C37_16  and  C34_15 
REMARK    8  A    between atoms: C34_15  and  N33_39 
REMARK    9  A    between atoms: C40_17  and  C37_16 
REMARK   10  A    between atoms: C43_18  and  C40_17 
REMARK   11  A    between atoms: N46_40  and  C43_18 
REMARK   12  A    between atoms: C47_19  and  N48_41 
REMARK   13  A    between atoms: C50_20  and  C52_21 
REMARK       I    between atoms: N48_41  and  C50_20 
REMARK   14  A    between atoms: C55_23  and  C56_24 
REMARK   15  A    between atoms: C62_25  and  C65_26 
REMARK   16  A    between atoms: N61_43  and  C62_25 
REMARK   17  A    between atoms: C73_29  and  C79_33 
REMARK       I    between atoms: C79_33  and  N80_45 
REMARK       I    between atoms: C84_34  and  N85_46 
ROOT
ATOM      1  C37 HG4 d   1      62.571 -13.347  79.100  0.00  0.00    -0.048 C 
ATOM      2  H15 HG4 d   1      61.524 -13.494  78.798  0.00  0.00     0.035 H 
ATOM      3  H16 HG4 d   1      62.682 -13.588  80.168  0.00  0.00     0.035 H 
ENDROOT
BRANCH   1   4
ATOM      4  C34 HG4 d   1      62.933 -11.885  78.894  0.00  0.00     0.017 C 
ATOM      5  H13 HG4 d   1      62.007 -11.291  78.891  0.00  0.00     0.065 H 
ATOM      6  H14 HG4 d   1      63.438 -11.782  77.922  0.00  0.00     0.065 H 
BRANCH   4   7
ATOM      7  N33 HG4 d   1      63.820 -11.365  79.940  0.00  0.00    -0.179 N 
ATOM      8  C22 HG4 d   1      65.188 -11.256  79.905  0.00  0.00     0.710 A 
ATOM      9  N23 HG4 d   1      65.695 -10.741  81.007  0.00  0.00    -0.062 NA
ATOM     10  C24 HG4 d   1      64.588 -10.512  81.833  0.00  0.00     0.104 A 
ATOM     11  C25 HG4 d   1      64.524  -9.986  83.122  0.00  0.00    -0.037 A 
ATOM     12  C32 HG4 d   1      63.423 -10.894  81.184  0.00  0.00     0.081 A 
ATOM     13  C27 HG4 d   1      63.276  -9.861  83.735  0.00  0.00     0.034 A 
ATOM     14  H11 HG4 d   1      65.426  -9.680  83.639  0.00  0.00     0.088 H 
ATOM     15  C28 HG4 d   1      62.118 -10.252  83.062  0.00  0.00    -0.065 A 
ATOM     16  C30 HG4 d   1      62.175 -10.773  81.782  0.00  0.00    -0.053 A 
ATOM     17  H2  HG4 d   1      61.157 -10.146  83.551  0.00  0.00     0.085 H 
ATOM     18  H12 HG4 d   1      61.274 -11.077  81.262  0.00  0.00     0.087 H 
BRANCH   8  19
ATOM     19  N20 HG4 d   1      65.935 -11.613  78.802  0.00  0.00    -0.152 N 
ATOM     20  C18 HG4 d   1      67.242 -11.221  78.658  0.00  0.00     0.288 C 
ATOM     21  O19 HG4 d   1      67.833 -10.554  79.505  0.00  0.00    -0.265 OA
ATOM     22  H33 HG4 d   1      65.513 -12.172  78.088  0.00  0.00     0.188 HD
BRANCH  20  23
ATOM     23  C17 HG4 d   1      67.917 -11.640  77.398  0.00  0.00     0.123 A 
ATOM     24  C15 HG4 d   1      69.130 -12.243  77.180  0.00  0.00    -0.025 A 
ATOM     25  C10 HG4 d   1      69.246 -12.370  75.788  0.00  0.00     0.053 A 
ATOM     26  H1  HG4 d   1      69.853 -12.558  77.932  0.00  0.00     0.090 H 
ATOM     27  N09 HG4 d   1      68.177 -11.876  75.169  0.00  0.00    -0.177 NA
ATOM     28  N08 HG4 d   1      67.367 -11.422  76.172  0.00  0.00    -0.265 N 
BRANCH  25  29
ATOM     29  C11 HG4 d   1      70.366 -12.965  74.997  0.00  0.00    -0.034 C 
ATOM     30  H8  HG4 d   1      70.131 -12.902  73.924  0.00  0.00     0.035 H 
ATOM     31  H9  HG4 d   1      70.497 -14.019  75.282  0.00  0.00     0.035 H 
ATOM     32  H10 HG4 d   1      71.294 -12.412  75.202  0.00  0.00     0.035 H 
ENDBRANCH  25  29
BRANCH  28  33
ATOM     33  C05 HG4 d   1      66.092 -10.807  75.810  0.00  0.00     0.014 C 
ATOM     34  H6  HG4 d   1      65.284 -11.335  76.339  0.00  0.00     0.066 H 
ATOM     35  H7  HG4 d   1      66.108  -9.753  76.124  0.00  0.00     0.066 H 
BRANCH  33  36
ATOM     36  C01 HG4 d   1      65.818 -10.865  74.332  0.00  0.00    -0.059 C 
ATOM     37  H3  HG4 d   1      64.849 -10.389  74.120  0.00  0.00     0.029 H 
ATOM     38  H4  HG4 d   1      65.790 -11.915  74.005  0.00  0.00     0.029 H 
ATOM     39  H5  HG4 d   1      66.614 -10.333  73.790  0.00  0.00     0.029 H 
ENDBRANCH  33  36
ENDBRANCH  28  33
ENDBRANCH  20  23
ENDBRANCH   8  19
BRANCH  13  40
ATOM     40  C84 HG4 d   1      63.187  -9.295  85.122  0.00  0.00     0.249 C 
ATOM     41  N85 HG4 d   1      63.825  -8.157  85.369  0.00  0.00    -0.366 N 
ATOM     42  H37 HG4 d   1      63.788  -7.751  86.282  0.00  0.00     0.159 HD
ATOM     43  H38 HG4 d   1      64.343  -7.706  84.642  0.00  0.00     0.159 HD
ATOM     44  O88 HG4 d   1      62.530  -9.894  85.984  0.00  0.00    -0.268 OA
ENDBRANCH  13  40
ENDBRANCH   4   7
ENDBRANCH   1   4
BRANCH   1  45
ATOM     45  C40 HG4 d   1      63.444 -14.297  78.297  0.00  0.00    -0.048 C 
ATOM     46  H17 HG4 d   1      64.495 -14.122  78.572  0.00  0.00     0.035 H 
ATOM     47  H18 HG4 d   1      63.303 -14.081  77.228  0.00  0.00     0.035 H 
BRANCH  45  48
ATOM     48  C43 HG4 d   1      63.119 -15.763  78.540  0.00  0.00     0.017 C 
ATOM     49  H19 HG4 d   1      62.710 -15.868  79.556  0.00  0.00     0.065 H 
ATOM     50  H20 HG4 d   1      64.047 -16.347  78.457  0.00  0.00     0.065 H 
BRANCH  48  51
ATOM     51  N46 HG4 d   1      62.142 -16.298  77.584  0.00  0.00    -0.179 N 
ATOM     52  C47 HG4 d   1      62.309 -16.460  76.233  0.00  0.00     0.710 A 
ATOM     53  N69 HG4 d   1      61.227 -16.983  75.646  0.00  0.00    -0.062 NA
ATOM     54  C70 HG4 d   1      60.309 -17.150  76.684  0.00  0.00     0.104 A 
ATOM     55  C71 HG4 d   1      59.007 -17.649  76.657  0.00  0.00    -0.037 A 
ATOM     56  C78 HG4 d   1      60.859 -16.731  77.890  0.00  0.00     0.081 A 
ATOM     57  C73 HG4 d   1      58.286 -17.712  77.851  0.00  0.00     0.034 A 
ATOM     58  H30 HG4 d   1      58.563 -17.982  75.726  0.00  0.00     0.088 H 
ATOM     59  C74 HG4 d   1      58.863 -17.285  79.047  0.00  0.00    -0.065 A 
ATOM     60  C76 HG4 d   1      60.154 -16.791  79.083  0.00  0.00    -0.053 A 
ATOM     61  H31 HG4 d   1      58.289 -17.341  79.965  0.00  0.00     0.085 H 
ATOM     62  H32 HG4 d   1      60.601 -16.461  80.014  0.00  0.00     0.087 H 
BRANCH  52  63
ATOM     63  N48 HG4 d   1      63.487 -16.151  75.587  0.00  0.00    -0.152 N 
ATOM     64  C50 HG4 d   1      63.698 -16.369  74.252  0.00  0.00     0.288 C 
ATOM     65  O51 HG4 d   1      62.840 -16.840  73.504  0.00  0.00    -0.265 OA
ATOM     66  H34 HG4 d   1      64.228 -15.745  76.123  0.00  0.00     0.188 HD
BRANCH  64  67
ATOM     67  C52 HG4 d   1      65.049 -16.007  73.743  0.00  0.00     0.123 A 
ATOM     68  C53 HG4 d   1      65.449 -15.329  72.620  0.00  0.00    -0.025 A 
ATOM     69  C55 HG4 d   1      66.847 -15.317  72.653  0.00  0.00     0.053 A 
ATOM     70  H21 HG4 d   1      64.808 -14.889  71.857  0.00  0.00     0.090 H 
ATOM     71  N60 HG4 d   1      67.309 -15.952  73.726  0.00  0.00    -0.177 NA
ATOM     72  N61 HG4 d   1      66.190 -16.380  74.386  0.00  0.00    -0.265 N 
BRANCH  69  73
ATOM     73  C56 HG4 d   1      67.798 -14.707  71.676  0.00  0.00    -0.034 C 
ATOM     74  H22 HG4 d   1      68.831 -14.885  72.010  0.00  0.00     0.035 H 
ATOM     75  H23 HG4 d   1      67.614 -13.624  71.612  0.00  0.00     0.035 H 
ATOM     76  H24 HG4 d   1      67.649 -15.163  70.686  0.00  0.00     0.035 H 
ENDBRANCH  69  73
BRANCH  72  77
ATOM     77  C62 HG4 d   1      66.369 -17.131  75.628  0.00  0.00     0.014 C 
ATOM     78  H25 HG4 d   1      65.398 -17.551  75.929  0.00  0.00     0.066 H 
ATOM     79  H26 HG4 d   1      67.082 -17.949  75.445  0.00  0.00     0.066 H 
BRANCH  77  80
ATOM     80  C65 HG4 d   1      66.893 -16.277  76.751  0.00  0.00    -0.059 C 
ATOM     81  H27 HG4 d   1      67.008 -16.892  77.656  0.00  0.00     0.029 H 
ATOM     82  H28 HG4 d   1      66.185 -15.459  76.951  0.00  0.00     0.029 H 
ATOM     83  H29 HG4 d   1      67.869 -15.857  76.467  0.00  0.00     0.029 H 
ENDBRANCH  77  80
ENDBRANCH  72  77
ENDBRANCH  64  67
ENDBRANCH  52  63
BRANCH  57  84
ATOM     84  C79 HG4 d   1      56.884 -18.248  77.840  0.00  0.00     0.249 C 
ATOM     85  N80 HG4 d   1      56.618 -19.273  77.039  0.00  0.00    -0.366 N 
ATOM     86  H35 HG4 d   1      55.695 -19.655  77.006  0.00  0.00     0.159 HD
ATOM     87  H36 HG4 d   1      57.341 -19.663  76.469  0.00  0.00     0.159 HD
ATOM     88  O83 HG4 d   1      56.027 -17.730  78.570  0.00  0.00    -0.268 OA
ENDBRANCH  57  84
ENDBRANCH  48  51
ENDBRANCH  45  48
ENDBRANCH   1  45
TORSDOF 17
