REMARK  6 active torsions:
REMARK  status: ('A' for Active; 'I' for Inactive)
REMARK    1  A    between atoms: C01_1  and  C02_2 
REMARK    2  A    between atoms: C02_2  and  S03_3 
REMARK    3  A    between atoms: S03_3  and  C06_6 
REMARK    4  A    between atoms: C07_7  and  C12_12 
REMARK       I    between atoms: C12_12  and  N14_14 
REMARK    5  A    between atoms: N17_17  and  C21_21 
REMARK    6  A    between atoms: C19_19  and  C20_20 
ROOT
ATOM      1  C12 WTF d   1      28.567  -0.722  27.087  0.00  0.00     0.255 C 
ATOM      2  O13 WTF d   1      28.159  -0.149  28.026  0.00  0.00    -0.267 OA
ATOM      3  N14 WTF d   1      29.326   0.007  26.048  0.00  0.00    -0.340 N 
ATOM      4  C15 WTF d   1      29.860  -0.618  24.889  0.00  0.00     0.013 C 
ATOM      5  C16 WTF d   1      31.102   0.055  24.244  0.00  0.00     0.012 C 
ATOM      6  N17 WTF d   1      30.972   1.555  24.042  0.00  0.00    -0.356 N 
ATOM      7  C18 WTF d   1      29.918   2.188  24.921  0.00  0.00     0.016 C 
ATOM      8  C19 WTF d   1      29.526   1.420  26.193  0.00  0.00     0.027 C 
ATOM      9  H10 WTF d   1      29.065  -0.647  24.130  0.00  0.00     0.066 H 
ATOM     10  H11 WTF d   1      30.142  -1.645  25.164  0.00  0.00     0.066 H 
ATOM     11  H12 WTF d   1      31.274  -0.410  23.262  0.00  0.00     0.066 H 
ATOM     12  H13 WTF d   1      31.970  -0.130  24.894  0.00  0.00     0.066 H 
ATOM     13  H14 WTF d   1      29.009   2.313  24.314  0.00  0.00     0.067 H 
ATOM     14  H15 WTF d   1      30.291   3.176  25.230  0.00  0.00     0.067 H 
ATOM     15  H16 WTF d   1      28.574   1.841  26.549  0.00  0.00     0.074 H 
ENDROOT
BRANCH   1  16
ATOM     16  C07 WTF d   1      28.306  -2.274  27.002  0.00  0.00     0.053 A 
ATOM     17  C06 WTF d   1      29.026  -3.109  27.850  0.00  0.00     0.074 A 
ATOM     18  C11 WTF d   1      28.821  -4.488  27.810  0.00  0.00    -0.061 A 
ATOM     19  C10 WTF d   1      27.888  -5.011  26.947  0.00  0.00    -0.082 A 
ATOM     20  H9  WTF d   1      29.394  -5.143  28.456  0.00  0.00     0.085 H 
ATOM     21  C09 WTF d   1      27.165  -4.175  26.120  0.00  0.00    -0.082 A 
ATOM     22  H8  WTF d   1      27.720  -6.081  26.916  0.00  0.00     0.083 H 
ATOM     23  C08 WTF d   1      27.369  -2.793  26.151  0.00  0.00    -0.066 A 
ATOM     24  H7  WTF d   1      26.432  -4.595  25.440  0.00  0.00     0.083 H 
ATOM     25  H6  WTF d   1      26.791  -2.139  25.508  0.00  0.00     0.085 H 
BRANCH  17  26
ATOM     26  S03 WTF d   1      30.302  -2.392  29.004  0.00  0.00     0.176 S 
ATOM     27  O04 WTF d   1      31.045  -1.306  28.394  0.00  0.00    -0.223 OA
ATOM     28  O05 WTF d   1      31.354  -3.378  29.228  0.00  0.00    -0.223 OA
BRANCH  26  29
ATOM     29  C02 WTF d   1      29.532  -1.831  30.564  0.00  0.00     0.030 C 
ATOM     30  H4  WTF d   1      30.288  -1.834  31.363  0.00  0.00     0.056 H 
ATOM     31  H5  WTF d   1      29.144  -0.810  30.430  0.00  0.00     0.056 H 
BRANCH  29  32
ATOM     32  C01 WTF d   1      28.379  -2.763  30.956  0.00  0.00    -0.064 C 
ATOM     33  H1  WTF d   1      27.927  -2.412  31.895  0.00  0.00     0.028 H 
ATOM     34  H2  WTF d   1      28.764  -3.784  31.093  0.00  0.00     0.028 H 
ATOM     35  H3  WTF d   1      27.619  -2.761  30.160  0.00  0.00     0.028 H 
ENDBRANCH  29  32
ENDBRANCH  26  29
ENDBRANCH  17  26
ENDBRANCH   1  16
BRANCH   8  36
ATOM     36  C20 WTF d   1      30.613   1.694  27.254  0.00  0.00    -0.056 C 
ATOM     37  H17 WTF d   1      30.759   2.779  27.358  0.00  0.00     0.030 H 
ATOM     38  H18 WTF d   1      31.558   1.226  26.941  0.00  0.00     0.030 H 
ATOM     39  H19 WTF d   1      30.297   1.273  28.220  0.00  0.00     0.030 H 
ENDBRANCH   8  36
BRANCH   6  40
ATOM     40  C21 WTF d   1      31.683   2.325  23.048  0.00  0.00     0.170 A 
ATOM     41  N22 WTF d   1      31.937   3.709  23.090  0.00  0.00    -0.223 NA
ATOM     42  C23 WTF d   1      32.645   4.109  21.889  0.00  0.00     0.077 A 
ATOM     43  C24 WTF d   1      32.912   3.076  20.984  0.00  0.00     0.040 A 
ATOM     44  C30 WTF d   1      33.078   5.473  21.596  0.00  0.00    -0.051 A 
ATOM     45  S25 WTF d   1      32.297   1.676  21.644  0.00  0.00    -0.050 SA
ATOM     46  C26 WTF d   1      33.607   3.322  19.764  0.00  0.00    -0.027 A 
ATOM     47  C27 WTF d   1      34.045   4.688  19.468  0.00  0.00     0.117 A 
ATOM     48  H20 WTF d   1      33.807   2.514  19.069  0.00  0.00     0.090 H 
ATOM     49  F28 WTF d   1      34.738   4.960  18.259  0.00  0.00    -0.206 F 
ATOM     50  C29 WTF d   1      33.780   5.776  20.388  0.00  0.00    -0.043 A 
ATOM     51  H21 WTF d   1      34.104   6.787  20.167  0.00  0.00     0.088 H 
ATOM     52  H22 WTF d   1      32.864   6.266  22.304  0.00  0.00     0.087 H 
ENDBRANCH   6  40
TORSDOF 6
