REMARK  5 active torsions:
REMARK  status: ('A' for Active; 'I' for Inactive)
REMARK    1  A    between atoms: C10_13  and  C11_2 
REMARK    2  A    between atoms: C03_6  and  C12_14 
REMARK    3  A    between atoms: C07_10  and  C05_8 
REMARK       I    between atoms: N08_11  and  C07_10 
REMARK    4  A    between atoms: N08_11  and  C10_13 
REMARK    5  A    between atoms: C12_14  and  N13_15 
ROOT
ATOM      1  C01 HHM d   1       9.678  16.637  22.500  0.00  0.00    -0.081 A 
ATOM      2  C02 HHM d   1       9.708  17.177  21.074  0.00  0.00    -0.075 A 
ATOM      3  C03 HHM d   1      10.498  18.440  20.744  0.00  0.00    -0.039 A 
ATOM      4  C04 HHM d   1      11.256  19.174  21.842  0.00  0.00    -0.060 A 
ATOM      5  C05 HHM d   1      11.227  18.628  23.266  0.00  0.00     0.032 A 
ATOM      6  C06 HHM d   1      10.440  17.366  23.600  0.00  0.00    -0.068 A 
ATOM      7  H2  HHM d   1       9.117  15.738  22.730  0.00  0.00     0.083 H 
ATOM      8  H3  HHM d   1       9.165  16.661  20.291  0.00  0.00     0.084 H 
ATOM      9  H4  HHM d   1      11.811  20.076  21.614  0.00  0.00     0.086 H 
ATOM     10  H5  HHM d   1      10.422  16.989  24.616  0.00  0.00     0.085 H 
ENDROOT
BRANCH   5  11
ATOM     11  C07 HHM d   1      11.995  19.352  24.363  0.00  0.00     0.251 C 
ATOM     12  N08 HHM d   1      12.411  18.633  25.551  0.00  0.00    -0.353 N 
ATOM     13  H6  HHM d   1      12.197  17.662  25.657  0.00  0.00     0.163 HD
ATOM     14  O09 HHM d   1      12.253  20.499  24.239  0.00  0.00    -0.268 OA
BRANCH  12  15
ATOM     15  C10 HHM d   1      13.142  19.342  26.582  0.00  0.00     0.019 C 
ATOM     16  H7  HHM d   1      13.099  20.424  26.391  0.00  0.00     0.071 H 
ATOM     17  H8  HHM d   1      12.701  19.125  27.566  0.00  0.00     0.071 H 
BRANCH  15  18
ATOM     18  C11 HHM d   1      14.589  18.871  26.551  0.00  0.00    -0.037 A 
ATOM     19  C22 HHM d   1      15.371  18.735  27.851  0.00  0.00    -0.054 A 
ATOM     20  C21 HHM d   1      16.822  18.260  27.821  0.00  0.00     0.036 A 
ATOM     21  H1  HHM d   1      14.898  18.975  28.796  0.00  0.00     0.086 H 
ATOM     22  C20 HHM d   1      17.487  17.921  26.487  0.00  0.00    -0.041 A 
ATOM     23 CL2  HHM d   1      17.741  18.102  29.340  0.00  0.00    -0.084 Cl
ATOM     24  C19 HHM d   1      16.697  18.058  25.185  0.00  0.00     0.036 A 
ATOM     25  H15 HHM d   1      18.517  17.584  26.464  0.00  0.00     0.088 H 
ATOM     26  C18 HHM d   1      15.247  18.534  25.219  0.00  0.00    -0.054 A 
ATOM     27 CL1  HHM d   1      17.473  17.661  23.631  0.00  0.00    -0.084 Cl
ATOM     28  H14 HHM d   1      14.686  18.632  24.297  0.00  0.00     0.086 H 
ENDBRANCH  15  18
ENDBRANCH  12  15
ENDBRANCH   5  11
BRANCH   3  29
ATOM     29  C12 HHM d   1      10.519  18.976  19.315  0.00  0.00     0.024 C 
ATOM     30  H9  HHM d   1      10.444  20.073  19.337  0.00  0.00     0.072 H 
ATOM     31  H10 HHM d   1       9.666  18.561  18.759  0.00  0.00     0.072 H 
BRANCH  29  32
ATOM     32  N13 HHM d   1      11.755  18.593  18.654  0.00  0.00    -0.346 N 
ATOM     33  C14 HHM d   1      12.784  19.376  18.422  0.00  0.00    -0.002 A 
ATOM     34  C15 HHM d   1      13.731  18.641  17.780  0.00  0.00     0.018 A 
ATOM     35  H11 HHM d   1      12.864  20.427  18.695  0.00  0.00     0.113 H 
ATOM     36  N16 HHM d   1      13.270  17.423  17.629  0.00  0.00    -0.255 NA
ATOM     37  H12 HHM d   1      14.704  19.002  17.449  0.00  0.00     0.117 H 
ATOM     38  C17 HHM d   1      12.041  17.376  18.166  0.00  0.00     0.065 A 
ATOM     39  H13 HHM d   1      11.390  16.504  18.200  0.00  0.00     0.143 H 
ENDBRANCH  29  32
ENDBRANCH   3  29
TORSDOF 5
