REMARK  2 active torsions:
REMARK  status: ('A' for Active; 'I' for Inactive)
REMARK    1  A    between atoms: CAE_2  and  CAD_4 
REMARK    2  A    between atoms: CAI_11  and  OAL_12 
ROOT
ATOM      1  CAD HJP d   1     -19.264  17.199  14.964  0.00  0.00     0.188 A 
ATOM      2  OAC HJP d   1     -19.942  17.916  15.927  0.00  0.00    -0.306 OA
ATOM      3  CAB HJP d   1     -21.013  18.668  15.546  0.00  0.00     0.052 A 
ATOM      4  CAA HJP d   1     -21.691  19.325  16.617  0.00  0.00    -0.093 C 
ATOM      5  CAG HJP d   1     -21.427  18.778  14.210  0.00  0.00     0.041 A 
ATOM      6  CAH HJP d   1     -20.768  18.076  13.204  0.00  0.00     0.191 A 
ATOM      7  OAK HJP d   1     -21.141  18.178  12.009  0.00  0.00    -0.290 OA
ATOM      8  CAI HJP d   1     -19.645  17.323  13.613  0.00  0.00     0.153 A 
ATOM      9  H1  HJP d   1     -22.559  19.949  16.410  0.00  0.00     0.070 H 
ATOM     10  H2  HJP d   1     -21.340  19.202  17.640  0.00  0.00     0.070 H 
ATOM     11  H3  HJP d   1     -21.359  19.844  13.946  0.00  0.00     0.055 H 
ATOM     12  H4  HJP d   1     -22.479  18.459  14.179  0.00  0.00     0.055 H 
ENDROOT
BRANCH   1  13
ATOM     13  CAE HJP d   1     -18.209  16.448  15.490  0.00  0.00     0.237 C 
ATOM     14  OAF HJP d   1     -17.399  15.756  14.820  0.00  0.00    -0.642 OA
ATOM     15  OAJ HJP d   1     -18.040  16.528  16.717  0.00  0.00    -0.642 OA
ENDBRANCH   1  13
BRANCH   8  16
ATOM     16  OAL HJP d   1     -18.993  16.574  12.693  0.00  0.00    -0.355 OA
ATOM     17  H5  HJP d   1     -18.265  16.127  13.109  0.00  0.00     0.218 HD
ENDBRANCH   8  16
TORSDOF 2
