REMARK  4 active torsions:
REMARK  status: ('A' for Active; 'I' for Inactive)
REMARK    1  A    between atoms: C18_15  and  O_6 
REMARK    2  A    between atoms: O_6  and  C20_17 
REMARK    3  A    between atoms: C10_7  and  C14_11 
REMARK    4  A    between atoms: C4_18  and  C10_7 
ROOT
ATOM      1  N1  HJM d   1     144.353 148.874 158.989  0.00  0.00    -0.065 N 
ATOM      2  C1  HJM d   1     143.443 149.238 160.108  0.00  0.00     0.116 C 
ATOM      3  N2  HJM d   1     141.736 152.539 159.209  0.00  0.00    -0.358 N 
ATOM      4  C2  HJM d   1     143.265 150.754 160.218  0.00  0.00     0.015 C 
ATOM      5  C3  HJM d   1     145.699 150.426 160.480  0.00  0.00    -0.030 C 
ATOM      6  C11 HJM d   1     141.850 150.612 157.954  0.00  0.00    -0.021 C 
ATOM      7  C12 HJM d   1     142.353 149.330 157.372  0.00  0.00    -0.015 C 
ATOM      8  C13 HJM d   1     140.888 151.487 157.398  0.00  0.00     0.002 A 
ATOM      9  C15 HJM d   1     140.808 152.685 158.211  0.00  0.00     0.043 A 
ATOM     10  C16 HJM d   1     140.012 151.280 156.315  0.00  0.00    -0.038 A 
ATOM     11  C17 HJM d   1     139.916 153.657 157.899  0.00  0.00    -0.054 A 
ATOM     12  C18 HJM d   1     139.109 152.254 155.987  0.00  0.00     0.069 A 
ATOM     13  C19 HJM d   1     139.051 153.401 156.783  0.00  0.00    -0.049 A 
ATOM     14  C4  HJM d   1     144.119 148.793 161.437  0.00  0.00    -0.026 C 
ATOM     15  C5  HJM d   1     144.633 151.502 160.283  0.00  0.00    -0.050 C 
ATOM     16  C6  HJM d   1     145.372 149.678 161.745  0.00  0.00    -0.055 C 
ATOM     17  C7  HJM d   1     145.659 149.468 159.283  0.00  0.00     0.087 C 
ATOM     18  C8  HJM d   1     142.304 151.255 159.145  0.00  0.00     0.023 C 
ATOM     19  C9  HJM d   1     143.880 148.994 157.593  0.00  0.00     0.088 C 
ATOM     20  H1  HJM d   1     144.489 147.880 159.091  0.00  0.00     0.280 HD
ATOM     21  H2  HJM d   1     142.468 148.746 159.975  0.00  0.00     0.086 H 
ATOM     22  H3  HJM d   1     141.980 153.261 159.901  0.00  0.00     0.166 HD
ATOM     23  H4  HJM d   1     142.773 150.946 161.183  0.00  0.00     0.052 H 
ATOM     24  H5  HJM d   1     146.695 150.885 160.559  0.00  0.00     0.042 H 
ATOM     25  H8  HJM d   1     142.174 149.365 156.287  0.00  0.00     0.042 H 
ATOM     26  H9  HJM d   1     141.766 148.512 157.814  0.00  0.00     0.042 H 
ATOM     27  H13 HJM d   1     140.053 150.358 155.747  0.00  0.00     0.089 H 
ATOM     28  H14 HJM d   1     139.859 154.581 158.464  0.00  0.00     0.087 H 
ATOM     29  H15 HJM d   1     138.303 154.147 156.541  0.00  0.00     0.087 H 
ATOM     30  H19 HJM d   1     143.409 148.977 162.257  0.00  0.00     0.043 H 
ATOM     31  H20 HJM d   1     144.642 152.207 161.127  0.00  0.00     0.034 H 
ATOM     32  H21 HJM d   1     144.813 152.050 159.346  0.00  0.00     0.034 H 
ATOM     33  H22 HJM d   1     145.145 150.386 162.556  0.00  0.00     0.034 H 
ATOM     34  H23 HJM d   1     146.221 149.043 162.040  0.00  0.00     0.034 H 
ATOM     35  H24 HJM d   1     145.985 150.026 158.393  0.00  0.00     0.076 H 
ATOM     36  H25 HJM d   1     146.366 148.649 159.482  0.00  0.00     0.076 H 
ATOM     37  H26 HJM d   1     144.083 148.036 157.092  0.00  0.00     0.076 H 
ATOM     38  H27 HJM d   1     144.466 149.791 157.113  0.00  0.00     0.076 H 
ENDROOT
BRANCH  14  39
ATOM     39  C10 HJM d   1     144.329 147.241 161.366  0.00  0.00    -0.063 C 
ATOM     40  H6  HJM d   1     144.637 147.000 160.338  0.00  0.00     0.033 H 
ATOM     41  H7  HJM d   1     145.144 146.990 162.061  0.00  0.00     0.033 H 
BRANCH  39  42
ATOM     42  C14 HJM d   1     143.131 146.326 161.713  0.00  0.00    -0.076 C 
ATOM     43  H10 HJM d   1     143.434 145.273 161.618  0.00  0.00     0.027 H 
ATOM     44  H11 HJM d   1     142.300 146.532 161.023  0.00  0.00     0.027 H 
ATOM     45  H12 HJM d   1     142.807 146.522 162.746  0.00  0.00     0.027 H 
ENDBRANCH  39  42
ENDBRANCH  14  39
BRANCH  12  46
ATOM     46  O   HJM d   1     138.209 151.953 154.938  0.00  0.00    -0.356 OA
BRANCH  46  47
ATOM     47  C20 HJM d   1     137.228 152.956 154.656  0.00  0.00     0.010 C 
ATOM     48  H16 HJM d   1     136.586 152.619 153.829  0.00  0.00     0.066 H 
ATOM     49  H17 HJM d   1     137.732 153.892 154.371  0.00  0.00     0.066 H 
ATOM     50  H18 HJM d   1     136.612 153.128 155.551  0.00  0.00     0.066 H 
ENDBRANCH  46  47
ENDBRANCH  12  46
TORSDOF 4
