REMARK  4 active torsions:
REMARK  status: ('A' for Active; 'I' for Inactive)
REMARK    1  A    between atoms: C18_15  and  O_6 
REMARK    2  A    between atoms: O_6  and  C20_17 
REMARK    3  A    between atoms: C10_7  and  C14_11 
REMARK    4  A    between atoms: C4_18  and  C10_7 
ROOT
ATOM      1  N1  HJM d   1     161.272 152.951 173.361  0.00  0.00    -0.065 N 
ATOM      2  C1  HJM d   1     161.532 152.616 174.871  0.00  0.00     0.116 C 
ATOM      3  N2  HJM d   1     160.835 148.966 175.587  0.00  0.00    -0.358 N 
ATOM      4  C2  HJM d   1     160.724 151.481 175.396  0.00  0.00     0.015 C 
ATOM      5  C3  HJM d   1     159.025 153.070 174.358  0.00  0.00    -0.030 C 
ATOM      6  C11 HJM d   1     161.746 149.837 173.706  0.00  0.00    -0.021 A 
ATOM      7  C12 HJM d   1     161.969 150.694 172.409  0.00  0.00    -0.015 C 
ATOM      8  C13 HJM d   1     161.817 148.416 173.661  0.00  0.00     0.002 A 
ATOM      9  C15 HJM d   1     161.298 147.891 174.852  0.00  0.00     0.043 A 
ATOM     10  C16 HJM d   1     162.232 147.487 172.668  0.00  0.00    -0.038 C 
ATOM     11  C17 HJM d   1     161.322 146.563 175.213  0.00  0.00    -0.054 C 
ATOM     12  C18 HJM d   1     162.358 146.122 172.998  0.00  0.00     0.069 C 
ATOM     13  C19 HJM d   1     161.849 145.648 174.240  0.00  0.00    -0.049 C 
ATOM     14  C4  HJM d   1     161.106 153.907 175.629  0.00  0.00    -0.026 C 
ATOM     15  C5  HJM d   1     159.234 151.776 175.179  0.00  0.00    -0.050 C 
ATOM     16  C6  HJM d   1     159.615 154.243 175.090  0.00  0.00    -0.055 C 
ATOM     17  C7  HJM d   1     159.776 152.863 173.037  0.00  0.00     0.087 C 
ATOM     18  C8  HJM d   1     161.147 150.127 174.895  0.00  0.00     0.023 A 
ATOM     19  C9  HJM d   1     162.195 152.213 172.455  0.00  0.00     0.088 C 
ATOM     20  H1  HJM d   1     161.513 153.923 173.244  0.00  0.00     0.280 HD
ATOM     21  H2  HJM d   1     162.599 152.399 175.027  0.00  0.00     0.086 H 
ATOM     22  H3  HJM d   1     160.344 148.914 176.491  0.00  0.00     0.166 HD
ATOM     23  H4  HJM d   1     160.887 151.459 176.484  0.00  0.00     0.052 H 
ATOM     24  H5  HJM d   1     157.954 153.243 174.174  0.00  0.00     0.042 H 
ATOM     25  H8  HJM d   1     161.080 150.536 171.781  0.00  0.00     0.042 H 
ATOM     26  H9  HJM d   1     162.851 150.268 171.909  0.00  0.00     0.042 H 
ATOM     27  H13 HJM d   1     162.451 147.827 171.662  0.00  0.00     0.089 H 
ATOM     28  H14 HJM d   1     160.963 146.226 176.179  0.00  0.00     0.087 H 
ATOM     29  H15 HJM d   1     161.859 144.585 174.453  0.00  0.00     0.087 H 
ATOM     30  H19 HJM d   1     161.043 153.699 176.707  0.00  0.00     0.043 H 
ATOM     31  H20 HJM d   1     158.746 151.892 176.158  0.00  0.00     0.034 H 
ATOM     32  H21 HJM d   1     158.778 150.933 174.639  0.00  0.00     0.034 H 
ATOM     33  H22 HJM d   1     158.971 154.492 175.947  0.00  0.00     0.034 H 
ATOM     34  H23 HJM d   1     159.666 155.104 174.407  0.00  0.00     0.034 H 
ATOM     35  H24 HJM d   1     159.537 151.875 172.616  0.00  0.00     0.076 H 
ATOM     36  H25 HJM d   1     159.498 153.646 172.316  0.00  0.00     0.076 H 
ATOM     37  H26 HJM d   1     163.226 152.396 172.792  0.00  0.00     0.076 H 
ATOM     38  H27 HJM d   1     162.066 152.610 171.437  0.00  0.00     0.076 H 
ENDROOT
BRANCH  14  39
ATOM     39  C10 HJM d   1     162.136 154.964 175.440  0.00  0.00    -0.063 C 
ATOM     40  H6  HJM d   1     162.530 154.905 174.415  0.00  0.00     0.033 H 
ATOM     41  H7  HJM d   1     161.676 155.950 175.600  0.00  0.00     0.033 H 
BRANCH  39  42
ATOM     42  C14 HJM d   1     163.322 154.773 176.464  0.00  0.00    -0.076 C 
ATOM     43  H10 HJM d   1     164.072 155.563 176.308  0.00  0.00     0.027 H 
ATOM     44  H11 HJM d   1     163.788 153.789 176.306  0.00  0.00     0.027 H 
ATOM     45  H12 HJM d   1     162.933 154.834 177.491  0.00  0.00     0.027 H 
ENDBRANCH  39  42
ENDBRANCH  14  39
BRANCH  12  46
ATOM     46  O   HJM d   1     163.094 145.287 172.062  0.00  0.00    -0.356 OA
BRANCH  46  47
ATOM     47  C20 HJM d   1     163.061 143.823 172.353  0.00  0.00     0.010 C 
ATOM     48  H16 HJM d   1     163.644 143.285 171.591  0.00  0.00     0.066 H 
ATOM     49  H17 HJM d   1     162.020 143.469 172.336  0.00  0.00     0.066 H 
ATOM     50  H18 HJM d   1     163.495 143.637 173.346  0.00  0.00     0.066 H 
ENDBRANCH  46  47
ENDBRANCH  12  46
TORSDOF 4
