REMARK  11 active torsions:
REMARK  status: ('A' for Active; 'I' for Inactive)
REMARK    1  A    between atoms: N1_1  and  C1'_9 
REMARK    2  A    between atoms: C4_4  and  N4_8 
REMARK    3  A    between atoms: C2'_10  and  O2'_11 
REMARK    4  A    between atoms: C3'_12  and  O3'_15 
REMARK    5  A    between atoms: C4'_13  and  C5'_16 
REMARK    6  A    between atoms: C5'_16  and  O5'_17 
REMARK    7  A    between atoms: O5'_17  and  PA_18 
REMARK    8  A    between atoms: PA_18  and  O3A_21 
REMARK    9  A    between atoms: O3A_21  and  PB_22 
REMARK   10  A    between atoms: PB_22  and  O3B_25 
REMARK   11  A    between atoms: O3B_25  and  PG_26 
ROOT
ATOM      1  C1' CTP d   1     -11.560 -37.863  24.418  0.00  0.00     0.137 C 
ATOM      2  C2' CTP d   1     -10.809 -38.337  23.164  0.00  0.00     0.104 C 
ATOM      3  C3' CTP d   1      -9.510 -38.373  23.536  0.00  0.00     0.091 C 
ATOM      4  C4' CTP d   1      -9.319 -37.291  24.739  0.00  0.00     0.089 C 
ATOM      5  O4' CTP d   1     -10.467 -37.179  25.345  0.00  0.00    -0.354 OA
ATOM      6  H10 CTP d   1     -11.941 -38.759  24.930  0.00  0.00     0.122 H 
ATOM      7  H11 CTP d   1     -10.958 -37.650  22.318  0.00  0.00     0.093 H 
ATOM      8  H13 CTP d   1      -8.870 -38.122  22.677  0.00  0.00     0.091 H 
ATOM      9  H14 CTP d   1      -8.550 -37.648  25.439  0.00  0.00     0.090 H 
ENDROOT
BRANCH   1  10
ATOM     10  N1  CTP d   1     -12.633 -37.046  24.227  0.00  0.00    -0.305 N 
ATOM     11  C2  CTP d   1     -14.011 -37.635  24.066  0.00  0.00     0.322 A 
ATOM     12  N3  CTP d   1     -15.195 -36.728  23.899  0.00  0.00    -0.315 N 
ATOM     13  O2  CTP d   1     -14.187 -38.817  24.053  0.00  0.00    -0.247 OA
ATOM     14  C4  CTP d   1     -15.055 -35.291  23.917  0.00  0.00     0.169 A 
ATOM     15  H1  CTP d   1     -16.102 -37.128  23.772  0.00  0.00     0.166 HD
ATOM     16  C5  CTP d   1     -13.696 -34.696  24.091  0.00  0.00    -0.007 A 
ATOM     17  H2  CTP d   1     -15.203 -35.283  25.007  0.00  0.00     0.118 H 
ATOM     18  C6  CTP d   1     -12.498 -35.591  24.246  0.00  0.00     0.005 A 
ATOM     19  H3  CTP d   1     -13.739 -34.064  24.990  0.00  0.00     0.041 H 
ATOM     20  H4  CTP d   1     -13.510 -34.066  23.209  0.00  0.00     0.041 H 
ATOM     21  H5  CTP d   1     -11.807 -35.331  23.430  0.00  0.00     0.064 H 
ATOM     22  H6  CTP d   1     -12.039 -35.333  25.212  0.00  0.00     0.064 H 
BRANCH  14  23
ATOM     23  N4  CTP d   1     -16.240 -34.430  23.749  0.00  0.00    -0.058 N 
ATOM     24  H7  CTP d   1     -15.960 -33.462  23.787  0.00  0.00     0.276 HD
ATOM     25  H8  CTP d   1     -16.900 -34.618  24.487  0.00  0.00     0.276 HD
ATOM     26  H9  CTP d   1     -16.670 -34.620  22.858  0.00  0.00     0.276 HD
ENDBRANCH  14  23
ENDBRANCH   1  10
BRANCH   2  27
ATOM     27  O2' CTP d   1     -11.299 -39.693  22.819  0.00  0.00    -0.388 OA
ATOM     28  H12 CTP d   1     -11.131 -40.283  23.544  0.00  0.00     0.210 HD
ENDBRANCH   2  27
BRANCH   3  29
ATOM     29  O3' CTP d   1      -9.134 -39.654  24.070  0.00  0.00    -0.390 OA
ATOM     30  H15 CTP d   1      -9.231 -40.317  23.397  0.00  0.00     0.210 HD
ENDBRANCH   3  29
BRANCH   4  31
ATOM     31  C5' CTP d   1      -8.927 -35.926  24.212  0.00  0.00     0.058 C 
ATOM     32  H16 CTP d   1      -7.831 -35.867  24.141  0.00  0.00     0.079 H 
ATOM     33  H17 CTP d   1      -9.292 -35.153  24.904  0.00  0.00     0.079 H 
BRANCH  31  34
ATOM     34  O5' CTP d   1      -9.483 -35.711  22.946  0.00  0.00    -0.287 OA
BRANCH  34  35
ATOM     35  PA  CTP d   1      -8.404 -35.141  21.840  0.00  0.00     0.417 P 
ATOM     36  O1A CTP d   1      -9.138 -34.488  20.682  0.00  0.00    -0.624 OA
ATOM     37  O2A CTP d   1      -7.455 -36.260  21.406  0.00  0.00    -0.624 OA
BRANCH  35  38
ATOM     38  O3A CTP d   1      -7.618 -33.943  22.655  0.00  0.00    -0.180 OA
BRANCH  38  39
ATOM     39  PB  CTP d   1      -6.421 -33.187  21.803  0.00  0.00     0.428 P 
ATOM     40  O1B CTP d   1      -6.811 -33.195  20.331  0.00  0.00    -0.624 OA
ATOM     41  O2B CTP d   1      -6.140 -31.777  22.305  0.00  0.00    -0.624 OA
BRANCH  39  42
ATOM     42  O3B CTP d   1      -5.181 -34.220  22.044  0.00  0.00    -0.173 OA
BRANCH  42  43
ATOM     43  PG  CTP d   1      -3.691 -33.882  21.498  0.00  0.00     0.431 P 
ATOM     44  O1G CTP d   1      -3.801 -33.518  20.044  0.00  0.00    -0.616 OA
ATOM     45  O2G CTP d   1      -2.829 -35.110  21.677  0.00  0.00    -0.616 OA
ATOM     46  O3G CTP d   1      -3.167 -32.753  22.344  0.00  0.00    -0.616 OA
ENDBRANCH  42  43
ENDBRANCH  39  42
ENDBRANCH  38  39
ENDBRANCH  35  38
ENDBRANCH  34  35
ENDBRANCH  31  34
ENDBRANCH   4  31
TORSDOF 11
