REMARK  11 active torsions:
REMARK  status: ('A' for Active; 'I' for Inactive)
REMARK    1  A    between atoms: N1_1  and  C1'_9 
REMARK    2  A    between atoms: C4_4  and  N4_8 
REMARK    3  A    between atoms: C2'_10  and  O2'_11 
REMARK    4  A    between atoms: C3'_12  and  O3'_15 
REMARK    5  A    between atoms: C4'_13  and  C5'_16 
REMARK    6  A    between atoms: C5'_16  and  O5'_17 
REMARK    7  A    between atoms: O5'_17  and  PA_18 
REMARK    8  A    between atoms: PA_18  and  O3A_21 
REMARK    9  A    between atoms: O3A_21  and  PB_22 
REMARK   10  A    between atoms: PB_22  and  O3B_25 
REMARK   11  A    between atoms: O3B_25  and  PG_26 
ROOT
ATOM      1  C1' CTP d   1     -11.886 -38.067  24.281  0.00  0.00     0.137 C 
ATOM      2  C2' CTP d   1     -11.090 -38.518  23.059  0.00  0.00     0.104 C 
ATOM      3  C3' CTP d   1      -9.804 -38.549  23.473  0.00  0.00     0.091 C 
ATOM      4  C4' CTP d   1      -9.643 -37.535  24.724  0.00  0.00     0.089 C 
ATOM      5  O4' CTP d   1     -10.840 -37.331  25.212  0.00  0.00    -0.354 OA
ATOM      6  H7  CTP d   1     -12.297 -38.957  24.780  0.00  0.00     0.122 H 
ATOM      7  H8  CTP d   1     -11.203 -37.815  22.221  0.00  0.00     0.093 H 
ATOM      8  H10 CTP d   1      -9.143 -38.272  22.639  0.00  0.00     0.091 H 
ATOM      9  H11 CTP d   1      -9.001 -37.988  25.494  0.00  0.00     0.090 H 
ENDROOT
BRANCH   4  10
ATOM     10  C5' CTP d   1      -9.024 -36.244  24.260  0.00  0.00     0.058 C 
ATOM     11  H13 CTP d   1      -7.981 -36.418  23.956  0.00  0.00     0.079 H 
ATOM     12  H14 CTP d   1      -9.050 -35.504  25.074  0.00  0.00     0.079 H 
BRANCH  10  13
ATOM     13  O5' CTP d   1      -9.765 -35.774  23.167  0.00  0.00    -0.287 OA
BRANCH  13  14
ATOM     14  PA  CTP d   1      -8.856 -35.320  21.859  0.00  0.00     0.417 P 
ATOM     15  O1A CTP d   1      -9.669 -34.652  20.767  0.00  0.00    -0.624 OA
ATOM     16  O2A CTP d   1      -8.057 -36.493  21.304  0.00  0.00    -0.624 OA
BRANCH  14  17
ATOM     17  O3A CTP d   1      -7.744 -34.314  22.534  0.00  0.00    -0.180 OA
BRANCH  17  18
ATOM     18  PB  CTP d   1      -6.639 -33.549  21.576  0.00  0.00     0.428 P 
ATOM     19  O1B CTP d   1      -6.851 -33.862  20.121  0.00  0.00    -0.624 OA
ATOM     20  O2B CTP d   1      -6.791 -32.071  21.825  0.00  0.00    -0.624 OA
BRANCH  18  21
ATOM     21  O3B CTP d   1      -5.130 -33.935  22.104  0.00  0.00    -0.173 OA
BRANCH  21  22
ATOM     22  PG  CTP d   1      -3.834 -33.955  21.099  0.00  0.00     0.431 P 
ATOM     23  O1G CTP d   1      -4.140 -33.353  19.749  0.00  0.00    -0.616 OA
ATOM     24  O2G CTP d   1      -3.484 -35.411  20.940  0.00  0.00    -0.616 OA
ATOM     25  O3G CTP d   1      -2.715 -33.174  21.746  0.00  0.00    -0.616 OA
ENDBRANCH  21  22
ENDBRANCH  18  21
ENDBRANCH  17  18
ENDBRANCH  14  17
ENDBRANCH  13  14
ENDBRANCH  10  13
ENDBRANCH   4  10
BRANCH   3  26
ATOM     26  O3' CTP d   1      -9.411 -39.811  24.029  0.00  0.00    -0.390 OA
ATOM     27  H12 CTP d   1      -9.473 -40.483  23.360  0.00  0.00     0.210 HD
ENDBRANCH   3  26
BRANCH   2  28
ATOM     28  O2' CTP d   1     -11.616 -39.856  22.671  0.00  0.00    -0.388 OA
ATOM     29  H9  CTP d   1     -11.499 -40.463  23.393  0.00  0.00     0.210 HD
ENDBRANCH   2  28
BRANCH   1  30
ATOM     30  N1  CTP d   1     -12.881 -37.201  24.076  0.00  0.00    -0.301 N 
ATOM     31  C2  CTP d   1     -14.313 -37.633  24.119  0.00  0.00     0.326 A 
ATOM     32  N3  CTP d   1     -15.401 -36.626  23.950  0.00  0.00    -0.295 N 
ATOM     33  O2  CTP d   1     -14.604 -38.770  24.269  0.00  0.00    -0.247 OA
ATOM     34  C4  CTP d   1     -15.096 -35.231  23.762  0.00  0.00     0.100 A 
ATOM     35  H1  CTP d   1     -16.355 -36.924  23.968  0.00  0.00     0.172 HD
ATOM     36  C5  CTP d   1     -13.674 -34.796  23.739  0.00  0.00    -0.044 A 
ATOM     37  C6  CTP d   1     -12.579 -35.794  23.910  0.00  0.00     0.020 A 
ATOM     38  H2  CTP d   1     -13.431 -33.744  23.597  0.00  0.00     0.085 H 
ATOM     39  H3  CTP d   1     -11.938 -35.713  23.020  0.00  0.00     0.070 H 
ATOM     40  H4  CTP d   1     -12.011 -35.487  24.800  0.00  0.00     0.070 H 
BRANCH  34  41
ATOM     41  N4  CTP d   1     -16.172 -34.244  23.599  0.00  0.00    -0.386 N 
ATOM     42  H5  CTP d   1     -15.942 -33.249  23.465  0.00  0.00     0.157 HD
ATOM     43  H6  CTP d   1     -17.156 -34.547  23.619  0.00  0.00     0.157 HD
ENDBRANCH  34  41
ENDBRANCH   1  30
TORSDOF 11
