REMARK  8 active torsions:
REMARK  status: ('A' for Active; 'I' for Inactive)
REMARK    1  A    between atoms: C5_1  and  N4_28 
REMARK    2  A    between atoms: C14_12  and  C15_7 
REMARK    3  A    between atoms: S21_32  and  C24_8 
REMARK    4  A    between atoms: C2_14  and  C28_9 
REMARK    5  A    between atoms: C2_14  and  C1_10 
REMARK    6  A    between atoms: N11_23  and  C12_11 
REMARK    7  A    between atoms: N4_28  and  C2_14 
REMARK    8  A    between atoms: C9_21  and  S21_32 
ROOT
ATOM      1  C5  HKJ d   1      20.016  -9.320  -6.387  0.00  0.00     0.126 A 
ATOM      2  C6  HKJ d   1      20.517  -8.194  -5.734  0.00  0.00    -0.038 A 
ATOM      3  C7  HKJ d   1      21.825  -7.834  -5.927  0.00  0.00    -0.064 A 
ATOM      4  C8  HKJ d   1      22.623  -8.611  -6.780  0.00  0.00     0.034 A 
ATOM      5  C10 HKJ d   1      24.191  -9.605  -8.065  0.00  0.00     0.010 A 
ATOM      6  C19 HKJ d   1      22.050  -9.736  -7.405  0.00  0.00     0.149 A 
ATOM      7  C9  HKJ d   1      24.022  -8.564  -7.237  0.00  0.00     0.089 A 
ATOM      8  N11 HKJ d   1      23.029 -10.317  -8.176  0.00  0.00    -0.287 N 
ATOM      9  N20 HKJ d   1      20.779 -10.043  -7.183  0.00  0.00    -0.213 NA
ATOM     10  H1  HKJ d   1      19.879  -7.610  -5.081  0.00  0.00     0.089 H 
ATOM     11  H2  HKJ d   1      22.236  -6.963  -5.429  0.00  0.00     0.085 H 
ATOM     12  H3  HKJ d   1      25.121  -9.849  -8.576  0.00  0.00     0.114 H 
ENDROOT
BRANCH   1  13
ATOM     13  N4  HKJ d   1      18.692  -9.703  -6.198  0.00  0.00    -0.365 N 
ATOM     14  H21 HKJ d   1      18.020  -9.050  -5.771  0.00  0.00     0.162 HD
BRANCH  13  15
ATOM     15  C2  HKJ d   1      18.257 -11.041  -6.610  0.00  0.00     0.050 C 
ATOM     16  H12 HKJ d   1      19.067 -11.763  -6.427  0.00  0.00     0.082 H 
BRANCH  15  17
ATOM     17  C28 HKJ d   1      17.929 -11.019  -8.080  0.00  0.00     0.056 A 
ATOM     18  C29 HKJ d   1      17.855 -12.204  -8.789  0.00  0.00    -0.054 A 
ATOM     19  C30 HKJ d   1      17.554 -12.156 -10.141  0.00  0.00    -0.042 A 
ATOM     20  H17 HKJ d   1      18.029 -13.154  -8.296  0.00  0.00     0.086 H 
ATOM     21  C31 HKJ d   1      17.341 -10.915 -10.727  0.00  0.00     0.133 A 
ATOM     22  H18 HKJ d   1      17.486 -13.065 -10.727  0.00  0.00     0.088 H 
ATOM     23  C33 HKJ d   1      17.433  -9.774  -9.951  0.00  0.00     0.040 A 
ATOM     24  F32 HKJ d   1      17.045 -10.819 -12.040  0.00  0.00    -0.205 F 
ATOM     25  N34 HKJ d   1      17.721  -9.860  -8.669  0.00  0.00    -0.260 NA
ATOM     26  H19 HKJ d   1      17.267  -8.802 -10.401  0.00  0.00     0.119 H 
ENDBRANCH  15  17
BRANCH  15  27
ATOM     27  C1  HKJ d   1      17.024 -11.449  -5.802  0.00  0.00    -0.052 C 
ATOM     28  H9  HKJ d   1      17.275 -11.462  -4.731  0.00  0.00     0.030 H 
ATOM     29  H10 HKJ d   1      16.697 -12.452  -6.114  0.00  0.00     0.030 H 
ATOM     30  H11 HKJ d   1      16.213 -10.727  -5.980  0.00  0.00     0.030 H 
ENDBRANCH  15  27
ENDBRANCH  13  15
ENDBRANCH   1  13
BRANCH   8  31
ATOM     31  C12 HKJ d   1      22.877 -11.463  -8.969  0.00  0.00     0.157 A 
ATOM     32  C13 HKJ d   1      21.792 -12.355  -8.951  0.00  0.00    -0.014 A 
ATOM     33  C14 HKJ d   1      22.039 -13.325  -9.860  0.00  0.00     0.027 A 
ATOM     34  H4  HKJ d   1      20.909 -12.279  -8.318  0.00  0.00     0.092 H 
ATOM     35  N16 HKJ d   1      23.231 -13.059 -10.435  0.00  0.00    -0.281 N 
ATOM     36  N18 HKJ d   1      23.740 -11.890  -9.859  0.00  0.00    -0.156 NA
ATOM     37  H20 HKJ d   1      23.686 -13.619 -11.170  0.00  0.00     0.189 HD
BRANCH  33  38
ATOM     38  C15 HKJ d   1      21.141 -14.491 -10.184  0.00  0.00    -0.036 C 
ATOM     39  H5  HKJ d   1      21.610 -15.109 -10.964  0.00  0.00     0.035 H 
ATOM     40  H6  HKJ d   1      20.172 -14.118 -10.546  0.00  0.00     0.035 H 
ATOM     41  H7  HKJ d   1      20.986 -15.097  -9.279  0.00  0.00     0.035 H 
ENDBRANCH  33  38
ENDBRANCH   8  31
BRANCH   7  42
ATOM     42  S21 HKJ d   1      25.292  -7.406  -6.837  0.00  0.00     0.186 S 
ATOM     43  O22 HKJ d   1      25.895  -7.928  -5.661  0.00  0.00    -0.222 OA
ATOM     44  O23 HKJ d   1      26.035  -7.303  -8.040  0.00  0.00    -0.222 OA
BRANCH  42  45
ATOM     45  C24 HKJ d   1      24.471  -5.827  -6.496  0.00  0.00     0.090 C 
ATOM     46  C25 HKJ d   1      24.471  -5.457  -5.002  0.00  0.00     0.038 C 
ATOM     47  O26 HKJ d   1      24.792  -4.126  -5.453  0.00  0.00    -0.388 OA
ATOM     48  H13 HKJ d   1      25.250  -5.947  -4.400  0.00  0.00     0.076 H 
ATOM     49  H14 HKJ d   1      23.499  -5.557  -4.496  0.00  0.00     0.076 H 
ATOM     50  C27 HKJ d   1      25.376  -4.597  -6.684  0.00  0.00     0.038 C 
ATOM     51  H15 HKJ d   1      25.154  -3.985  -7.571  0.00  0.00     0.076 H 
ATOM     52  H16 HKJ d   1      26.456  -4.801  -6.641  0.00  0.00     0.076 H 
ATOM     53  H8  HKJ d   1      23.495  -5.783  -7.002  0.00  0.00     0.071 H 
ENDBRANCH  42  45
ENDBRANCH   7  42
TORSDOF 8
