REMARK  11 active torsions:
REMARK  status: ('A' for Active; 'I' for Inactive)
REMARK    1  A    between atoms: C04_2  and  C02_1 
REMARK    2  A    between atoms: C06_3  and  C04_2 
REMARK    3  A    between atoms: C04_2  and  N05_13 
REMARK    4  A    between atoms: C07_4  and  C06_3 
REMARK    5  A    between atoms: S10_21  and  C09_6 
REMARK    6  A    between atoms: C11_7  and  C12_8 
REMARK    7  A    between atoms: C11_7  and  S10_21 
REMARK    8  A    between atoms: C12_8  and  C13_9 
REMARK    9  A    between atoms: C12_8  and  N16_14 
REMARK   10  A    between atoms: C17_10  and  O18_19 
REMARK   11  A    between atoms: C19_11  and  O20_20 
ROOT
ATOM      1  C07 HKS d   1     -11.342 -28.690 -11.302  0.00  0.00    -0.051 A 
ATOM      2  C08 HKS d   1     -12.323 -29.637 -11.037  0.00  0.00    -0.058 A 
ATOM      3  C09 HKS d   1     -13.653 -29.340 -11.315  0.00  0.00     0.037 A 
ATOM      4  C17 HKS d   1     -14.041 -28.087 -11.858  0.00  0.00     0.115 A 
ATOM      5  C19 HKS d   1     -13.076 -27.149 -12.117  0.00  0.00     0.100 A 
ATOM      6  C21 HKS d   1     -11.722 -27.442 -11.842  0.00  0.00    -0.042 A 
ATOM      7  H4  HKS d   1     -12.054 -30.599 -10.617  0.00  0.00     0.086 H 
ATOM      8  H8  HKS d   1     -10.962 -26.697 -12.049  0.00  0.00     0.088 H 
ENDROOT
BRANCH   3   9
ATOM      9  S10 HKS d   1     -14.860 -30.602 -10.940  0.00  0.00    -0.124 SA
BRANCH   9  10
ATOM     10  C11 HKS d   1     -15.502 -30.223  -9.355  0.00  0.00     0.017 C 
ATOM     11  H5  HKS d   1     -14.949 -30.779  -8.584  0.00  0.00     0.053 H 
ATOM     12  H6  HKS d   1     -15.413 -29.143  -9.163  0.00  0.00     0.053 H 
BRANCH  10  13
ATOM     13  C12 HKS d   1     -16.964 -30.633  -9.341  0.00  0.00     0.190 C 
ATOM     14  H7  HKS d   1     -17.012 -31.723  -9.480  0.00  0.00     0.102 H 
BRANCH  13  15
ATOM     15  C13 HKS d   1     -17.828 -29.980 -10.482  0.00  0.00     0.205 C 
ATOM     16  O14 HKS d   1     -18.838 -30.629 -10.912  0.00  0.00    -0.646 OA
ATOM     17  O15 HKS d   1     -17.547 -28.829 -10.971  0.00  0.00    -0.646 OA
ENDBRANCH  13  15
BRANCH  13  18
ATOM     18  N16 HKS d   1     -17.491 -30.311  -8.029  0.00  0.00    -0.065 N 
ATOM     19  H12 HKS d   1     -18.464 -30.571  -7.985  0.00  0.00     0.275 HD
ATOM     20  H13 HKS d   1     -17.400 -29.321  -7.864  0.00  0.00     0.275 HD
ATOM     21  H14 HKS d   1     -16.975 -30.817  -7.326  0.00  0.00     0.275 HD
ENDBRANCH  13  18
ENDBRANCH  10  13
ENDBRANCH   9  10
ENDBRANCH   3   9
BRANCH   4  22
ATOM     22  O18 HKS d   1     -15.391 -27.690 -12.178  0.00  0.00    -0.357 OA
ATOM     23  H15 HKS d   1     -15.987 -28.399 -11.966  0.00  0.00     0.218 HD
ENDBRANCH   4  22
BRANCH   1  24
ATOM     24  C06 HKS d   1      -9.880 -29.040 -10.969  0.00  0.00    -0.005 C 
ATOM     25  H2  HKS d   1      -9.736 -30.128 -11.042  0.00  0.00     0.044 H 
ATOM     26  H3  HKS d   1      -9.209 -28.533 -11.678  0.00  0.00     0.044 H 
BRANCH  24  27
ATOM     27  C04 HKS d   1      -9.552 -28.558  -9.488  0.00  0.00     0.186 C 
ATOM     28  H1  HKS d   1     -10.253 -29.077  -8.818  0.00  0.00     0.101 H 
BRANCH  27  29
ATOM     29  C02 HKS d   1      -8.182 -28.769  -8.954  0.00  0.00     0.204 C 
ATOM     30  O01 HKS d   1      -8.010 -29.591  -8.019  0.00  0.00    -0.646 OA
ATOM     31  O03 HKS d   1      -7.225 -28.096  -9.393  0.00  0.00    -0.646 OA
ENDBRANCH  27  29
BRANCH  27  32
ATOM     32  N05 HKS d   1      -9.766 -27.197  -9.421  0.00  0.00    -0.065 N 
ATOM     33  H9  HKS d   1      -9.564 -26.870  -8.489  0.00  0.00     0.275 HD
ATOM     34  H10 HKS d   1     -10.728 -26.997  -9.646  0.00  0.00     0.275 HD
ATOM     35  H11 HKS d   1      -9.163 -26.729 -10.079  0.00  0.00     0.275 HD
ENDBRANCH  27  32
ENDBRANCH  24  27
ENDBRANCH   1  24
BRANCH   5  36
ATOM     36  O20 HKS d   1     -13.548 -25.928 -12.670  0.00  0.00    -0.358 OA
ATOM     37  H16 HKS d   1     -14.493 -25.968 -12.762  0.00  0.00     0.217 HD
ENDBRANCH   5  36
TORSDOF 11
