REMARK  11 active torsions:
REMARK  status: ('A' for Active; 'I' for Inactive)
REMARK    1  A    between atoms: C17_25  and  N3_3 
REMARK    2  A    between atoms: C11_5  and  C3_15 
REMARK       I    between atoms: C6_6  and  N1_12 
REMARK    3  A    between atoms: O_47  and  C6_6 
REMARK    4  A    between atoms: N1_12  and  C7_7 
REMARK    5  A    between atoms: C14_21  and  N2_11 
REMARK    6  A    between atoms: C5_13  and  O_47 
REMARK    7  A    between atoms: C3_15  and  C4_14 
REMARK    8  A    between atoms: C15_24  and  C14_21 
REMARK    9  A    between atoms: S_22  and  C21_28 
REMARK   10  A    between atoms: C20_30  and  S_22 
REMARK   11  A    between atoms: N_39  and  C_40 
ROOT
ATOM      1  C13 HL7 d   1     -18.381  10.302 -23.048  0.00  0.00     0.084 C 
ATOM      2  C12 HL7 d   1     -19.137   9.292 -22.194  0.00  0.00    -0.038 C 
ATOM      3  C11 HL7 d   1     -19.067   9.701 -20.718  0.00  0.00    -0.038 C 
ATOM      4  N2  HL7 d   1     -16.964  10.359 -22.670  0.00  0.00    -0.071 N 
ATOM      5  C29 HL7 d   1     -16.848  10.785 -21.264  0.00  0.00     0.084 C 
ATOM      6  C30 HL7 d   1     -17.592   9.841 -20.320  0.00  0.00    -0.038 C 
ATOM      7  H1  HL7 d   1     -18.830  11.297 -22.910  0.00  0.00     0.076 H 
ATOM      8  H2  HL7 d   1     -18.459  10.008 -24.105  0.00  0.00     0.076 H 
ATOM      9  H3  HL7 d   1     -18.684   8.297 -22.319  0.00  0.00     0.036 H 
ATOM     10  H4  HL7 d   1     -20.189   9.259 -22.514  0.00  0.00     0.036 H 
ATOM     11  H5  HL7 d   1     -19.458  10.729 -20.689  0.00  0.00     0.042 H 
ATOM     12  H15 HL7 d   1     -16.527   9.461 -22.805  0.00  0.00     0.279 HD
ATOM     13  H38 HL7 d   1     -17.270  11.796 -21.162  0.00  0.00     0.076 H 
ATOM     14  H39 HL7 d   1     -15.784  10.802 -20.984  0.00  0.00     0.076 H 
ATOM     15  H40 HL7 d   1     -17.116   8.850 -20.356  0.00  0.00     0.036 H 
ATOM     16  H41 HL7 d   1     -17.534  10.239 -19.296  0.00  0.00     0.036 H 
ENDROOT
BRANCH   3  17
ATOM     17  C3  HL7 d   1     -20.046   8.913 -19.730  0.00  0.00     0.021 C 
ATOM     18  C2  HL7 d   1     -19.476   7.409 -19.623  0.00  0.00     0.095 C 
ATOM     19  N   HL7 d   1     -18.558   7.251 -18.510  0.00  0.00    -0.070 N 
ATOM     20  H21 HL7 d   1     -18.948   7.163 -20.556  0.00  0.00     0.077 H 
ATOM     21  H22 HL7 d   1     -20.321   6.718 -19.486  0.00  0.00     0.077 H 
ATOM     22  C1  HL7 d   1     -19.230   7.504 -17.236  0.00  0.00     0.107 C 
ATOM     23  H42 HL7 d   1     -17.823   7.933 -18.614  0.00  0.00     0.279 HD
ATOM     24  C32 HL7 d   1     -19.714   8.940 -17.171  0.00  0.00    -0.025 A 
ATOM     25  H23 HL7 d   1     -18.525   7.321 -16.412  0.00  0.00     0.083 H 
ATOM     26  H24 HL7 d   1     -20.091   6.826 -17.139  0.00  0.00     0.083 H 
ATOM     27  C31 HL7 d   1     -20.071   9.642 -18.335  0.00  0.00    -0.039 A 
ATOM     28  C33 HL7 d   1     -19.789   9.588 -15.938  0.00  0.00    -0.075 A 
ATOM     29  C36 HL7 d   1     -20.460  10.977 -18.230  0.00  0.00    -0.075 A 
ATOM     30  C35 HL7 d   1     -20.528  11.602 -16.996  0.00  0.00    -0.082 A 
ATOM     31  H46 HL7 d   1     -20.712  11.533 -19.126  0.00  0.00     0.084 H 
ATOM     32  C34 HL7 d   1     -20.198  10.909 -15.852  0.00  0.00    -0.082 A 
ATOM     33  H47 HL7 d   1     -20.841  12.638 -16.930  0.00  0.00     0.083 H 
ATOM     34  H48 HL7 d   1     -20.258  11.397 -14.886  0.00  0.00     0.083 H 
ATOM     35  H49 HL7 d   1     -19.524   9.051 -15.035  0.00  0.00     0.084 H 
BRANCH  17  36
ATOM     36  C4  HL7 d   1     -21.542   8.650 -20.273  0.00  0.00    -0.015 C 
ATOM     37  C10 HL7 d   1     -22.384   7.682 -19.429  0.00  0.00    -0.058 C 
ATOM     38  C9  HL7 d   1     -23.765   7.788 -20.020  0.00  0.00    -0.062 C 
ATOM     39  H9  HL7 d   1     -22.000   6.654 -19.514  0.00  0.00     0.033 H 
ATOM     40  H10 HL7 d   1     -22.387   7.986 -18.372  0.00  0.00     0.033 H 
ATOM     41  C8  HL7 d   1     -23.859   9.146 -20.708  0.00  0.00    -0.040 C 
ATOM     42  H11 HL7 d   1     -24.522   7.715 -19.225  0.00  0.00     0.033 H 
ATOM     43  H12 HL7 d   1     -23.924   6.983 -20.752  0.00  0.00     0.033 H 
ATOM     44  C5  HL7 d   1     -22.511   9.818 -20.485  0.00  0.00     0.054 C 
ATOM     45  H13 HL7 d   1     -24.665   9.747 -20.261  0.00  0.00     0.036 H 
ATOM     46  H14 HL7 d   1     -24.050   9.018 -21.784  0.00  0.00     0.036 H 
ATOM     47  H17 HL7 d   1     -22.529  10.480 -19.607  0.00  0.00     0.085 H 
ATOM     48  H18 HL7 d   1     -21.391   8.187 -21.259  0.00  0.00     0.045 H 
BRANCH  44  49
ATOM     49  O   HL7 d   1     -22.166  10.579 -21.682  0.00  0.00    -0.298 OA
BRANCH  49  50
ATOM     50  C6  HL7 d   1     -22.079  11.931 -21.574  0.00  0.00     0.360 C 
ATOM     51  O1  HL7 d   1     -22.194  12.545 -20.531  0.00  0.00    -0.239 OA
ATOM     52  N1  HL7 d   1     -21.845  12.447 -22.772  0.00  0.00    -0.341 N 
ATOM     53  H16 HL7 d   1     -21.755  13.439 -22.862  0.00  0.00     0.164 HD
BRANCH  52  54
ATOM     54  C7  HL7 d   1     -21.715  11.620 -23.959  0.00  0.00    -0.016 C 
ATOM     55  H6  HL7 d   1     -21.524  12.260 -24.833  0.00  0.00     0.056 H 
ATOM     56  H7  HL7 d   1     -22.645  11.054 -24.115  0.00  0.00     0.056 H 
ATOM     57  H8  HL7 d   1     -20.877  10.919 -23.828  0.00  0.00     0.056 H 
ENDBRANCH  52  54
ENDBRANCH  49  50
ENDBRANCH  44  49
ENDBRANCH  17  36
BRANCH  19  58
ATOM     58  C   HL7 d   1     -17.948   5.930 -18.524  0.00  0.00     0.067 C 
ATOM     59  H43 HL7 d   1     -17.451   5.766 -19.491  0.00  0.00     0.068 H 
ATOM     60  H44 HL7 d   1     -18.725   5.166 -18.377  0.00  0.00     0.068 H 
ATOM     61  H45 HL7 d   1     -17.207   5.860 -17.714  0.00  0.00     0.068 H 
ENDBRANCH  19  58
ENDBRANCH   3  17
BRANCH   4  62
ATOM     62  C14 HL7 d   1     -16.317  11.385 -23.495  0.00  0.00     0.090 C 
ATOM     63  H25 HL7 d   1     -15.502  11.841 -22.914  0.00  0.00     0.076 H 
ATOM     64  H26 HL7 d   1     -17.062  12.154 -23.748  0.00  0.00     0.076 H 
BRANCH  62  65
ATOM     65  C15 HL7 d   1     -15.746  10.832 -24.770  0.00  0.00     0.000 C 
ATOM     66  C16 HL7 d   1     -14.994  11.905 -25.613  0.00  0.00     0.002 C 
ATOM     67  N3  HL7 d   1     -13.809  11.058 -25.524  0.00  0.00    -0.380 N 
ATOM     68  H27 HL7 d   1     -15.384  12.042 -26.633  0.00  0.00     0.065 H 
ATOM     69  H28 HL7 d   1     -14.895  12.885 -25.123  0.00  0.00     0.065 H 
ATOM     70  C28 HL7 d   1     -14.395  10.080 -24.597  0.00  0.00     0.002 C 
ATOM     71  H36 HL7 d   1     -13.981  10.108 -23.578  0.00  0.00     0.065 H 
ATOM     72  H37 HL7 d   1     -14.396   9.043 -24.964  0.00  0.00     0.065 H 
ATOM     73  H29 HL7 d   1     -16.518  10.269 -25.315  0.00  0.00     0.047 H 
BRANCH  67  74
ATOM     74  C17 HL7 d   1     -12.581  11.198 -26.125  0.00  0.00     0.030 A 
ATOM     75  C18 HL7 d   1     -12.462  11.847 -27.355  0.00  0.00    -0.056 A 
ATOM     76  C19 HL7 d   1     -11.221  12.054 -27.926  0.00  0.00    -0.060 A 
ATOM     77  H30 HL7 d   1     -13.353  12.192 -27.868  0.00  0.00     0.087 H 
ATOM     78  C20 HL7 d   1     -10.086  11.611 -27.268  0.00  0.00     0.064 A 
ATOM     79  H32 HL7 d   1     -11.136  12.559 -28.881  0.00  0.00     0.085 H 
ATOM     80  C26 HL7 d   1     -10.183  10.946 -26.056  0.00  0.00    -0.060 A 
ATOM     81  C27 HL7 d   1     -11.427  10.740 -25.491  0.00  0.00    -0.056 A 
ATOM     82  H34 HL7 d   1      -9.290  10.590 -25.555  0.00  0.00     0.085 H 
ATOM     83  H35 HL7 d   1     -11.506  10.217 -24.545  0.00  0.00     0.087 H 
BRANCH  78  84
ATOM     84  S   HL7 d   1      -8.501  11.893 -27.978  0.00  0.00     0.206 S 
ATOM     85  O2  HL7 d   1      -8.573  13.092 -28.770  0.00  0.00    -0.217 OA
ATOM     86  O3  HL7 d   1      -7.519  11.809 -26.928  0.00  0.00    -0.217 OA
BRANCH  84  87
ATOM     87  C21 HL7 d   1      -8.265  10.528 -29.066  0.00  0.00     0.067 A 
ATOM     88  C22 HL7 d   1      -8.868  10.537 -30.316  0.00  0.00    -0.045 A 
ATOM     89  C23 HL7 d   1      -8.745   9.392 -31.084  0.00  0.00     0.003 A 
ATOM     90  H31 HL7 d   1      -9.412  11.403 -30.675  0.00  0.00     0.088 H 
ATOM     91  N4  HL7 d   1      -8.087   8.294 -30.689  0.00  0.00    -0.273 NA
ATOM     92  H19 HL7 d   1      -9.209   9.383 -32.064  0.00  0.00     0.114 H 
ATOM     93  C24 HL7 d   1      -7.507   8.327 -29.482  0.00  0.00     0.003 A 
ATOM     94  C25 HL7 d   1      -7.555   9.417 -28.630  0.00  0.00    -0.045 A 
ATOM     95  H20 HL7 d   1      -6.967   7.447 -29.152  0.00  0.00     0.114 H 
ATOM     96  H33 HL7 d   1      -7.060   9.404 -27.666  0.00  0.00     0.088 H 
ENDBRANCH  84  87
ENDBRANCH  78  84
ENDBRANCH  67  74
ENDBRANCH  62  65
ENDBRANCH   4  62
TORSDOF 11
