REMARK  4 active torsions:
REMARK  status: ('A' for Active; 'I' for Inactive)
REMARK    1  A    between atoms: CAL_2  and  CAQ_4 
REMARK    2  A    between atoms: CAO_6  and  OAE_7 
REMARK    3  A    between atoms: CAN_11  and  CAP_12 
REMARK    4  A    between atoms: CAM_17  and  CAA_18 
ROOT
ATOM      1  CAQ HNS d   1     -19.113  16.372 134.166  0.00  0.00     0.147 A 
ATOM      2  NAK HNS d   1     -20.111  16.672 135.114  0.00  0.00    -0.242 NA
ATOM      3  CAO HNS d   1     -19.349  16.726 132.811  0.00  0.00     0.145 A 
ATOM      4  CAR HNS d   1     -20.551  17.366 132.407  0.00  0.00     0.186 A 
ATOM      5  OAC HNS d   1     -20.803  17.695 131.239  0.00  0.00    -0.290 OA
ATOM      6  CAJ HNS d   1     -21.512  17.643 133.376  0.00  0.00    -0.007 A 
ATOM      7  CAN HNS d   1     -21.307  17.297 134.719  0.00  0.00     0.071 A 
ATOM      8  H1  HNS d   1     -18.886  17.708 132.990  0.00  0.00     0.106 H 
ATOM      9  H3  HNS d   1     -22.438  18.137 133.086  0.00  0.00     0.092 H 
ENDROOT
BRANCH   7  10
ATOM     10  CAP HNS d   1     -22.296  17.580 135.663  0.00  0.00    -0.001 A 
ATOM     11  CAI HNS d   1     -22.057  18.543 136.648  0.00  0.00    -0.070 A 
ATOM     12  CAG HNS d   1     -23.032  18.866 137.601  0.00  0.00    -0.082 A 
ATOM     13  H4  HNS d   1     -21.099  19.049 136.675  0.00  0.00     0.084 H 
ATOM     14  CAF HNS d   1     -24.253  18.204 137.577  0.00  0.00    -0.082 A 
ATOM     15  H5  HNS d   1     -22.835  19.625 138.350  0.00  0.00     0.083 H 
ATOM     16  CAH HNS d   1     -24.480  17.238 136.598  0.00  0.00    -0.076 A 
ATOM     17  H6  HNS d   1     -25.018  18.435 138.309  0.00  0.00     0.083 H 
ATOM     18  CAM HNS d   1     -23.524  16.922 135.637  0.00  0.00    -0.050 A 
ATOM     19  H7  HNS d   1     -25.430  16.717 136.585  0.00  0.00     0.084 H 
BRANCH  18  20
ATOM     20  CAA HNS d   1     -23.854  15.948 134.692  0.00  0.00    -0.050 C 
ATOM     21  H8  HNS d   1     -23.009  15.805 134.003  0.00  0.00     0.033 H 
ATOM     22  H9  HNS d   1     -24.739  16.272 134.125  0.00  0.00     0.033 H 
ATOM     23  H10 HNS d   1     -24.074  15.000 135.204  0.00  0.00     0.033 H 
ENDBRANCH  18  20
ENDBRANCH   7  10
BRANCH   1  24
ATOM     24  CAL HNS d   1     -17.944  15.740 134.630  0.00  0.00     0.227 C 
ATOM     25  OAB HNS d   1     -16.980  15.575 133.856  0.00  0.00    -0.643 OA
ATOM     26  OAD HNS d   1     -17.836  15.326 135.820  0.00  0.00    -0.643 OA
ENDBRANCH   1  24
BRANCH   3  27
ATOM     27  OAE HNS d   1     -18.400  16.441 131.858  0.00  0.00    -0.381 OA
ATOM     28  H2  HNS d   1     -18.251  15.503 131.831  0.00  0.00     0.211 HD
ENDBRANCH   3  27
TORSDOF 4
