REMARK  5 active torsions:
REMARK  status: ('A' for Active; 'I' for Inactive)
REMARK    1  A    between atoms: C8_5  and  O1_10 
REMARK    2  A    between atoms: O1_10  and  C1_11 
REMARK    3  A    between atoms: C12_18  and  O4_19 
REMARK    4  A    between atoms: C4_20  and  S1_21 
REMARK    5  A    between atoms: S1_21  and  C16_22 
ROOT
ATOM      1  N1  MOL d   1     173.360-123.196 170.364  0.00  0.00    -0.191 NA
ATOM      2  C17 MOL d   1     174.023-122.557 169.697  0.00  0.00     0.099 C 
ATOM      3  C6  MOL d   1     174.897-121.791 168.740  0.00  0.00     0.050 A 
ATOM      4  C7  MOL d   1     175.364-122.607 167.578  0.00  0.00    -0.030 A 
ATOM      5  C8  MOL d   1     176.222-121.995 166.541  0.00  0.00     0.080 A 
ATOM      6  C9  MOL d   1     176.656-120.559 166.651  0.00  0.00    -0.013 A 
ATOM      7  C10 MOL d   1     176.183-119.717 167.824  0.00  0.00     0.120 A 
ATOM      8  F1  MOL d   1     176.575-118.427 167.932  0.00  0.00    -0.206 F 
ATOM      9  C5  MOL d   1     175.291-120.327 168.889  0.00  0.00    -0.025 A 
ATOM     10  H1  MOL d   1     175.073-123.648 167.495  0.00  0.00     0.090 H 
ATOM     11  H2  MOL d   1     177.303-120.127 165.897  0.00  0.00     0.092 H 
ATOM     12  H3  MOL d   1     174.944-119.739 169.731  0.00  0.00     0.090 H 
ENDROOT
BRANCH   5  13
ATOM     13  O1  MOL d   1     176.642-122.876 165.563  0.00  0.00    -0.310 OA
BRANCH  13  14
ATOM     14  C1  MOL d   1     175.956-122.736 164.398  0.00  0.00     0.083 A 
ATOM     15  C14 MOL d   1     176.553-123.467 163.208  0.00  0.00    -0.008 A 
ATOM     16  C15 MOL d   1     177.734-124.323 163.098  0.00  0.00     0.026 C 
ATOM     17  C13 MOL d   1     175.841-123.349 161.931  0.00  0.00     0.007 A 
ATOM     18  C11 MOL d   1     177.905-124.413 161.586  0.00  0.00     0.277 C 
ATOM     19  H4  MOL d   1     177.555-125.314 163.542  0.00  0.00     0.049 H 
ATOM     20  H5  MOL d   1     178.611-123.861 163.575  0.00  0.00     0.049 H 
ATOM     21  F3  MOL d   1     178.745-123.422 161.328  0.00  0.00    -0.203 F 
ATOM     22  F2  MOL d   1     178.153-125.678 161.248  0.00  0.00    -0.203 F 
ATOM     23  C12 MOL d   1     176.560-124.133 160.935  0.00  0.00     0.126 C 
ATOM     24  H6  MOL d   1     176.640-123.610 159.971  0.00  0.00     0.100 H 
ATOM     25  C4  MOL d   1     174.575-122.497 161.873  0.00  0.00     0.068 A 
ATOM     26  C3  MOL d   1     173.987-121.774 163.065  0.00  0.00    -0.059 A 
ATOM     27  C2  MOL d   1     174.705-121.888 164.392  0.00  0.00    -0.048 A 
ATOM     28  H11 MOL d   1     173.078-121.191 162.971  0.00  0.00     0.086 H 
ATOM     29  H12 MOL d   1     174.344-121.391 165.285  0.00  0.00     0.087 H 
BRANCH  23  30
ATOM     30  O4  MOL d   1     175.979-125.384 160.806  0.00  0.00    -0.385 OA
ATOM     31  H7  MOL d   1     176.454-125.887 160.155  0.00  0.00     0.210 HD
ENDBRANCH  23  30
BRANCH  25  32
ATOM     32  S1  MOL d   1     173.742-122.307 160.361  0.00  0.00     0.172 S 
ATOM     33  O3  MOL d   1     173.202-123.584 160.007  0.00  0.00    -0.223 OA
ATOM     34  O2  MOL d   1     172.692-121.360 160.584  0.00  0.00    -0.223 OA
BRANCH  32  35
ATOM     35  C16 MOL d   1     174.771-121.609 159.121  0.00  0.00     0.020 C 
ATOM     36  H8  MOL d   1     174.201-121.509 158.185  0.00  0.00     0.049 H 
ATOM     37  H9  MOL d   1     175.639-122.264 158.953  0.00  0.00     0.049 H 
ATOM     38  H10 MOL d   1     175.118-120.617 159.447  0.00  0.00     0.049 H 
ENDBRANCH  32  35
ENDBRANCH  25  32
ENDBRANCH  13  14
ENDBRANCH   5  13
TORSDOF 5
