REMARK  6 active torsions:
REMARK  status: ('A' for Active; 'I' for Inactive)
REMARK    1  A    between atoms: C2_7  and  C1_1 
REMARK    2  A    between atoms: C8_18  and  C10_2 
REMARK    3  A    between atoms: C2_7  and  C14_3 
REMARK    4  A    between atoms: C16_5  and  N17_23 
REMARK    5  A    between atoms: C18_6  and  C20_8 
REMARK       I    between atoms: N17_23  and  C18_6 
REMARK    6  A    between atoms: C4_16  and  N5_26 
ROOT
ATOM      1  C14 HRV d   1     -39.120 -45.592  19.642  0.00  0.00     0.013 A 
ATOM      2  C15 HRV d   1     -37.761 -45.702  19.369  0.00  0.00    -0.046 A 
ATOM      3  C16 HRV d   1     -37.289 -45.646  18.062  0.00  0.00     0.035 A 
ATOM      4  C28 HRV d   1     -38.163 -45.483  16.982  0.00  0.00    -0.054 A 
ATOM      5  C29 HRV d   1     -39.528 -45.368  17.243  0.00  0.00    -0.043 A 
ATOM      6  C30 HRV d   1     -39.993 -45.421  18.556  0.00  0.00     0.125 A 
ATOM      7  F31 HRV d   1     -41.302 -45.291  18.769  0.00  0.00    -0.205 F 
ATOM      8  H4  HRV d   1     -37.060 -45.833  20.186  0.00  0.00     0.088 H 
ATOM      9  H7  HRV d   1     -37.788 -45.447  15.966  0.00  0.00     0.087 H 
ATOM     10  H8  HRV d   1     -40.227 -45.237  16.425  0.00  0.00     0.088 H 
ENDROOT
BRANCH   1  11
ATOM     11  C2  HRV d   1     -39.561 -45.655  21.117  0.00  0.00     0.092 C 
ATOM     12  C8  HRV d   1     -39.467 -44.277  21.834  0.00  0.00     0.160 C 
ATOM     13  O7  HRV d   1     -38.088 -43.916  21.907  0.00  0.00    -0.367 OA
ATOM     14  H11 HRV d   1     -39.894 -44.373  22.843  0.00  0.00     0.101 H 
ATOM     15  C6  HRV d   1     -37.379 -44.716  22.856  0.00  0.00     0.072 C 
ATOM     16  C4  HRV d   1     -37.615 -46.162  22.648  0.00  0.00     0.095 C 
ATOM     17  H9  HRV d   1     -36.302 -44.514  22.757  0.00  0.00     0.086 H 
ATOM     18  H10 HRV d   1     -37.711 -44.444  23.869  0.00  0.00     0.086 H 
ATOM     19  N3  HRV d   1     -38.614 -46.557  21.852  0.00  0.00    -0.362 N 
ATOM     20  H13 HRV d   1     -38.745 -47.572  21.733  0.00  0.00     0.162 HD
BRANCH  11  21
ATOM     21  C1  HRV d   1     -40.946 -46.242  21.283  0.00  0.00    -0.046 C 
ATOM     22  H1  HRV d   1     -40.996 -47.214  20.771  0.00  0.00     0.031 H 
ATOM     23  H2  HRV d   1     -41.689 -45.559  20.845  0.00  0.00     0.031 H 
ATOM     24  H3  HRV d   1     -41.160 -46.380  22.353  0.00  0.00     0.031 H 
ENDBRANCH  11  21
BRANCH  12  25
ATOM     25  C10 HRV d   1     -40.159 -43.143  21.108  0.00  0.00     0.415 C 
ATOM     26  F11 HRV d   1     -40.159 -42.040  21.906  0.00  0.00    -0.168 F 
ATOM     27  F12 HRV d   1     -39.551 -42.826  19.943  0.00  0.00    -0.168 F 
ATOM     28  F13 HRV d   1     -41.436 -43.442  20.816  0.00  0.00    -0.168 F 
ENDBRANCH  12  25
BRANCH  16  29
ATOM     29  N5  HRV d   1     -36.784 -46.976  23.280  0.00  0.00    -0.387 N 
ATOM     30  H14 HRV d   1     -36.888 -47.996  23.182  0.00  0.00     0.157 HD
ATOM     31  H15 HRV d   1     -36.033 -46.589  23.870  0.00  0.00     0.157 HD
ENDBRANCH  16  29
ENDBRANCH   1  11
BRANCH   3  32
ATOM     32  N17 HRV d   1     -35.916 -45.764  17.899  0.00  0.00    -0.322 N 
ATOM     33  C18 HRV d   1     -35.244 -45.498  16.741  0.00  0.00     0.276 C 
ATOM     34  O19 HRV d   1     -35.706 -45.184  15.653  0.00  0.00    -0.266 OA
ATOM     35  H12 HRV d   1     -35.380 -46.066  18.687  0.00  0.00     0.169 HD
BRANCH  33  36
ATOM     36  C20 HRV d   1     -33.804 -45.730  16.883  0.00  0.00     0.146 A 
ATOM     37  C26 HRV d   1     -32.862 -44.899  16.283  0.00  0.00     0.070 A 
ATOM     38  C25 HRV d   1     -31.510 -45.198  16.440  0.00  0.00    -0.037 A 
ATOM     39 CL27 HRV d   1     -33.250 -43.503  15.353  0.00  0.00    -0.082 Cl
ATOM     40  C23 HRV d   1     -31.156 -46.310  17.193  0.00  0.00     0.053 A 
ATOM     41  H6  HRV d   1     -30.750 -44.575  15.983  0.00  0.00     0.088 H 
ATOM     42  C22 HRV d   1     -32.165 -47.080  17.756  0.00  0.00     0.024 A 
ATOM     43 CL24 HRV d   1     -29.490 -46.712  17.405  0.00  0.00    -0.083 Cl
ATOM     44  N21 HRV d   1     -33.490 -46.822  17.619  0.00  0.00    -0.252 NA
ATOM     45  H5  HRV d   1     -31.875 -47.944  18.343  0.00  0.00     0.117 H 
ENDBRANCH  33  36
ENDBRANCH   3  32
TORSDOF 6
