REMARK WARNING: 32 MAX_TORS EXCEEDED!!!
REMARK  83 active torsions:
REMARK  status: ('A' for Active; 'I' for Inactive)
REMARK    1  A    between atoms: N_1  and  CA_2 
REMARK    2  A    between atoms: CA_2  and  C_3 
REMARK    3  A    between atoms: CA_2  and  CB_5 
REMARK       I    between atoms: C_3  and  N_9 
REMARK    4  A    between atoms: CB_5  and  CG_6 
REMARK       I    between atoms: CG_6  and  ND2_8 
REMARK    5  A    between atoms: N_9  and  CA_10 
REMARK    6  A    between atoms: CA_10  and  C_11 
REMARK       I    between atoms: C_11  and  N_13 
REMARK    7  A    between atoms: N_13  and  CA_14 
REMARK    8  A    between atoms: CA_14  and  C_15 
REMARK    9  A    between atoms: CA_14  and  CB_17 
REMARK       I    between atoms: C_15  and  N_21 
REMARK   10  A    between atoms: CB_17  and  CG1_18 
REMARK   11  A    between atoms: CB_17  and  CG2_19 
REMARK   12  A    between atoms: CG1_18  and  CD1_20 
REMARK   13  A    between atoms: N_21  and  CA_22 
REMARK   14  A    between atoms: CA_22  and  C_23 
REMARK   15  A    between atoms: CA_22  and  CB_25 
REMARK       I    between atoms: C_23  and  N_26 
REMARK   16  A    between atoms: N_26  and  CA_27 
REMARK   17  A    between atoms: CA_27  and  C_28 
REMARK   18  A    between atoms: CA_27  and  CB_30 
REMARK       I    between atoms: C_28  and  N_31 
REMARK   19  A    between atoms: N_31  and  CA_32 
REMARK   20  A    between atoms: CA_32  and  C_33 
REMARK   21  A    between atoms: CA_32  and  CB_35 
REMARK       I    between atoms: C_33  and  N_39 
REMARK   22  A    between atoms: CB_35  and  CG_36 
REMARK   23  A    between atoms: CG_36  and  SD_37 
REMARK   24  A    between atoms: SD_37  and  CE_38 
REMARK   25  A    between atoms: N_39  and  CA_40 
REMARK   26  A    between atoms: CA_40  and  C_41 
REMARK   27  A    between atoms: CA_40  and  CB_43 
REMARK       I    between atoms: C_41  and  N_47 
REMARK   28  A    between atoms: CB_43  and  CG_44 
REMARK   29  A    between atoms: CG_44  and  CD1_45 
REMARK   30  A    between atoms: CG_44  and  CD2_46 
REMARK   31  A    between atoms: N_47  and  CA_48 
REMARK   32  A    between atoms: CA_48  and  C_49 
REMARK   33  A    between atoms: CA_48  and  CB_51 
REMARK       I    between atoms: C_49  and  N_56 
REMARK   34  A    between atoms: CB_51  and  CG_52 
REMARK   35  A    between atoms: CG_52  and  CD_53 
REMARK       I    between atoms: CD_53  and  NE2_55 
REMARK   36  A    between atoms: N_56  and  CA_57 
REMARK   37  A    between atoms: CA_57  and  C_58 
REMARK   38  A    between atoms: CA_57  and  CB_60 
REMARK       I    between atoms: C_58  and  N_67 
REMARK   39  A    between atoms: CB_60  and  CG_61 
REMARK   40  A    between atoms: CG_61  and  CD_62 
REMARK   41  A    between atoms: CD_62  and  NE_63 
REMARK       I    between atoms: NE_63  and  CZ_64 
REMARK       I    between atoms: CZ_64  and  NH1_65 
REMARK       I    between atoms: CZ_64  and  NH2_66 
REMARK   42  A    between atoms: N_67  and  CA_68 
REMARK   43  A    between atoms: CA_68  and  C_69 
REMARK   44  A    between atoms: CA_68  and  CB_71 
REMARK       I    between atoms: C_69  and  N_77 
REMARK   45  A    between atoms: CB_71  and  CG_72 
REMARK   46  A    between atoms: N_77  and  CA_78 
REMARK   47  A    between atoms: CA_78  and  C_79 
REMARK   48  A    between atoms: CA_78  and  CB_81 
REMARK       I    between atoms: C_79  and  N_83 
REMARK   49  A    between atoms: CB_81  and  OG_82 
REMARK   50  A    between atoms: N_83  and  CA_84 
REMARK   51  A    between atoms: CA_84  and  C_85 
REMARK   52  A    between atoms: CA_84  and  CB_87 
REMARK       I    between atoms: C_85  and  N_94 
REMARK   53  A    between atoms: CB_87  and  CG_88 
REMARK   54  A    between atoms: CG_88  and  CD_89 
REMARK   55  A    between atoms: CD_89  and  NE_90 
REMARK       I    between atoms: NE_90  and  CZ_91 
REMARK       I    between atoms: CZ_91  and  NH1_92 
REMARK       I    between atoms: CZ_91  and  NH2_93 
REMARK   56  A    between atoms: N_94  and  CA_95 
REMARK   57  A    between atoms: CA_95  and  C_96 
REMARK   58  A    between atoms: CA_95  and  CB_98 
REMARK       I    between atoms: C_96  and  N_103 
REMARK   59  A    between atoms: CB_98  and  CG_99 
REMARK   60  A    between atoms: CG_99  and  CD_100 
REMARK   61  A    between atoms: CD_100  and  CE_101 
REMARK   62  A    between atoms: CE_101  and  NZ_102 
REMARK   63  A    between atoms: N_103  and  CA_104 
REMARK   64  A    between atoms: CA_104  and  C_105 
REMARK   65  A    between atoms: CA_104  and  CB_107 
REMARK       I    between atoms: C_105  and  N_114 
REMARK   66  A    between atoms: CB_107  and  CG_108 
REMARK   67  A    between atoms: CG_108  and  CD_109 
REMARK   68  A    between atoms: CD_109  and  NE_110 
REMARK       I    between atoms: NE_110  and  CZ_111 
REMARK       I    between atoms: CZ_111  and  NH1_112 
REMARK   69  A    between atoms: N_114  and  CA_115 
REMARK   70  A    between atoms: CA_115  and  C_116 
REMARK   71  A    between atoms: CA_115  and  CB_118 
REMARK       I    between atoms: C_116  and  N_125 
REMARK   72  A    between atoms: CB_118  and  CG_119 
REMARK   73  A    between atoms: N_125  and  CA_126 
REMARK   74  A    between atoms: CA_126  and  C_127 
REMARK   75  A    between atoms: CA_126  and  CB_129 
REMARK       I    between atoms: C_127  and  N_134 
REMARK   76  A    between atoms: CB_129  and  CG_130 
REMARK   77  A    between atoms: CG_130  and  CD_131 
REMARK       I    between atoms: CD_131  and  NE2_133 
REMARK   78  A    between atoms: N_134  and  CA_135 
REMARK   79  A    between atoms: CA_135  and  C_136 
REMARK   80  A    between atoms: CA_135  and  CB_138 
REMARK   81  A    between atoms: CB_138  and  CG_139 
REMARK   82  A    between atoms: CG_139  and  CD1_140 
REMARK   83  A    between atoms: CG_139  and  CD2_141 
ROOT
ATOM      1  CA  HIS d   1     -38.670  11.509  -5.659  0.00  0.00     0.094 C 
ATOM      2  H75 HIS d   1     -38.415  12.169  -6.501  0.00  0.00     0.088 H 
ENDROOT
BRANCH   1   3
ATOM      3  N   HIS d   1     -37.985  12.044  -4.462  0.00  0.00    -0.346 N 
ATOM      4  C   ARG d   1     -37.370  13.228  -4.434  0.00  0.00     0.241 C 
ATOM      5  O   ARG d   1     -37.210  13.936  -5.439  0.00  0.00    -0.271 OA
ATOM      6  H74 HIS d   1     -37.983  11.489  -3.630  0.00  0.00     0.163 HD
BRANCH   4   7
ATOM      7  CA  ARG d   1     -36.863  13.716  -3.058  0.00  0.00     0.089 C 
ATOM      8  H62 ARG d   1     -37.336  14.700  -2.923  0.00  0.00     0.087 H 
BRANCH   7   9
ATOM      9  N   ARG d   1     -37.310  12.925  -1.887  0.00  0.00    -0.346 N 
ATOM     10  C   GLN d   1     -38.540  13.147  -1.403  0.00  0.00     0.241 C 
ATOM     11  O   GLN d   1     -39.333  13.823  -2.015  0.00  0.00    -0.271 OA
ATOM     12  H61 ARG d   1     -36.709  12.243  -1.469  0.00  0.00     0.163 HD
BRANCH  10  13
ATOM     13  CA  GLN d   1     -39.012  12.603  -0.053  0.00  0.00     0.090 C 
ATOM     14  H54 GLN d   1     -39.658  11.729  -0.222  0.00  0.00     0.087 H 
BRANCH  13  15
ATOM     15  N   GLN d   1     -37.940  12.204   0.848  0.00  0.00    -0.346 N 
ATOM     16  C   LEU d   1     -37.331  11.030   0.745  0.00  0.00     0.241 C 
ATOM     17  O   LEU d   1     -37.570  10.221  -0.167  0.00  0.00    -0.271 OA
ATOM     18  H53 GLN d   1     -37.653  12.836   1.568  0.00  0.00     0.163 HD
BRANCH  16  19
ATOM     19  CA  LEU d   1     -36.247  10.763   1.784  0.00  0.00     0.089 C 
ATOM     20  H43 LEU d   1     -35.633   9.925   1.423  0.00  0.00     0.087 H 
BRANCH  19  21
ATOM     21  N   LEU d   1     -35.369  11.929   1.939  0.00  0.00    -0.346 N 
ATOM     22  C   MET d   1     -34.635  12.363   0.908  0.00  0.00     0.241 C 
ATOM     23  O   MET d   1     -34.667  11.845  -0.190  0.00  0.00    -0.271 OA
ATOM     24  H42 LEU d   1     -35.319  12.401   2.819  0.00  0.00     0.163 HD
BRANCH  22  25
ATOM     25  CA  MET d   1     -33.748  13.572   1.106  0.00  0.00     0.090 C 
ATOM     26  H34 MET d   1     -33.535  14.010   0.120  0.00  0.00     0.087 H 
BRANCH  25  27
ATOM     27  N   MET d   1     -34.467  14.582   1.900  0.00  0.00    -0.346 N 
ATOM     28  C   ALA d   1     -35.570  15.180   1.434  0.00  0.00     0.240 C 
ATOM     29  O   ALA d   1     -36.109  14.883   0.356  0.00  0.00    -0.271 OA
ATOM     30  H33 MET d   1     -34.124  14.826   2.807  0.00  0.00     0.163 HD
BRANCH  28  31
ATOM     31  CA  ALA d   1     -36.199  16.243   2.329  0.00  0.00     0.086 C 
ATOM     32  H29 ALA d   1     -37.191  16.491   1.923  0.00  0.00     0.086 H 
BRANCH  31  33
ATOM     33  N   ALA d   1     -36.374  15.752   3.680  0.00  0.00    -0.346 N 
ATOM     34  C   ALA d   1     -36.968  14.591   3.931  0.00  0.00     0.240 C 
ATOM     35  O   ALA d   1     -37.507  13.905   3.065  0.00  0.00    -0.271 OA
ATOM     36  H28 ALA d   1     -36.038  16.302   4.445  0.00  0.00     0.163 HD
BRANCH  34  37
ATOM     37  CA  ALA d   1     -36.948  14.144   5.380  0.00  0.00     0.086 C 
ATOM     38  H24 ALA d   1     -37.198  13.073   5.418  0.00  0.00     0.086 H 
BRANCH  37  39
ATOM     39  N   ALA d   1     -35.610  14.323   5.955  0.00  0.00    -0.346 N 
ATOM     40  C   ILE d   1     -34.581  13.648   5.452  0.00  0.00     0.241 C 
ATOM     41  O   ILE d   1     -34.704  12.813   4.522  0.00  0.00    -0.271 OA
ATOM     42  H23 ALA d   1     -35.473  14.950   6.722  0.00  0.00     0.163 HD
BRANCH  40  43
ATOM     43  CA  ILE d   1     -33.205  13.942   6.060  0.00  0.00     0.092 C 
ATOM     44  H13 ILE d   1     -32.455  13.672   5.302  0.00  0.00     0.088 H 
BRANCH  43  45
ATOM     45  N   ILE d   1     -33.013  15.382   6.351  0.00  0.00    -0.346 N 
ATOM     46  C   GLY d   1     -33.110  16.314   5.405  0.00  0.00     0.236 C 
ATOM     47  O   GLY d   1     -33.172  16.035   4.215  0.00  0.00    -0.272 OA
ATOM     48  H12 ILE d   1     -32.804  15.663   7.288  0.00  0.00     0.163 HD
BRANCH  46  49
ATOM     49  CA  GLY d   1     -33.145  17.768   5.868  0.00  0.00     0.069 C 
ATOM     50  H10 GLY d   1     -33.994  17.896   6.556  0.00  0.00     0.078 H 
ATOM     51  H11 GLY d   1     -32.207  17.990   6.398  0.00  0.00     0.078 H 
BRANCH  49  52
ATOM     52  N   GLY d   1     -33.292  18.717   4.764  0.00  0.00    -0.351 N 
ATOM     53  C   ASN d   1     -32.241  19.336   4.217  0.00  0.00     0.249 C 
ATOM     54  O   ASN d   1     -31.166  19.481   4.797  0.00  0.00    -0.271 OA
ATOM     55  H9  GLY d   1     -34.207  18.908   4.408  0.00  0.00     0.163 HD
BRANCH  53  56
ATOM     56  CA  ASN d   1     -32.421  19.903   2.808  0.00  0.00     0.183 C 
ATOM     57  H4  ASN d   1     -33.446  19.683   2.475  0.00  0.00     0.099 H 
BRANCH  56  58
ATOM     58  N   ASN d   1     -32.231  21.382   2.776  0.00  0.00    -0.066 N 
ATOM     59  H1  ASN d   1     -32.357  21.717   1.834  0.00  0.00     0.275 HD
ATOM     60  H2  ASN d   1     -31.301  21.608   3.091  0.00  0.00     0.275 HD
ATOM     61  H3  ASN d   1     -32.907  21.821   3.382  0.00  0.00     0.275 HD
ENDBRANCH  56  58
BRANCH  56  62
ATOM     62  CB  ASN d   1     -31.431  19.209   1.847  0.00  0.00     0.044 C 
ATOM     63  H5  ASN d   1     -31.059  18.292   2.328  0.00  0.00     0.051 H 
ATOM     64  H6  ASN d   1     -30.589  19.891   1.657  0.00  0.00     0.051 H 
BRANCH  62  65
ATOM     65  CG  ASN d   1     -32.067  18.835   0.509  0.00  0.00     0.217 C 
ATOM     66  OD1 ASN d   1     -32.873  17.899   0.423  0.00  0.00    -0.274 OA
ATOM     67  ND2 ASN d   1     -31.691  19.554  -0.548  0.00  0.00    -0.370 N 
ATOM     68  H7  ASN d   1     -32.074  19.355  -1.450  0.00  0.00     0.159 HD
ATOM     69  H8  ASN d   1     -31.026  20.293  -0.439  0.00  0.00     0.159 HD
ENDBRANCH  62  65
ENDBRANCH  56  62
ENDBRANCH  53  56
ENDBRANCH  49  52
ENDBRANCH  46  49
ENDBRANCH  43  45
BRANCH  43  70
ATOM     70  CB  ILE d   1     -32.941  13.039   7.299  0.00  0.00    -0.030 C 
ATOM     71  H14 ILE d   1     -31.898  13.198   7.612  0.00  0.00     0.043 H 
BRANCH  70  72
ATOM     72  CG1 ILE d   1     -33.130  11.550   6.970  0.00  0.00    -0.063 C 
ATOM     73  H15 ILE d   1     -34.119  11.423   6.506  0.00  0.00     0.033 H 
ATOM     74  H16 ILE d   1     -33.091  10.982   7.911  0.00  0.00     0.033 H 
BRANCH  72  75
ATOM     75  CD1 ILE d   1     -32.093  10.980   6.032  0.00  0.00    -0.076 C 
ATOM     76  H20 ILE d   1     -32.306   9.916   5.854  0.00  0.00     0.027 H 
ATOM     77  H21 ILE d   1     -31.095  11.084   6.482  0.00  0.00     0.027 H 
ATOM     78  H22 ILE d   1     -32.123  11.525   5.077  0.00  0.00     0.027 H 
ENDBRANCH  72  75
ENDBRANCH  70  72
BRANCH  70  79
ATOM     79  CG2 ILE d   1     -33.846  13.377   8.464  0.00  0.00    -0.071 C 
ATOM     80  H17 ILE d   1     -33.731  14.440   8.721  0.00  0.00     0.028 H 
ATOM     81  H18 ILE d   1     -33.574  12.758   9.332  0.00  0.00     0.028 H 
ATOM     82  H19 ILE d   1     -34.892  13.178   8.186  0.00  0.00     0.028 H 
ENDBRANCH  70  79
ENDBRANCH  43  70
ENDBRANCH  40  43
ENDBRANCH  37  39
BRANCH  37  83
ATOM     83  CB  ALA d   1     -37.989  14.902   6.165  0.00  0.00    -0.049 C 
ATOM     84  H25 ALA d   1     -38.978  14.747   5.708  0.00  0.00     0.030 H 
ATOM     85  H26 ALA d   1     -37.746  15.975   6.156  0.00  0.00     0.030 H 
ATOM     86  H27 ALA d   1     -38.003  14.537   7.203  0.00  0.00     0.030 H 
ENDBRANCH  37  83
ENDBRANCH  34  37
ENDBRANCH  31  33
BRANCH  31  87
ATOM     87  CB  ALA d   1     -35.354  17.502   2.329  0.00  0.00    -0.049 C 
ATOM     88  H30 ALA d   1     -35.231  17.861   1.296  0.00  0.00     0.030 H 
ATOM     89  H31 ALA d   1     -34.367  17.281   2.760  0.00  0.00     0.030 H 
ATOM     90  H32 ALA d   1     -35.851  18.277   2.930  0.00  0.00     0.030 H 
ENDBRANCH  31  87
ENDBRANCH  28  31
ENDBRANCH  25  27
BRANCH  25  91
ATOM     91  CB  MET d   1     -32.408  13.153   1.725  0.00  0.00    -0.030 C 
ATOM     92  H35 MET d   1     -31.950  12.388   1.081  0.00  0.00     0.037 H 
ATOM     93  H36 MET d   1     -32.601  12.727   2.720  0.00  0.00     0.037 H 
BRANCH  91  94
ATOM     94  CG  MET d   1     -31.432  14.303   1.875  0.00  0.00    -0.021 C 
ATOM     95  H37 MET d   1     -31.999  15.174   2.235  0.00  0.00     0.049 H 
ATOM     96  H38 MET d   1     -31.020  14.520   0.879  0.00  0.00     0.049 H 
BRANCH  94  97
ATOM     97  SD  MET d   1     -30.043  14.057   2.996  0.00  0.00    -0.173 SA
BRANCH  97  98
ATOM     98  CE  MET d   1     -29.343  12.611   2.157  0.00  0.00    -0.035 C 
ATOM     99  H39 MET d   1     -28.444  12.275   2.695  0.00  0.00     0.041 H 
ATOM    100  H40 MET d   1     -29.074  12.880   1.125  0.00  0.00     0.041 H 
ATOM    101  H41 MET d   1     -30.086  11.800   2.142  0.00  0.00     0.041 H 
ENDBRANCH  97  98
ENDBRANCH  94  97
ENDBRANCH  91  94
ENDBRANCH  25  91
ENDBRANCH  22  25
ENDBRANCH  19  21
BRANCH  19 102
ATOM    102  CB  LEU d   1     -36.858  10.351   3.119  0.00  0.00    -0.035 C 
ATOM    103  H44 LEU d   1     -37.600   9.561   2.932  0.00  0.00     0.037 H 
ATOM    104  H45 LEU d   1     -37.358  11.227   3.557  0.00  0.00     0.037 H 
BRANCH 102 105
ATOM    105  CG  LEU d   1     -35.835   9.824   4.127  0.00  0.00    -0.059 C 
ATOM    106  H46 LEU d   1     -34.964  10.495   4.106  0.00  0.00     0.038 H 
BRANCH 105 107
ATOM    107  CD1 LEU d   1     -36.427   9.854   5.525  0.00  0.00    -0.073 C 
ATOM    108  H47 LEU d   1     -35.687   9.474   6.245  0.00  0.00     0.028 H 
ATOM    109  H48 LEU d   1     -37.327   9.222   5.556  0.00  0.00     0.028 H 
ATOM    110  H49 LEU d   1     -36.696  10.888   5.787  0.00  0.00     0.028 H 
ENDBRANCH 105 107
BRANCH 105 111
ATOM    111  CD2 LEU d   1     -35.349   8.419   3.785  0.00  0.00    -0.073 C 
ATOM    112  H50 LEU d   1     -34.924   8.415   2.771  0.00  0.00     0.028 H 
ATOM    113  H51 LEU d   1     -36.195   7.717   3.831  0.00  0.00     0.028 H 
ATOM    114  H52 LEU d   1     -34.578   8.112   4.507  0.00  0.00     0.028 H 
ENDBRANCH 105 111
ENDBRANCH 102 105
ENDBRANCH  19 102
ENDBRANCH  16  19
ENDBRANCH  13  15
BRANCH  13 115
ATOM    115  CB  GLN d   1     -39.830  13.752   0.564  0.00  0.00    -0.030 C 
ATOM    116  H55 GLN d   1     -40.514  14.114  -0.217  0.00  0.00     0.037 H 
ATOM    117  H56 GLN d   1     -39.118  14.548   0.825  0.00  0.00     0.037 H 
BRANCH 115 118
ATOM    118  CG  GLN d   1     -40.667  13.488   1.795  0.00  0.00     0.011 C 
ATOM    119  H57 GLN d   1     -40.023  13.068   2.582  0.00  0.00     0.047 H 
ATOM    120  H58 GLN d   1     -41.457  12.765   1.543  0.00  0.00     0.047 H 
BRANCH 118 121
ATOM    121  CD  GLN d   1     -41.318  14.778   2.317  0.00  0.00     0.215 C 
ATOM    122  OE1 GLN d   1     -42.476  14.779   2.725  0.00  0.00    -0.274 OA
ATOM    123  NE2 GLN d   1     -40.569  15.884   2.293  0.00  0.00    -0.370 N 
ATOM    124  H59 GLN d   1     -40.946  16.750   2.622  0.00  0.00     0.159 HD
ATOM    125  H60 GLN d   1     -39.632  15.846   1.946  0.00  0.00     0.159 HD
ENDBRANCH 118 121
ENDBRANCH 115 118
ENDBRANCH  13 115
ENDBRANCH  10  13
ENDBRANCH   7   9
BRANCH   7 126
ATOM    126  CB  ARG d   1     -35.350  13.994  -3.047  0.00  0.00    -0.036 C 
ATOM    127  H63 ARG d   1     -34.992  13.833  -2.020  0.00  0.00     0.036 H 
ATOM    128  H64 ARG d   1     -35.205  15.048  -3.325  0.00  0.00     0.036 H 
BRANCH 126 129
ATOM    129  CG  ARG d   1     -34.480  13.152  -3.973  0.00  0.00    -0.048 C 
ATOM    130  H65 ARG d   1     -33.950  13.829  -4.659  0.00  0.00     0.035 H 
ATOM    131  H66 ARG d   1     -35.136  12.485  -4.551  0.00  0.00     0.035 H 
BRANCH 129 132
ATOM    132  CD  ARG d   1     -33.451  12.302  -3.254  0.00  0.00     0.009 C 
ATOM    133  H67 ARG d   1     -33.218  12.764  -2.284  0.00  0.00     0.064 H 
ATOM    134  H68 ARG d   1     -32.537  12.251  -3.865  0.00  0.00     0.064 H 
BRANCH 132 135
ATOM    135  NE  ARG d   1     -33.951  10.946  -3.029  0.00  0.00    -0.227 N 
ATOM    136  CZ  ARG d   1     -33.207   9.847  -3.057  0.00  0.00     0.665 C 
ATOM    137  NH1 ARG d   1     -33.777   8.664  -2.847  0.00  0.00    -0.235 N 
ATOM    138  NH2 ARG d   1     -31.900   9.911  -3.298  0.00  0.00    -0.235 N 
ATOM    139  H70 ARG d   1     -33.206   7.807  -2.867  0.00  0.00     0.174 HD
ATOM    140  H71 ARG d   1     -34.789   8.605  -2.664  0.00  0.00     0.174 HD
ATOM    141  H72 ARG d   1     -31.451  10.823  -3.462  0.00  0.00     0.174 HD
ATOM    142  H73 ARG d   1     -31.338   9.048  -3.321  0.00  0.00     0.174 HD
ATOM    143  H69 ARG d   1     -34.956  10.835  -2.834  0.00  0.00     0.177 HD
ENDBRANCH 132 135
ENDBRANCH 129 132
ENDBRANCH 126 129
ENDBRANCH   7 126
ENDBRANCH   4   7
ENDBRANCH   1   3
BRANCH   1 144
ATOM    144  C   HIS d   1     -40.227  11.558  -5.505  0.00  0.00     0.241 C 
ATOM    145  O   HIS d   1     -40.928  11.994  -6.426  0.00  0.00    -0.271 OA
ATOM    146  N   SER d   1     -40.741  11.170  -4.331  0.00  0.00    -0.344 N 
ATOM    147  H81 SER d   1     -40.110  10.860  -3.620  0.00  0.00     0.163 HD
BRANCH 146 148
ATOM    148  CA  SER d   1     -42.192  11.174  -4.024  0.00  0.00     0.109 C 
ATOM    149  H82 SER d   1     -42.705  10.764  -4.907  0.00  0.00     0.090 H 
BRANCH 148 150
ATOM    150  C   SER d   1     -42.802  12.590  -3.773  0.00  0.00     0.243 C 
ATOM    151  O   SER d   1     -44.001  12.741  -3.557  0.00  0.00    -0.271 OA
ATOM    152  N   ARG d   1     -41.946  13.605  -3.760  0.00  0.00    -0.346 N 
ATOM    153  H86 ARG d   1     -40.970  13.390  -3.724  0.00  0.00     0.163 HD
BRANCH 152 154
ATOM    154  CA  ARG d   1     -42.331  15.020  -3.795  0.00  0.00     0.089 C 
ATOM    155  H87 ARG d   1     -43.034  15.212  -2.971  0.00  0.00     0.087 H 
BRANCH 154 156
ATOM    156  C   ARG d   1     -42.999  15.460  -5.124  0.00  0.00     0.241 C 
ATOM    157  O   ARG d   1     -43.843  16.377  -5.142  0.00  0.00    -0.271 OA
ATOM    158  N   LYS d   1     -42.580  14.829  -6.226  0.00  0.00    -0.346 N 
ATOM    159  H99 LYS d   1     -41.857  14.144  -6.132  0.00  0.00     0.163 HD
BRANCH 158 160
ATOM    160  CA  LYS d   1     -43.122  15.085  -7.567  0.00  0.00     0.089 C 
ATOM    161 0H10 LYS d   1     -43.462  16.131  -7.592  0.00  0.00     0.087 H 
BRANCH 160 162
ATOM    162  C   LYS d   1     -44.332  14.199  -7.910  0.00  0.00     0.241 C 
ATOM    163  O   LYS d   1     -45.072  14.484  -8.839  0.00  0.00    -0.271 OA
ATOM    164  N   ARG d   1     -44.488  13.101  -7.179  0.00  0.00    -0.346 N 
ATOM    165 2H11 ARG d   1     -43.723  12.806  -6.606  0.00  0.00     0.163 HD
BRANCH 164 166
ATOM    166  CA  ARG d   1     -45.709  12.298  -7.160  0.00  0.00     0.089 C 
ATOM    167 3H11 ARG d   1     -46.065  12.152  -8.191  0.00  0.00     0.087 H 
BRANCH 166 168
ATOM    168  C   ARG d   1     -46.823  12.989  -6.327  0.00  0.00     0.241 C 
ATOM    169  O   ARG d   1     -46.597  13.470  -5.204  0.00  0.00    -0.271 OA
ATOM    170  N   PHE d   1     -48.039  12.985  -6.838  0.00  0.00    -0.346 N 
ATOM    171 5H12 PHE d   1     -48.186  12.678  -7.778  0.00  0.00     0.163 HD
BRANCH 170 172
ATOM    172  CA  PHE d   1     -49.162  13.427  -6.034  0.00  0.00     0.093 C 
ATOM    173 6H12 PHE d   1     -48.856  14.320  -5.470  0.00  0.00     0.088 H 
BRANCH 172 174
ATOM    174  C   PHE d   1     -49.570  12.339  -5.038  0.00  0.00     0.241 C 
ATOM    175  O   PHE d   1     -49.822  11.194  -5.438  0.00  0.00    -0.271 OA
ATOM    176  N   GLN d   1     -49.671  12.710  -3.759  0.00  0.00    -0.346 N 
ATOM    177 4H13 GLN d   1     -49.401  13.641  -3.513  0.00  0.00     0.163 HD
BRANCH 176 178
ATOM    178  CA  GLN d   1     -50.170  11.800  -2.668  0.00  0.00     0.090 C 
ATOM    179 5H13 GLN d   1     -49.756  10.803  -2.879  0.00  0.00     0.087 H 
BRANCH 178 180
ATOM    180  C   GLN d   1     -51.743  11.640  -2.673  0.00  0.00     0.241 C 
ATOM    181  O   GLN d   1     -52.463  12.498  -2.157  0.00  0.00    -0.271 OA
ATOM    182  N   LEU d   1     -52.258  10.527  -3.216  0.00  0.00    -0.345 N 
ATOM    183 2H14 LEU d   1     -51.762   9.666  -3.103  0.00  0.00     0.163 HD
BRANCH 182 184
ATOM    184  CA  LEU d   1     -53.562  10.518  -3.995  0.00  0.00     0.096 C 
ATOM    185 3H14 LEU d   1     -53.401  11.296  -4.756  0.00  0.00     0.089 H 
BRANCH 184 186
ATOM    186  C   LEU d   1     -54.951  10.898  -3.384  0.00  0.00     0.196 C 
ATOM    187  O   LEU d   1     -55.146  11.155  -2.197  0.00  0.00    -0.646 OA
ATOM    188  OXT LEU d   1     -55.998  10.981  -4.025  0.00  0.00    -0.646 OA
ENDBRANCH 184 186
BRANCH 184 189
ATOM    189  CB  LEU d   1     -53.707   9.190  -4.766  0.00  0.00    -0.034 C 
ATOM    190 4H14 LEU d   1     -54.764   9.064  -5.041  0.00  0.00     0.037 H 
ATOM    191 5H14 LEU d   1     -53.401   8.369  -4.101  0.00  0.00     0.037 H 
BRANCH 189 192
ATOM    192  CG  LEU d   1     -52.855   9.114  -6.058  0.00  0.00    -0.059 C 
ATOM    193 6H14 LEU d   1     -51.950   9.713  -5.875  0.00  0.00     0.038 H 
BRANCH 192 194
ATOM    194  CD1 LEU d   1     -52.369   7.692  -6.380  0.00  0.00    -0.073 C 
ATOM    195 7H14 LEU d   1     -51.773   7.709  -7.304  0.00  0.00     0.028 H 
ATOM    196 8H14 LEU d   1     -53.237   7.030  -6.515  0.00  0.00     0.028 H 
ATOM    197 9H14 LEU d   1     -51.749   7.320  -5.551  0.00  0.00     0.028 H 
ENDBRANCH 192 194
BRANCH 192 198
ATOM    198  CD2 LEU d   1     -53.597   9.781  -7.231  0.00  0.00    -0.073 C 
ATOM    199 0H15 LEU d   1     -53.916  10.791  -6.936  0.00  0.00     0.028 H 
ATOM    200 1H15 LEU d   1     -54.480   9.180  -7.496  0.00  0.00     0.028 H 
ATOM    201 2H15 LEU d   1     -52.925   9.848  -8.099  0.00  0.00     0.028 H 
ENDBRANCH 192 198
ENDBRANCH 189 192
ENDBRANCH 184 189
ENDBRANCH 182 184
ENDBRANCH 178 180
BRANCH 178 202
ATOM    202  CB  GLN d   1     -49.625  12.222  -1.275  0.00  0.00    -0.030 C 
ATOM    203 6H13 GLN d   1     -48.908  11.449  -0.963  0.00  0.00     0.037 H 
ATOM    204 7H13 GLN d   1     -50.481  12.228  -0.584  0.00  0.00     0.037 H 
BRANCH 202 205
ATOM    205  CG  GLN d   1     -48.915  13.581  -1.123  0.00  0.00     0.011 C 
ATOM    206 8H13 GLN d   1     -48.297  13.750  -2.017  0.00  0.00     0.047 H 
ATOM    207 9H13 GLN d   1     -48.269  13.536  -0.234  0.00  0.00     0.047 H 
BRANCH 205 208
ATOM    208  CD  GLN d   1     -49.866  14.769  -0.965  0.00  0.00     0.215 C 
ATOM    209  OE1 GLN d   1     -50.034  15.593  -1.880  0.00  0.00    -0.274 OA
ATOM    210  NE2 GLN d   1     -50.497  14.854   0.204  0.00  0.00    -0.370 N 
ATOM    211 0H14 GLN d   1     -51.134  15.606   0.375  0.00  0.00     0.159 HD
ATOM    212 1H14 GLN d   1     -50.334  14.166   0.911  0.00  0.00     0.159 HD
ENDBRANCH 205 208
ENDBRANCH 202 205
ENDBRANCH 178 202
ENDBRANCH 176 178
ENDBRANCH 172 174
BRANCH 172 213
ATOM    213  CB  PHE d   1     -50.349  13.797  -6.922  0.00  0.00    -0.014 C 
ATOM    214 7H12 PHE d   1     -50.779  12.872  -7.335  0.00  0.00     0.043 H 
ATOM    215 8H12 PHE d   1     -49.986  14.432  -7.744  0.00  0.00     0.043 H 
BRANCH 213 216
ATOM    216  CG  PHE d   1     -51.420  14.533  -6.192  0.00  0.00    -0.056 A 
ATOM    217  CD1 PHE d   1     -51.256  15.884  -5.886  0.00  0.00    -0.077 A 
ATOM    218  CE1 PHE d   1     -52.239  16.579  -5.202  0.00  0.00    -0.082 A 
ATOM    219 9H12 PHE d   1     -50.349  16.395  -6.187  0.00  0.00     0.084 H 
ATOM    220  CZ  PHE d   1     -53.403  15.916  -4.798  0.00  0.00    -0.083 A 
ATOM    221 1H13 PHE d   1     -52.107  17.632  -4.981  0.00  0.00     0.083 H 
ATOM    222  CE2 PHE d   1     -53.569  14.571  -5.078  0.00  0.00    -0.082 A 
ATOM    223 3H13 PHE d   1     -54.176  16.457  -4.265  0.00  0.00     0.083 H 
ATOM    224  CD2 PHE d   1     -52.574  13.883  -5.773  0.00  0.00    -0.077 A 
ATOM    225 2H13 PHE d   1     -54.467  14.055  -4.759  0.00  0.00     0.083 H 
ATOM    226 0H13 PHE d   1     -52.703  12.829  -5.989  0.00  0.00     0.084 H 
ENDBRANCH 213 216
ENDBRANCH 172 213
ENDBRANCH 170 172
ENDBRANCH 166 168
BRANCH 166 227
ATOM    227  CB  ARG d   1     -45.383  10.931  -6.521  0.00  0.00    -0.036 C 
ATOM    228 4H11 ARG d   1     -46.250  10.638  -5.911  0.00  0.00     0.036 H 
ATOM    229 5H11 ARG d   1     -44.508  11.073  -5.870  0.00  0.00     0.036 H 
BRANCH 227 230
ATOM    230  CG  ARG d   1     -45.071   9.771  -7.457  0.00  0.00    -0.048 C 
ATOM    231 6H11 ARG d   1     -44.080   9.354  -7.224  0.00  0.00     0.035 H 
ATOM    232 7H11 ARG d   1     -45.087  10.115  -8.502  0.00  0.00     0.035 H 
BRANCH 230 233
ATOM    233  CD  ARG d   1     -46.142   8.719  -7.239  0.00  0.00     0.009 C 
ATOM    234 8H11 ARG d   1     -47.117   9.163  -7.490  0.00  0.00     0.064 H 
ATOM    235 9H11 ARG d   1     -46.132   8.433  -6.177  0.00  0.00     0.064 H 
BRANCH 233 236
ATOM    236  NE  ARG d   1     -45.971   7.517  -8.035  0.00  0.00    -0.227 N 
ATOM    237  CZ  ARG d   1     -46.826   6.491  -8.028  0.00  0.00     0.665 C 
ATOM    238  NH1 ARG d   1     -47.919   6.513  -7.254  0.00  0.00    -0.235 N 
ATOM    239  NH2 ARG d   1     -46.590   5.429  -8.798  0.00  0.00    -0.235 N 
ATOM    240 1H12 ARG d   1     -48.570   5.715  -7.259  0.00  0.00     0.174 HD
ATOM    241 2H12 ARG d   1     -48.109   7.328  -6.654  0.00  0.00     0.174 HD
ATOM    242 3H12 ARG d   1     -45.752   5.403  -9.397  0.00  0.00     0.174 HD
ATOM    243 4H12 ARG d   1     -47.245   4.634  -8.794  0.00  0.00     0.174 HD
ATOM    244 0H12 ARG d   1     -45.141   7.452  -8.641  0.00  0.00     0.177 HD
ENDBRANCH 233 236
ENDBRANCH 230 233
ENDBRANCH 227 230
ENDBRANCH 166 227
ENDBRANCH 164 166
ENDBRANCH 160 162
BRANCH 160 245
ATOM    245  CB  LYS d   1     -42.022  14.920  -8.619  0.00  0.00    -0.038 C 
ATOM    246 1H10 LYS d   1     -42.425  15.228  -9.595  0.00  0.00     0.036 H 
ATOM    247 2H10 LYS d   1     -41.736  13.859  -8.659  0.00  0.00     0.036 H 
BRANCH 245 248
ATOM    248  CG  LYS d   1     -40.768  15.748  -8.331  0.00  0.00    -0.061 C 
ATOM    249 3H10 LYS d   1     -40.307  15.372  -7.406  0.00  0.00     0.033 H 
ATOM    250 4H10 LYS d   1     -41.068  16.797  -8.191  0.00  0.00     0.033 H 
BRANCH 248 251
ATOM    251  CD  LYS d   1     -39.729  15.687  -9.448  0.00  0.00    -0.043 C 
ATOM    252 5H10 LYS d   1     -39.899  16.522 -10.144  0.00  0.00     0.035 H 
ATOM    253 6H10 LYS d   1     -39.835  14.734  -9.986  0.00  0.00     0.035 H 
BRANCH 251 254
ATOM    254  CE  LYS d   1     -38.320  15.787  -8.886  0.00  0.00     0.080 C 
ATOM    255 7H10 LYS d   1     -38.001  14.791  -8.546  0.00  0.00     0.075 H 
ATOM    256 8H10 LYS d   1     -38.325  16.482  -8.033  0.00  0.00     0.075 H 
BRANCH 254 257
ATOM    257  NZ  LYS d   1     -37.360  16.278  -9.898  0.00  0.00    -0.079 N 
ATOM    258 9H10 LYS d   1     -36.440  16.331  -9.490  0.00  0.00     0.274 HD
ATOM    259 0H11 LYS d   1     -37.642  17.194 -10.212  0.00  0.00     0.274 HD
ATOM    260 1H11 LYS d   1     -37.344  15.644 -10.682  0.00  0.00     0.274 HD
ENDBRANCH 254 257
ENDBRANCH 251 254
ENDBRANCH 248 251
ENDBRANCH 245 248
ENDBRANCH 160 245
ENDBRANCH 158 160
ENDBRANCH 154 156
BRANCH 154 261
ATOM    261  CB  ARG d   1     -41.064  15.857  -3.600  0.00  0.00    -0.036 C 
ATOM    262  H88 ARG d   1     -40.657  16.091  -4.595  0.00  0.00     0.036 H 
ATOM    263  H89 ARG d   1     -40.339  15.247  -3.041  0.00  0.00     0.036 H 
BRANCH 261 264
ATOM    264  CG  ARG d   1     -41.245  17.157  -2.857  0.00  0.00    -0.048 C 
ATOM    265  H90 ARG d   1     -41.173  16.969  -1.776  0.00  0.00     0.035 H 
ATOM    266  H91 ARG d   1     -42.236  17.573  -3.091  0.00  0.00     0.035 H 
BRANCH 264 267
ATOM    267  CD  ARG d   1     -40.171  18.159  -3.265  0.00  0.00     0.009 C 
ATOM    268  H92 ARG d   1     -39.265  17.608  -3.557  0.00  0.00     0.064 H 
ATOM    269  H93 ARG d   1     -39.946  18.807  -2.405  0.00  0.00     0.064 H 
BRANCH 267 270
ATOM    270  NE  ARG d   1     -40.597  19.000  -4.392  0.00  0.00    -0.227 N 
ATOM    271  CZ  ARG d   1     -40.147  18.958  -5.652  0.00  0.00     0.665 C 
ATOM    272  NH1 ARG d   1     -39.211  18.101  -6.071  0.00  0.00    -0.235 N 
ATOM    273  NH2 ARG d   1     -40.661  19.813  -6.522  0.00  0.00    -0.235 N 
ATOM    274  H95 ARG d   1     -38.903  18.115  -7.054  0.00  0.00     0.174 HD
ATOM    275  H96 ARG d   1     -38.797  17.427  -5.411  0.00  0.00     0.174 HD
ATOM    276  H97 ARG d   1     -41.384  20.482  -6.221  0.00  0.00     0.174 HD
ATOM    277  H98 ARG d   1     -40.338  19.809  -7.500  0.00  0.00     0.174 HD
ATOM    278  H94 ARG d   1     -41.324  19.701  -4.190  0.00  0.00     0.177 HD
ENDBRANCH 267 270
ENDBRANCH 264 267
ENDBRANCH 261 264
ENDBRANCH 154 261
ENDBRANCH 152 154
ENDBRANCH 148 150
BRANCH 148 279
ATOM    279  CB  SER d   1     -42.481  10.223  -2.835  0.00  0.00     0.044 C 
ATOM    280  H83 SER d   1     -42.694  10.823  -1.938  0.00  0.00     0.077 H 
ATOM    281  H84 SER d   1     -41.597   9.594  -2.654  0.00  0.00     0.077 H 
BRANCH 279 282
ATOM    282  OG  SER d   1     -43.601   9.386  -3.113  0.00  0.00    -0.398 OA
ATOM    283  H85 SER d   1     -43.759   8.813  -2.372  0.00  0.00     0.209 HD
ENDBRANCH 279 282
ENDBRANCH 148 279
ENDBRANCH 146 148
ENDBRANCH   1 144
BRANCH   1 284
ATOM    284  CB  HIS d   1     -38.135  10.097  -6.016  0.00  0.00     0.004 C 
ATOM    285  H76 HIS d   1     -37.053  10.174  -6.199  0.00  0.00     0.046 H 
ATOM    286  H77 HIS d   1     -38.639   9.758  -6.933  0.00  0.00     0.046 H 
BRANCH 284 287
ATOM    287  CG  HIS d   1     -38.361   9.067  -4.946  0.00  0.00     0.053 A 
ATOM    288  ND1 HIS d   1     -37.631   9.034  -3.775  0.00  0.00    -0.247 NA
ATOM    289  CE1 HIS d   1     -38.059   8.042  -3.017  0.00  0.00     0.064 A 
ATOM    290  NE2 HIS d   1     -39.035   7.422  -3.658  0.00  0.00    -0.359 N 
ATOM    291  H79 HIS d   1     -37.674   7.779  -2.033  0.00  0.00     0.143 H 
ATOM    292  CD2 HIS d   1     -39.249   8.046  -4.864  0.00  0.00     0.002 A 
ATOM    293  H80 HIS d   1     -39.552   6.602  -3.309  0.00  0.00     0.166 HD
ATOM    294  H78 HIS d   1     -39.992   7.772  -5.612  0.00  0.00     0.114 H 
ENDBRANCH 284 287
ENDBRANCH   1 284
TORSDOF 83
