REMARK  8 active torsions:
REMARK  status: ('A' for Active; 'I' for Inactive)
REMARK    1  A    between atoms: C3_3  and  C_15 
REMARK    2  A    between atoms: C7_7  and  O2_28 
REMARK    3  A    between atoms: C11_10  and  C10_9 
REMARK    4  A    between atoms: C13_12  and  C11_10 
REMARK    5  A    between atoms: N3_19  and  C14_13 
REMARK    6  A    between atoms: C_15  and  O_16 
REMARK    7  A    between atoms: C18_18  and  N3_19 
REMARK    8  A    between atoms: O2_28  and  C19_29 
ROOT
ATOM      1  C12 HRA d   1      17.721   5.093   3.665  0.00  0.00    -0.006 A 
ATOM      2  C13 HRA d   1      19.010   5.495   3.477  0.00  0.00     0.048 A 
ATOM      3  C14 HRA d   1      20.314   5.611   1.203  0.00  0.00     0.140 A 
ATOM      4  C16 HRA d   1      18.091   4.889   1.543  0.00  0.00     0.143 A 
ATOM      5  C15 HRA d   1      19.262   5.376   2.092  0.00  0.00     0.071 A 
ATOM      6  N1  HRA d   1      20.180   5.362  -0.109  0.00  0.00    -0.224 NA
ATOM      7  C17 HRA d   1      18.998   4.860  -0.576  0.00  0.00     0.091 A 
ATOM      8  N2  HRA d   1      17.925   4.620   0.230  0.00  0.00    -0.223 NA
ATOM      9  N   HRA d   1      17.172   4.747   2.498  0.00  0.00    -0.349 N 
ATOM     10  H10 HRA d   1      17.213   5.059   4.628  0.00  0.00     0.112 H 
ATOM     11  H16 HRA d   1      18.910   4.643  -1.634  0.00  0.00     0.146 H 
ATOM     12  H17 HRA d   1      16.203   4.425   2.359  0.00  0.00     0.167 HD
ENDROOT
BRANCH   2  13
ATOM     13  C11 HRA d   1      19.836   5.925   4.559  0.00  0.00     0.196 C 
ATOM     14  O3  HRA d   1      20.961   6.406   4.338  0.00  0.00    -0.287 OA
BRANCH  13  15
ATOM     15  C10 HRA d   1      19.367   5.859   5.924  0.00  0.00     0.037 A 
ATOM     16  C5  HRA d   1      19.259   7.061   6.636  0.00  0.00    -0.065 A 
ATOM     17  C6  HRA d   1      18.794   7.106   7.948  0.00  0.00    -0.049 A 
ATOM     18  H8  HRA d   1      19.547   7.986   6.150  0.00  0.00     0.085 H 
ATOM     19  C7  HRA d   1      18.432   5.927   8.576  0.00  0.00     0.077 A 
ATOM     20  H9  HRA d   1      18.717   8.053   8.471  0.00  0.00     0.087 H 
ATOM     21  C8  HRA d   1      18.545   4.722   7.907  0.00  0.00    -0.028 A 
ATOM     22  C9  HRA d   1      19.006   4.680   6.605  0.00  0.00     0.051 A 
ATOM     23  H18 HRA d   1      18.269   3.801   8.409  0.00  0.00     0.090 H 
ATOM     24 CL   HRA d   1      19.111   3.135   5.864  0.00  0.00    -0.083 Cl
BRANCH  19  25
ATOM     25  O2  HRA d   1      17.978   5.933   9.855  0.00  0.00    -0.311 OA
BRANCH  25  26
ATOM     26  C19 HRA d   1      16.963   6.807  10.199  0.00  0.00     0.076 A 
ATOM     27  C24 HRA d   1      16.975   7.332  11.501  0.00  0.00    -0.050 A 
ATOM     28  C23 HRA d   1      15.983   8.228  11.914  0.00  0.00    -0.080 A 
ATOM     29  H19 HRA d   1      17.759   7.041  12.191  0.00  0.00     0.087 H 
ATOM     30  C22 HRA d   1      14.958   8.592  11.026  0.00  0.00    -0.083 A 
ATOM     31  H20 HRA d   1      16.006   8.640  12.916  0.00  0.00     0.083 H 
ATOM     32  C21 HRA d   1      14.935   8.061   9.731  0.00  0.00    -0.080 A 
ATOM     33  H21 HRA d   1      14.185   9.283  11.343  0.00  0.00     0.083 H 
ATOM     34  C20 HRA d   1      15.936   7.174   9.310  0.00  0.00    -0.050 A 
ATOM     35  H22 HRA d   1      14.139   8.337   9.050  0.00  0.00     0.083 H 
ATOM     36  H23 HRA d   1      15.919   6.772   8.303  0.00  0.00     0.087 H 
ENDBRANCH  25  26
ENDBRANCH  19  25
ENDBRANCH  13  15
ENDBRANCH   2  13
BRANCH   3  37
ATOM     37  N3  HRA d   1      21.503   6.095   1.614  0.00  0.00    -0.367 N 
ATOM     38  H15 HRA d   1      21.652   6.198   2.628  0.00  0.00     0.161 HD
BRANCH  37  39
ATOM     39  C18 HRA d   1      22.603   6.486   0.721  0.00  0.00     0.031 C 
ATOM     40  C1  HRA d   1      23.879   6.567   1.566  0.00  0.00    -0.042 C 
ATOM     41  C2  HRA d   1      25.020   6.974   0.716  0.00  0.00    -0.037 C 
ATOM     42  H1  HRA d   1      23.739   7.307   2.368  0.00  0.00     0.036 H 
ATOM     43  H2  HRA d   1      24.087   5.582   2.008  0.00  0.00     0.036 H 
ATOM     44  C3  HRA d   1      24.710   8.295   0.059  0.00  0.00     0.059 C 
ATOM     45  H3  HRA d   1      25.192   6.211  -0.058  0.00  0.00     0.036 H 
ATOM     46  H4  HRA d   1      25.922   7.076   1.337  0.00  0.00     0.036 H 
ATOM     47  O1  HRA d   1      23.444   8.243  -0.676  0.00  0.00    -0.382 OA
ATOM     48  H5  HRA d   1      24.630   9.084   0.821  0.00  0.00     0.086 H 
ATOM     49  C4  HRA d   1      22.303   7.849   0.076  0.00  0.00     0.039 C 
ATOM     50  H6  HRA d   1      21.430   7.763  -0.588  0.00  0.00     0.077 H 
ATOM     51  H7  HRA d   1      22.097   8.594   0.858  0.00  0.00     0.077 H 
ATOM     52  H14 HRA d   1      22.727   5.731  -0.069  0.00  0.00     0.075 H 
BRANCH  44  53
ATOM     53  C   HRA d   1      25.913   8.559  -0.816  0.00  0.00     0.041 C 
ATOM     54  H11 HRA d   1      26.121   7.689  -1.456  0.00  0.00     0.077 H 
ATOM     55  H12 HRA d   1      26.796   8.780  -0.199  0.00  0.00     0.077 H 
BRANCH  53  56
ATOM     56  O   HRA d   1      25.569   9.677  -1.602  0.00  0.00    -0.398 OA
ATOM     57  H13 HRA d   1      24.800   9.473  -2.121  0.00  0.00     0.209 HD
ENDBRANCH  53  56
ENDBRANCH  44  53
ENDBRANCH  37  39
ENDBRANCH   3  37
TORSDOF 8
