REMARK  10 active torsions:
REMARK  status: ('A' for Active; 'I' for Inactive)
REMARK    1  A    between atoms: C7_2  and  C6_3 
REMARK    2  A    between atoms: C20_6  and  C21_7 
REMARK    3  A    between atoms: C18_9  and  O7_30 
REMARK    4  A    between atoms: O2_24  and  C16_10 
REMARK    5  A    between atoms: C19_11  and  O6_29 
REMARK    6  A    between atoms: C3_14  and  C22_32 
REMARK    7  A    between atoms: C15_22  and  C14_21 
REMARK    8  A    between atoms: C15_22  and  O2_24 
REMARK    9  A    between atoms: C17_25  and  O8_31 
REMARK   10  A    between atoms: C22_32  and  O9_36 
ROOT
ATOM      1  C7  HTV d   1      46.077 -79.814 -39.582  0.00  0.00    -0.003 A 
ATOM      2  C9  HTV d   1      43.734 -79.336 -39.693  0.00  0.00     0.009 A 
ATOM      3  C13 HTV d   1      41.775 -78.202 -39.798  0.00  0.00    -0.006 A 
ATOM      4  C8  HTV d   1      44.770 -80.282 -39.633  0.00  0.00    -0.057 A 
ATOM      5  C10 HTV d   1      43.994 -77.940 -39.713  0.00  0.00     0.045 A 
ATOM      6  C11 HTV d   1      45.278 -77.438 -39.680  0.00  0.00    -0.035 A 
ATOM      7  C12 HTV d   1      46.265 -78.389 -39.618  0.00  0.00     0.047 A 
ATOM      8 CL1  HTV d   1      47.803 -77.737 -39.570  0.00  0.00    -0.083 Cl
ATOM      9  N1  HTV d   1      42.784 -77.268 -39.774  0.00  0.00    -0.364 N 
ATOM     10  C14 HTV d   1      42.340 -79.466 -39.742  0.00  0.00     0.067 A 
ATOM     11  H2  HTV d   1      40.709 -77.984 -39.852  0.00  0.00     0.112 H 
ATOM     12  H4  HTV d   1      44.556 -81.345 -39.627  0.00  0.00     0.086 H 
ATOM     13  H11 HTV d   1      45.491 -76.375 -39.701  0.00  0.00     0.089 H 
ATOM     14  H12 HTV d   1      42.661 -76.246 -39.797  0.00  0.00     0.165 HD
ENDROOT
BRANCH  10  15
ATOM     15  C15 HTV d   1      41.701 -80.731 -39.681  0.00  0.00     0.298 C 
ATOM     16  O1  HTV d   1      42.245 -81.842 -39.539  0.00  0.00    -0.259 OA
BRANCH  15  17
ATOM     17  O2  HTV d   1      40.328 -80.570 -39.752  0.00  0.00    -0.283 OA
BRANCH  17  18
ATOM     18  C16 HTV d   1      39.528 -81.753 -39.708  0.00  0.00     0.168 C 
ATOM     19  C17 HTV d   1      38.595 -81.731 -38.495  0.00  0.00     0.110 C 
ATOM     20  C18 HTV d   1      37.747 -83.005 -38.517  0.00  0.00     0.092 C 
ATOM     21  H13 HTV d   1      37.926 -80.863 -38.589  0.00  0.00     0.094 H 
ATOM     22  C19 HTV d   1      37.024 -83.155 -39.865  0.00  0.00     0.097 C 
ATOM     23  H5  HTV d   1      38.437 -83.857 -38.427  0.00  0.00     0.091 H 
ATOM     24  C20 HTV d   1      38.039 -83.063 -41.008  0.00  0.00     0.152 C 
ATOM     25  H7  HTV d   1      36.300 -82.333 -39.969  0.00  0.00     0.091 H 
ATOM     26  O3  HTV d   1      38.780 -81.835 -40.908  0.00  0.00    -0.339 OA
ATOM     27  H3  HTV d   1      38.698 -83.942 -40.956  0.00  0.00     0.104 H 
ATOM     28  H6  HTV d   1      40.186 -82.631 -39.632  0.00  0.00     0.134 H 
BRANCH  19  29
ATOM     29  O8  HTV d   1      39.308 -81.602 -37.260  0.00  0.00    -0.388 OA
ATOM     30  H16 HTV d   1      38.690 -81.593 -36.538  0.00  0.00     0.210 HD
ENDBRANCH  19  29
BRANCH  20  31
ATOM     31  O7  HTV d   1      36.865 -83.068 -37.393  0.00  0.00    -0.390 OA
ATOM     32  H15 HTV d   1      37.374 -83.059 -36.591  0.00  0.00     0.210 HD
ENDBRANCH  20  31
BRANCH  22  33
ATOM     33  O6  HTV d   1      36.316 -84.392 -39.924  0.00  0.00    -0.390 OA
ATOM     34  H14 HTV d   1      35.673 -84.421 -39.225  0.00  0.00     0.210 HD
ENDBRANCH  22  33
BRANCH  24  35
ATOM     35  C21 HTV d   1      37.484 -82.904 -42.413  0.00  0.00     0.206 C 
ATOM     36  O4  HTV d   1      36.337 -82.739 -42.762  0.00  0.00    -0.646 OA
ATOM     37  O5  HTV d   1      38.491 -82.934 -43.339  0.00  0.00    -0.646 OA
ENDBRANCH  24  35
ENDBRANCH  17  18
ENDBRANCH  15  17
ENDBRANCH  10  15
BRANCH   1  38
ATOM     38  C6  HTV d   1      47.200 -80.811 -39.438  0.00  0.00    -0.024 A 
ATOM     39  C1  HTV d   1      47.243 -81.913 -40.330  0.00  0.00    -0.072 A 
ATOM     40  C2  HTV d   1      48.240 -82.888 -40.207  0.00  0.00    -0.073 A 
ATOM     41  H8  HTV d   1      46.498 -82.001 -41.113  0.00  0.00     0.084 H 
ATOM     42  C3  HTV d   1      49.229 -82.808 -39.205  0.00  0.00    -0.024 A 
ATOM     43  H9  HTV d   1      48.252 -83.723 -40.898  0.00  0.00     0.084 H 
ATOM     44  C4  HTV d   1      49.196 -81.687 -38.317  0.00  0.00    -0.073 A 
ATOM     45  C5  HTV d   1      48.197 -80.710 -38.423  0.00  0.00    -0.072 A 
ATOM     46  H1  HTV d   1      49.956 -81.592 -37.550  0.00  0.00     0.084 H 
ATOM     47  H10 HTV d   1      48.182 -79.875 -37.732  0.00  0.00     0.084 H 
BRANCH  42  48
ATOM     48  C22 HTV d   1      50.293 -83.907 -39.046  0.00  0.00     0.085 C 
ATOM     49  C23 HTV d   1      51.657 -83.404 -38.513  0.00  0.00    -0.032 C 
ATOM     50  C24 HTV d   1      52.368 -84.128 -39.653  0.00  0.00    -0.059 C 
ATOM     51  H17 HTV d   1      51.915 -83.780 -37.512  0.00  0.00     0.037 H 
ATOM     52  H18 HTV d   1      51.772 -82.310 -38.535  0.00  0.00     0.037 H 
ATOM     53  C25 HTV d   1      51.020 -84.316 -40.352  0.00  0.00    -0.032 C 
ATOM     54  H19 HTV d   1      52.857 -85.067 -39.356  0.00  0.00     0.033 H 
ATOM     55  H20 HTV d   1      53.082 -83.503 -40.209  0.00  0.00     0.033 H 
ATOM     56  H21 HTV d   1      50.851 -83.630 -41.195  0.00  0.00     0.037 H 
ATOM     57  H22 HTV d   1      50.820 -85.349 -40.674  0.00  0.00     0.037 H 
BRANCH  48  58
ATOM     58  O9  HTV d   1      49.823 -85.032 -38.301  0.00  0.00    -0.385 OA
ATOM     59  H23 HTV d   1      48.987 -85.316 -38.652  0.00  0.00     0.211 HD
ENDBRANCH  48  58
ENDBRANCH  42  48
ENDBRANCH   1  38
TORSDOF 10
