REMARK  13 active torsions:
REMARK  status: ('A' for Active; 'I' for Inactive)
REMARK    1  A    between atoms: C7_4  and  O1_19 
REMARK    2  A    between atoms: C9_6  and  C6_5 
REMARK    3  A    between atoms: C20_8  and  O8_35 
REMARK    4  A    between atoms: C21_9  and  O7_34 
REMARK    5  A    between atoms: O1_19  and  C8_10 
REMARK    6  A    between atoms: O3_28  and  C18_11 
REMARK    7  A    between atoms: C17_26  and  C16_12 
REMARK    8  A    between atoms: C19_13  and  O9_36 
REMARK    9  A    between atoms: N1_15  and  C1_14 
REMARK   10  A    between atoms: N1_15  and  C2_16 
REMARK   11  A    between atoms: C3_17  and  N1_15 
REMARK   12  A    between atoms: C17_26  and  O3_28 
REMARK   13  A    between atoms: C22_29  and  C23_31 
ROOT
ATOM      1  N3  HU7 d   1      43.102 -78.008 -39.905  0.00  0.00    -0.364 N 
ATOM      2  C9  HU7 d   1      46.482 -80.378 -39.473  0.00  0.00     0.001 A 
ATOM      3  C13 HU7 d   1      45.599 -78.112 -39.661  0.00  0.00    -0.035 A 
ATOM      4  C16 HU7 d   1      42.669 -80.207 -39.867  0.00  0.00     0.067 A 
ATOM      5  C10 HU7 d   1      45.176 -80.875 -39.556  0.00  0.00    -0.057 A 
ATOM      6  C11 HU7 d   1      44.089 -80.018 -39.705  0.00  0.00     0.009 A 
ATOM      7  C12 HU7 d   1      44.319 -78.632 -39.748  0.00  0.00     0.045 A 
ATOM      8  C14 HU7 d   1      46.663 -78.989 -39.531  0.00  0.00     0.047 A 
ATOM      9 CL1  HU7 d   1      48.255 -78.319 -39.450  0.00  0.00    -0.083 Cl
ATOM     10  C15 HU7 d   1      42.121 -78.952 -39.969  0.00  0.00    -0.006 A 
ATOM     11  H1  HU7 d   1      42.956 -76.990 -39.965  0.00  0.00     0.165 HD
ATOM     12  H3  HU7 d   1      45.765 -77.041 -39.694  0.00  0.00     0.089 H 
ATOM     13  H18 HU7 d   1      45.008 -81.945 -39.503  0.00  0.00     0.086 H 
ATOM     14  H19 HU7 d   1      41.059 -78.742 -40.084  0.00  0.00     0.112 H 
ENDROOT
BRANCH   4  15
ATOM     15  C17 HU7 d   1      41.957 -81.497 -39.978  0.00  0.00     0.298 C 
ATOM     16  O2  HU7 d   1      42.494 -82.576 -39.911  0.00  0.00    -0.259 OA
BRANCH  15  17
ATOM     17  O3  HU7 d   1      40.631 -81.315 -40.144  0.00  0.00    -0.283 OA
BRANCH  17  18
ATOM     18  C18 HU7 d   1      39.820 -82.486 -40.289  0.00  0.00     0.168 C 
ATOM     19  C19 HU7 d   1      38.563 -82.255 -39.454  0.00  0.00     0.110 C 
ATOM     20  C20 HU7 d   1      37.593 -83.417 -39.663  0.00  0.00     0.092 C 
ATOM     21  H10 HU7 d   1      38.080 -81.324 -39.786  0.00  0.00     0.094 H 
ATOM     22  C21 HU7 d   1      37.319 -83.658 -41.148  0.00  0.00     0.097 C 
ATOM     23  H4  HU7 d   1      38.057 -84.325 -39.250  0.00  0.00     0.091 H 
ATOM     24  C22 HU7 d   1      38.653 -83.744 -41.927  0.00  0.00     0.152 C 
ATOM     25  H5  HU7 d   1      36.720 -82.826 -41.547  0.00  0.00     0.091 H 
ATOM     26  O4  HU7 d   1      39.485 -82.607 -41.661  0.00  0.00    -0.339 OA
ATOM     27  H20 HU7 d   1      39.180 -84.666 -41.641  0.00  0.00     0.104 H 
ATOM     28  H9  HU7 d   1      40.354 -83.384 -39.944  0.00  0.00     0.134 H 
BRANCH  19  29
ATOM     29  O9  HU7 d   1      38.901 -82.129 -38.075  0.00  0.00    -0.388 OA
ATOM     30  H23 HU7 d   1      39.490 -81.392 -37.960  0.00  0.00     0.210 HD
ENDBRANCH  19  29
BRANCH  20  31
ATOM     31  O8  HU7 d   1      36.370 -83.187 -38.969  0.00  0.00    -0.390 OA
ATOM     32  H22 HU7 d   1      35.783 -83.920 -39.112  0.00  0.00     0.210 HD
ENDBRANCH  20  31
BRANCH  22  33
ATOM     33  O7  HU7 d   1      36.595 -84.875 -41.298  0.00  0.00    -0.390 OA
ATOM     34  H21 HU7 d   1      36.413 -85.023 -42.219  0.00  0.00     0.210 HD
ENDBRANCH  22  33
BRANCH  24  35
ATOM     35  C23 HU7 d   1      38.377 -83.741 -43.428  0.00  0.00     0.206 C 
ATOM     36  O5  HU7 d   1      38.308 -82.714 -44.081  0.00  0.00    -0.646 OA
ATOM     37  O6  HU7 d   1      38.253 -84.943 -43.924  0.00  0.00    -0.646 OA
ENDBRANCH  24  35
ENDBRANCH  17  18
ENDBRANCH  15  17
ENDBRANCH   4  15
BRANCH   2  38
ATOM     38  C6  HU7 d   1      47.620 -81.344 -39.353  0.00  0.00     0.029 A 
ATOM     39  C7  HU7 d   1      47.823 -82.407 -40.267  0.00  0.00     0.177 A 
ATOM     40  N2  HU7 d   1      48.775 -83.314 -40.114  0.00  0.00    -0.206 NA
ATOM     41  C3  HU7 d   1      49.624 -83.200 -39.086  0.00  0.00     0.127 A 
ATOM     42  C4  HU7 d   1      49.558 -82.151 -38.162  0.00  0.00    -0.038 A 
ATOM     43  C5  HU7 d   1      48.529 -81.235 -38.298  0.00  0.00    -0.064 A 
ATOM     44  H2  HU7 d   1      50.288 -82.059 -37.366  0.00  0.00     0.089 H 
ATOM     45  H17 HU7 d   1      48.428 -80.428 -37.581  0.00  0.00     0.085 H 
BRANCH  39  46
ATOM     46  O1  HU7 d   1      47.085 -82.391 -41.395  0.00  0.00    -0.339 OA
BRANCH  46  47
ATOM     47  C8  HU7 d   1      47.456 -83.296 -42.435  0.00  0.00     0.012 C 
ATOM     48  H6  HU7 d   1      46.772 -83.174 -43.288  0.00  0.00     0.067 H 
ATOM     49  H7  HU7 d   1      47.395 -84.329 -42.061  0.00  0.00     0.067 H 
ATOM     50  H8  HU7 d   1      48.486 -83.082 -42.757  0.00  0.00     0.067 H 
ENDBRANCH  46  47
ENDBRANCH  39  46
BRANCH  41  51
ATOM     51  N1  HU7 d   1      50.584 -84.250 -38.962  0.00  0.00    -0.374 N 
BRANCH  51  52
ATOM     52  C1  HU7 d   1      51.066 -84.676 -37.660  0.00  0.00    -0.018 C 
ATOM     53  H11 HU7 d   1      51.794 -85.491 -37.787  0.00  0.00     0.056 H 
ATOM     54  H12 HU7 d   1      50.220 -85.032 -37.054  0.00  0.00     0.056 H 
ATOM     55  H13 HU7 d   1      51.549 -83.828 -37.153  0.00  0.00     0.056 H 
ENDBRANCH  51  52
BRANCH  51  56
ATOM     56  C2  HU7 d   1      51.085 -84.949 -40.134  0.00  0.00    -0.018 C 
ATOM     57  H14 HU7 d   1      50.633 -84.517 -41.039  0.00  0.00     0.056 H 
ATOM     58  H15 HU7 d   1      50.822 -86.015 -40.065  0.00  0.00     0.056 H 
ATOM     59  H16 HU7 d   1      52.179 -84.843 -40.184  0.00  0.00     0.056 H 
ENDBRANCH  51  56
ENDBRANCH  41  51
ENDBRANCH   2  38
TORSDOF 13
