REMARK  12 active torsions:
REMARK  status: ('A' for Active; 'I' for Inactive)
REMARK    1  A    between atoms: C16_24  and  C6_7 
REMARK    2  A    between atoms: C13_20  and  C12_19 
REMARK    3  A    between atoms: C13_20  and  C14_21 
REMARK    4  A    between atoms: C14_21  and  C15_22 
REMARK    5  A    between atoms: C15_22  and  O5_23 
REMARK    6  A    between atoms: C24_35  and  N6_50 
REMARK    7  A    between atoms: C28_40  and  C29_41 
REMARK    8  A    between atoms: C30_42  and  C31_43 
REMARK    9  A    between atoms: C30_42  and  C33_49 
REMARK   10  A    between atoms: C31_43  and  C32_44 
REMARK   11  A    between atoms: C32_44  and  O9_45 
REMARK       I    between atoms: N6_50  and  C34_51 
REMARK   12  A    between atoms: C34_51  and  C35_53 
ROOT
ATOM      1  C1  HWS d   1      35.321   2.105  25.166  0.00  0.00     0.241 C 
ATOM      2  C2  HWS d   1      34.971   2.590  26.511  0.00  0.00     0.089 C 
ATOM      3  C3  HWS d   1      33.550   3.228  26.437  0.00  0.00    -0.036 C 
ATOM      4  C4  HWS d   1      33.157   4.254  27.464  0.00  0.00    -0.045 C 
ATOM      5  C5  HWS d   1      31.697   4.720  27.283  0.00  0.00     0.026 C 
ATOM      6  N1  HWS d   1      31.456   5.398  26.060  0.00  0.00    -0.200 N 
ATOM      7  C6  HWS d   1      30.690   4.937  25.123  0.00  0.00     0.203 C 
ATOM      8  O1  HWS d   1      34.725   1.183  24.723  0.00  0.00    -0.271 OA
ATOM      9  N2  HWS d   1      35.946   3.474  27.042  0.00  0.00    -0.346 N 
ATOM     10  O2  HWS d   1      32.003   6.487  25.780  0.00  0.00    -0.084 OA
ATOM     11  O3  HWS d   1      30.784   5.804  23.979  0.00  0.00    -0.170 OA
ATOM     12  C7  HWS d   1      36.884   4.054  26.364  0.00  0.00     0.241 C 
ATOM     13  C8  HWS d   1      36.981   3.880  24.921  0.00  0.00     0.089 C 
ATOM     14  C9  HWS d   1      36.647   5.209  24.235  0.00  0.00    -0.036 C 
ATOM     15  C10 HWS d   1      36.183   5.158  22.798  0.00  0.00    -0.045 C 
ATOM     16  C11 HWS d   1      35.718   6.532  22.285  0.00  0.00     0.026 C 
ATOM     17  O4  HWS d   1      37.708   4.706  26.900  0.00  0.00    -0.271 OA
ATOM     18  N3  HWS d   1      36.241   2.732  24.480  0.00  0.00    -0.346 N 
ATOM     19  N4  HWS d   1      34.308   6.764  22.503  0.00  0.00    -0.200 N 
ATOM     20  C17 HWS d   1      33.362   7.226  21.747  0.00  0.00     0.202 C 
ATOM     21  C18 HWS d   1      33.769   7.882  20.518  0.00  0.00    -0.033 C 
ATOM     22  C19 HWS d   1      33.198   7.810  19.369  0.00  0.00    -0.097 C 
ATOM     23  C20 HWS d   1      33.819   8.588  18.274  0.00  0.00    -0.029 C 
ATOM     24  C21 HWS d   1      33.365  10.054  18.174  0.00  0.00     0.032 C 
ATOM     25  O6  HWS d   1      33.943  10.899  19.121  0.00  0.00    -0.320 OA
ATOM     26  O7  HWS d   1      33.785   6.577  23.583  0.00  0.00    -0.084 OA
ATOM     27  O8  HWS d   1      32.074   7.087  22.367  0.00  0.00    -0.170 OA
ATOM     28  C23 HWS d   1      33.226  11.928  19.837  0.00  0.00     0.281 C 
ATOM     29  C24 HWS d   1      33.520  12.295  21.246  0.00  0.00     0.096 C 
ATOM     30  C25 HWS d   1      32.663  11.584  22.241  0.00  0.00    -0.036 C 
ATOM     31  C26 HWS d   1      32.918  12.070  23.610  0.00  0.00    -0.045 C 
ATOM     32  C27 HWS d   1      32.017  11.433  24.636  0.00  0.00     0.026 C 
ATOM     33  N5  HWS d   1      31.593  10.053  24.431  0.00  0.00    -0.200 N 
ATOM     34  C28 HWS d   1      30.422   9.653  23.994  0.00  0.00     0.203 C 
ATOM     35  O10 HWS d   1      32.443  12.548  19.218  0.00  0.00    -0.263 OA
ATOM     36  O11 HWS d   1      32.329   9.031  24.698  0.00  0.00    -0.084 OA
ATOM     37  O12 HWS d   1      30.531   8.264  23.646  0.00  0.00    -0.170 OA
ATOM     38 FE   HWS d   1      32.062   7.231  24.124  0.00  0.00     0.000 Fe
ATOM     39  H1  HWS d   1      34.920   1.722  27.185  0.00  0.00     0.087 H 
ATOM     40  H2  HWS d   1      32.823   2.405  26.509  0.00  0.00     0.036 H 
ATOM     41  H3  HWS d   1      33.464   3.709  25.451  0.00  0.00     0.036 H 
ATOM     42  H4  HWS d   1      33.822   5.125  27.369  0.00  0.00     0.035 H 
ATOM     43  H5  HWS d   1      33.268   3.815  28.466  0.00  0.00     0.035 H 
ATOM     44  H6  HWS d   1      31.445   5.399  28.111  0.00  0.00     0.068 H 
ATOM     45  H7  HWS d   1      31.044   3.836  27.323  0.00  0.00     0.068 H 
ATOM     46  H8  HWS d   1      35.905   3.665  28.023  0.00  0.00     0.163 HD
ATOM     47  H9  HWS d   1      38.034   3.667  24.687  0.00  0.00     0.087 H 
ATOM     48  H10 HWS d   1      37.553   5.832  24.266  0.00  0.00     0.036 H 
ATOM     49  H11 HWS d   1      35.850   5.691  24.821  0.00  0.00     0.036 H 
ATOM     50  H12 HWS d   1      35.345   4.450  22.722  0.00  0.00     0.035 H 
ATOM     51  H13 HWS d   1      37.016   4.809  22.170  0.00  0.00     0.035 H 
ATOM     52  H14 HWS d   1      35.921   6.591  21.206  0.00  0.00     0.068 H 
ATOM     53  H15 HWS d   1      36.288   7.314  22.809  0.00  0.00     0.068 H 
ATOM     54  H16 HWS d   1      36.447   2.380  23.567  0.00  0.00     0.163 HD
ATOM     55  H26 HWS d   1      34.660   8.506  20.576  0.00  0.00     0.089 H 
ATOM     56  H27 HWS d   1      32.304   7.208  19.209  0.00  0.00     0.077 H 
ATOM     57  H28 HWS d   1      33.576   8.091  17.323  0.00  0.00     0.042 H 
ATOM     58  H29 HWS d   1      34.908   8.579  18.425  0.00  0.00     0.042 H 
ATOM     59  H30 HWS d   1      32.273  10.086  18.304  0.00  0.00     0.075 H 
ATOM     60  H31 HWS d   1      33.626  10.428  17.173  0.00  0.00     0.075 H 
ATOM     61  H32 HWS d   1      34.561  11.999  21.442  0.00  0.00     0.088 H 
ATOM     62  H33 HWS d   1      32.880  10.507  22.197  0.00  0.00     0.036 H 
ATOM     63  H34 HWS d   1      31.606  11.755  21.991  0.00  0.00     0.036 H 
ATOM     64  H35 HWS d   1      32.760  13.158  23.631  0.00  0.00     0.035 H 
ATOM     65  H36 HWS d   1      33.962  11.846  23.873  0.00  0.00     0.035 H 
ATOM     66  H37 HWS d   1      31.106  12.047  24.694  0.00  0.00     0.068 H 
ATOM     67  H38 HWS d   1      32.546  11.470  25.600  0.00  0.00     0.068 H 
ENDROOT
BRANCH   7  68
ATOM     68  C16 HWS d   1      29.954   3.639  25.383  0.00  0.00    -0.027 C 
ATOM     69  C13 HWS d   1      29.349   2.879  24.470  0.00  0.00    -0.077 C 
ATOM     70  H25 HWS d   1      29.915   3.293  26.415  0.00  0.00     0.090 H 
BRANCH  69  71
ATOM     71  C12 HWS d   1      29.244   3.254  23.043  0.00  0.00    -0.054 C 
ATOM     72  H17 HWS d   1      28.703   2.467  22.496  0.00  0.00     0.033 H 
ATOM     73  H18 HWS d   1      30.252   3.369  22.619  0.00  0.00     0.033 H 
ATOM     74  H19 HWS d   1      28.698   4.205  22.953  0.00  0.00     0.033 H 
ENDBRANCH  69  71
BRANCH  69  75
ATOM     75  C14 HWS d   1      28.650   1.590  24.848  0.00  0.00    -0.025 C 
ATOM     76  H20 HWS d   1      28.628   1.472  25.941  0.00  0.00     0.042 H 
ATOM     77  H21 HWS d   1      29.163   0.728  24.396  0.00  0.00     0.042 H 
BRANCH  75  78
ATOM     78  C15 HWS d   1      27.233   1.713  24.298  0.00  0.00     0.020 C 
ATOM     79  H22 HWS d   1      26.791   0.715  24.165  0.00  0.00     0.074 H 
ATOM     80  H23 HWS d   1      27.246   2.240  23.332  0.00  0.00     0.074 H 
BRANCH  78  81
ATOM     81  O5  HWS d   1      26.496   2.445  25.235  0.00  0.00    -0.401 OA
ATOM     82  H24 HWS d   1      26.890   3.302  25.346  0.00  0.00     0.209 HD
ENDBRANCH  78  81
ENDBRANCH  75  78
ENDBRANCH  69  75
ENDBRANCH   7  68
BRANCH  34  83
ATOM     83  C29 HWS d   1      29.235  10.564  23.920  0.00  0.00    -0.027 C 
ATOM     84  C30 HWS d   1      28.766  11.045  22.792  0.00  0.00    -0.077 C 
ATOM     85  H39 HWS d   1      28.736  10.841  24.848  0.00  0.00     0.090 H 
BRANCH  84  86
ATOM     86  C31 HWS d   1      27.535  11.964  22.733  0.00  0.00    -0.025 C 
ATOM     87  H40 HWS d   1      26.747  11.526  23.364  0.00  0.00     0.042 H 
ATOM     88  H41 HWS d   1      27.188  12.008  21.690  0.00  0.00     0.042 H 
BRANCH  86  89
ATOM     89  C32 HWS d   1      27.787  13.361  23.202  0.00  0.00     0.020 C 
ATOM     90  H42 HWS d   1      27.642  13.407  24.291  0.00  0.00     0.074 H 
ATOM     91  H43 HWS d   1      27.077  14.040  22.708  0.00  0.00     0.074 H 
BRANCH  89  92
ATOM     92  O9  HWS d   1      29.107  13.766  22.893  0.00  0.00    -0.401 OA
ATOM     93  H44 HWS d   1      29.244  14.655  23.200  0.00  0.00     0.209 HD
ENDBRANCH  89  92
ENDBRANCH  86  89
ENDBRANCH  84  86
BRANCH  84  94
ATOM     94  C33 HWS d   1      29.388  10.615  21.526  0.00  0.00    -0.054 C 
ATOM     95  H45 HWS d   1      30.250   9.967  21.743  0.00  0.00     0.033 H 
ATOM     96  H46 HWS d   1      29.726  11.499  20.965  0.00  0.00     0.033 H 
ATOM     97  H47 HWS d   1      28.652  10.059  20.927  0.00  0.00     0.033 H 
ENDBRANCH  84  94
ENDBRANCH  34  83
BRANCH  29  98
ATOM     98  N6  HWS d   1      33.424  13.717  21.455  0.00  0.00    -0.348 N 
ATOM     99  C34 HWS d   1      34.377  14.590  21.209  0.00  0.00     0.214 C 
ATOM    100  O13 HWS d   1      35.273  14.400  20.434  0.00  0.00    -0.274 OA
ATOM    101  H48 HWS d   1      32.561  14.070  21.817  0.00  0.00     0.163 HD
BRANCH  99 102
ATOM    102  C35 HWS d   1      34.261  15.889  21.928  0.00  0.00    -0.003 C 
ATOM    103  H49 HWS d   1      35.104  16.538  21.650  0.00  0.00     0.040 H 
ATOM    104  H50 HWS d   1      34.278  15.710  23.013  0.00  0.00     0.040 H 
ATOM    105  H51 HWS d   1      33.315  16.378  21.652  0.00  0.00     0.040 H 
ENDBRANCH  99 102
ENDBRANCH  29  98
TORSDOF 12
