REMARK  9 active torsions:
REMARK  status: ('A' for Active; 'I' for Inactive)
REMARK    1  A    between atoms: C6_3  and  C7_2 
REMARK    2  A    between atoms: C13_5  and  C15_23 
REMARK    3  A    between atoms: C20_6  and  C21_7 
REMARK    4  A    between atoms: C18_9  and  O7_31 
REMARK    5  A    between atoms: O2_25  and  C16_10 
REMARK    6  A    between atoms: C19_11  and  O6_30 
REMARK    7  A    between atoms: C22_34  and  C3_15 
REMARK    8  A    between atoms: C15_23  and  O2_25 
REMARK    9  A    between atoms: C17_26  and  O8_32 
ROOT
ATOM      1  C7  HUG d   1      46.598 -79.942 -39.305  0.00  0.00     0.052 A 
ATOM      2  C9  HUG d   1      45.810 -77.598 -39.397  0.00  0.00    -0.018 A 
ATOM      3  C13 HUG d   1      42.808 -79.631 -39.624  0.00  0.00     0.070 A 
ATOM      4  C8  HUG d   1      46.825 -78.541 -39.302  0.00  0.00     0.132 A 
ATOM      5  C10 HUG d   1      44.510 -78.104 -39.500  0.00  0.00     0.049 A 
ATOM      6  C11 HUG d   1      44.228 -79.490 -39.507  0.00  0.00     0.048 A 
ATOM      7  C12 HUG d   1      45.289 -80.405 -39.409  0.00  0.00     0.144 A 
ATOM      8  F1  HUG d   1      45.025 -81.696 -39.416  0.00  0.00    -0.204 F 
ATOM      9  C14 HUG d   1      42.263 -78.359 -39.684  0.00  0.00    -0.006 A 
ATOM     10  N1  HUG d   1      43.296 -77.423 -39.609  0.00  0.00    -0.364 N 
ATOM     11  F2  HUG d   1      48.071 -78.103 -39.203  0.00  0.00    -0.205 F 
ATOM     12  H2  HUG d   1      46.013 -76.533 -39.392  0.00  0.00     0.091 H 
ATOM     13  H12 HUG d   1      41.203 -78.127 -39.775  0.00  0.00     0.112 H 
ATOM     14  H13 HUG d   1      43.182 -76.400 -39.630  0.00  0.00     0.165 HD
ENDROOT
BRANCH   1  15
ATOM     15  C6  HUG d   1      47.706 -80.884 -39.202  0.00  0.00    -0.020 A 
ATOM     16  C1  HUG d   1      48.764 -80.604 -38.340  0.00  0.00    -0.071 A 
ATOM     17  C2  HUG d   1      49.824 -81.495 -38.236  0.00  0.00    -0.074 A 
ATOM     18  H9  HUG d   1      48.760 -79.693 -37.752  0.00  0.00     0.084 H 
ATOM     19  C3  HUG d   1      49.829 -82.666 -38.991  0.00  0.00    -0.029 A 
ATOM     20  H10 HUG d   1      50.649 -81.279 -37.566  0.00  0.00     0.084 H 
ATOM     21  C4  HUG d   1      48.771 -82.944 -39.850  0.00  0.00    -0.074 A 
ATOM     22  C5  HUG d   1      47.708 -82.053 -39.957  0.00  0.00    -0.071 A 
ATOM     23  H1  HUG d   1      48.775 -83.856 -40.437  0.00  0.00     0.084 H 
ATOM     24  H11 HUG d   1      46.883 -82.269 -40.627  0.00  0.00     0.084 H 
BRANCH  19  25
ATOM     25  C22 HUG d   1      50.988 -83.620 -38.864  0.00  0.00     0.064 C 
ATOM     26  C23 HUG d   1      51.263 -84.302 -40.190  0.00  0.00    -0.037 C 
ATOM     27  C24 HUG d   1      52.294 -85.410 -40.018  0.00  0.00    -0.061 C 
ATOM     28  H19 HUG d   1      51.646 -83.560 -40.906  0.00  0.00     0.037 H 
ATOM     29  H20 HUG d   1      50.328 -84.735 -40.575  0.00  0.00     0.037 H 
ATOM     30  C25 HUG d   1      51.900 -86.356 -38.903  0.00  0.00    -0.045 C 
ATOM     31  H21 HUG d   1      53.269 -84.959 -39.779  0.00  0.00     0.033 H 
ATOM     32  H22 HUG d   1      52.373 -85.976 -40.958  0.00  0.00     0.033 H 
ATOM     33  C26 HUG d   1      51.607 -85.581 -37.649  0.00  0.00     0.021 C 
ATOM     34  H23 HUG d   1      51.003 -86.917 -39.202  0.00  0.00     0.036 H 
ATOM     35  H24 HUG d   1      52.725 -87.058 -38.713  0.00  0.00     0.036 H 
ATOM     36  O9  HUG d   1      50.596 -84.587 -37.880  0.00  0.00    -0.381 OA
ATOM     37  H7  HUG d   1      52.528 -85.085 -37.310  0.00  0.00     0.074 H 
ATOM     38  H8  HUG d   1      51.257 -86.275 -36.871  0.00  0.00     0.074 H 
ATOM     39  H18 HUG d   1      51.890 -83.083 -38.535  0.00  0.00     0.090 H 
ENDBRANCH  19  25
ENDBRANCH   1  15
BRANCH   3  40
ATOM     40  C15 HUG d   1      42.119 -80.900 -39.667  0.00  0.00     0.298 C 
ATOM     41  O1  HUG d   1      42.610 -82.014 -39.613  0.00  0.00    -0.259 OA
BRANCH  40  42
ATOM     42  O2  HUG d   1      40.755 -80.731 -39.782  0.00  0.00    -0.283 OA
BRANCH  42  43
ATOM     43  C16 HUG d   1      39.921 -81.895 -39.838  0.00  0.00     0.168 C 
ATOM     44  C17 HUG d   1      38.592 -81.528 -39.189  0.00  0.00     0.110 C 
ATOM     45  C18 HUG d   1      37.604 -82.676 -39.343  0.00  0.00     0.092 C 
ATOM     46  H14 HUG d   1      38.184 -80.636 -39.688  0.00  0.00     0.094 H 
ATOM     47  C19 HUG d   1      37.494 -83.094 -40.803  0.00  0.00     0.097 C 
ATOM     48  H4  HUG d   1      37.965 -83.534 -38.757  0.00  0.00     0.091 H 
ATOM     49  C20 HUG d   1      38.886 -83.410 -41.336  0.00  0.00     0.152 C 
ATOM     50  H6  HUG d   1      37.067 -82.264 -41.385  0.00  0.00     0.091 H 
ATOM     51  O3  HUG d   1      39.723 -82.254 -41.193  0.00  0.00    -0.339 OA
ATOM     52  H3  HUG d   1      39.306 -84.289 -40.826  0.00  0.00     0.104 H 
ATOM     53  H5  HUG d   1      40.390 -82.730 -39.296  0.00  0.00     0.134 H 
BRANCH  44  54
ATOM     54  O8  HUG d   1      38.790 -81.237 -37.811  0.00  0.00    -0.388 OA
ATOM     55  H17 HUG d   1      39.393 -80.508 -37.726  0.00  0.00     0.210 HD
ENDBRANCH  44  54
BRANCH  45  56
ATOM     56  O7  HUG d   1      36.326 -82.288 -38.850  0.00  0.00    -0.390 OA
ATOM     57  H16 HUG d   1      35.717 -83.010 -38.950  0.00  0.00     0.210 HD
ENDBRANCH  45  56
BRANCH  47  58
ATOM     58  O6  HUG d   1      36.640 -84.226 -40.923  0.00  0.00    -0.390 OA
ATOM     59  H15 HUG d   1      35.776 -84.006 -40.595  0.00  0.00     0.210 HD
ENDBRANCH  47  58
BRANCH  49  60
ATOM     60  C21 HUG d   1      38.827 -83.602 -42.841  0.00  0.00     0.206 C 
ATOM     61  O4  HUG d   1      38.770 -82.754 -43.708  0.00  0.00    -0.646 OA
ATOM     62  O5  HUG d   1      38.846 -84.909 -43.174  0.00  0.00    -0.646 OA
ENDBRANCH  49  60
ENDBRANCH  42  43
ENDBRANCH  40  42
ENDBRANCH   3  40
TORSDOF 9
