REMARK  13 active torsions:
REMARK  status: ('A' for Active; 'I' for Inactive)
REMARK    1  A    between atoms: C8_7  and  C1_8 
REMARK    2  A    between atoms: N1_9  and  C5_10 
REMARK    3  A    between atoms: C5_10  and  C6_11 
REMARK    4  A    between atoms: C7_12  and  C24_13 
REMARK    5  A    between atoms: C24_13  and  N5_14 
REMARK    6  A    between atoms: N5_14  and  C26_15 
REMARK    7  A    between atoms: N5_14  and  C25_16 
REMARK    8  A    between atoms: C2_23  and  O2_24 
REMARK    9  A    between atoms: O2_24  and  C14_25 
REMARK   10  A    between atoms: C14_25  and  C21_26 
REMARK   11  A    between atoms: C14_25  and  C15_27 
REMARK   12  A    between atoms: C19_29  and  C23_30 
REMARK   13  A    between atoms: C17_35  and  C22_37 
ROOT
ATOM      1  C1  L76 d   1     -18.286  54.717  56.011  0.00  0.00     0.176 C 
ATOM      2  N1  L76 d   1     -19.183  54.174  57.053  0.00  0.00    -0.051 N 
ATOM      3  C4  L76 d   1     -20.516  54.829  56.980  0.00  0.00     0.104 C 
ATOM      4  C3  L76 d   1     -21.100  54.656  55.585  0.00  0.00     0.045 C 
ATOM      5  O1  L76 d   1     -20.189  55.205  54.676  0.00  0.00    -0.357 OA
ATOM      6  C2  L76 d   1     -18.956  54.482  54.678  0.00  0.00     0.163 C 
ATOM      7  H5  L76 d   1     -18.222  55.801  56.186  0.00  0.00     0.100 H 
ATOM      8  H6  L76 d   1     -19.328  53.206  56.814  0.00  0.00     0.281 HD
ATOM      9  H19 L76 d   1     -20.409  55.901  57.200  0.00  0.00     0.079 H 
ATOM     10  H20 L76 d   1     -21.190  54.369  57.718  0.00  0.00     0.079 H 
ATOM     11  H21 L76 d   1     -22.064  55.181  55.514  0.00  0.00     0.077 H 
ATOM     12  H22 L76 d   1     -21.248  53.587  55.370  0.00  0.00     0.077 H 
ATOM     13  H23 L76 d   1     -18.311  54.838  53.861  0.00  0.00     0.133 H 
ENDROOT
BRANCH   6  14
ATOM     14  O2  L76 d   1     -19.205  53.061  54.522  0.00  0.00    -0.349 OA
BRANCH  14  15
ATOM     15  C14 L76 d   1     -19.410  52.711  53.156  0.00  0.00     0.063 C 
ATOM     16  H24 L76 d   1     -20.019  53.482  52.661  0.00  0.00     0.090 H 
BRANCH  15  17
ATOM     17  C21 L76 d   1     -20.146  51.376  53.070  0.00  0.00    -0.048 C 
ATOM     18  H25 L76 d   1     -20.302  51.111  52.014  0.00  0.00     0.031 H 
ATOM     19  H26 L76 d   1     -21.120  51.461  53.574  0.00  0.00     0.031 H 
ATOM     20  H27 L76 d   1     -19.547  50.595  53.560  0.00  0.00     0.031 H 
ENDBRANCH  15  17
BRANCH  15  21
ATOM     21  C15 L76 d   1     -18.153  52.666  52.558  0.00  0.00    -0.028 A 
ATOM     22  C20 L76 d   1     -17.886  53.554  51.527  0.00  0.00    -0.060 A 
ATOM     23  C19 L76 d   1     -16.635  53.552  50.935  0.00  0.00     0.049 A 
ATOM     24  H28 L76 d   1     -18.650  54.244  51.188  0.00  0.00     0.085 H 
ATOM     25  C18 L76 d   1     -15.645  52.682  51.375  0.00  0.00    -0.054 A 
ATOM     26  C17 L76 d   1     -15.903  51.795  52.410  0.00  0.00     0.049 A 
ATOM     27  H29 L76 d   1     -14.667  52.696  50.908  0.00  0.00     0.086 H 
ATOM     28  C16 L76 d   1     -17.161  51.798  53.014  0.00  0.00    -0.060 A 
ATOM     29  H30 L76 d   1     -17.367  51.125  53.838  0.00  0.00     0.085 H 
BRANCH  23  30
ATOM     30  C23 L76 d   1     -16.377  54.442  49.922  0.00  0.00     0.417 C 
ATOM     31  F6  L76 d   1     -15.088  54.509  49.751  0.00  0.00    -0.166 F 
ATOM     32  F5  L76 d   1     -16.851  55.682  50.322  0.00  0.00    -0.166 F 
ATOM     33  F4  L76 d   1     -16.976  54.049  48.804  0.00  0.00    -0.166 F 
ENDBRANCH  23  30
BRANCH  26  34
ATOM     34  C22 L76 d   1     -14.886  50.940  52.828  0.00  0.00     0.417 C 
ATOM     35  F1  L76 d   1     -14.632  50.025  51.859  0.00  0.00    -0.166 F 
ATOM     36  F2  L76 d   1     -13.795  51.643  53.055  0.00  0.00    -0.166 F 
ATOM     37  F3  L76 d   1     -15.238  50.331  53.958  0.00  0.00    -0.166 F 
ENDBRANCH  26  34
ENDBRANCH  15  21
ENDBRANCH  14  15
ENDBRANCH   6  14
BRANCH   1  38
ATOM     38  C8  L76 d   1     -16.957  54.248  55.943  0.00  0.00    -0.022 A 
ATOM     39  C9  L76 d   1     -16.599  52.923  56.226  0.00  0.00    -0.072 A 
ATOM     40  C10 L76 d   1     -15.262  52.527  56.147  0.00  0.00    -0.045 A 
ATOM     41  H2  L76 d   1     -17.361  52.205  56.507  0.00  0.00     0.084 H 
ATOM     42  C11 L76 d   1     -14.279  53.453  55.784  0.00  0.00     0.116 A 
ATOM     43  H1  L76 d   1     -14.986  51.502  56.367  0.00  0.00     0.088 H 
ATOM     44  F7  L76 d   1     -12.974  53.085  55.700  0.00  0.00    -0.206 F 
ATOM     45  C12 L76 d   1     -14.634  54.769  55.501  0.00  0.00    -0.045 A 
ATOM     46  C13 L76 d   1     -15.965  55.156  55.575  0.00  0.00    -0.072 A 
ATOM     47  H3  L76 d   1     -13.873  55.489  55.224  0.00  0.00     0.088 H 
ATOM     48  H4  L76 d   1     -16.237  56.179  55.343  0.00  0.00     0.084 H 
ENDBRANCH   1  38
BRANCH   2  49
ATOM     49  C5  L76 d   1     -18.623  54.161  58.439  0.00  0.00     0.127 C 
ATOM     50  H7  L76 d   1     -17.926  53.314  58.517  0.00  0.00     0.086 H 
ATOM     51  H8  L76 d   1     -19.457  54.015  59.142  0.00  0.00     0.086 H 
BRANCH  49  52
ATOM     52  C6  L76 d   1     -17.875  55.428  58.849  0.00  0.00     0.110 A 
ATOM     53  C7  L76 d   1     -18.361  56.465  59.494  0.00  0.00     0.083 A 
ATOM     54  N4  L76 d   1     -17.358  57.309  59.644  0.00  0.00    -0.260 N 
ATOM     55  N3  L76 d   1     -16.334  56.779  59.099  0.00  0.00    -0.068 NA
ATOM     56  H18 L76 d   1     -17.395  58.225  60.114  0.00  0.00     0.190 HD
ATOM     57  N2  L76 d   1     -16.590  55.676  58.628  0.00  0.00    -0.133 NA
BRANCH  53  58
ATOM     58  C24 L76 d   1     -19.785  56.671  60.013  0.00  0.00     0.123 C 
ATOM     59  H9  L76 d   1     -20.433  55.871  59.627  0.00  0.00     0.085 H 
ATOM     60  H10 L76 d   1     -20.161  57.646  59.669  0.00  0.00     0.085 H 
BRANCH  58  61
ATOM     61  N5  L76 d   1     -19.792  56.637  61.492  0.00  0.00    -0.073 N 
ATOM     62  H11 L76 d   1     -19.235  57.409  61.823  0.00  0.00     0.279 HD
BRANCH  61  63
ATOM     63  C26 L76 d   1     -21.166  56.818  61.990  0.00  0.00     0.066 C 
ATOM     64  H12 L76 d   1     -21.164  56.792  63.090  0.00  0.00     0.068 H 
ATOM     65  H13 L76 d   1     -21.805  56.010  61.605  0.00  0.00     0.068 H 
ATOM     66  H14 L76 d   1     -21.555  57.788  61.647  0.00  0.00     0.068 H 
ENDBRANCH  61  63
BRANCH  61  67
ATOM     67  C25 L76 d   1     -19.191  55.390  62.020  0.00  0.00     0.066 C 
ATOM     68  H15 L76 d   1     -18.168  55.283  61.631  0.00  0.00     0.068 H 
ATOM     69  H16 L76 d   1     -19.796  54.528  61.702  0.00  0.00     0.068 H 
ATOM     70  H17 L76 d   1     -19.163  55.433  63.119  0.00  0.00     0.068 H 
ENDBRANCH  61  67
ENDBRANCH  58  61
ENDBRANCH  53  58
ENDBRANCH  49  52
ENDBRANCH   2  49
TORSDOF 13
