REMARK  19 active torsions:
REMARK  status: ('A' for Active; 'I' for Inactive)
REMARK    1  A    between atoms: C1_1  and  C2_2 
REMARK    2  A    between atoms: C_17  and  C1_1 
REMARK    3  A    between atoms: C2_2  and  C3_3 
REMARK    4  A    between atoms: C2_2  and  C4_4 
REMARK    5  A    between atoms: C6_6  and  C5_5 
REMARK       I    between atoms: C5_5  and  N_16 
REMARK    6  A    between atoms: C8_8  and  N1_19 
REMARK    7  A    between atoms: C9_29  and  C8_8 
REMARK    8  A    between atoms: C11_9  and  C10_30 
REMARK    9  A    between atoms: C15_11  and  O3_24 
REMARK   10  A    between atoms: C16_12  and  O2_22 
REMARK   11  A    between atoms: O2_22  and  C17_13 
REMARK   12  A    between atoms: O3_24  and  C18_14 
REMARK   13  A    between atoms: O4_26  and  C19_15 
REMARK   14  A    between atoms: N_16  and  C_17 
REMARK   15  A    between atoms: C_17  and  B_33 
REMARK   16  A    between atoms: N4_25  and  C9_29 
REMARK       I    between atoms: C10_30  and  N4_25 
REMARK   17  A    between atoms: O4_26  and  C14_32 
REMARK   18  A    between atoms: B_33  and  O5_27 
REMARK   19  A    between atoms: B_33  and  O6_28 
ROOT
ATOM      1  C8  HUJ d   1      -5.044  13.127   0.531  0.00  0.00     0.028 C 
ATOM      2  H11 HUJ d   1      -4.120  12.543   0.408  0.00  0.00     0.069 H 
ATOM      3  H12 HUJ d   1      -5.752  12.865  -0.269  0.00  0.00     0.069 H 
ENDROOT
BRANCH   1   4
ATOM      4  N1  HUJ d   1      -4.716  14.554   0.420  0.00  0.00    -0.281 N 
ATOM      5  C7  HUJ d   1      -4.311  15.492   1.280  0.00  0.00     0.029 A 
ATOM      6  C6  HUJ d   1      -4.179  16.684   0.582  0.00  0.00     0.158 A 
ATOM      7  H10 HUJ d   1      -4.118  15.347   2.342  0.00  0.00     0.117 H 
ATOM      8  N3  HUJ d   1      -4.468  16.441  -0.717  0.00  0.00    -0.153 NA
ATOM      9  N2  HUJ d   1      -4.831  15.091  -0.862  0.00  0.00     0.005 NA
BRANCH   6  10
ATOM     10  C5  HUJ d   1      -3.716  17.999   1.120  0.00  0.00     0.272 C 
ATOM     11  N   HUJ d   1      -4.007  19.122   0.446  0.00  0.00    -0.362 N 
ATOM     12  H23 HUJ d   1      -4.575  19.021  -0.371  0.00  0.00     0.162 HD
ATOM     13  O   HUJ d   1      -3.066  17.981   2.147  0.00  0.00    -0.266 OA
BRANCH  11  14
ATOM     14  C   HUJ d   1      -3.574  20.489   0.787  0.00  0.00    -0.032 C 
ATOM     15  H25 HUJ d   1      -2.692  20.450   1.444  0.00  0.00     0.053 H 
BRANCH  14  16
ATOM     16  C1  HUJ d   1      -3.216  21.213  -0.531  0.00  0.00    -0.053 C 
ATOM     17  H1  HUJ d   1      -4.160  21.485  -1.027  0.00  0.00     0.035 H 
ATOM     18  H2  HUJ d   1      -2.663  22.127  -0.268  0.00  0.00     0.035 H 
BRANCH  16  19
ATOM     19  C2  HUJ d   1      -2.365  20.433  -1.549  0.00  0.00    -0.060 C 
ATOM     20  H3  HUJ d   1      -2.958  19.566  -1.876  0.00  0.00     0.038 H 
BRANCH  19  21
ATOM     21  C3  HUJ d   1      -1.061  19.900  -0.959  0.00  0.00    -0.073 C 
ATOM     22  H4  HUJ d   1      -0.503  19.355  -1.735  0.00  0.00     0.028 H 
ATOM     23  H5  HUJ d   1      -1.287  19.220  -0.124  0.00  0.00     0.028 H 
ATOM     24  H6  HUJ d   1      -0.454  20.741  -0.593  0.00  0.00     0.028 H 
ENDBRANCH  19  21
BRANCH  19  25
ATOM     25  C4  HUJ d   1      -2.070  21.289  -2.775  0.00  0.00    -0.073 C 
ATOM     26  H7  HUJ d   1      -3.014  21.668  -3.193  0.00  0.00     0.028 H 
ATOM     27  H8  HUJ d   1      -1.552  20.680  -3.531  0.00  0.00     0.028 H 
ATOM     28  H9  HUJ d   1      -1.431  22.136  -2.486  0.00  0.00     0.028 H 
ENDBRANCH  19  25
ENDBRANCH  16  19
ENDBRANCH  14  16
BRANCH  14  29
ATOM     29  B   HUJ d   1      -4.645  21.360   1.636  0.00  0.00     0.117 B 
BRANCH  29  30
ATOM     30  O5  HUJ d   1      -4.705  20.820   3.078  0.00  0.00     0.000 OA
ATOM     31  H27 HUJ d   1      -3.847  20.894   3.479  0.00  0.00     0.000 HD
ATOM     32  H28 HUJ d   1      -3.847  20.894   3.479  0.00  0.00     0.000 HD
ENDBRANCH  29  30
BRANCH  29  33
ATOM     33  O6  HUJ d   1      -6.013  21.263   0.939  0.00  0.00     0.000 OA
ATOM     34  H29 HUJ d   1      -6.288  20.354   0.909  0.00  0.00     0.000 HD
ATOM     35  H30 HUJ d   1      -6.288  20.354   0.909  0.00  0.00     0.000 HD
ENDBRANCH  29  33
ENDBRANCH  14  29
ENDBRANCH  11  14
ENDBRANCH   6  10
ENDBRANCH   1   4
BRANCH   1  36
ATOM     36  C9  HUJ d   1      -5.674  12.769   1.878  0.00  0.00     0.012 C 
ATOM     37  H31 HUJ d   1      -5.133  13.314   2.666  0.00  0.00     0.066 H 
ATOM     38  H32 HUJ d   1      -5.558  11.687   2.035  0.00  0.00     0.066 H 
BRANCH  36  39
ATOM     39  N4  HUJ d   1      -7.095  13.097   1.988  0.00  0.00    -0.355 N 
ATOM     40  C10 HUJ d   1      -7.633  13.974   2.862  0.00  0.00     0.254 C 
ATOM     41  O1  HUJ d   1      -6.963  14.618   3.662  0.00  0.00    -0.268 OA
ATOM     42  H26 HUJ d   1      -7.721  12.632   1.363  0.00  0.00     0.162 HD
BRANCH  40  43
ATOM     43  C11 HUJ d   1      -9.134  14.194   2.854  0.00  0.00     0.068 A 
ATOM     44  C12 HUJ d   1      -9.785  14.393   1.620  0.00  0.00    -0.062 A 
ATOM     45  C13 HUJ d   1     -11.173  14.598   1.563  0.00  0.00    -0.047 A 
ATOM     46  H13 HUJ d   1      -9.207  14.388   0.703  0.00  0.00     0.085 H 
ATOM     47  C14 HUJ d   1     -11.929  14.612   2.745  0.00  0.00     0.104 A 
ATOM     48  H33 HUJ d   1     -11.660  14.745   0.606  0.00  0.00     0.087 H 
ATOM     49  C15 HUJ d   1     -11.293  14.419   3.981  0.00  0.00     0.136 A 
ATOM     50  C16 HUJ d   1      -9.901  14.212   4.044  0.00  0.00     0.120 A 
BRANCH  47  51
ATOM     51  O4  HUJ d   1     -13.285  14.816   2.676  0.00  0.00    -0.353 OA
BRANCH  51  52
ATOM     52  C19 HUJ d   1     -13.838  16.144   2.953  0.00  0.00     0.010 C 
ATOM     53  H20 HUJ d   1     -14.933  16.114   2.850  0.00  0.00     0.066 H 
ATOM     54  H21 HUJ d   1     -13.422  16.871   2.240  0.00  0.00     0.066 H 
ATOM     55  H22 HUJ d   1     -13.575  16.444   3.978  0.00  0.00     0.066 H 
ENDBRANCH  51  52
ENDBRANCH  47  51
BRANCH  49  56
ATOM     56  O3  HUJ d   1     -12.042  14.435   5.133  0.00  0.00    -0.351 OA
BRANCH  56  57
ATOM     57  C18 HUJ d   1     -12.455  13.215   5.766  0.00  0.00     0.011 C 
ATOM     58  H17 HUJ d   1     -13.041  13.450   6.667  0.00  0.00     0.067 H 
ATOM     59  H18 HUJ d   1     -11.568  12.629   6.048  0.00  0.00     0.067 H 
ATOM     60  H19 HUJ d   1     -13.073  12.631   5.069  0.00  0.00     0.067 H 
ENDBRANCH  56  57
ENDBRANCH  49  56
BRANCH  50  61
ATOM     61  O2  HUJ d   1      -9.316  14.026   5.279  0.00  0.00    -0.352 OA
BRANCH  61  62
ATOM     62  C17 HUJ d   1      -9.055  15.138   6.138  0.00  0.00     0.011 C 
ATOM     63  H14 HUJ d   1      -8.589  14.781   7.068  0.00  0.00     0.067 H 
ATOM     64  H15 HUJ d   1     -10.000  15.649   6.374  0.00  0.00     0.067 H 
ATOM     65  H16 HUJ d   1      -8.375  15.840   5.633  0.00  0.00     0.067 H 
ENDBRANCH  61  62
ENDBRANCH  50  61
ENDBRANCH  40  43
ENDBRANCH  36  39
ENDBRANCH   1  36
TORSDOF 19
