REMARK  5 active torsions:
REMARK  status: ('A' for Active; 'I' for Inactive)
REMARK    1  A    between atoms: C3_1  and  C4_2 
REMARK    2  A    between atoms: C4_2  and  C5_4 
REMARK    3  A    between atoms: C10_9  and  N2_10 
REMARK    4  A    between atoms: N2_10  and  C11_11 
REMARK    5  A    between atoms: C15_15  and  C16_16 
ROOT
ATOM      1  C5  HUY d   1      23.985  -7.941  18.561  0.00  0.00     0.036 A 
ATOM      2  C6  HUY d   1      22.800  -7.501  19.128  0.00  0.00    -0.067 A 
ATOM      3  C7  HUY d   1      22.353  -8.068  20.311  0.00  0.00    -0.082 A 
ATOM      4  C8  HUY d   1      23.093  -9.070  20.921  0.00  0.00    -0.081 A 
ATOM      5  C9  HUY d   1      24.277  -9.510  20.351  0.00  0.00    -0.056 A 
ATOM      6  C10 HUY d   1      24.719  -8.943  19.167  0.00  0.00     0.046 A 
ATOM      7  H4  HUY d   1      22.225  -6.717  18.649  0.00  0.00     0.085 H 
ATOM      8  H5  HUY d   1      21.426  -7.729  20.759  0.00  0.00     0.083 H 
ATOM      9  H6  HUY d   1      22.744  -9.511  21.848  0.00  0.00     0.083 H 
ATOM     10  H7  HUY d   1      24.854 -10.293  20.829  0.00  0.00     0.086 H 
ENDROOT
BRANCH   6  11
ATOM     11  N2  HUY d   1      25.955  -9.370  18.544  0.00  0.00    -0.355 N 
ATOM     12  H8  HUY d   1      26.586  -8.653  18.158  0.00  0.00     0.166 HD
BRANCH  11  13
ATOM     13  C11 HUY d   1      26.342 -10.763  18.441  0.00  0.00     0.033 A 
ATOM     14  C12 HUY d   1      27.425 -11.205  19.182  0.00  0.00    -0.057 A 
ATOM     15  C13 HUY d   1      27.827 -12.528  19.098  0.00  0.00    -0.080 A 
ATOM     16  H9  HUY d   1      27.958 -10.516  19.827  0.00  0.00     0.086 H 
ATOM     17  C14 HUY d   1      27.150 -13.401  18.263  0.00  0.00    -0.068 A 
ATOM     18  H10 HUY d   1      28.669 -12.879  19.684  0.00  0.00     0.083 H 
ATOM     19  C15 HUY d   1      26.067 -12.967  17.517  0.00  0.00     0.050 A 
ATOM     20  H11 HUY d   1      27.471 -14.434  18.193  0.00  0.00     0.084 H 
ATOM     21  C17 HUY d   1      25.663 -11.640  17.602  0.00  0.00    -0.043 A 
ATOM     22  H12 HUY d   1      24.821 -11.290  17.016  0.00  0.00     0.088 H 
BRANCH  19  23
ATOM     23  C16 HUY d   1      25.348 -13.968  16.609  0.00  0.00     0.417 C 
ATOM     24  F1  HUY d   1      25.778 -13.845  15.318  0.00  0.00    -0.166 F 
ATOM     25  F2  HUY d   1      24.000 -13.756  16.668  0.00  0.00    -0.166 F 
ATOM     26  F3  HUY d   1      25.634 -15.236  17.024  0.00  0.00    -0.166 F 
ENDBRANCH  19  23
ENDBRANCH  11  13
ENDBRANCH   6  11
BRANCH   1  27
ATOM     27  C4  HUY d   1      24.498  -7.329  17.261  0.00  0.00     0.158 C 
ATOM     28  O1  HUY d   1      25.581  -6.852  17.213  0.00  0.00    -0.293 OA
BRANCH  27  29
ATOM     29  C3  HUY d   1      23.605  -7.321  16.029  0.00  0.00    -0.017 C 
ATOM     30  H1  HUY d   1      22.646  -7.805  16.268  0.00  0.00     0.038 H 
ATOM     31  H2  HUY d   1      24.100  -7.870  15.214  0.00  0.00     0.038 H 
ATOM     32  H3  HUY d   1      23.423  -6.283  15.715  0.00  0.00     0.038 H 
ENDBRANCH  27  29
ENDBRANCH   1  27
TORSDOF 5
