REMARK  10 active torsions:
REMARK  status: ('A' for Active; 'I' for Inactive)
REMARK    1  A    between atoms: C1_1  and  C16_16 
REMARK    2  A    between atoms: C1_1  and  C17_17 
REMARK    3  A    between atoms: C5_5  and  C18_18 
REMARK    4  A    between atoms: C6_6  and  C7_7 
REMARK    5  A    between atoms: C8_8  and  C9_9 
REMARK    6  A    between atoms: C9_9  and  C19_19 
REMARK    7  A    between atoms: C10_10  and  C11_11 
REMARK    8  A    between atoms: C12_12  and  C13_13 
REMARK    9  A    between atoms: C13_13  and  C20_20 
REMARK   10  A    between atoms: C14_14  and  C15_15 
ROOT
ATOM      1  C7  RET d   1       1.323 -15.541  12.426  0.00  0.00    -0.075 C 
ATOM      2  C8  RET d   1       0.949 -14.647  13.329  0.00  0.00    -0.077 C 
ATOM      3  H7  RET d   1       1.103 -16.588  12.631  0.00  0.00     0.084 H 
ATOM      4  H8  RET d   1       1.139 -13.590  13.148  0.00  0.00     0.084 H 
ENDROOT
BRANCH   1   5
ATOM      5  C6  RET d   1       2.023 -15.219  11.150  0.00  0.00    -0.048 C 
ATOM      6  C1  RET d   1       1.242 -14.668   9.956  0.00  0.00    -0.020 C 
ATOM      7  C2  RET d   1       2.153 -14.420   8.754  0.00  0.00    -0.054 C 
ATOM      8  C3  RET d   1       3.263 -15.451   8.673  0.00  0.00    -0.061 C 
ATOM      9  H1  RET d   1       2.601 -13.420   8.846  0.00  0.00     0.034 H 
ATOM     10  H2  RET d   1       1.552 -14.470   7.834  0.00  0.00     0.034 H 
ATOM     11  C4  RET d   1       4.166 -15.195   9.865  0.00  0.00    -0.044 C 
ATOM     12  H3  RET d   1       3.826 -15.332   7.736  0.00  0.00     0.033 H 
ATOM     13  H4  RET d   1       2.844 -16.467   8.723  0.00  0.00     0.033 H 
ATOM     14  C5  RET d   1       3.347 -15.455  11.101  0.00  0.00    -0.077 C 
ATOM     15  H5  RET d   1       4.516 -14.152   9.857  0.00  0.00     0.039 H 
ATOM     16  H6  RET d   1       5.032 -15.873   9.836  0.00  0.00     0.039 H 
BRANCH   6  17
ATOM     17  C16 RET d   1       0.128 -15.656   9.596  0.00  0.00    -0.065 C 
ATOM     18  H16 RET d   1      -0.515 -15.820  10.474  0.00  0.00     0.028 H 
ATOM     19  H17 RET d   1       0.573 -16.612   9.284  0.00  0.00     0.028 H 
ATOM     20  H18 RET d   1      -0.474 -15.245   8.772  0.00  0.00     0.028 H 
ENDBRANCH   6  17
BRANCH   6  21
ATOM     21  C17 RET d   1       0.609 -13.327  10.306  0.00  0.00    -0.065 C 
ATOM     22  H19 RET d   1       1.398 -12.606  10.567  0.00  0.00     0.028 H 
ATOM     23  H20 RET d   1      -0.070 -13.454  11.162  0.00  0.00     0.028 H 
ATOM     24  H21 RET d   1       0.042 -12.952   9.441  0.00  0.00     0.028 H 
ENDBRANCH   6  21
BRANCH  14  25
ATOM     25  C18 RET d   1       4.061 -15.999  12.307  0.00  0.00    -0.054 C 
ATOM     26  H22 RET d   1       3.341 -16.138  13.127  0.00  0.00     0.033 H 
ATOM     27  H23 RET d   1       4.843 -15.291  12.621  0.00  0.00     0.033 H 
ATOM     28  H24 RET d   1       4.521 -16.966  12.056  0.00  0.00     0.033 H 
ENDBRANCH  14  25
ENDBRANCH   1   5
BRANCH   2  29
ATOM     29  C9  RET d   1       0.278 -15.062  14.580  0.00  0.00    -0.062 C 
ATOM     30  C10 RET d   1      -1.002 -14.730  14.803  0.00  0.00    -0.077 C 
ATOM     31  H9  RET d   1      -1.571 -14.181  14.055  0.00  0.00     0.084 H 
BRANCH  30  32
ATOM     32  C11 RET d   1      -1.618 -15.119  16.069  0.00  0.00    -0.082 C 
ATOM     33  C12 RET d   1      -2.765 -14.549  16.437  0.00  0.00    -0.077 C 
ATOM     34  H11 RET d   1      -3.248 -13.821  15.786  0.00  0.00     0.084 H 
ATOM     35  H10 RET d   1      -1.145 -15.866  16.705  0.00  0.00     0.083 H 
BRANCH  33  36
ATOM     36  C13 RET d   1      -3.376 -14.907  17.726  0.00  0.00    -0.066 C 
ATOM     37  C14 RET d   1      -4.540 -14.362  18.131  0.00  0.00    -0.101 C 
ATOM     38  H12 RET d   1      -5.052 -13.645  17.491  0.00  0.00     0.077 H 
BRANCH  37  39
ATOM     39  C15 RET d   1      -5.123 -14.726  19.425  0.00  0.00    -0.059 C 
ATOM     40  H13 RET d   1      -6.066 -14.178  19.570  0.00  0.00     0.032 H 
ATOM     41  H14 RET d   1      -4.420 -14.466  20.230  0.00  0.00     0.032 H 
ATOM     42  H15 RET d   1      -5.321 -15.808  19.447  0.00  0.00     0.032 H 
ENDBRANCH  37  39
BRANCH  36  43
ATOM     43  C20 RET d   1      -2.634 -15.872  18.587  0.00  0.00    -0.051 C 
ATOM     44  H28 RET d   1      -1.717 -16.193  18.072  0.00  0.00     0.033 H 
ATOM     45  H29 RET d   1      -3.268 -16.748  18.787  0.00  0.00     0.033 H 
ATOM     46  H30 RET d   1      -2.369 -15.387  19.538  0.00  0.00     0.033 H 
ENDBRANCH  36  43
ENDBRANCH  33  36
ENDBRANCH  30  32
BRANCH  29  47
ATOM     47  C19 RET d   1       1.042 -15.812  15.645  0.00  0.00    -0.051 C 
ATOM     48  H25 RET d   1       2.068 -16.000  15.296  0.00  0.00     0.033 H 
ATOM     49  H26 RET d   1       0.542 -16.771  15.848  0.00  0.00     0.033 H 
ATOM     50  H27 RET d   1       1.072 -15.212  16.566  0.00  0.00     0.033 H 
ENDBRANCH  29  47
ENDBRANCH   2  29
TORSDOF 10
