REMARK WARNING: 32 MAX_TORS EXCEEDED!!!
REMARK  33 active torsions:
REMARK  status: ('A' for Active; 'I' for Inactive)
REMARK    1  A    between atoms: N_1  and  CA_2 
REMARK    2  A    between atoms: CA_2  and  C_3 
REMARK    3  A    between atoms: CA_2  and  CB_5 
REMARK       I    between atoms: C_3  and  N_12 
REMARK    4  A    between atoms: CB_5  and  CG_6 
REMARK    5  A    between atoms: N_12  and  CA_13 
REMARK    6  A    between atoms: CA_13  and  C_14 
REMARK    7  A    between atoms: CA_13  and  CB_16 
REMARK       I    between atoms: C_14  and  N_19 
REMARK    8  A    between atoms: CB_16  and  CG1_17 
REMARK    9  A    between atoms: CB_16  and  CG2_18 
REMARK   10  A    between atoms: CA_20  and  C_21 
REMARK       I    between atoms: C_21  and  N_26 
REMARK   11  A    between atoms: N_26  and  CA_27 
REMARK   12  A    between atoms: CA_27  and  C_28 
REMARK   13  A    between atoms: CA_27  and  CB_30 
REMARK       I    between atoms: C_28  and  N_33 
REMARK   14  A    between atoms: CB_30  and  CG1_31 
REMARK   15  A    between atoms: CB_30  and  CG2_32 
REMARK   16  A    between atoms: CA_34  and  C_35 
REMARK       I    between atoms: C_35  and  N_40 
REMARK   17  A    between atoms: CA_41  and  C_42 
REMARK       I    between atoms: C_42  and  N_47 
REMARK   18  A    between atoms: CA_48  and  C_49 
REMARK       I    between atoms: C_49  and  N_54 
REMARK   19  A    between atoms: CA_55  and  C_56 
REMARK       I    between atoms: C_56  and  N_61 
REMARK   20  A    between atoms: N_61  and  CA_62 
REMARK   21  A    between atoms: CA_62  and  C_63 
REMARK   22  A    between atoms: CA_62  and  CB_65 
REMARK       I    between atoms: C_63  and  N_69 
REMARK   23  A    between atoms: CB_65  and  CG_66 
REMARK   24  A    between atoms: CG_66  and  CD1_67 
REMARK   25  A    between atoms: CG_66  and  CD2_68 
REMARK   26  A    between atoms: N_69  and  CA_70 
REMARK   27  A    between atoms: CA_70  and  C_71 
REMARK   28  A    between atoms: CA_70  and  CB_73 
REMARK       I    between atoms: C_71  and  N_81 
REMARK   29  A    between atoms: CB_73  and  CG_74 
REMARK   30  A    between atoms: CZ_79  and  OH_80 
REMARK   31  A    between atoms: CA_82  and  C_83 
REMARK       I    between atoms: C_83  and  N_88 
REMARK   32  A    between atoms: CA_89  and  C_90 
REMARK       I    between atoms: C_90  and  N_95 
REMARK   33  A    between atoms: CA_96  and  C_97 
ROOT
ATOM      1  C   PHE d   1      10.068   2.726  16.998  0.00  0.00     0.243 C 
ATOM      2  O   PHE d   1       9.252   1.897  17.391  0.00  0.00    -0.271 OA
ATOM      3  N   PHE d   1       9.700   4.005  16.777  0.00  0.00    -0.337 N 
ATOM      4  CA  PHE d   1       8.306   4.424  16.888  0.00  0.00     0.092 C 
ATOM      5  CB  PHE d   1       8.352   5.946  16.684  0.00  0.00    -0.036 C 
ATOM      6  CG  PHE d   1       9.656   6.198  15.954  0.00  0.00    -0.048 A 
ATOM      7  CD  PHE d   1      10.602   5.106  16.411  0.00  0.00    -0.001 C 
ATOM      8  H51 PHE d   1       7.902   4.183  17.882  0.00  0.00     0.087 H 
ATOM      9  H52 PHE d   1       8.343   6.468  17.652  0.00  0.00     0.036 H 
ATOM     10  H53 PHE d   1       7.497   6.282  16.078  0.00  0.00     0.036 H 
ATOM     11  H54 PHE d   1      10.057   7.188  16.217  0.00  0.00     0.035 H 
ATOM     12  H55 PHE d   1       9.503   6.142  14.866  0.00  0.00     0.035 H 
ATOM     13  H56 PHE d   1      11.279   4.806  15.598  0.00  0.00     0.064 H 
ATOM     14  H57 PHE d   1      11.193   5.435  17.278  0.00  0.00     0.064 H 
ENDROOT
BRANCH   4  15
ATOM     15  C   PHE d   1       7.470   3.726  15.823  0.00  0.00     0.243 C 
ATOM     16  O   PHE d   1       7.998   3.264  14.814  0.00  0.00    -0.271 OA
ATOM     17  N   PHE d   1       6.139   3.609  16.014  0.00  0.00    -0.337 N 
ATOM     18  CA  PHE d   1       5.288   2.986  15.005  0.00  0.00     0.091 C 
ATOM     19  CD  PHE d   1       5.389   4.063  17.193  0.00  0.00    -0.001 C 
ATOM     20  CB  PHE d   1       3.875   3.045  15.608  0.00  0.00    -0.036 C 
ATOM     21  H58 PHE d   1       5.589   1.940  14.842  0.00  0.00     0.087 H 
ATOM     22  CG  PHE d   1       3.958   4.100  16.696  0.00  0.00    -0.048 A 
ATOM     23  H59 PHE d   1       3.595   2.070  16.035  0.00  0.00     0.036 H 
ATOM     24  H60 PHE d   1       3.140   3.335  14.843  0.00  0.00     0.036 H 
ATOM     25  H61 PHE d   1       3.261   3.863  17.514  0.00  0.00     0.035 H 
ATOM     26  H62 PHE d   1       3.720   5.093  16.287  0.00  0.00     0.035 H 
ATOM     27  H63 PHE d   1       5.722   5.061  17.513  0.00  0.00     0.064 H 
ATOM     28  H64 PHE d   1       5.499   3.355  18.028  0.00  0.00     0.064 H 
BRANCH  18  29
ATOM     29  C   PHE d   1       5.370   3.741  13.670  0.00  0.00     0.241 C 
ATOM     30  O   PHE d   1       5.487   4.968  13.653  0.00  0.00    -0.271 OA
ATOM     31  N   PHE d   1       5.337   2.979  12.573  0.00  0.00    -0.346 N 
ATOM     32  H65 PHE d   1       5.387   1.986  12.685  0.00  0.00     0.163 HD
BRANCH  31  33
ATOM     33  CA  PHE d   1       5.232   3.515  11.224  0.00  0.00     0.089 C 
ATOM     34  H66 PHE d   1       5.725   4.497  11.177  0.00  0.00     0.087 H 
BRANCH  33  35
ATOM     35  C   PHE d   1       3.749   3.673  10.879  0.00  0.00     0.241 C 
ATOM     36  O   PHE d   1       2.980   2.719  10.986  0.00  0.00    -0.271 OA
ATOM     37  N   PHE d   1       3.373   4.890  10.482  0.00  0.00    -0.346 N 
ATOM     38  H76 PHE d   1       4.057   5.619  10.464  0.00  0.00     0.163 HD
BRANCH  37  39
ATOM     39  CA  PHE d   1       2.016   5.203  10.075  0.00  0.00     0.093 C 
ATOM     40  H77 PHE d   1       1.319   4.553  10.624  0.00  0.00     0.088 H 
BRANCH  39  41
ATOM     41  C   PHE d   1       1.869   4.918   8.584  0.00  0.00     0.243 C 
ATOM     42  O   PHE d   1       2.809   5.111   7.816  0.00  0.00    -0.271 OA
ATOM     43  N   PHE d   1       0.692   4.431   8.132  0.00  0.00    -0.337 N 
ATOM     44  CA  PHE d   1       0.460   4.193   6.708  0.00  0.00     0.092 C 
ATOM     45  CD  PHE d   1      -0.475   4.095   8.961  0.00  0.00    -0.001 C 
ATOM     46  CB  PHE d   1      -0.955   3.594   6.653  0.00  0.00    -0.036 C 
ATOM     47  H85 PHE d   1       1.196   3.479   6.309  0.00  0.00     0.087 H 
ATOM     48  CG  PHE d   1      -1.606   4.024   7.955  0.00  0.00    -0.048 A 
ATOM     49  H86 PHE d   1      -0.910   2.497   6.586  0.00  0.00     0.036 H 
ATOM     50  H87 PHE d   1      -1.511   3.991   5.791  0.00  0.00     0.036 H 
ATOM     51  H88 PHE d   1      -2.358   3.287   8.272  0.00  0.00     0.035 H 
ATOM     52  H89 PHE d   1      -2.083   5.009   7.841  0.00  0.00     0.035 H 
ATOM     53  H90 PHE d   1      -0.664   4.877   9.712  0.00  0.00     0.064 H 
ATOM     54  H91 PHE d   1      -0.335   3.128   9.466  0.00  0.00     0.064 H 
BRANCH  44  55
ATOM     55  C   PHE d   1       0.550   5.496   5.920  0.00  0.00     0.243 C 
ATOM     56  O   PHE d   1       0.089   6.538   6.381  0.00  0.00    -0.271 OA
ATOM     57  N   PHE d   1       1.164   5.483   4.716  0.00  0.00    -0.337 N 
ATOM     58  CA  PHE d   1       1.245   6.683   3.884  0.00  0.00     0.092 C 
ATOM     59  CD  PHE d   1       1.811   4.317   4.097  0.00  0.00    -0.001 C 
ATOM     60  CB  PHE d   1       2.272   6.300   2.808  0.00  0.00    -0.036 C 
ATOM     61  H92 PHE d   1       1.601   7.541   4.473  0.00  0.00     0.087 H 
ATOM     62  CG  PHE d   1       2.148   4.792   2.698  0.00  0.00    -0.048 A 
ATOM     63  H93 PHE d   1       3.288   6.587   3.118  0.00  0.00     0.036 H 
ATOM     64  H94 PHE d   1       2.031   6.782   1.849  0.00  0.00     0.036 H 
ATOM     65  H95 PHE d   1       3.097   4.351   2.359  0.00  0.00     0.035 H 
ATOM     66  H96 PHE d   1       1.346   4.521   1.995  0.00  0.00     0.035 H 
ATOM     67  H97 PHE d   1       1.124   3.459   4.065  0.00  0.00     0.064 H 
ATOM     68  H98 PHE d   1       2.722   4.037   4.646  0.00  0.00     0.064 H 
BRANCH  58  69
ATOM     69  C   PHE d   1      -0.108   7.027   3.269  0.00  0.00     0.243 C 
ATOM     70  O   PHE d   1      -0.825   6.143   2.805  0.00  0.00    -0.271 OA
ATOM     71  N   PHE d   1      -0.503   8.320   3.258  0.00  0.00    -0.336 N 
ATOM     72  CA  PHE d   1      -1.789   8.730   2.693  0.00  0.00     0.098 C 
ATOM     73  CD  PHE d   1       0.266   9.453   3.796  0.00  0.00    -0.001 C 
ATOM     74  CB  PHE d   1      -1.974  10.147   3.253  0.00  0.00    -0.035 C 
ATOM     75  H99 PHE d   1      -2.593   8.064   3.040  0.00  0.00     0.089 H 
ATOM     76  CG  PHE d   1      -0.560  10.666   3.417  0.00  0.00    -0.048 A 
ATOM     77 0H10 PHE d   1      -2.495  10.119   4.221  0.00  0.00     0.036 H 
ATOM     78 1H10 PHE d   1      -2.541  10.774   2.549  0.00  0.00     0.036 H 
ATOM     79 2H10 PHE d   1      -0.517  11.425   4.212  0.00  0.00     0.035 H 
ATOM     80 3H10 PHE d   1      -0.197  11.101   2.474  0.00  0.00     0.035 H 
ATOM     81 4H10 PHE d   1       1.265   9.501   3.338  0.00  0.00     0.064 H 
ATOM     82 5H10 PHE d   1       0.367   9.374   4.888  0.00  0.00     0.064 H 
BRANCH  72  83
ATOM     83  C   PHE d   1      -1.777   8.741   1.156  0.00  0.00     0.196 C 
ATOM     84  O   PHE d   1      -2.748   8.315   0.531  0.00  0.00    -0.646 OA
ATOM     85  OXT PHE d   1      -0.796   9.176   0.552  0.00  0.00    -0.646 OA
ENDBRANCH  72  83
ENDBRANCH  58  69
ENDBRANCH  44  55
ENDBRANCH  39  41
BRANCH  39  86
ATOM     86  CB  PHE d   1       1.690   6.657  10.423  0.00  0.00    -0.014 C 
ATOM     87  H78 PHE d   1       0.824   6.971   9.822  0.00  0.00     0.043 H 
ATOM     88  H79 PHE d   1       2.560   7.278  10.164  0.00  0.00     0.043 H 
BRANCH  86  89
ATOM     89  CG  PHE d   1       1.364   6.881  11.877  0.00  0.00    -0.056 A 
ATOM     90  CD1 PHE d   1       2.364   6.950  12.834  0.00  0.00    -0.074 A 
ATOM     91  CE1 PHE d   1       2.069   7.146  14.173  0.00  0.00    -0.051 A 
ATOM     92  H80 PHE d   1       3.399   6.848  12.528  0.00  0.00     0.084 H 
ATOM     93  CZ  PHE d   1       0.752   7.271  14.577  0.00  0.00     0.065 A 
ATOM     94  H82 PHE d   1       2.869   7.201  14.903  0.00  0.00     0.087 H 
ATOM     95  CE2 PHE d   1      -0.260   7.201  13.637  0.00  0.00    -0.051 A 
ATOM     96  CD2 PHE d   1       0.052   7.001  12.303  0.00  0.00    -0.074 A 
ATOM     97  H83 PHE d   1      -1.295   7.302  13.944  0.00  0.00     0.087 H 
ATOM     98  H81 PHE d   1      -0.749   6.937  11.575  0.00  0.00     0.084 H 
BRANCH  93  99
ATOM     99  OH  PHE d   1       0.444   7.469  15.893  0.00  0.00    -0.361 OA
ATOM    100  H84 PHE d   1       1.244   7.493  16.404  0.00  0.00     0.217 HD
ENDBRANCH  93  99
ENDBRANCH  86  89
ENDBRANCH  39  86
ENDBRANCH  37  39
ENDBRANCH  33  35
BRANCH  33 101
ATOM    101  CB  PHE d   1       5.917   2.560  10.241  0.00  0.00    -0.035 C 
ATOM    102  H67 PHE d   1       5.497   2.746   9.241  0.00  0.00     0.037 H 
ATOM    103  H68 PHE d   1       5.683   1.531  10.551  0.00  0.00     0.037 H 
BRANCH 101 104
ATOM    104  CG  PHE d   1       7.436   2.686  10.143  0.00  0.00    -0.059 A 
ATOM    105  H69 PHE d   1       7.857   2.533  11.148  0.00  0.00     0.038 H 
BRANCH 104 106
ATOM    106  CD1 PHE d   1       8.007   1.620   9.221  0.00  0.00    -0.073 A 
ATOM    107  H70 PHE d   1       9.100   1.730   9.166  0.00  0.00     0.028 H 
ATOM    108  H71 PHE d   1       7.576   1.735   8.216  0.00  0.00     0.028 H 
ATOM    109  H72 PHE d   1       7.758   0.623   9.614  0.00  0.00     0.028 H 
ENDBRANCH 104 106
BRANCH 104 110
ATOM    110  CD2 PHE d   1       7.837   4.074   9.667  0.00  0.00    -0.073 A 
ATOM    111  H73 PHE d   1       7.415   4.830  10.345  0.00  0.00     0.028 H 
ATOM    112  H74 PHE d   1       7.452   4.238   8.650  0.00  0.00     0.028 H 
ATOM    113  H75 PHE d   1       8.934   4.157   9.662  0.00  0.00     0.028 H 
ENDBRANCH 104 110
ENDBRANCH 101 104
ENDBRANCH  33 101
ENDBRANCH  31  33
ENDBRANCH  18  29
ENDBRANCH   4  15
BRANCH   1 114
ATOM    114  CA  PHE d   1      11.523   2.334  16.765  0.00  0.00     0.092 C 
ATOM    115  N   PHE d   1      11.866   1.168  17.576  0.00  0.00    -0.337 N 
ATOM    116  C   PHE d   1      11.975   1.248  18.917  0.00  0.00     0.243 C 
ATOM    117  CD  PHE d   1      12.030  -0.052  16.773  0.00  0.00    -0.001 C 
ATOM    118  O   PHE d   1      11.873   2.323  19.503  0.00  0.00    -0.271 OA
ATOM    119  CG  PHE d   1      11.523   0.355  15.404  0.00  0.00    -0.048 A 
ATOM    120  H49 PHE d   1      11.431  -0.877  17.185  0.00  0.00     0.064 H 
ATOM    121  H50 PHE d   1      13.087  -0.353  16.727  0.00  0.00     0.064 H 
ATOM    122  CB  PHE d   1      11.757   1.851  15.329  0.00  0.00    -0.036 C 
ATOM    123  H47 PHE d   1      12.084  -0.165  14.614  0.00  0.00     0.035 H 
ATOM    124  H48 PHE d   1      10.452   0.126  15.304  0.00  0.00     0.035 H 
ATOM    125  H45 PHE d   1      12.785   2.070  15.005  0.00  0.00     0.036 H 
ATOM    126  H46 PHE d   1      11.045   2.324  14.636  0.00  0.00     0.036 H 
ATOM    127  H44 PHE d   1      12.175   3.187  17.001  0.00  0.00     0.087 H 
BRANCH 116 128
ATOM    128  CA  PHE d   1      12.248  -0.031  19.699  0.00  0.00     0.092 C 
ATOM    129  N   PHE d   1      12.980   0.299  20.917  0.00  0.00    -0.337 N 
ATOM    130  C   PHE d   1      14.220   0.830  20.868  0.00  0.00     0.243 C 
ATOM    131  CD  PHE d   1      12.203   0.040  22.137  0.00  0.00    -0.001 C 
ATOM    132  O   PHE d   1      14.791   1.001  19.793  0.00  0.00    -0.271 OA
ATOM    133  CG  PHE d   1      10.795  -0.178  21.621  0.00  0.00    -0.048 A 
ATOM    134  H42 PHE d   1      12.243   0.902  22.819  0.00  0.00     0.064 H 
ATOM    135  H43 PHE d   1      12.574  -0.856  22.657  0.00  0.00     0.064 H 
ATOM    136  CB  PHE d   1      10.951  -0.684  20.199  0.00  0.00    -0.036 C 
ATOM    137  H40 PHE d   1      10.272  -0.923  22.238  0.00  0.00     0.035 H 
ATOM    138  H41 PHE d   1      10.232   0.767  21.632  0.00  0.00     0.035 H 
ATOM    139  H38 PHE d   1      11.037  -1.780  20.184  0.00  0.00     0.036 H 
ATOM    140  H39 PHE d   1      10.096  -0.374  19.580  0.00  0.00     0.036 H 
ATOM    141  H37 PHE d   1      12.817  -0.733  19.072  0.00  0.00     0.087 H 
BRANCH 130 142
ATOM    142  CA  PHE d   1      14.892   1.233  22.174  0.00  0.00     0.092 C 
ATOM    143  H29 PHE d   1      14.328   0.803  23.015  0.00  0.00     0.088 H 
BRANCH 142 144
ATOM    144  N   PHE d   1      16.233   0.680  22.174  0.00  0.00    -0.346 N 
ATOM    145  C   PHE d   1      16.450  -0.636  22.169  0.00  0.00     0.241 C 
ATOM    146  O   PHE d   1      15.559  -1.473  22.312  0.00  0.00    -0.271 OA
ATOM    147  H28 PHE d   1      17.016   1.302  22.178  0.00  0.00     0.163 HD
BRANCH 145 148
ATOM    148  CA  PHE d   1      17.907  -1.080  21.989  0.00  0.00     0.091 C 
ATOM    149  N   PHE d   1      18.122  -2.386  22.607  0.00  0.00    -0.337 N 
ATOM    150  C   PHE d   1      17.985  -2.567  23.938  0.00  0.00     0.243 C 
ATOM    151  CD  PHE d   1      18.456  -3.427  21.624  0.00  0.00    -0.001 C 
ATOM    152  O   PHE d   1      17.681  -1.630  24.675  0.00  0.00    -0.271 OA
ATOM    153  CG  PHE d   1      18.057  -2.800  20.304  0.00  0.00    -0.048 A 
ATOM    154  H26 PHE d   1      17.882  -4.346  21.813  0.00  0.00     0.064 H 
ATOM    155  H27 PHE d   1      19.532  -3.656  21.642  0.00  0.00     0.064 H 
ATOM    156  CB  PHE d   1      18.235  -1.306  20.506  0.00  0.00    -0.036 C 
ATOM    157  H24 PHE d   1      18.707  -3.160  19.493  0.00  0.00     0.035 H 
ATOM    158  H25 PHE d   1      17.009  -3.035  20.066  0.00  0.00     0.035 H 
ATOM    159  H22 PHE d   1      19.270  -1.004  20.286  0.00  0.00     0.036 H 
ATOM    160  H23 PHE d   1      17.543  -0.741  19.864  0.00  0.00     0.036 H 
ATOM    161  H21 PHE d   1      18.578  -0.325  22.425  0.00  0.00     0.087 H 
BRANCH 150 162
ATOM    162  CA  PHE d   1      18.214  -3.962  24.512  0.00  0.00     0.092 C 
ATOM    163  H13 PHE d   1      18.480  -4.643  23.690  0.00  0.00     0.088 H 
BRANCH 162 164
ATOM    164  N   PHE d   1      19.330  -3.900  25.443  0.00  0.00    -0.346 N 
ATOM    165  C   PHE d   1      20.432  -4.643  25.300  0.00  0.00     0.249 C 
ATOM    166  O   PHE d   1      20.567  -5.491  24.416  0.00  0.00    -0.271 OA
ATOM    167  H12 PHE d   1      19.270  -3.276  26.222  0.00  0.00     0.163 HD
BRANCH 165 168
ATOM    168  CA  PHE d   1      21.551  -4.381  26.314  0.00  0.00     0.179 C 
ATOM    169  H4  PHE d   1      21.142  -3.786  27.144  0.00  0.00     0.099 H 
BRANCH 168 170
ATOM    170  N   PHE d   1      22.052  -5.678  26.857  0.00  0.00    -0.066 N 
ATOM    171  H1  PHE d   1      22.788  -5.502  27.523  0.00  0.00     0.275 HD
ATOM    172  H2  PHE d   1      22.410  -6.242  26.102  0.00  0.00     0.275 HD
ATOM    173  H3  PHE d   1      21.297  -6.166  27.312  0.00  0.00     0.275 HD
ENDBRANCH 168 170
BRANCH 168 174
ATOM    174  CB  PHE d   1      22.692  -3.591  25.666  0.00  0.00    -0.006 C 
ATOM    175  H5  PHE d   1      23.215  -4.256  24.963  0.00  0.00     0.043 H 
ATOM    176  H6  PHE d   1      23.386  -3.277  26.459  0.00  0.00     0.043 H 
BRANCH 174 177
ATOM    177  CG  PHE d   1      22.253  -2.362  24.912  0.00  0.00    -0.056 A 
ATOM    178  CD1 PHE d   1      22.138  -1.139  25.553  0.00  0.00    -0.077 A 
ATOM    179  CE1 PHE d   1      21.733  -0.010  24.859  0.00  0.00    -0.082 A 
ATOM    180  H7  PHE d   1      22.367  -1.065  26.610  0.00  0.00     0.084 H 
ATOM    181  CZ  PHE d   1      21.439  -0.091  23.518  0.00  0.00    -0.083 A 
ATOM    182  H9  PHE d   1      21.648   0.940  25.375  0.00  0.00     0.083 H 
ATOM    183  CE2 PHE d   1      21.547  -1.298  22.868  0.00  0.00    -0.082 A 
ATOM    184  H11 PHE d   1      21.123   0.793  22.976  0.00  0.00     0.083 H 
ATOM    185  CD2 PHE d   1      21.952  -2.428  23.561  0.00  0.00    -0.077 A 
ATOM    186  H10 PHE d   1      21.315  -1.366  21.811  0.00  0.00     0.083 H 
ATOM    187  H8  PHE d   1      22.034  -3.375  23.040  0.00  0.00     0.084 H 
ENDBRANCH 174 177
ENDBRANCH 168 174
ENDBRANCH 165 168
ENDBRANCH 162 164
BRANCH 162 188
ATOM    188  CB  PHE d   1      16.938  -4.501  25.186  0.00  0.00    -0.033 C 
ATOM    189  H14 PHE d   1      16.591  -3.736  25.896  0.00  0.00     0.042 H 
BRANCH 188 190
ATOM    190  CG1 PHE d   1      15.827  -4.727  24.173  0.00  0.00    -0.071 C 
ATOM    191  H15 PHE d   1      14.934  -5.111  24.688  0.00  0.00     0.028 H 
ATOM    192  H16 PHE d   1      16.159  -5.458  23.421  0.00  0.00     0.028 H 
ATOM    193  H17 PHE d   1      15.584  -3.776  23.677  0.00  0.00     0.028 H 
ENDBRANCH 188 190
BRANCH 188 194
ATOM    194  CG2 PHE d   1      17.212  -5.772  25.977  0.00  0.00    -0.071 C 
ATOM    195  H18 PHE d   1      18.018  -5.586  26.703  0.00  0.00     0.028 H 
ATOM    196  H19 PHE d   1      17.517  -6.574  25.288  0.00  0.00     0.028 H 
ATOM    197  H20 PHE d   1      16.300  -6.075  26.512  0.00  0.00     0.028 H 
ENDBRANCH 188 194
ENDBRANCH 162 188
ENDBRANCH 150 162
ENDBRANCH 145 148
ENDBRANCH 142 144
BRANCH 142 198
ATOM    198  CB  PHE d   1      14.917   2.763  22.340  0.00  0.00    -0.033 C 
ATOM    199  H30 PHE d   1      15.545   3.170  21.534  0.00  0.00     0.042 H 
BRANCH 198 200
ATOM    200  CG1 PHE d   1      13.530   3.371  22.190  0.00  0.00    -0.071 C 
ATOM    201  H31 PHE d   1      13.592   4.462  22.315  0.00  0.00     0.028 H 
ATOM    202  H32 PHE d   1      12.861   2.952  22.956  0.00  0.00     0.028 H 
ATOM    203  H33 PHE d   1      13.134   3.139  21.190  0.00  0.00     0.028 H 
ENDBRANCH 198 200
BRANCH 198 204
ATOM    204  CG2 PHE d   1      15.545   3.173  23.661  0.00  0.00    -0.071 C 
ATOM    205  H34 PHE d   1      16.545   2.723  23.747  0.00  0.00     0.028 H 
ATOM    206  H35 PHE d   1      14.913   2.824  24.491  0.00  0.00     0.028 H 
ATOM    207  H36 PHE d   1      15.632   4.269  23.701  0.00  0.00     0.028 H 
ENDBRANCH 198 204
ENDBRANCH 142 198
ENDBRANCH 130 142
ENDBRANCH 116 128
ENDBRANCH   1 114
TORSDOF 33
