REMARK  13 active torsions:
REMARK  status: ('A' for Active; 'I' for Inactive)
REMARK    1  A    between atoms: N1_1  and  C8_6 
REMARK    2  A    between atoms: C6_4  and  C11_20 
REMARK    3  A    between atoms: C13_8  and  C25_28 
REMARK    4  A    between atoms: O2_35  and  C17_10 
REMARK    5  A    between atoms: C23_27  and  C24_14 
REMARK    6  A    between atoms: C25_28  and  C26_15 
REMARK    7  A    between atoms: N_16  and  C1_19 
REMARK       I    between atoms: C2_26  and  N_16 
REMARK    8  A    between atoms: C1_19  and  C_17 
REMARK    9  A    between atoms: C16_23  and  O2_35 
REMARK   10  A    between atoms: C18_24  and  C19_25 
REMARK   11  A    between atoms: C2_26  and  C3_30 
REMARK   12  A    between atoms: C25_28  and  C27_29 
REMARK   13  A    between atoms: C25_28  and  O3_36 
ROOT
ATOM      1  C13 HWV d   1      22.491 -14.182  -5.693  0.00  0.00    -0.024 A 
ATOM      2  C15 HWV d   1      20.290 -13.242  -6.056  0.00  0.00    -0.049 A 
ATOM      3  C11 HWV d   1      22.181 -11.754  -5.734  0.00  0.00     0.011 A 
ATOM      4  C12 HWV d   1      23.002 -12.885  -5.600  0.00  0.00    -0.060 A 
ATOM      5  C14 HWV d   1      21.124 -14.337  -5.915  0.00  0.00    -0.071 A 
ATOM      6  C16 HWV d   1      20.814 -11.955  -5.968  0.00  0.00     0.087 A 
ATOM      7  H6  HWV d   1      19.230 -13.386  -6.235  0.00  0.00     0.087 H 
ATOM      8  H21 HWV d   1      24.062 -12.748  -5.419  0.00  0.00     0.086 H 
ATOM      9  H22 HWV d   1      20.706 -15.335  -5.979  0.00  0.00     0.084 H 
ENDROOT
BRANCH   3  10
ATOM     10  C6  HWV d   1      22.736 -10.377  -5.616  0.00  0.00     0.005 A 
ATOM     11  C5  HWV d   1      22.487  -9.402  -6.659  0.00  0.00     0.011 A 
ATOM     12  C4  HWV d   1      21.769  -9.345  -7.882  0.00  0.00    -0.038 A 
ATOM     13  C10 HWV d   1      22.993  -8.112  -6.437  0.00  0.00     0.113 A 
ATOM     14  C3  HWV d   1      21.832  -8.062  -8.357  0.00  0.00     0.102 A 
ATOM     15  H1  HWV d   1      21.256 -10.178  -8.360  0.00  0.00     0.088 H 
ATOM     16  N2  HWV d   1      22.580  -7.316  -7.478  0.00  0.00    -0.347 N 
ATOM     17  H29 HWV d   1      22.797  -6.315  -7.583  0.00  0.00     0.166 HD
ATOM     18  C9  HWV d   1      23.752  -7.696  -5.286  0.00  0.00     0.274 A 
ATOM     19  N1  HWV d   1      23.915  -8.711  -4.329  0.00  0.00    -0.326 N 
ATOM     20  O1  HWV d   1      24.254  -6.588  -5.103  0.00  0.00    -0.265 OA
ATOM     21  C7  HWV d   1      23.417  -9.976  -4.502  0.00  0.00    -0.006 A 
ATOM     22  H2  HWV d   1      23.573 -10.703  -3.706  0.00  0.00     0.113 H 
BRANCH  14  23
ATOM     23  C2  HWV d   1      21.168  -7.573  -9.576  0.00  0.00     0.268 C 
ATOM     24  N   HWV d   1      21.224  -6.260  -9.799  0.00  0.00    -0.356 N 
ATOM     25  H15 HWV d   1      21.687  -5.681  -9.128  0.00  0.00     0.162 HD
ATOM     26  O   HWV d   1      20.652  -8.362 -10.362  0.00  0.00    -0.266 OA
BRANCH  24  27
ATOM     27  C1  HWV d   1      20.640  -5.629 -10.979  0.00  0.00    -0.008 C 
ATOM     28  H19 HWV d   1      19.544  -5.682 -10.908  0.00  0.00     0.063 H 
ATOM     29  H20 HWV d   1      20.976  -6.169 -11.877  0.00  0.00     0.063 H 
BRANCH  27  30
ATOM     30  C   HWV d   1      21.053  -4.192 -11.091  0.00  0.00    -0.061 C 
ATOM     31  H16 HWV d   1      20.597  -3.748 -11.988  0.00  0.00     0.029 H 
ATOM     32  H17 HWV d   1      22.148  -4.130 -11.168  0.00  0.00     0.029 H 
ATOM     33  H18 HWV d   1      20.717  -3.643 -10.199  0.00  0.00     0.029 H 
ENDBRANCH  27  30
ENDBRANCH  24  27
ENDBRANCH  14  23
BRANCH  19  34
ATOM     34  C8  HWV d   1      24.643  -8.371  -3.106  0.00  0.00    -0.011 C 
ATOM     35  H3  HWV d   1      24.694  -9.254  -2.452  0.00  0.00     0.057 H 
ATOM     36  H4  HWV d   1      24.120  -7.557  -2.582  0.00  0.00     0.057 H 
ATOM     37  H5  HWV d   1      25.662  -8.046  -3.364  0.00  0.00     0.057 H 
ENDBRANCH  19  34
ENDBRANCH   3  10
BRANCH   6  38
ATOM     38  O2  HWV d   1      19.997 -10.826  -6.116  0.00  0.00    -0.309 OA
BRANCH  38  39
ATOM     39  C17 HWV d   1      18.610 -10.912  -6.093  0.00  0.00     0.088 A 
ATOM     40  C18 HWV d   1      17.952 -10.762  -4.862  0.00  0.00    -0.025 A 
ATOM     41  C20 HWV d   1      16.564 -10.875  -4.860  0.00  0.00    -0.037 A 
ATOM     42  C21 HWV d   1      15.908 -11.093  -6.049  0.00  0.00     0.117 A 
ATOM     43  H7  HWV d   1      16.008 -10.792  -3.933  0.00  0.00     0.089 H 
ATOM     44  C22 HWV d   1      16.549 -11.220  -7.258  0.00  0.00    -0.037 A 
ATOM     45  F   HWV d   1      14.551 -11.180  -6.028  0.00  0.00    -0.206 F 
ATOM     46  C23 HWV d   1      17.937 -11.129  -7.304  0.00  0.00    -0.025 A 
ATOM     47  H8  HWV d   1      15.980 -11.389  -8.165  0.00  0.00     0.089 H 
BRANCH  40  48
ATOM     48  C19 HWV d   1      18.682 -10.389  -3.598  0.00  0.00    -0.049 C 
ATOM     49  H23 HWV d   1      19.763 -10.350  -3.797  0.00  0.00     0.033 H 
ATOM     50  H24 HWV d   1      18.479 -11.141  -2.822  0.00  0.00     0.033 H 
ATOM     51  H25 HWV d   1      18.337  -9.403  -3.252  0.00  0.00     0.033 H 
ENDBRANCH  40  48
BRANCH  46  52
ATOM     52  C24 HWV d   1      18.662 -11.202  -8.624  0.00  0.00    -0.049 C 
ATOM     53  H9  HWV d   1      19.745 -11.112  -8.453  0.00  0.00     0.033 H 
ATOM     54  H10 HWV d   1      18.324 -10.382  -9.274  0.00  0.00     0.033 H 
ATOM     55  H11 HWV d   1      18.446 -12.166  -9.108  0.00  0.00     0.033 H 
ENDBRANCH  46  52
ENDBRANCH  38  39
ENDBRANCH   6  38
BRANCH   1  56
ATOM     56  C25 HWV d   1      23.397 -15.413  -5.612  0.00  0.00     0.077 C 
BRANCH  56  57
ATOM     57  C26 HWV d   1      23.124 -16.247  -4.362  0.00  0.00    -0.044 C 
ATOM     58  H12 HWV d   1      23.797 -17.117  -4.348  0.00  0.00     0.032 H 
ATOM     59  H13 HWV d   1      22.079 -16.591  -4.372  0.00  0.00     0.032 H 
ATOM     60  H14 HWV d   1      23.300 -15.633  -3.466  0.00  0.00     0.032 H 
ENDBRANCH  56  57
BRANCH  56  61
ATOM     61  C27 HWV d   1      23.254 -16.278  -6.862  0.00  0.00    -0.044 C 
ATOM     62  H26 HWV d   1      23.453 -15.667  -7.755  0.00  0.00     0.032 H 
ATOM     63  H27 HWV d   1      22.232 -16.682  -6.914  0.00  0.00     0.032 H 
ATOM     64  H28 HWV d   1      23.974 -17.108  -6.818  0.00  0.00     0.032 H 
ENDBRANCH  56  61
BRANCH  56  65
ATOM     65  O3  HWV d   1      24.784 -15.017  -5.540  0.00  0.00    -0.386 OA
ATOM     66  H30 HWV d   1      24.926 -14.507  -4.751  0.00  0.00     0.211 HD
ENDBRANCH  56  65
ENDBRANCH   1  56
TORSDOF 13
