REMARK  3 active torsions:
REMARK  status: ('A' for Active; 'I' for Inactive)
REMARK    1  A    between atoms: CAE_2  and  CAD_4 
REMARK    2  A    between atoms: CAB_6  and  CAA_7 
REMARK    3  A    between atoms: CAI_11  and  OAJ_12 
ROOT
ATOM      1  CAD HWA d   1     -19.209  17.343  14.796  0.00  0.00     0.147 A 
ATOM      2  NAC HWA d   1     -19.911  18.077  15.778  0.00  0.00    -0.248 NA
ATOM      3  CAB HWA d   1     -21.035  18.872  15.458  0.00  0.00     0.035 A 
ATOM      4  CAG HWA d   1     -21.456  18.930  14.121  0.00  0.00    -0.012 A 
ATOM      5  CAH HWA d   1     -20.798  18.205  13.120  0.00  0.00     0.185 A 
ATOM      6  OAL HWA d   1     -21.247  18.306  11.954  0.00  0.00    -0.290 OA
ATOM      7  CAI HWA d   1     -19.667  17.419  13.472  0.00  0.00     0.145 A 
ATOM      8  H4  HWA d   1     -22.311  19.551  13.857  0.00  0.00     0.092 H 
ATOM      9  H5  HWA d   1     -19.007  18.279  13.286  0.00  0.00     0.106 H 
ENDROOT
BRANCH   3  10
ATOM     10  CAA HWA d   1     -21.729  19.606  16.492  0.00  0.00    -0.035 C 
ATOM     11  H1  HWA d   1     -22.569  20.160  16.048  0.00  0.00     0.035 H 
ATOM     12  H2  HWA d   1     -21.035  20.314  16.968  0.00  0.00     0.035 H 
ATOM     13  H3  HWA d   1     -22.111  18.903  17.247  0.00  0.00     0.035 H 
ENDBRANCH   3  10
BRANCH   1  14
ATOM     14  CAE HWA d   1     -18.145  16.584  15.314  0.00  0.00     0.227 C 
ATOM     15  OAF HWA d   1     -18.104  16.563  16.558  0.00  0.00    -0.643 OA
ATOM     16  OAK HWA d   1     -17.262  15.934  14.649  0.00  0.00    -0.643 OA
ENDBRANCH   1  14
BRANCH   7  17
ATOM     17  OAJ HWA d   1     -19.032  16.703  12.522  0.00  0.00    -0.381 OA
ATOM     18  H6  HWA d   1     -18.303  16.236  12.913  0.00  0.00     0.211 HD
ENDBRANCH   7  17
TORSDOF 3
