REMARK  3 active torsions:
REMARK  status: ('A' for Active; 'I' for Inactive)
REMARK    1  A    between atoms: CAU_2  and  CAR_4 
REMARK    2  A    between atoms: CAS_6  and  OAT_7 
REMARK    3  A    between atoms: CAH_13  and  CAI_14 
ROOT
ATOM      1  CAR HWJ d   1     -19.564  16.847 134.679  0.00  0.00     0.147 A 
ATOM      2  NAQ HWJ d   1     -20.571  17.069 135.616  0.00  0.00    -0.242 NA
ATOM      3  CAS HWJ d   1     -19.772  17.178 133.340  0.00  0.00     0.145 A 
ATOM      4  CAO HWJ d   1     -20.963  17.745 132.902  0.00  0.00     0.186 A 
ATOM      5  OAP HWJ d   1     -21.184  18.054 131.714  0.00  0.00    -0.290 OA
ATOM      6  CAN HWJ d   1     -21.953  17.959 133.860  0.00  0.00    -0.007 A 
ATOM      7  CAM HWJ d   1     -21.772  17.608 135.197  0.00  0.00     0.071 A 
ATOM      8  CAL HWJ d   1     -22.826  17.856 136.069  0.00  0.00    -0.001 A 
ATOM      9  CAH HWJ d   1     -24.078  17.201 135.901  0.00  0.00    -0.049 A 
ATOM     10  CAG HWJ d   1     -25.119  17.516 136.749  0.00  0.00    -0.063 A 
ATOM     11  CAK HWJ d   1     -22.636  18.802 137.080  0.00  0.00    -0.069 A 
ATOM     12  CAJ HWJ d   1     -23.693  19.096 137.940  0.00  0.00    -0.068 A 
ATOM     13  CAF HWJ d   1     -24.933  18.442 137.772  0.00  0.00     0.014 A 
ATOM     14  CAE HWJ d   1     -25.976  18.713 138.535  0.00  0.00     0.179 A 
ATOM     15  NAD HWJ d   1     -27.244  18.465 138.158  0.00  0.00    -0.108 NA
ATOM     16  NAA HWJ d   1     -27.952  18.877 139.045  0.00  0.00    -0.023 NA
ATOM     17  NAB HWJ d   1     -27.171  19.403 140.019  0.00  0.00    -0.046 NA
ATOM     18  NAC HWJ d   1     -25.949  19.321 139.720  0.00  0.00    -0.239 N 
ATOM     19  H1  HWJ d   1     -20.179  16.172 133.160  0.00  0.00     0.106 H 
ATOM     20  H3  HWJ d   1     -22.895  18.413 133.555  0.00  0.00     0.092 H 
ATOM     21  H7  HWJ d   1     -26.085  17.041 136.619  0.00  0.00     0.085 H 
ATOM     22  H8  HWJ d   1     -21.680  19.300 137.194  0.00  0.00     0.085 H 
ATOM     23  H9  HWJ d   1     -23.564  19.823 138.734  0.00  0.00     0.085 H 
ATOM     24  H10 HWJ d   1     -25.132  19.644 140.258  0.00  0.00     0.192 HD
ENDROOT
BRANCH   9  25
ATOM     25  CAI HWJ d   1     -24.358  16.243 134.889  0.00  0.00    -0.050 C 
ATOM     26  H4  HWJ d   1     -25.398  15.898 134.988  0.00  0.00     0.033 H 
ATOM     27  H5  HWJ d   1     -23.676  15.387 134.996  0.00  0.00     0.033 H 
ATOM     28  H6  HWJ d   1     -24.217  16.703 133.900  0.00  0.00     0.033 H 
ENDBRANCH   9  25
BRANCH   1  29
ATOM     29  CAU HWJ d   1     -18.407  16.350 135.241  0.00  0.00     0.227 C 
ATOM     30  OAV HWJ d   1     -17.351  16.053 134.611  0.00  0.00    -0.643 OA
ATOM     31  OAW HWJ d   1     -18.394  16.399 136.460  0.00  0.00    -0.643 OA
ENDBRANCH   1  29
BRANCH   3  32
ATOM     32  OAT HWJ d   1     -18.815  16.966 132.439  0.00  0.00    -0.381 OA
ATOM     33  H2  HWJ d   1     -19.119  17.245 131.584  0.00  0.00     0.211 HD
ENDBRANCH   3  32
TORSDOF 3
