REMARK  10 active torsions:
REMARK  status: ('A' for Active; 'I' for Inactive)
REMARK    1  A    between atoms: C1_1  and  C16_16 
REMARK    2  A    between atoms: C1_1  and  C17_17 
REMARK    3  A    between atoms: C5_5  and  C18_18 
REMARK    4  A    between atoms: C6_6  and  C7_7 
REMARK    5  A    between atoms: C8_8  and  C9_9 
REMARK    6  A    between atoms: C9_9  and  C19_19 
REMARK    7  A    between atoms: C10_10  and  C11_11 
REMARK    8  A    between atoms: C12_12  and  C13_13 
REMARK    9  A    between atoms: C13_13  and  C20_20 
REMARK   10  A    between atoms: C14_14  and  C15_15 
ROOT
ATOM      1  C1  RET d   1      12.975  19.633 -26.236  0.00  0.00    -0.041 C 
ATOM      2  C2  RET d   1      14.424  19.721 -25.748  0.00  0.00    -0.058 C 
ATOM      3  C3  RET d   1      14.827  18.599 -24.796  0.00  0.00    -0.064 C 
ATOM      4  C4  RET d   1      14.496  17.211 -25.322  0.00  0.00    -0.061 C 
ATOM      5  C5  RET d   1      13.561  17.215 -26.489  0.00  0.00    -0.050 C 
ATOM      6  C6  RET d   1      12.687  18.208 -26.699  0.00  0.00    -0.028 C 
ATOM      7  H1  RET d   1      14.556  20.681 -25.227  0.00  0.00     0.034 H 
ATOM      8  H2  RET d   1      15.087  19.686 -26.625  0.00  0.00     0.034 H 
ATOM      9  H3  RET d   1      14.299  18.745 -23.842  0.00  0.00     0.033 H 
ATOM     10  H4  RET d   1      15.912  18.658 -24.627  0.00  0.00     0.033 H 
ATOM     11  H5  RET d   1      14.033  16.633 -24.509  0.00  0.00     0.033 H 
ATOM     12  H6  RET d   1      15.433  16.724 -25.630  0.00  0.00     0.033 H 
ATOM     13  H7  RET d   1      14.295  17.695 -27.153  0.00  0.00     0.040 H 
ATOM     14  H8  RET d   1      13.096  18.400 -27.702  0.00  0.00     0.047 H 
ENDROOT
BRANCH   6  15
ATOM     15  C7  RET d   1      11.364  17.942 -27.219  0.00  0.00    -0.097 C 
ATOM     16  C8  RET d   1      10.472  17.300 -26.530  0.00  0.00    -0.080 C 
ATOM     17  H10 RET d   1      10.770  17.040 -25.515  0.00  0.00     0.083 H 
ATOM     18  H9  RET d   1      11.109  18.291 -28.219  0.00  0.00     0.077 H 
BRANCH  16  19
ATOM     19  C9  RET d   1       9.153  16.881 -26.904  0.00  0.00    -0.062 C 
ATOM     20  C10 RET d   1       8.910  15.543 -26.836  0.00  0.00    -0.077 C 
ATOM     21  H11 RET d   1       9.764  14.933 -26.545  0.00  0.00     0.084 H 
BRANCH  20  22
ATOM     22  C11 RET d   1       7.698  14.814 -27.090  0.00  0.00    -0.082 C 
ATOM     23  C12 RET d   1       7.688  13.497 -27.369  0.00  0.00    -0.077 C 
ATOM     24  H13 RET d   1       8.661  13.018 -27.465  0.00  0.00     0.084 H 
ATOM     25  H12 RET d   1       6.750  15.348 -27.055  0.00  0.00     0.083 H 
BRANCH  23  26
ATOM     26  C13 RET d   1       6.542  12.650 -27.555  0.00  0.00    -0.066 C 
ATOM     27  C14 RET d   1       6.726  11.320 -27.741  0.00  0.00    -0.101 C 
ATOM     28  H14 RET d   1       7.760  10.984 -27.796  0.00  0.00     0.077 H 
BRANCH  27  29
ATOM     29  C15 RET d   1       5.717  10.292 -27.876  0.00  0.00    -0.059 C 
ATOM     30  H15 RET d   1       6.205   9.316 -28.015  0.00  0.00     0.032 H 
ATOM     31  H16 RET d   1       5.083  10.513 -28.747  0.00  0.00     0.032 H 
ATOM     32  H17 RET d   1       5.096  10.266 -26.968  0.00  0.00     0.032 H 
ENDBRANCH  27  29
BRANCH  26  33
ATOM     33  C20 RET d   1       5.193  13.283 -27.440  0.00  0.00    -0.051 C 
ATOM     34  H30 RET d   1       5.308  14.367 -27.294  0.00  0.00     0.033 H 
ATOM     35  H31 RET d   1       4.658  12.852 -26.581  0.00  0.00     0.033 H 
ATOM     36  H32 RET d   1       4.620  13.096 -28.360  0.00  0.00     0.033 H 
ENDBRANCH  26  33
ENDBRANCH  23  26
ENDBRANCH  20  22
BRANCH  19  37
ATOM     37  C19 RET d   1       8.166  17.926 -27.355  0.00  0.00    -0.051 C 
ATOM     38  H27 RET d   1       8.636  18.919 -27.308  0.00  0.00     0.033 H 
ATOM     39  H28 RET d   1       7.285  17.906 -26.697  0.00  0.00     0.033 H 
ATOM     40  H29 RET d   1       7.857  17.716 -28.390  0.00  0.00     0.033 H 
ENDBRANCH  19  37
ENDBRANCH  16  19
ENDBRANCH   6  15
BRANCH   1  41
ATOM     41  C16 RET d   1      12.756  20.624 -27.384  0.00  0.00    -0.069 C 
ATOM     42  H18 RET d   1      12.968  21.645 -27.033  0.00  0.00     0.028 H 
ATOM     43  H19 RET d   1      11.713  20.563 -27.727  0.00  0.00     0.028 H 
ATOM     44  H20 RET d   1      13.430  20.375 -28.217  0.00  0.00     0.028 H 
ENDBRANCH   1  41
BRANCH   1  45
ATOM     45  C17 RET d   1      12.057  20.014 -25.070  0.00  0.00    -0.069 C 
ATOM     46  H21 RET d   1      12.207  19.308 -24.240  0.00  0.00     0.028 H 
ATOM     47  H22 RET d   1      11.009  19.974 -25.401  0.00  0.00     0.028 H 
ATOM     48  H23 RET d   1      12.297  21.033 -24.732  0.00  0.00     0.028 H 
ENDBRANCH   1  45
BRANCH   5  49
ATOM     49  C18 RET d   1      13.583  15.930 -27.274  0.00  0.00    -0.072 C 
ATOM     50  H24 RET d   1      14.395  15.288 -26.903  0.00  0.00     0.028 H 
ATOM     51  H25 RET d   1      13.749  16.153 -28.338  0.00  0.00     0.028 H 
ATOM     52  H26 RET d   1      12.621  15.411 -27.154  0.00  0.00     0.028 H 
ENDBRANCH   5  49
TORSDOF 10
