REMARK  14 active torsions:
REMARK  status: ('A' for Active; 'I' for Inactive)
REMARK    1  A    between atoms: C06_6  and  C07_7 
REMARK    2  A    between atoms: C07_7  and  C08_8 
REMARK    3  A    between atoms: C08_8  and  N09_9 
REMARK    4  A    between atoms: N09_9  and  C10_10 
REMARK    5  A    between atoms: N09_9  and  C12_12 
REMARK    6  A    between atoms: C10_10  and  C11_11 
REMARK    7  A    between atoms: C12_12  and  C13_13 
REMARK    8  A    between atoms: C13_13  and  C14_14 
REMARK    9  A    between atoms: C13_13  and  O27_27 
REMARK   10  A    between atoms: C14_14  and  O15_15 
REMARK   11  A    between atoms: O15_15  and  C16_16 
REMARK   12  A    between atoms: C19_19  and  N22_22 
REMARK   13  A    between atoms: N22_22  and  S23_23 
REMARK   14  A    between atoms: S23_23  and  C24_24 
ROOT
ATOM      1  C12 HZ4 d   1     -13.093 -61.440 161.158  0.00  0.00     0.109 C 
ATOM      2  H14 HZ4 d   1     -13.117 -60.340 161.156  0.00  0.00     0.080 H 
ATOM      3  H15 HZ4 d   1     -12.802 -61.803 160.161  0.00  0.00     0.080 H 
ENDROOT
BRANCH   1   4
ATOM      4  N09 HZ4 d   1     -14.430 -61.948 161.482  0.00  0.00    -0.069 N 
ATOM      5  H8  HZ4 d   1     -14.677 -61.671 162.419  0.00  0.00     0.280 HD
BRANCH   4   6
ATOM      6  C08 HZ4 d   1     -14.437 -63.376 161.390  0.00  0.00     0.087 C 
ATOM      7  H6  HZ4 d   1     -15.445 -63.716 161.111  0.00  0.00     0.076 H 
ATOM      8  H7  HZ4 d   1     -13.717 -63.693 160.621  0.00  0.00     0.076 H 
BRANCH   6   9
ATOM      9  C07 HZ4 d   1     -14.040 -64.012 162.762  0.00  0.00    -0.018 C 
ATOM     10  H4  HZ4 d   1     -12.949 -64.153 162.783  0.00  0.00     0.042 H 
ATOM     11  H5  HZ4 d   1     -14.336 -63.325 163.568  0.00  0.00     0.042 H 
BRANCH   9  12
ATOM     12  C06 HZ4 d   1     -14.731 -65.400 163.005  0.00  0.00    -0.055 A 
ATOM     13  C01 HZ4 d   1     -16.103 -65.525 162.856  0.00  0.00    -0.075 A 
ATOM     14  C02 HZ4 d   1     -16.725 -66.766 163.076  0.00  0.00    -0.060 A 
ATOM     15  H1  HZ4 d   1     -16.697 -64.665 162.570  0.00  0.00     0.084 H 
ATOM     16  C03 HZ4 d   1     -15.950 -67.885 163.444  0.00  0.00     0.055 A 
ATOM     17  H2  HZ4 d   1     -17.799 -66.863 162.963  0.00  0.00     0.086 H 
ATOM     18  C04 HZ4 d   1     -14.585 -67.759 163.600  0.00  0.00     0.056 A 
ATOM     19 CL2  HZ4 d   1     -16.719 -69.477 163.718  0.00  0.00    -0.083 Cl
ATOM     20  C05 HZ4 d   1     -13.960 -66.513 163.388  0.00  0.00    -0.054 A 
ATOM     21 CL1  HZ4 d   1     -13.616 -69.204 164.072  0.00  0.00    -0.083 Cl
ATOM     22  H3  HZ4 d   1     -12.889 -66.413 163.520  0.00  0.00     0.086 H 
ENDBRANCH   9  12
ENDBRANCH   6   9
ENDBRANCH   4   6
BRANCH   4  23
ATOM     23  C10 HZ4 d   1     -15.406 -61.387 160.528  0.00  0.00     0.080 C 
ATOM     24  H9  HZ4 d   1     -16.411 -61.758 160.777  0.00  0.00     0.075 H 
ATOM     25  H10 HZ4 d   1     -15.140 -61.704 159.509  0.00  0.00     0.075 H 
BRANCH  23  26
ATOM     26  C11 HZ4 d   1     -15.401 -59.849 160.599  0.00  0.00    -0.053 C 
ATOM     27  H11 HZ4 d   1     -16.133 -59.447 159.883  0.00  0.00     0.029 H 
ATOM     28  H12 HZ4 d   1     -14.398 -59.474 160.348  0.00  0.00     0.029 H 
ATOM     29  H13 HZ4 d   1     -15.669 -59.528 161.616  0.00  0.00     0.029 H 
ENDBRANCH  23  26
ENDBRANCH   4  23
ENDBRANCH   1   4
BRANCH   1  30
ATOM     30  C13 HZ4 d   1     -12.056 -61.919 162.190  0.00  0.00     0.080 C 
ATOM     31  H16 HZ4 d   1     -11.929 -63.009 162.108  0.00  0.00     0.088 H 
BRANCH  30  32
ATOM     32  C14 HZ4 d   1     -10.712 -61.215 161.910  0.00  0.00     0.051 C 
ATOM     33  H17 HZ4 d   1     -10.893 -60.170 161.617  0.00  0.00     0.079 H 
ATOM     34  H18 HZ4 d   1     -10.180 -61.736 161.100  0.00  0.00     0.079 H 
BRANCH  32  35
ATOM     35  O15 HZ4 d   1      -9.932 -61.253 163.101  0.00  0.00    -0.349 OA
BRANCH  35  36
ATOM     36  C16 HZ4 d   1      -8.793 -60.412 163.057  0.00  0.00     0.069 A 
ATOM     37  C17 HZ4 d   1      -8.572 -59.587 161.939  0.00  0.00    -0.049 A 
ATOM     38  C18 HZ4 d   1      -7.442 -58.764 161.891  0.00  0.00    -0.054 A 
ATOM     39  H19 HZ4 d   1      -9.277 -59.589 161.115  0.00  0.00     0.087 H 
ATOM     40  C19 HZ4 d   1      -6.567 -58.737 162.954  0.00  0.00     0.042 A 
ATOM     41  H20 HZ4 d   1      -7.255 -58.148 161.018  0.00  0.00     0.087 H 
ATOM     42  C20 HZ4 d   1      -6.773 -59.582 164.063  0.00  0.00    -0.054 A 
ATOM     43  C21 HZ4 d   1      -7.897 -60.402 164.113  0.00  0.00    -0.049 A 
ATOM     44  H21 HZ4 d   1      -6.057 -59.593 164.877  0.00  0.00     0.087 H 
ATOM     45  H22 HZ4 d   1      -8.071 -61.032 164.978  0.00  0.00     0.087 H 
BRANCH  40  46
ATOM     46  N22 HZ4 d   1      -5.352 -57.904 162.880  0.00  0.00    -0.285 N 
ATOM     47  H23 HZ4 d   1      -5.309 -57.031 163.366  0.00  0.00     0.178 HD
BRANCH  46  48
ATOM     48  S23 HZ4 d   1      -3.998 -58.451 161.942  0.00  0.00     0.227 S 
ATOM     49  O25 HZ4 d   1      -3.505 -59.758 162.436  0.00  0.00    -0.206 OA
ATOM     50  O26 HZ4 d   1      -2.833 -57.591 162.151  0.00  0.00    -0.206 OA
BRANCH  48  51
ATOM     51  C24 HZ4 d   1      -4.445 -58.546 160.164  0.00  0.00     0.033 C 
ATOM     52  H24 HZ4 d   1      -3.576 -58.894 159.586  0.00  0.00     0.051 H 
ATOM     53  H25 HZ4 d   1      -4.747 -57.550 159.808  0.00  0.00     0.051 H 
ATOM     54  H26 HZ4 d   1      -5.279 -59.251 160.033  0.00  0.00     0.051 H 
ENDBRANCH  48  51
ENDBRANCH  46  48
ENDBRANCH  40  46
ENDBRANCH  35  36
ENDBRANCH  32  35
ENDBRANCH  30  32
BRANCH  30  55
ATOM     55  O27 HZ4 d   1     -12.477 -61.600 163.451  0.00  0.00    -0.392 OA
ATOM     56  H27 HZ4 d   1     -11.828 -61.888 164.083  0.00  0.00     0.210 HD
ENDBRANCH  30  55
ENDBRANCH   1  30
TORSDOF 14
