REMARK  16 active torsions:
REMARK  status: ('A' for Active; 'I' for Inactive)
REMARK    1  A    between atoms: C05_5  and  C07_7 
REMARK    2  A    between atoms: C07_7  and  C08_8 
REMARK    3  A    between atoms: C08_8  and  N09_9 
REMARK    4  A    between atoms: N09_9  and  C10_10 
REMARK    5  A    between atoms: N09_9  and  C14_14 
REMARK    6  A    between atoms: C10_10  and  C11_11 
REMARK    7  A    between atoms: C11_11  and  C12_12 
REMARK    8  A    between atoms: C12_12  and  C13_13 
REMARK    9  A    between atoms: C14_14  and  C15_15 
REMARK   10  A    between atoms: C15_15  and  C16_16 
REMARK   11  A    between atoms: C15_15  and  O29_29 
REMARK   12  A    between atoms: C16_16  and  O17_17 
REMARK   13  A    between atoms: O17_17  and  C18_18 
REMARK   14  A    between atoms: C21_21  and  N24_24 
REMARK   15  A    between atoms: N24_24  and  S25_25 
REMARK   16  A    between atoms: S25_25  and  C26_26 
ROOT
ATOM      1  N09 T88 d   1     254.915 -64.325 162.158  0.00  0.00    -0.068 N 
ATOM      2  H8  T88 d   1     254.931 -63.679 162.931  0.00  0.00     0.280 HD
ENDROOT
BRANCH   1   3
ATOM      3  C08 T88 d   1     255.444 -65.603 162.598  0.00  0.00     0.087 C 
ATOM      4  H6  T88 d   1     255.155 -66.383 161.879  0.00  0.00     0.076 H 
ATOM      5  H7  T88 d   1     256.541 -65.543 162.652  0.00  0.00     0.076 H 
BRANCH   3   6
ATOM      6  C07 T88 d   1     254.889 -65.955 163.975  0.00  0.00    -0.018 C 
ATOM      7  H4  T88 d   1     255.639 -66.543 164.524  0.00  0.00     0.042 H 
ATOM      8  H5  T88 d   1     254.678 -65.026 164.524  0.00  0.00     0.042 H 
BRANCH   6   9
ATOM      9  C05 T88 d   1     253.604 -66.769 163.863  0.00  0.00    -0.055 A 
ATOM     10  C04 T88 d   1     252.408 -66.114 163.618  0.00  0.00    -0.075 A 
ATOM     11  C03 T88 d   1     251.275 -66.835 163.276  0.00  0.00    -0.060 A 
ATOM     12  H2  T88 d   1     252.358 -65.034 163.694  0.00  0.00     0.084 H 
ATOM     13  C02 T88 d   1     251.343 -68.215 163.173  0.00  0.00     0.055 A 
ATOM     14  H1  T88 d   1     250.339 -66.321 163.090  0.00  0.00     0.086 H 
ATOM     15  C01 T88 d   1     252.546 -68.865 163.371  0.00  0.00     0.056 A 
ATOM     16 CL1  T88 d   1     249.879 -69.172 162.821  0.00  0.00    -0.083 Cl
ATOM     17  C06 T88 d   1     253.688 -68.137 163.664  0.00  0.00    -0.054 A 
ATOM     18 CL2  T88 d   1     252.605 -70.644 163.270  0.00  0.00    -0.083 Cl
ATOM     19  H3  T88 d   1     254.647 -68.638 163.737  0.00  0.00     0.086 H 
ENDBRANCH   6   9
ENDBRANCH   3   6
ENDBRANCH   1   3
BRANCH   1  20
ATOM     20  C10 T88 d   1     253.548 -64.466 161.680  0.00  0.00     0.084 C 
ATOM     21  H9  T88 d   1     252.912 -64.845 162.494  0.00  0.00     0.076 H 
ATOM     22  H10 T88 d   1     253.525 -65.173 160.837  0.00  0.00     0.076 H 
BRANCH  20  23
ATOM     23  C11 T88 d   1     253.028 -63.104 161.218  0.00  0.00    -0.043 C 
ATOM     24  H11 T88 d   1     253.431 -62.897 160.216  0.00  0.00     0.035 H 
ATOM     25  H12 T88 d   1     253.382 -62.337 161.922  0.00  0.00     0.035 H 
BRANCH  23  26
ATOM     26  C12 T88 d   1     251.505 -63.037 161.152  0.00  0.00    -0.067 C 
ATOM     27  H13 T88 d   1     251.095 -63.300 162.138  0.00  0.00     0.032 H 
ATOM     28  H14 T88 d   1     251.149 -63.759 160.403  0.00  0.00     0.032 H 
BRANCH  26  29
ATOM     29  C13 T88 d   1     251.011 -61.642 160.767  0.00  0.00    -0.076 C 
ATOM     30  H15 T88 d   1     249.912 -61.639 160.731  0.00  0.00     0.027 H 
ATOM     31  H16 T88 d   1     251.411 -61.371 159.779  0.00  0.00     0.027 H 
ATOM     32  H17 T88 d   1     251.356 -60.912 161.514  0.00  0.00     0.027 H 
ENDBRANCH  26  29
ENDBRANCH  23  26
ENDBRANCH  20  23
ENDBRANCH   1  20
BRANCH   1  33
ATOM     33  C14 T88 d   1     255.732 -63.809 161.081  0.00  0.00     0.109 C 
ATOM     34  H18 T88 d   1     255.189 -63.904 160.129  0.00  0.00     0.080 H 
ATOM     35  H19 T88 d   1     256.672 -64.378 161.026  0.00  0.00     0.080 H 
BRANCH  33  36
ATOM     36  C15 T88 d   1     256.040 -62.341 161.348  0.00  0.00     0.080 C 
ATOM     37  H20 T88 d   1     256.179 -61.808 160.396  0.00  0.00     0.088 H 
BRANCH  36  38
ATOM     38  C16 T88 d   1     257.312 -62.258 162.180  0.00  0.00     0.051 C 
ATOM     39  H21 T88 d   1     258.180 -62.115 161.520  0.00  0.00     0.079 H 
ATOM     40  H22 T88 d   1     257.440 -63.185 162.759  0.00  0.00     0.079 H 
BRANCH  38  41
ATOM     41  O17 T88 d   1     257.194 -61.172 163.047  0.00  0.00    -0.349 OA
BRANCH  41  42
ATOM     42  C18 T88 d   1     258.289 -60.317 162.974  0.00  0.00     0.069 C 
ATOM     43  C19 T88 d   1     259.267 -60.393 163.950  0.00  0.00    -0.049 C 
ATOM     44  C20 T88 d   1     260.445 -59.685 163.799  0.00  0.00    -0.054 C 
ATOM     45  H23 T88 d   1     259.110 -61.006 164.830  0.00  0.00     0.087 H 
ATOM     46  C21 T88 d   1     260.658 -58.939 162.653  0.00  0.00     0.042 C 
ATOM     47  H24 T88 d   1     261.200 -59.714 164.576  0.00  0.00     0.087 H 
ATOM     48  C22 T88 d   1     259.764 -59.021 161.601  0.00  0.00    -0.054 C 
ATOM     49  C23 T88 d   1     258.578 -59.711 161.763  0.00  0.00    -0.049 C 
ATOM     50  H25 T88 d   1     259.993 -58.546 160.654  0.00  0.00     0.087 H 
ATOM     51  H26 T88 d   1     257.873 -59.778 160.942  0.00  0.00     0.087 H 
BRANCH  46  52
ATOM     52  N24 T88 d   1     261.898 -58.209 162.488  0.00  0.00    -0.285 N 
ATOM     53  H27 T88 d   1     262.121 -57.453 163.104  0.00  0.00     0.178 HD
BRANCH  52  54
ATOM     54  S25 T88 d   1     262.977 -58.642 161.241  0.00  0.00     0.227 S 
ATOM     55  O27 T88 d   1     263.698 -59.872 161.572  0.00  0.00    -0.206 OA
ATOM     56  O28 T88 d   1     264.076 -57.681 161.138  0.00  0.00    -0.206 OA
BRANCH  54  57
ATOM     57  C26 T88 d   1     262.091 -58.807 159.664  0.00  0.00     0.033 C 
ATOM     58  H28 T88 d   1     262.801 -59.086 158.872  0.00  0.00     0.051 H 
ATOM     59  H29 T88 d   1     261.615 -57.849 159.409  0.00  0.00     0.051 H 
ATOM     60  H30 T88 d   1     261.320 -59.586 159.756  0.00  0.00     0.051 H 
ENDBRANCH  54  57
ENDBRANCH  52  54
ENDBRANCH  46  52
ENDBRANCH  41  42
ENDBRANCH  38  41
ENDBRANCH  36  38
BRANCH  36  61
ATOM     61  O29 T88 d   1     254.985 -61.766 162.062  0.00  0.00    -0.392 OA
ATOM     62  H31 T88 d   1     254.863 -62.236 162.879  0.00  0.00     0.210 HD
ENDBRANCH  36  61
ENDBRANCH  33  36
ENDBRANCH   1  33
TORSDOF 16
