REMARK  16 active torsions:
REMARK  status: ('A' for Active; 'I' for Inactive)
REMARK    1  A    between atoms: C05_5  and  C07_7 
REMARK    2  A    between atoms: C07_7  and  C08_8 
REMARK    3  A    between atoms: C08_8  and  N09_9 
REMARK    4  A    between atoms: N09_9  and  C10_10 
REMARK    5  A    between atoms: N09_9  and  C14_14 
REMARK    6  A    between atoms: C10_10  and  C11_11 
REMARK    7  A    between atoms: C11_11  and  C12_12 
REMARK    8  A    between atoms: C11_11  and  C13_13 
REMARK    9  A    between atoms: C14_14  and  C15_15 
REMARK   10  A    between atoms: C15_15  and  C16_16 
REMARK   11  A    between atoms: C15_15  and  O29_29 
REMARK   12  A    between atoms: C16_16  and  O17_17 
REMARK   13  A    between atoms: O17_17  and  C18_18 
REMARK   14  A    between atoms: C21_21  and  N24_24 
REMARK   15  A    between atoms: N24_24  and  S25_25 
REMARK   16  A    between atoms: S25_25  and  C26_26 
ROOT
ATOM      1  N09 T97 d   1     -15.250 -61.861 162.008  0.00  0.00    -0.068 N 
ATOM      2  H8  T97 d   1     -15.189 -61.271 162.823  0.00  0.00     0.280 HD
ENDROOT
BRANCH   1   3
ATOM      3  C08 T97 d   1     -15.960 -63.084 162.351  0.00  0.00     0.087 C 
ATOM      4  H6  T97 d   1     -16.896 -62.822 162.866  0.00  0.00     0.076 H 
ATOM      5  H7  T97 d   1     -16.192 -63.634 161.427  0.00  0.00     0.076 H 
BRANCH   3   6
ATOM      6  C07 T97 d   1     -15.120 -63.980 163.268  0.00  0.00    -0.018 C 
ATOM      7  H4  T97 d   1     -14.119 -64.102 162.828  0.00  0.00     0.042 H 
ATOM      8  H5  T97 d   1     -15.032 -63.499 164.253  0.00  0.00     0.042 H 
BRANCH   6   9
ATOM      9  C05 T97 d   1     -15.756 -65.361 163.445  0.00  0.00    -0.055 A 
ATOM     10  C04 T97 d   1     -17.117 -65.522 163.235  0.00  0.00    -0.075 A 
ATOM     11  C03 T97 d   1     -17.704 -66.767 163.389  0.00  0.00    -0.060 A 
ATOM     12  H2  T97 d   1     -17.724 -64.670 162.949  0.00  0.00     0.084 H 
ATOM     13  C02 T97 d   1     -16.928 -67.852 163.753  0.00  0.00     0.055 A 
ATOM     14  H1  T97 d   1     -18.768 -66.890 163.225  0.00  0.00     0.086 H 
ATOM     15  C01 T97 d   1     -15.571 -67.695 163.962  0.00  0.00     0.056 A 
ATOM     16 CL1  T97 d   1     -17.668 -69.463 163.954  0.00  0.00    -0.083 Cl
ATOM     17  C06 T97 d   1     -14.979 -66.450 163.809  0.00  0.00    -0.054 A 
ATOM     18 CL2  T97 d   1     -14.594 -69.110 164.429  0.00  0.00    -0.083 Cl
ATOM     19  H3  T97 d   1     -13.914 -66.329 163.973  0.00  0.00     0.086 H 
ENDBRANCH   6   9
ENDBRANCH   3   6
ENDBRANCH   1   3
BRANCH   1  20
ATOM     20  C10 T97 d   1     -15.975 -61.167 160.958  0.00  0.00     0.086 C 
ATOM     21  H9  T97 d   1     -16.559 -61.897 160.378  0.00  0.00     0.076 H 
ATOM     22  H10 T97 d   1     -15.257 -60.663 160.295  0.00  0.00     0.076 H 
BRANCH  20  23
ATOM     23  C11 T97 d   1     -16.921 -60.128 161.557  0.00  0.00    -0.038 C 
ATOM     24  H11 T97 d   1     -17.554 -60.637 162.298  0.00  0.00     0.041 H 
BRANCH  23  25
ATOM     25  C12 T97 d   1     -17.838 -59.540 160.483  0.00  0.00    -0.072 C 
ATOM     26  H12 T97 d   1     -18.508 -58.796 160.940  0.00  0.00     0.028 H 
ATOM     27  H13 T97 d   1     -18.437 -60.345 160.032  0.00  0.00     0.028 H 
ATOM     28  H14 T97 d   1     -17.229 -59.056 159.705  0.00  0.00     0.028 H 
ENDBRANCH  23  25
BRANCH  23  29
ATOM     29  C13 T97 d   1     -16.145 -59.029 162.282  0.00  0.00    -0.072 C 
ATOM     30  H15 T97 d   1     -15.496 -59.481 163.046  0.00  0.00     0.028 H 
ATOM     31  H16 T97 d   1     -16.852 -58.338 162.764  0.00  0.00     0.028 H 
ATOM     32  H17 T97 d   1     -15.528 -58.477 161.558  0.00  0.00     0.028 H 
ENDBRANCH  23  29
ENDBRANCH  20  23
ENDBRANCH   1  20
BRANCH   1  33
ATOM     33  C14 T97 d   1     -13.911 -62.172 161.539  0.00  0.00     0.109 C 
ATOM     34  H18 T97 d   1     -13.600 -61.419 160.800  0.00  0.00     0.080 H 
ATOM     35  H19 T97 d   1     -13.911 -63.167 161.071  0.00  0.00     0.080 H 
BRANCH  33  36
ATOM     36  C15 T97 d   1     -12.932 -62.165 162.711  0.00  0.00     0.080 C 
ATOM     37  H20 T97 d   1     -12.756 -63.199 163.043  0.00  0.00     0.088 H 
BRANCH  36  38
ATOM     38  C16 T97 d   1     -11.605 -61.532 162.301  0.00  0.00     0.051 C 
ATOM     39  H21 T97 d   1     -11.782 -60.592 161.757  0.00  0.00     0.079 H 
ATOM     40  H22 T97 d   1     -11.033 -62.222 161.664  0.00  0.00     0.079 H 
BRANCH  38  41
ATOM     41  O17 T97 d   1     -10.913 -61.282 163.490  0.00  0.00    -0.349 OA
BRANCH  41  42
ATOM     42  C18 T97 d   1      -9.790 -60.450 163.401  0.00  0.00     0.069 A 
ATOM     43  C19 T97 d   1      -9.566 -59.655 162.287  0.00  0.00    -0.049 A 
ATOM     44  C20 T97 d   1      -8.443 -58.841 162.234  0.00  0.00    -0.054 A 
ATOM     45  H23 T97 d   1     -10.266 -59.669 161.460  0.00  0.00     0.087 H 
ATOM     46  C21 T97 d   1      -7.548 -58.824 163.295  0.00  0.00     0.042 A 
ATOM     47  H24 T97 d   1      -8.265 -58.219 161.364  0.00  0.00     0.087 H 
ATOM     48  C22 T97 d   1      -7.776 -59.617 164.405  0.00  0.00    -0.054 A 
ATOM     49  C23 T97 d   1      -8.895 -60.429 164.458  0.00  0.00    -0.049 A 
ATOM     50  H25 T97 d   1      -7.078 -59.602 165.234  0.00  0.00     0.087 H 
ATOM     51  H26 T97 d   1      -9.072 -61.050 165.329  0.00  0.00     0.087 H 
BRANCH  46  52
ATOM     52  N24 T97 d   1      -6.371 -57.976 163.253  0.00  0.00    -0.285 N 
ATOM     53  H27 T97 d   1      -6.307 -57.183 163.858  0.00  0.00     0.178 HD
BRANCH  52  54
ATOM     54  S25 T97 d   1      -5.095 -58.327 162.174  0.00  0.00     0.227 S 
ATOM     55  O27 T97 d   1      -4.088 -57.263 162.194  0.00  0.00    -0.206 OA
ATOM     56  O28 T97 d   1      -4.310 -59.478 162.630  0.00  0.00    -0.206 OA
BRANCH  54  57
ATOM     57  C26 T97 d   1      -5.736 -58.596 160.496  0.00  0.00     0.033 C 
ATOM     58  H28 T97 d   1      -4.901 -58.820 159.816  0.00  0.00     0.051 H 
ATOM     59  H29 T97 d   1      -6.255 -57.689 160.152  0.00  0.00     0.051 H 
ATOM     60  H30 T97 d   1      -6.440 -59.441 160.504  0.00  0.00     0.051 H 
ENDBRANCH  54  57
ENDBRANCH  52  54
ENDBRANCH  46  52
ENDBRANCH  41  42
ENDBRANCH  38  41
ENDBRANCH  36  38
BRANCH  36  61
ATOM     61  O29 T97 d   1     -13.477 -61.420 163.762  0.00  0.00    -0.392 OA
ATOM     62  H31 T97 d   1     -12.875 -61.425 164.497  0.00  0.00     0.210 HD
ENDBRANCH  36  61
ENDBRANCH  33  36
ENDBRANCH   1  33
TORSDOF 16
