REMARK WARNING: 32 MAX_TORS EXCEEDED!!!
REMARK  58 active torsions:
REMARK  status: ('A' for Active; 'I' for Inactive)
REMARK    1  A    between atoms: N_1  and  CA_2 
REMARK    2  A    between atoms: CA_2  and  C_3 
REMARK    3  A    between atoms: CA_2  and  CB_5 
REMARK       I    between atoms: C_3  and  N_6 
REMARK    4  A    between atoms: N_6  and  CA_7 
REMARK    5  A    between atoms: CA_7  and  C_8 
REMARK    6  A    between atoms: CA_7  and  CB_10 
REMARK       I    between atoms: C_8  and  N_17 
REMARK    7  A    between atoms: CB_10  and  CG_11 
REMARK    8  A    between atoms: CG_11  and  CD_12 
REMARK    9  A    between atoms: CD_12  and  NE_13 
REMARK       I    between atoms: NE_13  and  CZ_14 
REMARK       I    between atoms: CZ_14  and  NH1_15 
REMARK       I    between atoms: CZ_14  and  NH2_16 
REMARK   10  A    between atoms: N_17  and  CA_18 
REMARK   11  A    between atoms: CA_18  and  C_19 
REMARK   12  A    between atoms: CA_18  and  CB_21 
REMARK       I    between atoms: C_19  and  N_24 
REMARK   13  A    between atoms: CB_21  and  OG1_22 
REMARK   14  A    between atoms: CB_21  and  CG2_23 
REMARK   15  A    between atoms: N_24  and  CA_25 
REMARK   16  A    between atoms: CA_25  and  C_26 
REMARK   17  A    between atoms: CA_25  and  CB_28 
REMARK       I    between atoms: C_26  and  N_33 
REMARK   18  A    between atoms: CB_28  and  CG_29 
REMARK   19  A    between atoms: CG_29  and  CD_30 
REMARK   20  A    between atoms: CD_30  and  CE_31 
REMARK   21  A    between atoms: CE_31  and  NZ_32 
REMARK   22  A    between atoms: N_33  and  CA_34 
REMARK   23  A    between atoms: CA_34  and  C_35 
REMARK   24  A    between atoms: CA_34  and  CB_37 
REMARK       I    between atoms: C_35  and  N_42 
REMARK   25  A    between atoms: CB_37  and  CG_38 
REMARK   26  A    between atoms: CG_38  and  CD_39 
REMARK       I    between atoms: CD_39  and  NE2_41 
REMARK   27  A    between atoms: N_42  and  CA_43 
REMARK   28  A    between atoms: CA_43  and  C_44 
REMARK   29  A    between atoms: CA_43  and  CB_46 
REMARK       I    between atoms: C_44  and  N_49 
REMARK   30  A    between atoms: CB_46  and  OG1_47 
REMARK   31  A    between atoms: CB_46  and  CG2_48 
REMARK   32  A    between atoms: N_49  and  CA_50 
REMARK   33  A    between atoms: CA_50  and  C_51 
REMARK   34  A    between atoms: CA_50  and  CB_53 
REMARK       I    between atoms: C_51  and  N_54 
REMARK   35  A    between atoms: N_54  and  CA_55 
REMARK   36  A    between atoms: CA_55  and  C_56 
REMARK   37  A    between atoms: CA_55  and  CB_58 
REMARK       I    between atoms: C_56  and  N_65 
REMARK   38  A    between atoms: CB_58  and  CG_59 
REMARK   39  A    between atoms: CG_59  and  CD_60 
REMARK   40  A    between atoms: CD_60  and  NE_61 
REMARK       I    between atoms: NE_61  and  CZ_62 
REMARK       I    between atoms: CZ_62  and  NH1_63 
REMARK   41  A    between atoms: N_65  and  CA_66 
REMARK   42  A    between atoms: CA_66  and  C_67 
REMARK   43  A    between atoms: CA_66  and  CB_69 
REMARK       I    between atoms: C_67  and  N_74 
REMARK   44  A    between atoms: CB_69  and  CG_70 
REMARK   45  A    between atoms: CG_70  and  CD_71 
REMARK   46  A    between atoms: CD_71  and  CE_72 
REMARK   47  A    between atoms: CE_72  and  NZ_73 
REMARK   48  A    between atoms: N_74  and  CA_75 
REMARK   49  A    between atoms: CA_75  and  C_76 
REMARK   50  A    between atoms: CA_75  and  CB_78 
REMARK       I    between atoms: C_76  and  N_80 
REMARK   51  A    between atoms: CB_78  and  OG_79 
REMARK   52  A    between atoms: N_80  and  CA_81 
REMARK   53  A    between atoms: CA_81  and  C_82 
REMARK   54  A    between atoms: CA_81  and  CB_84 
REMARK       I    between atoms: C_82  and  N_87 
REMARK   55  A    between atoms: CB_84  and  OG1_85 
REMARK   56  A    between atoms: CB_84  and  CG2_86 
REMARK   57  A    between atoms: N_87  and  CA_88 
REMARK   58  A    between atoms: CA_88  and  C_89 
ROOT
ATOM      1  CA  THR d   1       4.369   2.070   7.994  0.00  0.00     0.113 C 
ATOM      2  H50 THR d   1       5.282   2.628   8.250  0.00  0.00     0.091 H 
ENDROOT
BRANCH   1   3
ATOM      3  N   THR d   1       4.675   0.623   8.067  0.00  0.00    -0.344 N 
ATOM      4  C   GLN d   1       5.267   0.025   9.106  0.00  0.00     0.241 C 
ATOM      5  O   GLN d   1       5.650   0.658  10.091  0.00  0.00    -0.271 OA
ATOM      6  H49 THR d   1       4.421   0.054   7.285  0.00  0.00     0.163 HD
BRANCH   4   7
ATOM      7  CA  GLN d   1       5.441  -1.504   9.015  0.00  0.00     0.090 C 
ATOM      8  H42 GLN d   1       5.640  -1.754   7.963  0.00  0.00     0.087 H 
BRANCH   7   9
ATOM      9  N   GLN d   1       6.578  -2.001   9.812  0.00  0.00    -0.346 N 
ATOM     10  C   LYS d   1       7.861  -1.767   9.527  0.00  0.00     0.241 C 
ATOM     11  O   LYS d   1       8.214  -1.112   8.542  0.00  0.00    -0.271 OA
ATOM     12  H41 GLN d   1       6.374  -2.551  10.622  0.00  0.00     0.163 HD
BRANCH  10  13
ATOM     13  CA  LYS d   1       8.901  -2.314  10.522  0.00  0.00     0.089 C 
ATOM     14  H29 LYS d   1       8.379  -3.032  11.171  0.00  0.00     0.087 H 
BRANCH  13  15
ATOM     15  N   LYS d   1       9.997  -3.030   9.837  0.00  0.00    -0.346 N 
ATOM     16  C   THR d   1      10.024  -4.354   9.589  0.00  0.00     0.243 C 
ATOM     17  O   THR d   1       9.137  -5.109   9.992  0.00  0.00    -0.271 OA
ATOM     18  H28 LYS d   1      10.781  -2.489   9.533  0.00  0.00     0.163 HD
BRANCH  16  19
ATOM     19  CA  THR d   1      11.155  -4.917   8.714  0.00  0.00     0.113 C 
ATOM     20  H22 THR d   1      10.709  -5.671   8.049  0.00  0.00     0.091 H 
BRANCH  19  21
ATOM     21  N   THR d   1      11.784  -3.891   7.855  0.00  0.00    -0.344 N 
ATOM     22  C   ARG d   1      11.894  -3.954   6.529  0.00  0.00     0.241 C 
ATOM     23  O   ARG d   1      11.539  -4.932   5.870  0.00  0.00    -0.271 OA
ATOM     24  H21 THR d   1      12.158  -3.082   8.308  0.00  0.00     0.163 HD
BRANCH  22  25
ATOM     25  CA  ARG d   1      12.445  -2.703   5.829  0.00  0.00     0.089 C 
ATOM     26  H9  ARG d   1      12.928  -2.066   6.584  0.00  0.00     0.087 H 
BRANCH  25  27
ATOM     27  N   ARG d   1      13.453  -3.058   4.812  0.00  0.00    -0.346 N 
ATOM     28  C   ALA d   1      14.618  -3.624   5.148  0.00  0.00     0.248 C 
ATOM     29  O   ALA d   1      14.963  -3.749   6.318  0.00  0.00    -0.271 OA
ATOM     30  H8  ARG d   1      13.261  -2.871   3.849  0.00  0.00     0.163 HD
BRANCH  28  31
ATOM     31  CA  ALA d   1      15.508  -4.182   4.058  0.00  0.00     0.172 C 
ATOM     32  H4  ALA d   1      15.034  -3.960   3.091  0.00  0.00     0.098 H 
BRANCH  31  33
ATOM     33  N   ALA d   1      16.816  -3.517   4.075  0.00  0.00    -0.067 N 
ATOM     34  H1  ALA d   1      17.396  -3.899   3.345  0.00  0.00     0.275 HD
ATOM     35  H2  ALA d   1      17.258  -3.667   4.968  0.00  0.00     0.275 HD
ATOM     36  H3  ALA d   1      16.692  -2.528   3.924  0.00  0.00     0.275 HD
ENDBRANCH  31  33
BRANCH  31  37
ATOM     37  CB  ALA d   1      15.636  -5.703   4.169  0.00  0.00    -0.042 C 
ATOM     38  H5  ALA d   1      14.634  -6.157   4.152  0.00  0.00     0.030 H 
ATOM     39  H6  ALA d   1      16.140  -5.961   5.112  0.00  0.00     0.030 H 
ATOM     40  H7  ALA d   1      16.226  -6.084   3.322  0.00  0.00     0.030 H 
ENDBRANCH  31  37
ENDBRANCH  28  31
ENDBRANCH  25  27
BRANCH  25  41
ATOM     41  CB  ARG d   1      11.286  -1.916   5.194  0.00  0.00    -0.036 C 
ATOM     42  H10 ARG d   1      10.443  -1.890   5.901  0.00  0.00     0.036 H 
ATOM     43  H11 ARG d   1      10.974  -2.424   4.270  0.00  0.00     0.036 H 
BRANCH  41  44
ATOM     44  CG  ARG d   1      11.697  -0.474   4.855  0.00  0.00    -0.048 C 
ATOM     45  H12 ARG d   1      12.416  -0.496   4.023  0.00  0.00     0.035 H 
ATOM     46  H13 ARG d   1      12.173  -0.024   5.739  0.00  0.00     0.035 H 
BRANCH  44  47
ATOM     47  CD  ARG d   1      10.496   0.387   4.448  0.00  0.00     0.009 C 
ATOM     48  H14 ARG d   1       9.982  -0.089   3.600  0.00  0.00     0.064 H 
ATOM     49  H15 ARG d   1      10.852   1.384   4.149  0.00  0.00     0.064 H 
BRANCH  47  50
ATOM     50  NE  ARG d   1       9.545   0.529   5.574  0.00  0.00    -0.227 N 
ATOM     51  CZ  ARG d   1       8.325   1.032   5.525  0.00  0.00     0.665 C 
ATOM     52  NH1 ARG d   1       7.542   0.935   6.555  0.00  0.00    -0.235 N 
ATOM     53  NH2 ARG d   1       7.850   1.630   4.470  0.00  0.00    -0.235 N 
ATOM     54  H17 ARG d   1       6.590   1.327   6.517  0.00  0.00     0.174 HD
ATOM     55  H18 ARG d   1       7.872   0.466   7.410  0.00  0.00     0.174 HD
ATOM     56  H19 ARG d   1       8.435   1.731   3.628  0.00  0.00     0.174 HD
ATOM     57  H20 ARG d   1       6.890   2.002   4.478  0.00  0.00     0.174 HD
ATOM     58  H16 ARG d   1       9.870   0.200   6.494  0.00  0.00     0.177 HD
ENDBRANCH  47  50
ENDBRANCH  44  47
ENDBRANCH  41  44
ENDBRANCH  25  41
ENDBRANCH  22  25
ENDBRANCH  19  21
BRANCH  19  59
ATOM     59  CB  THR d   1      12.209  -5.624   9.583  0.00  0.00     0.060 C 
ATOM     60  H23 THR d   1      11.698  -6.359  10.223  0.00  0.00     0.086 H 
BRANCH  59  61
ATOM     61  OG1 THR d   1      12.887  -4.687  10.381  0.00  0.00    -0.393 OA
ATOM     62  H24 THR d   1      13.319  -4.051   9.823  0.00  0.00     0.210 HD
ENDBRANCH  59  61
BRANCH  59  63
ATOM     63  CG2 THR d   1      13.281  -6.334   8.754  0.00  0.00    -0.050 C 
ATOM     64  H25 THR d   1      14.003  -6.819   9.427  0.00  0.00     0.031 H 
ATOM     65  H26 THR d   1      13.803  -5.599   8.123  0.00  0.00     0.031 H 
ATOM     66  H27 THR d   1      12.807  -7.094   8.116  0.00  0.00     0.031 H 
ENDBRANCH  59  63
ENDBRANCH  19  59
ENDBRANCH  16  19
ENDBRANCH  13  15
BRANCH  13  67
ATOM     67  CB  LYS d   1       9.520  -1.229  11.427  0.00  0.00    -0.038 C 
ATOM     68  H30 LYS d   1      10.167  -0.591  10.807  0.00  0.00     0.036 H 
ATOM     69  H31 LYS d   1      10.126  -1.727  12.198  0.00  0.00     0.036 H 
BRANCH  67  70
ATOM     70  CG  LYS d   1       8.491  -0.334  12.128  0.00  0.00    -0.061 C 
ATOM     71  H32 LYS d   1       7.810  -0.975  12.707  0.00  0.00     0.033 H 
ATOM     72  H33 LYS d   1       7.920   0.207  11.359  0.00  0.00     0.033 H 
BRANCH  70  73
ATOM     73  CD  LYS d   1       9.119   0.695  13.082  0.00  0.00    -0.043 C 
ATOM     74  H34 LYS d   1       8.354   1.439  13.350  0.00  0.00     0.035 H 
ATOM     75  H35 LYS d   1       9.951   1.194  12.563  0.00  0.00     0.035 H 
BRANCH  73  76
ATOM     76  CE  LYS d   1       9.657   0.055  14.373  0.00  0.00     0.080 C 
ATOM     77  H36 LYS d   1      10.474  -0.636  14.117  0.00  0.00     0.075 H 
ATOM     78  H37 LYS d   1       8.845  -0.503  14.861  0.00  0.00     0.075 H 
BRANCH  76  79
ATOM     79  NZ  LYS d   1      10.173   1.088  15.318  0.00  0.00    -0.079 N 
ATOM     80  H38 LYS d   1      10.518   0.638  16.152  0.00  0.00     0.274 HD
ATOM     81  H39 LYS d   1       9.428   1.722  15.562  0.00  0.00     0.274 HD
ATOM     82  H40 LYS d   1      10.922   1.601  14.879  0.00  0.00     0.274 HD
ENDBRANCH  76  79
ENDBRANCH  73  76
ENDBRANCH  70  73
ENDBRANCH  67  70
ENDBRANCH  13  67
ENDBRANCH  10  13
ENDBRANCH   7   9
BRANCH   7  83
ATOM     83  CB  GLN d   1       4.137  -2.210   9.437  0.00  0.00    -0.030 C 
ATOM     84  H43 GLN d   1       3.303  -1.775   8.867  0.00  0.00     0.037 H 
ATOM     85  H44 GLN d   1       3.977  -2.036  10.511  0.00  0.00     0.037 H 
BRANCH  83  86
ATOM     86  CG  GLN d   1       4.163  -3.729   9.185  0.00  0.00     0.011 C 
ATOM     87  H45 GLN d   1       4.864  -4.187   9.898  0.00  0.00     0.047 H 
ATOM     88  H46 GLN d   1       4.517  -3.904   8.158  0.00  0.00     0.047 H 
BRANCH  86  89
ATOM     89  CD  GLN d   1       2.796  -4.407   9.348  0.00  0.00     0.215 C 
ATOM     90  OE1 GLN d   1       1.756  -3.792   9.554  0.00  0.00    -0.274 OA
ATOM     91  NE2 GLN d   1       2.741  -5.719   9.251  0.00  0.00    -0.370 N 
ATOM     92  H47 GLN d   1       1.866  -6.192   9.352  0.00  0.00     0.159 HD
ATOM     93  H48 GLN d   1       3.575  -6.243   9.076  0.00  0.00     0.159 HD
ENDBRANCH  86  89
ENDBRANCH  83  86
ENDBRANCH   7  83
ENDBRANCH   4   7
ENDBRANCH   1   3
BRANCH   1  94
ATOM     94  C   THR d   1       3.276   2.465   9.004  0.00  0.00     0.243 C 
ATOM     95  O   THR d   1       2.416   1.650   9.341  0.00  0.00    -0.271 OA
ATOM     96  N   ALA d   1       3.276   3.721   9.470  0.00  0.00    -0.346 N 
ATOM     97  H56 ALA d   1       3.993   4.332   9.134  0.00  0.00     0.163 HD
BRANCH  96  98
ATOM     98  CA  ALA d   1       2.313   4.280  10.433  0.00  0.00     0.086 C 
ATOM     99  H57 ALA d   1       2.186   3.544  11.241  0.00  0.00     0.086 H 
BRANCH  98 100
ATOM    100  C   ALA d   1       0.900   4.524   9.833  0.00  0.00     0.240 C 
ATOM    101  O   ALA d   1       0.399   5.652   9.796  0.00  0.00    -0.271 OA
ATOM    102  N   ARG d   1       0.262   3.454   9.331  0.00  0.00    -0.346 N 
ATOM    103  H61 ARG d   1       0.704   2.565   9.452  0.00  0.00     0.163 HD
BRANCH 102 104
ATOM    104  CA  ARG d   1      -1.035   3.466   8.615  0.00  0.00     0.089 C 
ATOM    105  H62 ARG d   1      -0.953   4.228   7.826  0.00  0.00     0.087 H 
BRANCH 104 106
ATOM    106  C   ARG d   1      -2.244   3.866   9.472  0.00  0.00     0.241 C 
ATOM    107  O   ARG d   1      -3.208   4.410   8.933  0.00  0.00    -0.271 OA
ATOM    108  N   LYS d   1      -2.198   3.592  10.786  0.00  0.00    -0.346 N 
ATOM    109  H74 LYS d   1      -1.389   3.105  11.116  0.00  0.00     0.163 HD
BRANCH 108 110
ATOM    110  CA  LYS d   1      -3.228   3.939  11.799  0.00  0.00     0.089 C 
ATOM    111  H75 LYS d   1      -2.983   3.371  12.708  0.00  0.00     0.087 H 
BRANCH 110 112
ATOM    112  C   LYS d   1      -4.658   3.498  11.407  0.00  0.00     0.241 C 
ATOM    113  O   LYS d   1      -5.643   4.193  11.666  0.00  0.00    -0.271 OA
ATOM    114  N   SER d   1      -4.763   2.345  10.737  0.00  0.00    -0.344 N 
ATOM    115  H87 SER d   1      -3.926   1.816  10.599  0.00  0.00     0.163 HD
BRANCH 114 116
ATOM    116  CA  SER d   1      -6.012   1.791  10.186  0.00  0.00     0.109 C 
ATOM    117  H88 SER d   1      -6.822   1.980  10.905  0.00  0.00     0.090 H 
BRANCH 116 118
ATOM    118  C   SER d   1      -5.911   0.275   9.962  0.00  0.00     0.243 C 
ATOM    119  O   SER d   1      -4.848  -0.234   9.587  0.00  0.00    -0.271 OA
ATOM    120  N   THR d   1      -7.020  -0.442  10.194  0.00  0.00    -0.344 N 
ATOM    121  H92 THR d   1      -7.808   0.051  10.562  0.00  0.00     0.163 HD
BRANCH 120 122
ATOM    122  CA  THR d   1      -7.190  -1.895   9.958  0.00  0.00     0.113 C 
ATOM    123  H93 THR d   1      -8.102  -2.202  10.491  0.00  0.00     0.091 H 
BRANCH 122 124
ATOM    124  C   THR d   1      -6.034  -2.712  10.571  0.00  0.00     0.243 C 
ATOM    125  O   THR d   1      -5.356  -3.477   9.883  0.00  0.00    -0.271 OA
ATOM    126  N   GLY d   1      -5.759  -2.461  11.863  0.00  0.00    -0.349 N 
ATOM    127  H99 GLY d   1      -6.419  -1.893  12.354  0.00  0.00     0.163 HD
BRANCH 126 128
ATOM    128  CA  GLY d   1      -4.592  -2.929  12.642  0.00  0.00     0.075 C 
ATOM    129 0H10 GLY d   1      -4.855  -2.874  13.709  0.00  0.00     0.080 H 
ATOM    130 1H10 GLY d   1      -3.754  -2.248  12.435  0.00  0.00     0.080 H 
BRANCH 128 131
ATOM    131  C   GLY d   1      -4.120  -4.355  12.349  0.00  0.00     0.191 C 
ATOM    132  O   GLY d   1      -4.788  -5.312  12.799  0.00  0.00    -0.647 OA
ATOM    133  OXT GLY d   1      -3.068  -4.485  11.683  0.00  0.00    -0.647 OA
ENDBRANCH 128 131
ENDBRANCH 126 128
ENDBRANCH 122 124
BRANCH 122 134
ATOM    134  CB  THR d   1      -7.439  -2.185   8.459  0.00  0.00     0.060 C 
ATOM    135  H94 THR d   1      -6.491  -2.050   7.918  0.00  0.00     0.086 H 
BRANCH 134 136
ATOM    136  OG1 THR d   1      -8.426  -1.308   7.940  0.00  0.00    -0.393 OA
ATOM    137  H95 THR d   1      -8.132  -0.410   8.036  0.00  0.00     0.210 HD
ENDBRANCH 134 136
BRANCH 134 138
ATOM    138  CG2 THR d   1      -7.984  -3.593   8.191  0.00  0.00    -0.050 C 
ATOM    139  H96 THR d   1      -8.136  -3.728   7.110  0.00  0.00     0.031 H 
ATOM    140  H97 THR d   1      -8.943  -3.721   8.715  0.00  0.00     0.031 H 
ATOM    141  H98 THR d   1      -7.264  -4.340   8.556  0.00  0.00     0.031 H 
ENDBRANCH 134 138
ENDBRANCH 122 134
ENDBRANCH 120 122
ENDBRANCH 116 118
BRANCH 116 142
ATOM    142  CB  SER d   1      -6.352   2.498   8.864  0.00  0.00     0.044 C 
ATOM    143  H89 SER d   1      -5.528   2.345   8.152  0.00  0.00     0.077 H 
ATOM    144  H90 SER d   1      -6.478   3.574   9.053  0.00  0.00     0.077 H 
BRANCH 142 145
ATOM    145  OG  SER d   1      -7.552   1.981   8.305  0.00  0.00    -0.398 OA
ATOM    146  H91 SER d   1      -7.447   1.052   8.136  0.00  0.00     0.209 HD
ENDBRANCH 142 145
ENDBRANCH 116 142
ENDBRANCH 114 116
ENDBRANCH 110 112
BRANCH 110 147
ATOM    147  CB  LYS d   1      -3.081   5.434  12.163  0.00  0.00    -0.038 C 
ATOM    148  H76 LYS d   1      -3.632   6.031  11.421  0.00  0.00     0.036 H 
ATOM    149  H77 LYS d   1      -2.014   5.699  12.128  0.00  0.00     0.036 H 
BRANCH 147 150
ATOM    150  CG  LYS d   1      -3.624   5.772  13.565  0.00  0.00    -0.061 C 
ATOM    151  H78 LYS d   1      -3.122   5.125  14.300  0.00  0.00     0.033 H 
ATOM    152  H79 LYS d   1      -4.706   5.572  13.579  0.00  0.00     0.033 H 
BRANCH 150 153
ATOM    153  CD  LYS d   1      -3.393   7.238  13.967  0.00  0.00    -0.043 C 
ATOM    154  H80 LYS d   1      -2.323   7.470  13.860  0.00  0.00     0.035 H 
ATOM    155  H81 LYS d   1      -3.693   7.368  15.017  0.00  0.00     0.035 H 
BRANCH 153 156
ATOM    156  CE  LYS d   1      -4.200   8.215  13.098  0.00  0.00     0.080 C 
ATOM    157  H82 LYS d   1      -5.267   7.959  13.171  0.00  0.00     0.075 H 
ATOM    158  H83 LYS d   1      -3.870   8.118  12.053  0.00  0.00     0.075 H 
BRANCH 156 159
ATOM    159  NZ  LYS d   1      -4.011   9.629  13.536  0.00  0.00    -0.079 N 
ATOM    160  H84 LYS d   1      -4.554  10.239  12.945  0.00  0.00     0.274 HD
ATOM    161  H85 LYS d   1      -3.036   9.875  13.467  0.00  0.00     0.274 HD
ATOM    162  H86 LYS d   1      -4.316   9.728  14.492  0.00  0.00     0.274 HD
ENDBRANCH 156 159
ENDBRANCH 153 156
ENDBRANCH 150 153
ENDBRANCH 147 150
ENDBRANCH 110 147
ENDBRANCH 108 110
ENDBRANCH 104 106
BRANCH 104 163
ATOM    163  CB  ARG d   1      -1.250   2.103   7.918  0.00  0.00    -0.036 C 
ATOM    164  H63 ARG d   1      -0.473   1.988   7.147  0.00  0.00     0.036 H 
ATOM    165  H64 ARG d   1      -2.241   2.117   7.441  0.00  0.00     0.036 H 
BRANCH 163 166
ATOM    166  CG  ARG d   1      -1.185   0.875   8.848  0.00  0.00    -0.048 C 
ATOM    167  H65 ARG d   1      -1.992   0.946   9.592  0.00  0.00     0.035 H 
ATOM    168  H66 ARG d   1      -0.212   0.866   9.362  0.00  0.00     0.035 H 
BRANCH 166 169
ATOM    169  CD  ARG d   1      -1.346  -0.433   8.059  0.00  0.00     0.009 C 
ATOM    170  H67 ARG d   1      -0.777  -0.356   7.121  0.00  0.00     0.064 H 
ATOM    171  H68 ARG d   1      -2.411  -0.583   7.830  0.00  0.00     0.064 H 
BRANCH 169 172
ATOM    172  NE  ARG d   1      -0.852  -1.594   8.826  0.00  0.00    -0.227 N 
ATOM    173  CZ  ARG d   1      -1.540  -2.384   9.631  0.00  0.00     0.665 C 
ATOM    174  NH1 ARG d   1      -2.788  -2.209   9.929  0.00  0.00    -0.235 N 
ATOM    175  NH2 ARG d   1      -0.990  -3.413  10.191  0.00  0.00    -0.235 N 
ATOM    176  H70 ARG d   1      -3.263  -2.866  10.565  0.00  0.00     0.174 HD
ATOM    177  H71 ARG d   1      -3.306  -1.413   9.530  0.00  0.00     0.174 HD
ATOM    178  H72 ARG d   1       0.001  -3.629  10.011  0.00  0.00     0.174 HD
ATOM    179  H73 ARG d   1      -1.543  -4.016  10.817  0.00  0.00     0.174 HD
ATOM    180  H69 ARG d   1       0.149  -1.814   8.721  0.00  0.00     0.177 HD
ENDBRANCH 169 172
ENDBRANCH 166 169
ENDBRANCH 163 166
ENDBRANCH 104 163
ENDBRANCH 102 104
ENDBRANCH  98 100
BRANCH  98 181
ATOM    181  CB  ALA d   1       2.944   5.541  11.047  0.00  0.00    -0.049 C 
ATOM    182  H58 ALA d   1       2.246   5.984  11.773  0.00  0.00     0.030 H 
ATOM    183  H59 ALA d   1       3.156   6.270  10.251  0.00  0.00     0.030 H 
ATOM    184  H60 ALA d   1       3.881   5.271  11.556  0.00  0.00     0.030 H 
ENDBRANCH  98 181
ENDBRANCH  96  98
ENDBRANCH   1  94
BRANCH   1 185
ATOM    185  CB  THR d   1       3.967   2.438   6.553  0.00  0.00     0.060 C 
ATOM    186  H51 THR d   1       3.016   1.936   6.320  0.00  0.00     0.086 H 
BRANCH 185 187
ATOM    187  OG1 THR d   1       4.981   1.989   5.674  0.00  0.00    -0.393 OA
ATOM    188  H52 THR d   1       4.745   2.210   4.781  0.00  0.00     0.210 HD
ENDBRANCH 185 187
BRANCH 185 189
ATOM    189  CG2 THR d   1       3.810   3.933   6.292  0.00  0.00    -0.050 C 
ATOM    190  H53 THR d   1       3.523   4.094   5.242  0.00  0.00     0.031 H 
ATOM    191  H54 THR d   1       4.764   4.443   6.494  0.00  0.00     0.031 H 
ATOM    192  H55 THR d   1       3.030   4.340   6.952  0.00  0.00     0.031 H 
ENDBRANCH 185 189
ENDBRANCH   1 185
TORSDOF 58
