REMARK WARNING: 32 MAX_TORS EXCEEDED!!!
REMARK  41 active torsions:
REMARK  status: ('A' for Active; 'I' for Inactive)
REMARK    1  A    between atoms: CA_2  and  N_1 
REMARK    2  A    between atoms: C_3  and  CA_2 
REMARK    3  A    between atoms: CA_2  and  CB_5 
REMARK       I    between atoms: N_6  and  C_3 
REMARK    4  A    between atoms: CA_7  and  N_6 
REMARK    5  A    between atoms: C_8  and  CA_7 
REMARK    6  A    between atoms: CA_7  and  CB_10 
REMARK       I    between atoms: N_17  and  C_8 
REMARK    7  A    between atoms: CB_10  and  CG_11 
REMARK    8  A    between atoms: CG_11  and  CD_12 
REMARK    9  A    between atoms: CD_12  and  NE_13 
REMARK       I    between atoms: NE_13  and  CZ_14 
REMARK       I    between atoms: CZ_14  and  NH1_15 
REMARK       I    between atoms: CZ_14  and  NH2_16 
REMARK   10  A    between atoms: CA_18  and  N_17 
REMARK   11  A    between atoms: C_19  and  CA_18 
REMARK   12  A    between atoms: CA_18  and  CB_21 
REMARK       I    between atoms: N_33  and  C_19 
REMARK   13  A    between atoms: CB_21  and  OG1_22 
REMARK   14  A    between atoms: CB_21  and  CG2_23 
REMARK   15  A    between atoms: CH_25  and  CH3_26 
REMARK       I    between atoms: NZ_27  and  CH_25 
REMARK   16  A    between atoms: CE_28  and  NZ_27 
REMARK   17  A    between atoms: CD_29  and  CE_28 
REMARK   18  A    between atoms: CG_30  and  CD_29 
REMARK   19  A    between atoms: CB_31  and  CG_30 
REMARK   20  A    between atoms: CA_32  and  CB_31 
REMARK   21  A    between atoms: CA_32  and  N_33 
REMARK   22  A    between atoms: CA_32  and  C_34 
REMARK       I    between atoms: C_34  and  N_36 
REMARK   23  A    between atoms: N_36  and  CA_37 
REMARK   24  A    between atoms: CA_37  and  C_38 
REMARK   25  A    between atoms: CA_37  and  CB_40 
REMARK       I    between atoms: C_38  and  N_45 
REMARK   26  A    between atoms: CB_40  and  CG_41 
REMARK   27  A    between atoms: CG_41  and  CD_42 
REMARK       I    between atoms: CD_42  and  NE2_44 
REMARK   28  A    between atoms: N_45  and  CA_46 
REMARK   29  A    between atoms: CA_46  and  C_47 
REMARK   30  A    between atoms: CA_46  and  CB_49 
REMARK       I    between atoms: C_47  and  N_52 
REMARK   31  A    between atoms: CB_49  and  OG1_50 
REMARK   32  A    between atoms: CB_49  and  CG2_51 
REMARK   33  A    between atoms: N_52  and  CA_53 
REMARK   34  A    between atoms: CA_53  and  C_54 
REMARK   35  A    between atoms: CA_53  and  CB_56 
REMARK       I    between atoms: C_54  and  N_57 
REMARK   36  A    between atoms: N_57  and  CA_58 
REMARK   37  A    between atoms: CA_58  and  C_59 
REMARK   38  A    between atoms: CA_58  and  CB_61 
REMARK   39  A    between atoms: CB_61  and  CG_62 
REMARK   40  A    between atoms: CG_62  and  CD_63 
REMARK   41  A    between atoms: CD_63  and  NE_64 
REMARK       I    between atoms: NE_64  and  CZ_65 
REMARK       I    between atoms: CZ_65  and  NH1_66 
ROOT
ATOM      1  CA  ALY d   1      -3.333   6.114  -4.177  0.00  0.00     0.089 C 
ATOM      2  H40 ALY d   1      -4.199   6.789  -4.247  0.00  0.00     0.087 H 
ENDROOT
BRANCH   1   3
ATOM      3  CB  ALY d   1      -2.040   6.961  -4.205  0.00  0.00    -0.038 C 
ATOM      4  H38 ALY d   1      -2.002   7.554  -3.280  0.00  0.00     0.036 H 
ATOM      5  H39 ALY d   1      -1.183   6.272  -4.234  0.00  0.00     0.036 H 
BRANCH   3   6
ATOM      6  CG  ALY d   1      -1.914   7.927  -5.394  0.00  0.00    -0.061 C 
ATOM      7  H36 ALY d   1      -0.897   8.346  -5.401  0.00  0.00     0.033 H 
ATOM      8  H37 ALY d   1      -2.085   7.364  -6.324  0.00  0.00     0.033 H 
BRANCH   6   9
ATOM      9  CD  ALY d   1      -2.922   9.086  -5.328  0.00  0.00    -0.050 C 
ATOM     10  H34 ALY d   1      -3.928   8.689  -5.531  0.00  0.00     0.035 H 
ATOM     11  H35 ALY d   1      -2.895   9.518  -4.317  0.00  0.00     0.035 H 
BRANCH   9  12
ATOM     12  CE  ALY d   1      -2.620  10.198  -6.344  0.00  0.00    -0.005 C 
ATOM     13  H32 ALY d   1      -3.315  11.034  -6.176  0.00  0.00     0.064 H 
ATOM     14  H33 ALY d   1      -1.587  10.545  -6.197  0.00  0.00     0.064 H 
BRANCH  12  15
ATOM     15  NZ  ALY d   1      -2.771   9.723  -7.718  0.00  0.00    -0.361 N 
ATOM     16  CH  ALY d   1      -1.768   9.407  -8.536  0.00  0.00     0.213 C 
ATOM     17  OH  ALY d   1      -0.581   9.453  -8.220  0.00  0.00    -0.274 OA
ATOM     18  H31 ALY d   1      -3.701   9.628  -8.072  0.00  0.00     0.162 HD
BRANCH  16  19
ATOM     19  CH3 ALY d   1      -2.157   8.985  -9.930  0.00  0.00    -0.003 C 
ATOM     20  H28 ALY d   1      -3.253   9.004 -10.027  0.00  0.00     0.040 H 
ATOM     21  H29 ALY d   1      -1.790   7.966 -10.120  0.00  0.00     0.040 H 
ATOM     22  H30 ALY d   1      -1.712   9.677 -10.660  0.00  0.00     0.040 H 
ENDBRANCH  16  19
ENDBRANCH  12  15
ENDBRANCH   9  12
ENDBRANCH   6   9
ENDBRANCH   3   6
ENDBRANCH   1   3
BRANCH   1  23
ATOM     23  N   ALY d   1      -3.369   5.447  -2.867  0.00  0.00    -0.346 N 
ATOM     24  C   THR d   1      -4.090   4.396  -2.449  0.00  0.00     0.243 C 
ATOM     25  O   THR d   1      -4.927   3.846  -3.164  0.00  0.00    -0.271 OA
ATOM     26  H41 ALY d   1      -2.759   5.839  -2.178  0.00  0.00     0.163 HD
BRANCH  24  27
ATOM     27  CA  THR d   1      -3.796   3.859  -1.034  0.00  0.00     0.113 C 
ATOM     28  H22 THR d   1      -3.677   2.767  -1.098  0.00  0.00     0.091 H 
BRANCH  27  29
ATOM     29  N   THR d   1      -2.539   4.433  -0.503  0.00  0.00    -0.344 N 
ATOM     30  C   ARG d   1      -1.326   3.966  -0.775  0.00  0.00     0.241 C 
ATOM     31  O   ARG d   1      -1.163   2.874  -1.315  0.00  0.00    -0.271 OA
ATOM     32  H21 THR d   1      -2.608   5.226   0.102  0.00  0.00     0.163 HD
BRANCH  30  33
ATOM     33  CA  ARG d   1      -0.128   4.841  -0.355  0.00  0.00     0.089 C 
ATOM     34  H9  ARG d   1      -0.496   5.877  -0.380  0.00  0.00     0.087 H 
BRANCH  33  35
ATOM     35  N   ARG d   1       0.348   4.601   1.022  0.00  0.00    -0.346 N 
ATOM     36  C   ALA d   1      -0.351   4.799   2.144  0.00  0.00     0.248 C 
ATOM     37  O   ALA d   1      -1.473   5.309   2.172  0.00  0.00    -0.271 OA
ATOM     38  H8  ARG d   1       1.282   4.258   1.125  0.00  0.00     0.163 HD
BRANCH  36  39
ATOM     39  CA  ALA d   1       0.293   4.284   3.421  0.00  0.00     0.172 C 
ATOM     40  H4  ALA d   1       1.280   3.876   3.159  0.00  0.00     0.098 H 
BRANCH  39  41
ATOM     41  N   ALA d   1       0.508   5.376   4.374  0.00  0.00    -0.067 N 
ATOM     42  H1  ALA d   1       0.935   5.012   5.211  0.00  0.00     0.275 HD
ATOM     43  H2  ALA d   1      -0.377   5.800   4.605  0.00  0.00     0.275 HD
ATOM     44  H3  ALA d   1       1.114   6.068   3.961  0.00  0.00     0.275 HD
ENDBRANCH  39  41
BRANCH  39  45
ATOM     45  CB  ALA d   1      -0.531   3.143   4.019  0.00  0.00    -0.042 C 
ATOM     46  H5  ALA d   1      -0.663   2.352   3.266  0.00  0.00     0.030 H 
ATOM     47  H6  ALA d   1      -1.516   3.524   4.327  0.00  0.00     0.030 H 
ATOM     48  H7  ALA d   1      -0.007   2.732   4.894  0.00  0.00     0.030 H 
ENDBRANCH  39  45
ENDBRANCH  36  39
ENDBRANCH  33  35
BRANCH  33  49
ATOM     49  CB  ARG d   1       1.072   4.775  -1.340  0.00  0.00    -0.036 C 
ATOM     50  H10 ARG d   1       1.886   5.366  -0.894  0.00  0.00     0.036 H 
ATOM     51  H11 ARG d   1       0.745   5.250  -2.277  0.00  0.00     0.036 H 
BRANCH  49  52
ATOM     52  CG  ARG d   1       1.669   3.397  -1.717  0.00  0.00    -0.048 C 
ATOM     53  H12 ARG d   1       2.669   3.566  -2.143  0.00  0.00     0.035 H 
ATOM     54  H13 ARG d   1       1.018   2.943  -2.478  0.00  0.00     0.035 H 
BRANCH  52  55
ATOM     55  CD  ARG d   1       1.812   2.393  -0.554  0.00  0.00     0.009 C 
ATOM     56  H14 ARG d   1       0.837   2.293  -0.055  0.00  0.00     0.064 H 
ATOM     57  H15 ARG d   1       2.551   2.786   0.160  0.00  0.00     0.064 H 
BRANCH  55  58
ATOM     58  NE  ARG d   1       2.252   1.059  -0.999  0.00  0.00    -0.227 N 
ATOM     59  CZ  ARG d   1       1.505   0.113  -1.543  0.00  0.00     0.665 C 
ATOM     60  NH1 ARG d   1       0.250   0.296  -1.859  0.00  0.00    -0.235 N 
ATOM     61  NH2 ARG d   1       2.033  -1.054  -1.766  0.00  0.00    -0.235 N 
ATOM     62  H17 ARG d   1      -0.292  -0.471  -2.281  0.00  0.00     0.174 HD
ATOM     63  H18 ARG d   1      -0.197   1.208  -1.686  0.00  0.00     0.174 HD
ATOM     64  H19 ARG d   1       3.020  -1.227  -1.527  0.00  0.00     0.174 HD
ATOM     65  H20 ARG d   1       1.464  -1.806  -2.182  0.00  0.00     0.174 HD
ATOM     66  H16 ARG d   1       3.250   0.839  -0.873  0.00  0.00     0.177 HD
ENDBRANCH  55  58
ENDBRANCH  52  55
ENDBRANCH  49  52
ENDBRANCH  33  49
ENDBRANCH  30  33
ENDBRANCH  27  29
BRANCH  27  67
ATOM     67  CB  THR d   1      -4.965   4.163  -0.084  0.00  0.00     0.060 C 
ATOM     68  H23 THR d   1      -5.902   3.834  -0.556  0.00  0.00     0.086 H 
BRANCH  67  69
ATOM     69  OG1 THR d   1      -5.021   5.546   0.183  0.00  0.00    -0.393 OA
ATOM     70  H24 THR d   1      -4.207   5.822   0.589  0.00  0.00     0.210 HD
ENDBRANCH  67  69
BRANCH  67  71
ATOM     71  CG2 THR d   1      -4.801   3.466   1.264  0.00  0.00    -0.050 C 
ATOM     72  H25 THR d   1      -5.657   3.711   1.910  0.00  0.00     0.031 H 
ATOM     73  H26 THR d   1      -3.871   3.807   1.743  0.00  0.00     0.031 H 
ATOM     74  H27 THR d   1      -4.756   2.378   1.111  0.00  0.00     0.031 H 
ENDBRANCH  67  71
ENDBRANCH  27  67
ENDBRANCH  24  27
ENDBRANCH   1  23
BRANCH   1  75
ATOM     75  C   ALY d   1      -3.413   5.137  -5.372  0.00  0.00     0.241 C 
ATOM     76  O   ALY d   1      -2.447   4.443  -5.695  0.00  0.00    -0.271 OA
ATOM     77  N   GLN d   1      -4.580   5.076  -6.022  0.00  0.00    -0.346 N 
ATOM     78  H42 GLN d   1      -5.341   5.622  -5.672  0.00  0.00     0.163 HD
BRANCH  77  79
ATOM     79  CA  GLN d   1      -4.813   4.255  -7.220  0.00  0.00     0.090 C 
ATOM     80  H43 GLN d   1      -4.339   3.276  -7.056  0.00  0.00     0.087 H 
BRANCH  79  81
ATOM     81  C   GLN d   1      -4.179   4.878  -8.483  0.00  0.00     0.241 C 
ATOM     82  O   GLN d   1      -3.982   6.092  -8.561  0.00  0.00    -0.271 OA
ATOM     83  N   THR d   1      -3.873   4.044  -9.484  0.00  0.00    -0.344 N 
ATOM     84  H50 THR d   1      -4.037   3.069  -9.335  0.00  0.00     0.163 HD
BRANCH  83  85
ATOM     85  CA  THR d   1      -3.313   4.446 -10.790  0.00  0.00     0.113 C 
ATOM     86  H51 THR d   1      -3.789   5.395 -11.079  0.00  0.00     0.091 H 
BRANCH  85  87
ATOM     87  C   THR d   1      -3.645   3.413 -11.886  0.00  0.00     0.243 C 
ATOM     88  O   THR d   1      -4.010   2.272 -11.581  0.00  0.00    -0.271 OA
ATOM     89  N   ALA d   1      -3.551   3.805 -13.161  0.00  0.00    -0.346 N 
ATOM     90  H57 ALA d   1      -3.259   4.744 -13.341  0.00  0.00     0.163 HD
BRANCH  89  91
ATOM     91  CA  ALA d   1      -3.848   2.947 -14.313  0.00  0.00     0.086 C 
ATOM     92  H58 ALA d   1      -4.843   2.505 -14.158  0.00  0.00     0.086 H 
BRANCH  91  93
ATOM     93  C   ALA d   1      -2.845   1.780 -14.483  0.00  0.00     0.240 C 
ATOM     94  O   ALA d   1      -1.669   1.890 -14.114  0.00  0.00    -0.271 OA
ATOM     95  N   ARG d   1      -3.315   0.669 -15.073  0.00  0.00    -0.345 N 
ATOM     96  H62 ARG d   1      -4.287   0.650 -15.308  0.00  0.00     0.163 HD
BRANCH  95  97
ATOM     97  CA  ARG d   1      -2.514  -0.528 -15.404  0.00  0.00     0.096 C 
ATOM     98  H63 ARG d   1      -1.950  -0.815 -14.504  0.00  0.00     0.089 H 
BRANCH  97  99
ATOM     99  C   ARG d   1      -1.484  -0.253 -16.518  0.00  0.00     0.196 C 
ATOM    100  O   ARG d   1      -1.866   0.278 -17.588  0.00  0.00    -0.646 OA
ATOM    101  OXT ARG d   1      -0.292  -0.584 -16.323  0.00  0.00    -0.646 OA
ENDBRANCH  97  99
BRANCH  97 102
ATOM    102  CB  ARG d   1      -3.462  -1.690 -15.756  0.00  0.00    -0.035 C 
ATOM    103  H64 ARG d   1      -3.987  -1.445 -16.691  0.00  0.00     0.036 H 
ATOM    104  H65 ARG d   1      -4.194  -1.805 -14.944  0.00  0.00     0.036 H 
BRANCH 102 105
ATOM    105  CG  ARG d   1      -2.722  -3.024 -15.943  0.00  0.00    -0.047 C 
ATOM    106  H66 ARG d   1      -2.148  -3.248 -15.032  0.00  0.00     0.035 H 
ATOM    107  H67 ARG d   1      -2.034  -2.938 -16.797  0.00  0.00     0.035 H 
BRANCH 105 108
ATOM    108  CD  ARG d   1      -3.710  -4.167 -16.208  0.00  0.00     0.009 C 
ATOM    109  H68 ARG d   1      -4.277  -3.944 -17.124  0.00  0.00     0.064 H 
ATOM    110  H69 ARG d   1      -4.404  -4.244 -15.358  0.00  0.00     0.064 H 
BRANCH 108 111
ATOM    111  NE  ARG d   1      -3.014  -5.457 -16.377  0.00  0.00    -0.227 N 
ATOM    112  CZ  ARG d   1      -3.579  -6.632 -16.579  0.00  0.00     0.665 C 
ATOM    113  NH1 ARG d   1      -4.871  -6.781 -16.656  0.00  0.00    -0.235 N 
ATOM    114  NH2 ARG d   1      -2.844  -7.700 -16.709  0.00  0.00    -0.235 N 
ATOM    115  H71 ARG d   1      -5.273  -7.716 -16.815  0.00  0.00     0.174 HD
ATOM    116  H72 ARG d   1      -5.490  -5.964 -16.558  0.00  0.00     0.174 HD
ATOM    117  H73 ARG d   1      -1.818  -7.629 -16.655  0.00  0.00     0.174 HD
ATOM    118  H74 ARG d   1      -3.289  -8.616 -16.866  0.00  0.00     0.174 HD
ATOM    119  H70 ARG d   1      -1.985  -5.438 -16.333  0.00  0.00     0.177 HD
ENDBRANCH 108 111
ENDBRANCH 105 108
ENDBRANCH 102 105
ENDBRANCH  97 102
ENDBRANCH  95  97
ENDBRANCH  91  93
BRANCH  91 120
ATOM    120  CB  ALA d   1      -3.901   3.822 -15.571  0.00  0.00    -0.049 C 
ATOM    121  H59 ALA d   1      -4.123   3.193 -16.446  0.00  0.00     0.030 H 
ATOM    122  H60 ALA d   1      -2.930   4.319 -15.713  0.00  0.00     0.030 H 
ATOM    123  H61 ALA d   1      -4.688   4.582 -15.456  0.00  0.00     0.030 H 
ENDBRANCH  91 120
ENDBRANCH  89  91
ENDBRANCH  85  87
BRANCH  85 124
ATOM    124  CB  THR d   1      -1.797   4.705 -10.673  0.00  0.00     0.060 C 
ATOM    125  H52 THR d   1      -1.638   5.387  -9.824  0.00  0.00     0.086 H 
BRANCH 124 126
ATOM    126  OG1 THR d   1      -1.296   5.308 -11.849  0.00  0.00    -0.393 OA
ATOM    127  H53 THR d   1      -0.363   5.458 -11.754  0.00  0.00     0.210 HD
ENDBRANCH 124 126
BRANCH 124 128
ATOM    128  CG2 THR d   1      -0.973   3.436 -10.437  0.00  0.00    -0.050 C 
ATOM    129  H54 THR d   1       0.093   3.699 -10.365  0.00  0.00     0.031 H 
ATOM    130  H55 THR d   1      -1.123   2.740 -11.276  0.00  0.00     0.031 H 
ATOM    131  H56 THR d   1      -1.297   2.957  -9.501  0.00  0.00     0.031 H 
ENDBRANCH 124 128
ENDBRANCH  85 124
ENDBRANCH  83  85
ENDBRANCH  79  81
BRANCH  79 132
ATOM    132  CB  GLN d   1      -6.325   4.029  -7.416  0.00  0.00    -0.030 C 
ATOM    133  H44 GLN d   1      -6.469   3.424  -8.323  0.00  0.00     0.037 H 
ATOM    134  H45 GLN d   1      -6.806   5.009  -7.549  0.00  0.00     0.037 H 
BRANCH 132 135
ATOM    135  CG  GLN d   1      -7.012   3.308  -6.240  0.00  0.00     0.011 C 
ATOM    136  H46 GLN d   1      -8.086   3.220  -6.461  0.00  0.00     0.047 H 
ATOM    137  H47 GLN d   1      -6.873   3.910  -5.330  0.00  0.00     0.047 H 
BRANCH 135 138
ATOM    138  CD  GLN d   1      -6.449   1.911  -5.991  0.00  0.00     0.215 C 
ATOM    139  OE1 GLN d   1      -6.641   0.984  -6.767  0.00  0.00    -0.274 OA
ATOM    140  NE2 GLN d   1      -5.733   1.697  -4.907  0.00  0.00    -0.370 N 
ATOM    141  H48 GLN d   1      -5.356   0.788  -4.728  0.00  0.00     0.159 HD
ATOM    142  H49 GLN d   1      -5.566   2.443  -4.263  0.00  0.00     0.159 HD
ENDBRANCH 135 138
ENDBRANCH 132 135
ENDBRANCH  79 132
ENDBRANCH  77  79
ENDBRANCH   1  75
TORSDOF 41
