REMARK  11 active torsions:
REMARK  status: ('A' for Active; 'I' for Inactive)
REMARK    1  A    between atoms: CA_2  and  C_3 
REMARK       I    between atoms: C_3  and  N_8 
REMARK    2  A    between atoms: N_8  and  CA_9 
REMARK    3  A    between atoms: CA_9  and  C_10 
REMARK    4  A    between atoms: CA_9  and  CB_12 
REMARK       I    between atoms: C_10  and  N_24 
REMARK    5  A    between atoms: CB_12  and  CG_13 
REMARK    6  A    between atoms: CZ_18  and  OH_19 
REMARK    7  A    between atoms: OH_19  and  P_20 
REMARK    8  A    between atoms: N_24  and  CA_25 
REMARK    9  A    between atoms: CA_25  and  C_26 
REMARK   10  A    between atoms: CA_25  and  CB_28 
REMARK   11  A    between atoms: CB_28  and  OG_29 
ROOT
ATOM      1  CA  PTR d   1      10.056  18.826  13.094  0.00  0.00     0.093 C 
ATOM      2  H11 PTR d   1       9.399  19.579  12.635  0.00  0.00     0.088 H 
ENDROOT
BRANCH   1   3
ATOM      3  N   PTR d   1       9.516  18.511  14.420  0.00  0.00    -0.346 N 
ATOM      4  C   PRO d   1       8.240  18.753  14.723  0.00  0.00     0.249 C 
ATOM      5  O   PRO d   1       7.471  19.375  13.971  0.00  0.00    -0.271 OA
ATOM      6  H10 PTR d   1      10.116  18.107  15.111  0.00  0.00     0.163 HD
BRANCH   4   7
ATOM      7  CA  PRO d   1       7.728  18.239  16.071  0.00  0.00     0.178 C 
ATOM      8  N   PRO d   1       8.619  17.247  16.687  0.00  0.00    -0.062 N 
ATOM      9  CD  PRO d   1       9.506  17.854  17.698  0.00  0.00     0.083 C 
ATOM     10  H1  PRO d   1       9.186  16.827  15.967  0.00  0.00     0.278 HD
ATOM     11  H2  PRO d   1       8.058  16.537  17.131  0.00  0.00     0.278 HD
ATOM     12  CG  PRO d   1       9.054  19.299  17.747  0.00  0.00    -0.040 C 
ATOM     13  H8  PRO d   1      10.559  17.782  17.390  0.00  0.00     0.075 H 
ATOM     14  H9  PRO d   1       9.376  17.369  18.677  0.00  0.00     0.075 H 
ATOM     15  CB  PRO d   1       7.693  19.358  17.111  0.00  0.00    -0.028 C 
ATOM     16  H6  PRO d   1       8.998  19.642  18.791  0.00  0.00     0.035 H 
ATOM     17  H7  PRO d   1       9.759  19.934  17.190  0.00  0.00     0.035 H 
ATOM     18  H4  PRO d   1       6.904  19.176  17.856  0.00  0.00     0.036 H 
ATOM     19  H5  PRO d   1       7.527  20.334  16.631  0.00  0.00     0.036 H 
ATOM     20  H3  PRO d   1       6.725  17.812  15.926  0.00  0.00     0.099 H 
ENDBRANCH   4   7
ENDBRANCH   1   3
BRANCH   1  21
ATOM     21  C   PTR d   1      10.075  17.578  12.215  0.00  0.00     0.241 C 
ATOM     22  O   PTR d   1      10.081  17.679  10.993  0.00  0.00    -0.271 OA
ATOM     23  N   SER d   1      10.105  16.407  12.846  0.00  0.00    -0.343 N 
ATOM     24  H18 SER d   1      10.046  16.391  13.844  0.00  0.00     0.163 HD
BRANCH  23  25
ATOM     25  CA  SER d   1      10.222  15.144  12.120  0.00  0.00     0.116 C 
ATOM     26  H19 SER d   1      11.028  15.250  11.379  0.00  0.00     0.093 H 
BRANCH  25  27
ATOM     27  C   SER d   1       8.935  14.794  11.372  0.00  0.00     0.198 C 
ATOM     28  O   SER d   1       8.973  14.146  10.321  0.00  0.00    -0.646 OA
ATOM     29  OXT SER d   1       7.836  15.153  11.806  0.00  0.00    -0.646 OA
ENDBRANCH  25  27
BRANCH  25  30
ATOM     30  CB  SER d   1      10.597  14.016  13.083  0.00  0.00     0.045 C 
ATOM     31  H20 SER d   1      10.802  13.104  12.504  0.00  0.00     0.077 H 
ATOM     32  H21 SER d   1       9.755  13.835  13.768  0.00  0.00     0.077 H 
BRANCH  30  33
ATOM     33  OG  SER d   1      11.748  14.349  13.843  0.00  0.00    -0.398 OA
ATOM     34  H22 SER d   1      11.957  13.632  14.430  0.00  0.00     0.209 HD
ENDBRANCH  30  33
ENDBRANCH  25  30
ENDBRANCH  23  25
ENDBRANCH   1  21
BRANCH   1  35
ATOM     35  CB  PTR d   1      11.485  19.382  13.119  0.00  0.00    -0.014 C 
ATOM     36  H12 PTR d   1      11.895  19.284  12.103  0.00  0.00     0.043 H 
ATOM     37  H13 PTR d   1      12.070  18.759  13.812  0.00  0.00     0.043 H 
BRANCH  35  38
ATOM     38  CG  PTR d   1      11.663  20.828  13.545  0.00  0.00    -0.056 A 
ATOM     39  CD1 PTR d   1      11.596  21.876  12.623  0.00  0.00    -0.074 A 
ATOM     40  CE1 PTR d   1      11.785  23.197  13.028  0.00  0.00    -0.050 A 
ATOM     41  H14 PTR d   1      11.395  21.659  11.580  0.00  0.00     0.084 H 
ATOM     42  CZ  PTR d   1      12.070  23.473  14.358  0.00  0.00     0.082 A 
ATOM     43  H16 PTR d   1      11.710  24.004  12.308  0.00  0.00     0.087 H 
ATOM     44  CE2 PTR d   1      12.149  22.453  15.270  0.00  0.00    -0.050 A 
ATOM     45  CD2 PTR d   1      11.961  21.142  14.862  0.00  0.00    -0.074 A 
ATOM     46  H17 PTR d   1      12.359  22.672  16.311  0.00  0.00     0.087 H 
ATOM     47  H15 PTR d   1      12.049  20.343  15.590  0.00  0.00     0.084 H 
BRANCH  42  48
ATOM     48  OH  PTR d   1      12.269  24.695  14.778  0.00  0.00    -0.240 OA
BRANCH  48  49
ATOM     49  P   PTR d   1      13.749  25.354  14.631  0.00  0.00     0.427 P 
ATOM     50  O1P PTR d   1      14.005  25.646  13.149  0.00  0.00    -0.617 OA
ATOM     51  O2P PTR d   1      13.726  26.613  15.416  0.00  0.00    -0.617 OA
ATOM     52  O3P PTR d   1      14.826  24.403  15.165  0.00  0.00    -0.617 OA
ENDBRANCH  48  49
ENDBRANCH  42  48
ENDBRANCH  35  38
ENDBRANCH   1  35
TORSDOF 11
