REMARK  9 active torsions:
REMARK  status: ('A' for Active; 'I' for Inactive)
REMARK    1  A    between atoms: N_1  and  CA_2 
REMARK    2  A    between atoms: CA_2  and  C_3 
REMARK    3  A    between atoms: CA_2  and  CB_5 
REMARK       I    between atoms: C_3  and  N_6 
REMARK    4  A    between atoms: N_6  and  CA_7 
REMARK    5  A    between atoms: CA_7  and  C_8 
REMARK    6  A    between atoms: CA_7  and  CB_10 
REMARK    7  A    between atoms: CB_10  and  CG_11 
REMARK    8  A    between atoms: CZ_16  and  OH_17 
REMARK    9  A    between atoms: OH_17  and  P_18 
ROOT
ATOM      1  CA  PTR d   1       9.931  18.961  13.288  0.00  0.00     0.100 C 
ATOM      2  H9  PTR d   1       9.296  19.740  12.842  0.00  0.00     0.090 H 
ENDROOT
BRANCH   1   3
ATOM      3  N   PTR d   1       9.435  18.679  14.643  0.00  0.00    -0.344 N 
ATOM      4  C   ALA d   1       8.180  18.963  14.988  0.00  0.00     0.248 C 
ATOM      5  O   ALA d   1       7.463  19.701  14.315  0.00  0.00    -0.271 OA
ATOM      6  H8  PTR d   1      10.049  18.267  15.316  0.00  0.00     0.163 HD
BRANCH   4   7
ATOM      7  CA  ALA d   1       7.641  18.333  16.274  0.00  0.00     0.172 C 
ATOM      8  H4  ALA d   1       6.694  17.829  16.031  0.00  0.00     0.098 H 
BRANCH   7   9
ATOM      9  N   ALA d   1       8.554  17.332  16.814  0.00  0.00    -0.067 N 
ATOM     10  H1  ALA d   1       8.164  16.942  17.658  0.00  0.00     0.275 HD
ATOM     11  H2  ALA d   1       9.441  17.764  17.022  0.00  0.00     0.275 HD
ATOM     12  H3  ALA d   1       8.688  16.599  16.136  0.00  0.00     0.275 HD
ENDBRANCH   7   9
BRANCH   7  13
ATOM     13  CB  ALA d   1       7.354  19.403  17.310  0.00  0.00    -0.042 C 
ATOM     14  H5  ALA d   1       6.665  20.148  16.886  0.00  0.00     0.030 H 
ATOM     15  H6  ALA d   1       8.294  19.895  17.599  0.00  0.00     0.030 H 
ATOM     16  H7  ALA d   1       6.895  18.941  18.196  0.00  0.00     0.030 H 
ENDBRANCH   7  13
ENDBRANCH   4   7
ENDBRANCH   1   3
BRANCH   1  17
ATOM     17  C   PTR d   1       9.822  17.682  12.446  0.00  0.00     0.197 C 
ATOM     18  O   PTR d   1      10.093  17.671  11.237  0.00  0.00    -0.646 OA
ATOM     19  OXT PTR d   1       9.458  16.605  12.939  0.00  0.00    -0.646 OA
ENDBRANCH   1  17
BRANCH   1  20
ATOM     20  CB  PTR d   1      11.380  19.457  13.271  0.00  0.00    -0.013 C 
ATOM     21  H10 PTR d   1      11.754  19.356  12.241  0.00  0.00     0.043 H 
ATOM     22  H11 PTR d   1      11.962  18.804  13.938  0.00  0.00     0.043 H 
BRANCH  20  23
ATOM     23  CG  PTR d   1      11.622  20.891  13.707  0.00  0.00    -0.056 A 
ATOM     24  CD1 PTR d   1      11.855  21.204  15.045  0.00  0.00    -0.074 A 
ATOM     25  CE1 PTR d   1      12.098  22.513  15.447  0.00  0.00    -0.050 A 
ATOM     26  H12 PTR d   1      11.847  20.413  15.786  0.00  0.00     0.084 H 
ATOM     27  CZ  PTR d   1      12.113  23.526  14.519  0.00  0.00     0.082 A 
ATOM     28  H14 PTR d   1      12.276  22.734  16.493  0.00  0.00     0.087 H 
ATOM     29  CE2 PTR d   1      11.890  23.244  13.175  0.00  0.00    -0.050 A 
ATOM     30  CD2 PTR d   1      11.654  21.935  12.777  0.00  0.00    -0.074 A 
ATOM     31  H15 PTR d   1      11.900  24.043  12.442  0.00  0.00     0.087 H 
ATOM     32  H13 PTR d   1      11.492  21.718  11.727  0.00  0.00     0.084 H 
BRANCH  27  33
ATOM     33  OH  PTR d   1      12.363  24.758  14.908  0.00  0.00    -0.240 OA
BRANCH  33  34
ATOM     34  P   PTR d   1      13.793  25.470  14.740  0.00  0.00     0.427 P 
ATOM     35  O1P PTR d   1      14.034  25.785  13.257  0.00  0.00    -0.617 OA
ATOM     36  O2P PTR d   1      13.772  26.790  15.527  0.00  0.00    -0.617 OA
ATOM     37  O3P PTR d   1      14.837  24.538  15.287  0.00  0.00    -0.617 OA
ENDBRANCH  33  34
ENDBRANCH  27  33
ENDBRANCH  20  23
ENDBRANCH   1  20
TORSDOF 9
