REMARK  13 active torsions:
REMARK  status: ('A' for Active; 'I' for Inactive)
REMARK    1  A    between atoms: CBB_1  and  OBA_2 
REMARK    2  A    between atoms: OBA_2  and  CAU_3 
REMARK    3  A    between atoms: CAV_5  and  OAZ_6 
REMARK    4  A    between atoms: OAZ_6  and  CBC_7 
REMARK    5  A    between atoms: CAW_8  and  OAY_9 
REMARK    6  A    between atoms: OAY_9  and  CBD_10 
REMARK    7  A    between atoms: CAS_12  and  CAR_13 
REMARK    8  A    between atoms: CAR_13  and  NAI_14 
REMARK    9  A    between atoms: CAB_22  and  OAK_23 
REMARK   10  A    between atoms: OAK_23  and  CAL_24 
REMARK   11  A    between atoms: CAC_25  and  OAM_26 
REMARK   12  A    between atoms: OAM_26  and  SAN_27 
REMARK   13  A    between atoms: SAN_27  and  NAQ_30 
ROOT
ATOM      1  NAI J04 d   1      -4.846   7.696  13.029  0.00  0.00    -0.382 N 
ATOM      2  CAJ J04 d   1      -4.811   6.490  12.341  0.00  0.00     0.019 A 
ATOM      3  CAH J04 d   1      -4.899   7.642  14.418  0.00  0.00    -0.024 A 
ATOM      4  CAG J04 d   1      -4.859   6.424  15.126  0.00  0.00    -0.058 A 
ATOM      5  CAE J04 d   1      -4.802   5.296  14.415  0.00  0.00    -0.024 A 
ATOM      6  CAD J04 d   1      -4.753   4.081  15.136  0.00  0.00    -0.036 A 
ATOM      7  CAF J04 d   1      -4.770   5.296  13.061  0.00  0.00    -0.027 A 
ATOM      8  CAA J04 d   1      -4.697   4.091  12.333  0.00  0.00    -0.040 A 
ATOM      9  CAB J04 d   1      -4.660   2.905  13.039  0.00  0.00     0.103 A 
ATOM     10  CAC J04 d   1      -4.680   2.910  14.398  0.00  0.00     0.125 A 
ATOM     11  H14 J04 d   1      -3.916   6.511  11.702  0.00  0.00     0.071 H 
ATOM     12  H15 J04 d   1      -5.711   6.454  11.710  0.00  0.00     0.071 H 
ATOM     13  H16 J04 d   1      -4.974   8.573  14.978  0.00  0.00     0.111 H 
ATOM     14  H17 J04 d   1      -4.874   6.404  16.215  0.00  0.00     0.086 H 
ATOM     15  H18 J04 d   1      -4.772   4.066  16.220  0.00  0.00     0.089 H 
ATOM     16  H19 J04 d   1      -4.671   4.095  11.249  0.00  0.00     0.088 H 
ENDROOT
BRANCH   1  17
ATOM     17  CAR J04 d   1      -4.889   8.969  12.287  0.00  0.00     0.019 C 
ATOM     18  H12 J04 d   1      -4.731   8.737  11.223  0.00  0.00     0.071 H 
ATOM     19  H13 J04 d   1      -5.893   9.398  12.424  0.00  0.00     0.071 H 
BRANCH  17  20
ATOM     20  CAS J04 d   1      -3.854  10.063  12.687  0.00  0.00    -0.035 A 
ATOM     21  CAT J04 d   1      -3.993  11.337  12.121  0.00  0.00    -0.040 A 
ATOM     22  CAU J04 d   1      -3.114  12.369  12.449  0.00  0.00     0.104 A 
ATOM     23  H4  J04 d   1      -4.796  11.524  11.417  0.00  0.00     0.088 H 
ATOM     24  CAV J04 d   1      -2.075  12.147  13.338  0.00  0.00     0.135 A 
ATOM     25  CAW J04 d   1      -1.906  10.904  13.917  0.00  0.00     0.104 A 
ATOM     26  CAX J04 d   1      -2.795   9.861  13.589  0.00  0.00    -0.040 A 
ATOM     27  H11 J04 d   1      -2.660   8.885  14.041  0.00  0.00     0.088 H 
BRANCH  22  28
ATOM     28  OBA J04 d   1      -3.253  13.643  11.870  0.00  0.00    -0.353 OA
BRANCH  28  29
ATOM     29  CBB J04 d   1      -4.278  13.676  10.917  0.00  0.00     0.010 C 
ATOM     30  H1  J04 d   1      -4.351  14.688  10.492  0.00  0.00     0.066 H 
ATOM     31  H2  J04 d   1      -5.232  13.410  11.395  0.00  0.00     0.066 H 
ATOM     32  H3  J04 d   1      -4.056  12.956  10.115  0.00  0.00     0.066 H 
ENDBRANCH  28  29
ENDBRANCH  22  28
BRANCH  24  33
ATOM     33  OAZ J04 d   1      -1.181  13.180  13.667  0.00  0.00    -0.351 OA
BRANCH  33  34
ATOM     34  CBC J04 d   1       0.078  13.047  13.076  0.00  0.00     0.011 C 
ATOM     35  H5  J04 d   1       0.717  13.889  13.380  0.00  0.00     0.067 H 
ATOM     36  H6  J04 d   1      -0.029  13.045  11.981  0.00  0.00     0.067 H 
ATOM     37  H7  J04 d   1       0.538  12.102  13.401  0.00  0.00     0.067 H 
ENDBRANCH  33  34
ENDBRANCH  24  33
BRANCH  25  38
ATOM     38  OAY J04 d   1      -0.811  10.793  14.808  0.00  0.00    -0.353 OA
BRANCH  38  39
ATOM     39  CBD J04 d   1      -0.513   9.544  15.374  0.00  0.00     0.010 C 
ATOM     40  H8  J04 d   1       0.360   9.640  16.036  0.00  0.00     0.066 H 
ATOM     41  H9  J04 d   1      -0.289   8.823  14.574  0.00  0.00     0.066 H 
ATOM     42  H10 J04 d   1      -1.377   9.190  15.956  0.00  0.00     0.066 H 
ENDBRANCH  38  39
ENDBRANCH  25  38
ENDBRANCH  17  20
ENDBRANCH   1  17
BRANCH   9  43
ATOM     43  OAK J04 d   1      -4.577   1.646  12.402  0.00  0.00    -0.353 OA
BRANCH  43  44
ATOM     44  CAL J04 d   1      -4.900   1.622  11.033  0.00  0.00     0.010 C 
ATOM     45  H20 J04 d   1      -4.800   0.596  10.650  0.00  0.00     0.066 H 
ATOM     46  H21 J04 d   1      -4.217   2.287  10.483  0.00  0.00     0.066 H 
ATOM     47  H22 J04 d   1      -5.936   1.965  10.895  0.00  0.00     0.066 H 
ENDBRANCH  43  44
ENDBRANCH   9  43
BRANCH  10  48
ATOM     48  OAM J04 d   1      -4.583   1.643  14.974  0.00  0.00    -0.214 OA
BRANCH  48  49
ATOM     49  SAN J04 d   1      -5.212   1.273  16.449  0.00  0.00     0.360 S 
ATOM     50  OAO J04 d   1      -6.757   1.746  16.446  0.00  0.00    -0.176 OA
ATOM     51  OAP J04 d   1      -4.314   1.921  17.627  0.00  0.00    -0.176 OA
BRANCH  49  52
ATOM     52  NAQ J04 d   1      -5.075  -0.410  16.469  0.00  0.00    -0.305 N 
ATOM     53  H23 J04 d   1      -5.387  -0.928  17.266  0.00  0.00     0.171 HD
ATOM     54  H24 J04 d   1      -4.682  -0.889  15.684  0.00  0.00     0.171 HD
ENDBRANCH  49  52
ENDBRANCH  48  49
ENDBRANCH  10  48
TORSDOF 13
