REMARK  11 active torsions:
REMARK  status: ('A' for Active; 'I' for Inactive)
REMARK    1  A    between atoms: CAZ_1  and  OAW_2 
REMARK    2  A    between atoms: OAW_2  and  CAN_3 
REMARK    3  A    between atoms: CAO_5  and  OAX_6 
REMARK    4  A    between atoms: OAX_6  and  CBA_7 
REMARK    5  A    between atoms: CAP_8  and  OAY_9 
REMARK    6  A    between atoms: OAY_9  and  CBB_10 
REMARK    7  A    between atoms: CAL_12  and  CAK_13 
REMARK    8  A    between atoms: CAK_13  and  NAI_14 
REMARK    9  A    between atoms: CAC_23  and  OAR_24 
REMARK   10  A    between atoms: OAR_24  and  SAS_25 
REMARK   11  A    between atoms: SAS_25  and  NAV_28 
ROOT
ATOM      1  CAK HZY d   1      -3.022   9.215  13.908  0.00  0.00     0.019 C 
ATOM      2  H12 HZY d   1      -3.129   9.827  14.815  0.00  0.00     0.071 H 
ATOM      3  H13 HZY d   1      -1.956   9.010  13.728  0.00  0.00     0.071 H 
ENDROOT
BRANCH   1   4
ATOM      4  CAL HZY d   1      -3.521  10.058  12.736  0.00  0.00    -0.035 A 
ATOM      5  CAM HZY d   1      -2.952  11.309  12.562  0.00  0.00    -0.040 A 
ATOM      6  CAN HZY d   1      -3.369  12.120  11.522  0.00  0.00     0.104 A 
ATOM      7  H4  HZY d   1      -2.180  11.652  13.241  0.00  0.00     0.088 H 
ATOM      8  CAO HZY d   1      -4.351  11.681  10.639  0.00  0.00     0.135 A 
ATOM      9  CAP HZY d   1      -4.923  10.428  10.814  0.00  0.00     0.104 A 
ATOM     10  CAQ HZY d   1      -4.504   9.617  11.861  0.00  0.00    -0.040 A 
ATOM     11  H11 HZY d   1      -4.946   8.636  11.995  0.00  0.00     0.088 H 
BRANCH   6  12
ATOM     12  OAW HZY d   1      -2.781  13.382  11.372  0.00  0.00    -0.353 OA
BRANCH  12  13
ATOM     13  CAZ HZY d   1      -3.487  14.435  11.971  0.00  0.00     0.010 C 
ATOM     14  H1  HZY d   1      -2.950  15.380  11.800  0.00  0.00     0.066 H 
ATOM     15  H2  HZY d   1      -3.572  14.252  13.052  0.00  0.00     0.066 H 
ATOM     16  H3  HZY d   1      -4.493  14.500  11.530  0.00  0.00     0.066 H 
ENDBRANCH  12  13
ENDBRANCH   6  12
BRANCH   8  17
ATOM     17  OAX HZY d   1      -4.771  12.509   9.586  0.00  0.00    -0.351 OA
BRANCH  17  18
ATOM     18  CBA HZY d   1      -4.450  12.057   8.298  0.00  0.00     0.011 C 
ATOM     19  H5  HZY d   1      -4.823  12.776   7.554  0.00  0.00     0.067 H 
ATOM     20  H6  HZY d   1      -4.917  11.076   8.127  0.00  0.00     0.067 H 
ATOM     21  H7  HZY d   1      -3.358  11.965   8.203  0.00  0.00     0.067 H 
ENDBRANCH  17  18
ENDBRANCH   8  17
BRANCH   9  22
ATOM     22  OAY HZY d   1      -5.912   9.966   9.933  0.00  0.00    -0.353 OA
BRANCH  22  23
ATOM     23  CBB HZY d   1      -7.063  10.756   9.854  0.00  0.00     0.010 C 
ATOM     24  H8  HZY d   1      -7.768  10.306   9.140  0.00  0.00     0.066 H 
ATOM     25  H9  HZY d   1      -6.792  11.766   9.514  0.00  0.00     0.066 H 
ATOM     26  H10 HZY d   1      -7.535  10.817  10.846  0.00  0.00     0.066 H 
ENDBRANCH  22  23
ENDBRANCH   9  22
ENDBRANCH   1   4
BRANCH   1  27
ATOM     27  NAI HZY d   1      -3.666   7.934  14.177  0.00  0.00    -0.382 N 
ATOM     28  CAJ HZY d   1      -2.883   6.813  14.193  0.00  0.00     0.019 A 
ATOM     29  CAF HZY d   1      -3.493   5.614  14.480  0.00  0.00    -0.030 A 
ATOM     30  H14 HZY d   1      -2.097   6.971  14.947  0.00  0.00     0.071 H 
ATOM     31  H15 HZY d   1      -2.423   6.718  13.198  0.00  0.00     0.071 H 
ATOM     32  CAE HZY d   1      -4.803   5.490  14.768  0.00  0.00    -0.024 A 
ATOM     33  CAA HZY d   1      -2.660   4.514  14.473  0.00  0.00    -0.072 A 
ATOM     34  CAG HZY d   1      -5.594   6.545  14.784  0.00  0.00    -0.058 A 
ATOM     35  CAD HZY d   1      -5.357   4.225  15.060  0.00  0.00    -0.039 A 
ATOM     36  CAH HZY d   1      -5.015   7.791  14.487  0.00  0.00    -0.024 A 
ATOM     37  H17 HZY d   1      -6.654   6.455  15.018  0.00  0.00     0.086 H 
ATOM     38  H16 HZY d   1      -5.646   8.678  14.500  0.00  0.00     0.111 H 
ATOM     39  CAC HZY d   1      -4.504   3.146  15.055  0.00  0.00     0.091 A 
ATOM     40  H18 HZY d   1      -6.412   4.109  15.279  0.00  0.00     0.089 H 
ATOM     41  CAB HZY d   1      -3.196   3.297  14.749  0.00  0.00    -0.049 A 
ATOM     42  H20 HZY d   1      -2.557   2.422  14.723  0.00  0.00     0.087 H 
ATOM     43  H19 HZY d   1      -1.604   4.619  14.253  0.00  0.00     0.084 H 
BRANCH  39  44
ATOM     44  OAR HZY d   1      -4.855   1.813  15.256  0.00  0.00    -0.217 OA
BRANCH  44  45
ATOM     45  SAS HZY d   1      -5.489   1.110  16.589  0.00  0.00     0.360 S 
ATOM     46  OAT HZY d   1      -4.741   1.547  17.962  0.00  0.00    -0.176 OA
ATOM     47  OAU HZY d   1      -7.088   1.375  16.579  0.00  0.00    -0.176 OA
BRANCH  45  48
ATOM     48  NAV HZY d   1      -5.134  -0.516  16.341  0.00  0.00    -0.305 N 
ATOM     49  H21 HZY d   1      -5.412  -1.197  17.018  0.00  0.00     0.171 HD
ATOM     50  H22 HZY d   1      -4.645  -0.801  15.517  0.00  0.00     0.171 HD
ENDBRANCH  45  48
ENDBRANCH  44  45
ENDBRANCH  39  44
ENDBRANCH   1  27
TORSDOF 11
