REMARK  11 active torsions:
REMARK  status: ('A' for Active; 'I' for Inactive)
REMARK       I    between atoms: N1_1  and  C7_6 
REMARK    1  A    between atoms: C8_7  and  N1_1 
REMARK    2  A    between atoms: C4_3  and  N2_18 
REMARK    3  A    between atoms: C7_6  and  C5_4 
REMARK    4  A    between atoms: C9_22  and  C8_7 
REMARK    5  A    between atoms: C8_7  and  C23_29 
REMARK    6  A    between atoms: O2_19  and  C15_10 
REMARK    7  A    between atoms: C2_17  and  C17_11 
REMARK    8  A    between atoms: C22_14  and  N4_21 
REMARK    9  A    between atoms: C16_26  and  C22_14 
REMARK   10  A    between atoms: N2_18  and  C16_26 
REMARK   11  A    between atoms: C11_23  and  O2_19 
ROOT
ATOM      1  C4  J0G d   1      -6.630   8.785 -14.743  0.00  0.00     0.044 A 
ATOM      2  C5  J0G d   1      -6.383   9.926 -13.976  0.00  0.00     0.058 A 
ATOM      3  C6  J0G d   1      -7.294  10.345 -13.025  0.00  0.00    -0.065 A 
ATOM      4  C1  J0G d   1      -8.455   9.640 -12.801  0.00  0.00    -0.071 A 
ATOM      5  C2  J0G d   1      -8.729   8.501 -13.531  0.00  0.00    -0.024 A 
ATOM      6  C3  J0G d   1      -7.815   8.093 -14.489  0.00  0.00    -0.046 A 
ATOM      7  H2  J0G d   1      -7.092  11.240 -12.448  0.00  0.00     0.085 H 
ATOM      8  H13 J0G d   1      -9.157   9.981 -12.048  0.00  0.00     0.084 H 
ATOM      9  H15 J0G d   1      -8.029   7.200 -15.065  0.00  0.00     0.088 H 
ENDROOT
BRANCH   2  10
ATOM     10  C7  J0G d   1      -5.172  10.783 -14.087  0.00  0.00     0.254 C 
ATOM     11  N1  J0G d   1      -3.952  10.127 -14.050  0.00  0.00    -0.349 N 
ATOM     12  H1  J0G d   1      -3.941   9.133 -13.941  0.00  0.00     0.163 HD
ATOM     13  O1  J0G d   1      -5.311  12.001 -14.162  0.00  0.00    -0.268 OA
BRANCH  11  14
ATOM     14  C8  J0G d   1      -2.686  10.836 -14.164  0.00  0.00     0.034 C 
ATOM     15  H3  J0G d   1      -2.866  11.774 -14.710  0.00  0.00     0.079 H 
BRANCH  14  16
ATOM     16  C9  J0G d   1      -2.038  11.155 -12.852  0.00  0.00    -0.033 A 
ATOM     17  C10 J0G d   1      -0.995  12.059 -12.844  0.00  0.00    -0.043 A 
ATOM     18  C11 J0G d   1      -0.344  12.366 -11.660  0.00  0.00     0.068 A 
ATOM     19  H4  J0G d   1      -0.684  12.531 -13.769  0.00  0.00     0.088 H 
ATOM     20  C12 J0G d   1      -0.730  11.747 -10.488  0.00  0.00    -0.051 A 
ATOM     21  C13 J0G d   1      -1.773  10.847 -10.495  0.00  0.00    -0.080 A 
ATOM     22  H19 J0G d   1      -0.212  11.969  -9.562  0.00  0.00     0.087 H 
ATOM     23  C14 J0G d   1      -2.421  10.550 -11.674  0.00  0.00    -0.075 A 
ATOM     24  H5  J0G d   1      -2.084  10.372  -9.572  0.00  0.00     0.083 H 
ATOM     25  H20 J0G d   1      -3.237   9.836 -11.675  0.00  0.00     0.084 H 
BRANCH  18  26
ATOM     26  O2  J0G d   1       0.737  13.241 -11.530  0.00  0.00    -0.356 OA
BRANCH  26  27
ATOM     27  C15 J0G d   1       0.988  14.041 -12.685  0.00  0.00     0.010 C 
ATOM     28  H6  J0G d   1       1.851  14.697 -12.496  0.00  0.00     0.066 H 
ATOM     29  H7  J0G d   1       0.102  14.655 -12.905  0.00  0.00     0.066 H 
ATOM     30  H8  J0G d   1       1.204  13.388 -13.543  0.00  0.00     0.066 H 
ENDBRANCH  26  27
ENDBRANCH  18  26
ENDBRANCH  14  16
BRANCH  14  31
ATOM     31  C23 J0G d   1      -1.690   9.980 -14.925  0.00  0.00    -0.053 C 
ATOM     32  H25 J0G d   1      -0.734  10.518 -15.010  0.00  0.00     0.030 H 
ATOM     33  H26 J0G d   1      -2.082   9.768 -15.931  0.00  0.00     0.030 H 
ATOM     34  H27 J0G d   1      -1.532   9.034 -14.386  0.00  0.00     0.030 H 
ENDBRANCH  14  31
ENDBRANCH  11  14
ENDBRANCH   2  10
BRANCH   1  35
ATOM     35  N2  J0G d   1      -5.718   8.332 -15.744  0.00  0.00    -0.387 N 
ATOM     36  H14 J0G d   1      -4.849   8.860 -15.907  0.00  0.00     0.159 HD
BRANCH  35  37
ATOM     37  C16 J0G d   1      -5.986   7.141 -16.541  0.00  0.00     0.015 C 
ATOM     38  H21 J0G d   1      -6.182   6.293 -15.868  0.00  0.00     0.066 H 
ATOM     39  H22 J0G d   1      -6.869   7.320 -17.172  0.00  0.00     0.066 H 
BRANCH  37  40
ATOM     40  C22 J0G d   1      -4.803   6.811 -17.425  0.00  0.00     0.094 C 
ATOM     41  H11 J0G d   1      -5.085   6.027 -18.143  0.00  0.00     0.077 H 
ATOM     42  H12 J0G d   1      -4.487   7.712 -17.972  0.00  0.00     0.077 H 
BRANCH  40  43
ATOM     43  N4  J0G d   1      -3.714   6.340 -16.590  0.00  0.00    -0.078 N 
ATOM     44  H16 J0G d   1      -2.919   6.117 -17.169  0.00  0.00     0.274 HD
ATOM     45  H17 J0G d   1      -4.007   5.516 -16.089  0.00  0.00     0.274 HD
ATOM     46  H18 J0G d   1      -3.459   7.060 -15.932  0.00  0.00     0.274 HD
ENDBRANCH  40  43
ENDBRANCH  37  40
ENDBRANCH  35  37
ENDBRANCH   1  35
BRANCH   5  47
ATOM     47  C17 J0G d   1      -9.966   7.764 -13.287  0.00  0.00    -0.023 A 
ATOM     48  C21 J0G d   1     -11.164   8.437 -13.124  0.00  0.00    -0.055 A 
ATOM     49  C20 J0G d   1     -12.310   7.709 -12.881  0.00  0.00     0.003 A 
ATOM     50  H10 J0G d   1     -11.201   9.519 -13.186  0.00  0.00     0.087 H 
ATOM     51  N3  J0G d   1     -12.351   6.375 -12.791  0.00  0.00    -0.273 NA
ATOM     52  H9  J0G d   1     -13.239   8.254 -12.755  0.00  0.00     0.114 H 
ATOM     53  C19 J0G d   1     -11.182   5.743 -12.960  0.00  0.00     0.003 A 
ATOM     54  C18 J0G d   1      -9.982   6.383 -13.205  0.00  0.00    -0.055 A 
ATOM     55  H24 J0G d   1     -11.177   4.661 -12.901  0.00  0.00     0.114 H 
ATOM     56  H23 J0G d   1      -9.069   5.813 -13.331  0.00  0.00     0.087 H 
ENDBRANCH   5  47
TORSDOF 11
