REMARK  4 active torsions:
REMARK  status: ('A' for Active; 'I' for Inactive)
REMARK    1  A    between atoms: C_13  and  C10_7 
REMARK    2  A    between atoms: C13_8  and  C16_15 
REMARK       I    between atoms: N_20  and  C_13 
REMARK    3  A    between atoms: C1_21  and  N_20 
REMARK    4  A    between atoms: C1_21  and  C2_22 
ROOT
ATOM      1  O   J0P d   1     -26.296 -10.134   1.377  0.00  0.00    -0.268 OA
ATOM      2  C   J0P d   1     -26.131 -10.336   0.180  0.00  0.00     0.251 C 
ATOM      3  N   J0P d   1     -24.950 -10.643  -0.483  0.00  0.00    -0.353 N 
ATOM      4  H13 J0P d   1     -24.980 -10.891  -1.451  0.00  0.00     0.163 HD
ENDROOT
BRANCH   2   5
ATOM      5  C10 J0P d   1     -27.319 -10.280  -0.682  0.00  0.00     0.032 A 
ATOM      6  C15 J0P d   1     -27.296  -9.585  -1.870  0.00  0.00    -0.067 A 
ATOM      7  C14 J0P d   1     -28.431  -9.568  -2.648  0.00  0.00    -0.071 A 
ATOM      8  H5  J0P d   1     -26.401  -9.061  -2.187  0.00  0.00     0.085 H 
ATOM      9  C13 J0P d   1     -29.571 -10.223  -2.235  0.00  0.00    -0.026 A 
ATOM     10  H8  J0P d   1     -28.428  -9.036  -3.592  0.00  0.00     0.084 H 
ATOM     11  C12 J0P d   1     -29.571 -10.913  -1.044  0.00  0.00    -0.071 A 
ATOM     12  C11 J0P d   1     -28.443 -10.955  -0.267  0.00  0.00    -0.067 A 
ATOM     13  H11 J0P d   1     -30.469 -11.426  -0.719  0.00  0.00     0.084 H 
ATOM     14  H12 J0P d   1     -28.437 -11.513   0.662  0.00  0.00     0.085 H 
BRANCH   9  15
ATOM     15  C16 J0P d   1     -30.778 -10.152  -3.005  0.00  0.00    -0.023 A 
ATOM     16  C17 J0P d   1     -30.802 -10.422  -4.356  0.00  0.00    -0.055 A 
ATOM     17  C18 J0P d   1     -32.005 -10.318  -5.021  0.00  0.00     0.003 A 
ATOM     18  H6  J0P d   1     -29.899 -10.709  -4.882  0.00  0.00     0.087 H 
ATOM     19  N1  J0P d   1     -33.167  -9.975  -4.453  0.00  0.00    -0.273 NA
ATOM     20  H10 J0P d   1     -32.010 -10.530  -6.084  0.00  0.00     0.114 H 
ATOM     21  C19 J0P d   1     -33.108  -9.715  -3.143  0.00  0.00     0.003 A 
ATOM     22  C20 J0P d   1     -31.959  -9.783  -2.389  0.00  0.00    -0.055 A 
ATOM     23  H9  J0P d   1     -34.026  -9.432  -2.642  0.00  0.00     0.114 H 
ATOM     24  H7  J0P d   1     -31.980  -9.551  -1.330  0.00  0.00     0.087 H 
ENDBRANCH   9  15
ENDBRANCH   2   5
BRANCH   3  25
ATOM     25  C1  J0P d   1     -23.681 -10.610   0.200  0.00  0.00     0.022 C 
ATOM     26  H14 J0P d   1     -23.850 -10.247   1.224  0.00  0.00     0.071 H 
ATOM     27  H15 J0P d   1     -23.020  -9.910  -0.333  0.00  0.00     0.071 H 
BRANCH  25  28
ATOM     28  C2  J0P d   1     -22.992 -11.938   0.280  0.00  0.00    -0.004 A 
ATOM     29  C7  J0P d   1     -21.661 -11.981   0.654  0.00  0.00     0.110 A 
ATOM     30  C6  J0P d   1     -21.008 -13.193   0.760  0.00  0.00     0.102 A 
ATOM     31  O1  J0P d   1     -21.041 -10.770   0.966  0.00  0.00    -0.346 OA
ATOM     32  C5  J0P d   1     -21.680 -14.362   0.486  0.00  0.00    -0.048 A 
ATOM     33  O2  J0P d   1     -19.674 -13.285   1.139  0.00  0.00    -0.346 OA
ATOM     34  C4  J0P d   1     -23.000 -14.330   0.107  0.00  0.00    -0.080 A 
ATOM     35  H2  J0P d   1     -21.166 -15.312   0.570  0.00  0.00     0.087 H 
ATOM     36  C3  J0P d   1     -23.649 -13.121   0.004  0.00  0.00    -0.072 A 
ATOM     37  H1  J0P d   1     -23.527 -15.252  -0.110  0.00  0.00     0.083 H 
ATOM     38  H18 J0P d   1     -24.690 -13.097  -0.298  0.00  0.00     0.084 H 
ATOM     39  C9  J0P d   1     -19.423 -12.190   2.011  0.00  0.00     0.046 C 
ATOM     40  C8  J0P d   1     -19.652 -10.925   1.237  0.00  0.00     0.046 C 
ATOM     41  H16 J0P d   1     -20.108 -12.232   2.871  0.00  0.00     0.078 H 
ATOM     42  H17 J0P d   1     -18.383 -12.227   2.368  0.00  0.00     0.078 H 
ATOM     43  H3  J0P d   1     -19.297 -10.067   1.827  0.00  0.00     0.078 H 
ATOM     44  H4  J0P d   1     -19.098 -10.972   0.288  0.00  0.00     0.078 H 
ENDBRANCH  25  28
ENDBRANCH   3  25
TORSDOF 4
