REMARK  4 active torsions:
REMARK  status: ('A' for Active; 'I' for Inactive)
REMARK    1  A    between atoms: C_13  and  C10_7 
REMARK    2  A    between atoms: C13_8  and  C16_15 
REMARK       I    between atoms: N_20  and  C_13 
REMARK    3  A    between atoms: C1_21  and  N_20 
REMARK    4  A    between atoms: C1_21  and  C2_22 
ROOT
ATOM      1  O   J0P d   1     -62.741  -7.916 -45.572  0.00  0.00    -0.268 OA
ATOM      2  C   J0P d   1     -63.850  -7.556 -45.941  0.00  0.00     0.251 C 
ATOM      3  N   J0P d   1     -64.192  -7.401 -47.274  0.00  0.00    -0.353 N 
ATOM      4  H13 J0P d   1     -65.102  -7.046 -47.487  0.00  0.00     0.163 HD
ENDROOT
BRANCH   2   5
ATOM      5  C10 J0P d   1     -64.899  -7.216 -44.951  0.00  0.00     0.032 A 
ATOM      6  C15 J0P d   1     -65.731  -6.093 -45.138  0.00  0.00    -0.067 A 
ATOM      7  C14 J0P d   1     -66.621  -5.723 -44.133  0.00  0.00    -0.071 A 
ATOM      8  H5  J0P d   1     -65.678  -5.522 -46.058  0.00  0.00     0.085 H 
ATOM      9  C13 J0P d   1     -66.702  -6.488 -42.935  0.00  0.00    -0.026 A 
ATOM     10  H8  J0P d   1     -67.253  -4.852 -44.263  0.00  0.00     0.084 H 
ATOM     11  C12 J0P d   1     -65.887  -7.640 -42.799  0.00  0.00    -0.071 A 
ATOM     12  C11 J0P d   1     -64.991  -7.984 -43.790  0.00  0.00    -0.067 A 
ATOM     13  H11 J0P d   1     -65.968  -8.255 -41.910  0.00  0.00     0.084 H 
ATOM     14  H12 J0P d   1     -64.356  -8.854 -43.666  0.00  0.00     0.085 H 
BRANCH   9  15
ATOM     15  C16 J0P d   1     -67.641  -6.125 -41.857  0.00  0.00    -0.023 A 
ATOM     16  C17 J0P d   1     -67.330  -6.466 -40.532  0.00  0.00    -0.055 A 
ATOM     17  C18 J0P d   1     -68.269  -6.185 -39.542  0.00  0.00     0.003 A 
ATOM     18  H6  J0P d   1     -66.385  -6.935 -40.285  0.00  0.00     0.087 H 
ATOM     19  N1  J0P d   1     -69.451  -5.553 -39.775  0.00  0.00    -0.273 NA
ATOM     20  H10 J0P d   1     -68.044  -6.488 -38.526  0.00  0.00     0.114 H 
ATOM     21  C19 J0P d   1     -69.708  -5.202 -41.056  0.00  0.00     0.003 A 
ATOM     22  C20 J0P d   1     -68.849  -5.472 -42.125  0.00  0.00    -0.055 A 
ATOM     23  H9  J0P d   1     -70.635  -4.681 -41.266  0.00  0.00     0.114 H 
ATOM     24  H7  J0P d   1     -69.112  -5.183 -43.136  0.00  0.00     0.087 H 
ENDBRANCH   9  15
ENDBRANCH   2   5
BRANCH   3  25
ATOM     25  C1  J0P d   1     -63.310  -7.722 -48.380  0.00  0.00     0.022 C 
ATOM     26  H14 J0P d   1     -62.329  -8.025 -47.986  0.00  0.00     0.071 H 
ATOM     27  H15 J0P d   1     -63.191  -6.835 -49.019  0.00  0.00     0.071 H 
BRANCH  25  28
ATOM     28  C2  J0P d   1     -63.886  -8.846 -49.194  0.00  0.00    -0.004 A 
ATOM     29  C7  J0P d   1     -62.978  -9.595 -49.969  0.00  0.00     0.110 A 
ATOM     30  C6  J0P d   1     -63.428 -10.688 -50.724  0.00  0.00     0.102 A 
ATOM     31  O1  J0P d   1     -61.628  -9.256 -49.919  0.00  0.00    -0.346 OA
ATOM     32  C5  J0P d   1     -64.778 -11.103 -50.709  0.00  0.00    -0.048 A 
ATOM     33  O2  J0P d   1     -62.554 -11.355 -51.536  0.00  0.00    -0.346 OA
ATOM     34  C4  J0P d   1     -65.707 -10.375 -49.939  0.00  0.00    -0.080 A 
ATOM     35  H2  J0P d   1     -65.094 -11.968 -51.281  0.00  0.00     0.087 H 
ATOM     36  C3  J0P d   1     -65.281  -9.249 -49.203  0.00  0.00    -0.072 A 
ATOM     37  H1  J0P d   1     -66.747 -10.680 -49.912  0.00  0.00     0.083 H 
ATOM     38  H18 J0P d   1     -66.006  -8.676 -48.636  0.00  0.00     0.084 H 
ATOM     39  C9  J0P d   1     -61.393 -10.602 -51.886  0.00  0.00     0.046 C 
ATOM     40  C8  J0P d   1     -60.712 -10.103 -50.617  0.00  0.00     0.046 C 
ATOM     41  H16 J0P d   1     -60.697 -11.241 -52.449  0.00  0.00     0.078 H 
ATOM     42  H17 J0P d   1     -61.686  -9.743 -52.507  0.00  0.00     0.078 H 
ATOM     43  H3  J0P d   1     -60.438 -10.958 -49.981  0.00  0.00     0.078 H 
ATOM     44  H4  J0P d   1     -59.807  -9.536 -50.879  0.00  0.00     0.078 H 
ENDBRANCH  25  28
ENDBRANCH   3  25
TORSDOF 4
