REMARK  7 active torsions:
REMARK  status: ('A' for Active; 'I' for Inactive)
REMARK    1  A    between atoms: CAZ_2  and  CAQ_5 
REMARK    2  A    between atoms: CAQ_5  and  CAP_7 
REMARK       I    between atoms: CAP_7  and  N_9 
REMARK    3  A    between atoms: N_9  and  CA_10 
REMARK    4  A    between atoms: CA_10  and  C_11 
REMARK    5  A    between atoms: CA_10  and  CAJ_15 
REMARK       I    between atoms: C_11  and  NAS_13 
REMARK    6  A    between atoms: NAS_13  and  OAU_14 
REMARK    7  A    between atoms: CAG_20  and  CAC_21 
ROOT
ATOM      1  CAJ J0Y d   1     -14.123  11.110 -13.669  0.00  0.00    -0.026 A 
ATOM      2  CAK J0Y d   1     -14.008  10.055 -14.563  0.00  0.00    -0.074 A 
ATOM      3  CAL J0Y d   1     -13.563  10.281 -15.874  0.00  0.00    -0.072 A 
ATOM      4  CAI J0Y d   1     -13.804  12.395 -14.097  0.00  0.00    -0.074 A 
ATOM      5  CAH J0Y d   1     -13.374  12.640 -15.417  0.00  0.00    -0.072 A 
ATOM      6  CAG J0Y d   1     -13.224  11.569 -16.299  0.00  0.00    -0.026 A 
ATOM      7  H6  J0Y d   1     -14.264   9.050 -14.246  0.00  0.00     0.084 H 
ATOM      8  H7  J0Y d   1     -13.481   9.449 -16.564  0.00  0.00     0.084 H 
ATOM      9  H8  J0Y d   1     -13.888  13.223 -13.402  0.00  0.00     0.084 H 
ATOM     10  H9  J0Y d   1     -13.162  13.652 -15.744  0.00  0.00     0.084 H 
ENDROOT
BRANCH   1  11
ATOM     11  CA  J0Y d   1     -14.628  10.950 -12.346  0.00  0.00     0.117 C 
ATOM     12  H3  J0Y d   1     -15.453  11.675 -12.289  0.00  0.00     0.095 H 
BRANCH  11  13
ATOM     13  N   J0Y d   1     -15.213   9.637 -11.983  0.00  0.00    -0.341 N 
ATOM     14  CAP J0Y d   1     -16.535   9.489 -11.814  0.00  0.00     0.261 C 
ATOM     15  OAR J0Y d   1     -17.367  10.346 -12.078  0.00  0.00    -0.270 OA
ATOM     16  H2  J0Y d   1     -14.611   8.848 -11.862  0.00  0.00     0.163 HD
BRANCH  14  17
ATOM     17  CAQ J0Y d   1     -16.983   8.144 -11.230  0.00  0.00     0.247 C 
ATOM     18  FAY J0Y d   1     -15.899   7.329 -11.211  0.00  0.00    -0.230 F 
ATOM     19  H1  J0Y d   1     -17.777   7.701 -11.849  0.00  0.00     0.121 H 
BRANCH  17  20
ATOM     20  CAZ J0Y d   1     -17.515   8.389  -9.777  0.00  0.00     0.426 C 
ATOM     21  FBA J0Y d   1     -16.596   9.025  -9.015  0.00  0.00    -0.167 F 
ATOM     22  FBB J0Y d   1     -18.543   9.104  -9.828  0.00  0.00    -0.167 F 
ATOM     23  FBC J0Y d   1     -17.848   7.207  -9.162  0.00  0.00    -0.167 F 
ENDBRANCH  17  20
ENDBRANCH  14  17
ENDBRANCH  11  13
BRANCH  11  24
ATOM     24  C   J0Y d   1     -13.672  11.299 -11.207  0.00  0.00     0.268 C 
ATOM     25  O   J0Y d   1     -12.781  10.513 -10.868  0.00  0.00    -0.269 OA
ATOM     26  NAS J0Y d   1     -14.000  12.414 -10.573  0.00  0.00    -0.235 N 
ATOM     27  H4  J0Y d   1     -14.792  12.958 -10.850  0.00  0.00     0.197 HD
BRANCH  26  28
ATOM     28  OAU J0Y d   1     -13.183  12.800  -9.490  0.00  0.00    -0.287 OA
ATOM     29  H5  J0Y d   1     -13.514  13.608  -9.117  0.00  0.00     0.244 HD
ENDBRANCH  26  28
ENDBRANCH  11  24
ENDBRANCH   1  11
BRANCH   6  30
ATOM     30  CAC J0Y d   1     -12.866  11.796 -17.636  0.00  0.00    -0.020 A 
ATOM     31  CAB J0Y d   1     -11.770  11.264 -18.289  0.00  0.00    -0.032 A 
ATOM     32  CAA J0Y d   1     -11.569  11.568 -19.636  0.00  0.00     0.158 A 
ATOM     33  H10 J0Y d   1     -11.076  10.619 -17.762  0.00  0.00     0.089 H 
ATOM     34  FAV J0Y d   1     -10.515  11.080 -20.253  0.00  0.00    -0.203 F 
ATOM     35  CAF J0Y d   1     -12.450  12.383 -20.333  0.00  0.00     0.193 A 
ATOM     36  FAW J0Y d   1     -12.266  12.692 -21.694  0.00  0.00    -0.200 F 
ATOM     37  CAE J0Y d   1     -13.548  12.908 -19.694  0.00  0.00     0.158 A 
ATOM     38  FAX J0Y d   1     -14.426  13.706 -20.423  0.00  0.00    -0.203 F 
ATOM     39  CAD J0Y d   1     -13.756  12.626 -18.348  0.00  0.00    -0.032 A 
ATOM     40  H11 J0Y d   1     -14.614  13.050 -17.839  0.00  0.00     0.089 H 
ENDBRANCH   6  30
TORSDOF 7
