REMARK  6 active torsions:
REMARK  status: ('A' for Active; 'I' for Inactive)
REMARK    1  A    between atoms: CA_2  and  N_1 
REMARK       I    between atoms: N_1  and  CAT_15 
REMARK    2  A    between atoms: CA_2  and  C_3 
REMARK    3  A    between atoms: CAY_20  and  CA_2 
REMARK       I    between atoms: C_3  and  NAQ_26 
REMARK    4  A    between atoms: CAT_15  and  CBA_22 
REMARK    5  A    between atoms: CAW_18  and  CAX_19 
REMARK    6  A    between atoms: NAQ_26  and  OAC_28 
ROOT
ATOM      1  CA  J1G d   1      14.667 119.898 130.462  0.00  0.00     0.117 C 
ATOM      2  H2  J1G d   1      15.466 120.654 130.431  0.00  0.00     0.095 H 
ENDROOT
BRANCH   1   3
ATOM      3  N   J1G d   1      15.314 118.628 130.052  0.00  0.00    -0.343 N 
ATOM      4  CAT J1G d   1      16.641 118.576 129.788  0.00  0.00     0.222 C 
ATOM      5  OAB J1G d   1      17.428 119.468 130.081  0.00  0.00    -0.273 OA
ATOM      6  H1  J1G d   1      14.762 117.798 129.969  0.00  0.00     0.163 HD
BRANCH   4   7
ATOM      7  CBA J1G d   1      17.201 117.272 129.178  0.00  0.00     0.024 C 
ATOM      8  CAO J1G d   1      18.200 117.589 128.050  0.00  0.00    -0.054 C 
ATOM      9  CAM J1G d   1      17.333 118.022 126.841  0.00  0.00    -0.064 C 
ATOM     10  H13 J1G d   1      18.875 118.404 128.351  0.00  0.00     0.034 H 
ATOM     11  H14 J1G d   1      18.792 116.697 127.799  0.00  0.00     0.034 H 
ATOM     12  CAN J1G d   1      15.965 117.416 127.152  0.00  0.00    -0.064 C 
ATOM     13  H9  J1G d   1      17.272 119.118 126.773  0.00  0.00     0.033 H 
ATOM     14  H10 J1G d   1      17.738 117.618 125.901  0.00  0.00     0.033 H 
ATOM     15  CAP J1G d   1      16.188 116.519 128.362  0.00  0.00    -0.054 C 
ATOM     16  H11 J1G d   1      15.601 116.827 126.297  0.00  0.00     0.033 H 
ATOM     17  H12 J1G d   1      15.238 118.207 127.388  0.00  0.00     0.033 H 
ATOM     18  H15 J1G d   1      16.581 115.538 128.057  0.00  0.00     0.034 H 
ATOM     19  H16 J1G d   1      15.254 116.381 128.926  0.00  0.00     0.034 H 
ATOM     20  H17 J1G d   1      17.640 116.649 129.971  0.00  0.00     0.054 H 
ENDBRANCH   4   7
ENDBRANCH   1   3
BRANCH   1  21
ATOM     21  C   J1G d   1      13.714 120.261 129.343  0.00  0.00     0.268 C 
ATOM     22  O   J1G d   1      12.812 119.514 128.997  0.00  0.00    -0.269 OA
ATOM     23  NAQ J1G d   1      14.001 121.399 128.713  0.00  0.00    -0.235 N 
ATOM     24  H18 J1G d   1      14.790 121.960 128.964  0.00  0.00     0.197 HD
BRANCH  23  25
ATOM     25  OAC J1G d   1      13.141 121.758 127.691  0.00  0.00    -0.287 OA
ATOM     26  H19 J1G d   1      13.430 122.578 127.308  0.00  0.00     0.244 HD
ENDBRANCH  23  25
ENDBRANCH   1  21
BRANCH   1  27
ATOM     27  CAY J1G d   1      14.159 120.010 131.789  0.00  0.00    -0.026 A 
ATOM     28  CAI J1G d   1      14.005 118.950 132.681  0.00  0.00    -0.074 A 
ATOM     29  CAG J1G d   1      13.564 119.199 133.998  0.00  0.00    -0.072 A 
ATOM     30  H5  J1G d   1      14.223 117.937 132.364  0.00  0.00     0.084 H 
ATOM     31  CAW J1G d   1      13.254 120.488 134.431  0.00  0.00    -0.026 A 
ATOM     32  H3  J1G d   1      13.464 118.370 134.689  0.00  0.00     0.084 H 
ATOM     33  CAH J1G d   1      13.439 121.547 133.544  0.00  0.00    -0.072 A 
ATOM     34  CAJ J1G d   1      13.883 121.295 132.243  0.00  0.00    -0.074 A 
ATOM     35  H4  J1G d   1      13.239 122.564 133.862  0.00  0.00     0.084 H 
ATOM     36  H6  J1G d   1      14.017 122.130 131.565  0.00  0.00     0.084 H 
BRANCH  31  37
ATOM     37  CAX J1G d   1      12.885 120.730 135.764  0.00  0.00    -0.020 A 
ATOM     38  CAK J1G d   1      13.787 121.519 136.510  0.00  0.00    -0.032 A 
ATOM     39  CAU J1G d   1      13.548 121.794 137.849  0.00  0.00     0.158 A 
ATOM     40  H7  J1G d   1      14.676 121.914 136.032  0.00  0.00     0.089 H 
ATOM     41  CAZ J1G d   1      12.433 121.282 138.464  0.00  0.00     0.193 A 
ATOM     42  FAD J1G d   1      14.411 122.569 138.621  0.00  0.00    -0.203 F 
ATOM     43  CAV J1G d   1      11.551 120.486 137.751  0.00  0.00     0.158 A 
ATOM     44  FAF J1G d   1      12.207 121.568 139.803  0.00  0.00    -0.200 F 
ATOM     45  CAL J1G d   1      11.776 120.186 136.403  0.00  0.00    -0.032 A 
ATOM     46  FAE J1G d   1      10.511 120.026 138.372  0.00  0.00    -0.203 F 
ATOM     47  H8  J1G d   1      11.095 119.538 135.864  0.00  0.00     0.089 H 
ENDBRANCH  31  37
ENDBRANCH   1  27
TORSDOF 6
