REMARK  6 active torsions:
REMARK  status: ('A' for Active; 'I' for Inactive)
REMARK    1  A    between atoms: CBB_6  and  CAU_7 
REMARK       I    between atoms: CAU_7  and  N_9 
REMARK    2  A    between atoms: N_9  and  CA_10 
REMARK    3  A    between atoms: CA_10  and  C_11 
REMARK    4  A    between atoms: CA_10  and  CAZ_15 
REMARK       I    between atoms: C_11  and  NAR_13 
REMARK    5  A    between atoms: NAR_13  and  OAC_14 
REMARK    6  A    between atoms: CAX_20  and  CAY_21 
ROOT
ATOM      1  CA  J1V d   1      14.665  10.879  12.338  0.00  0.00     0.117 C 
ATOM      2  H13 J1V d   1      15.478  11.619  12.311  0.00  0.00     0.095 H 
ENDROOT
BRANCH   1   3
ATOM      3  N   J1V d   1      15.300   9.607  11.946  0.00  0.00    -0.343 N 
ATOM      4  CAU J1V d   1      16.631   9.488  11.906  0.00  0.00     0.222 C 
ATOM      5  OAB J1V d   1      17.422  10.366  12.180  0.00  0.00    -0.273 OA
ATOM      6  H12 J1V d   1      14.727   8.823  11.707  0.00  0.00     0.163 HD
BRANCH   4   7
ATOM      7  CBB J1V d   1      17.138   8.362  11.066  0.00  0.00     0.024 C 
ATOM      8  CAP J1V d   1      16.248   7.494  10.297  0.00  0.00    -0.054 C 
ATOM      9  CAN J1V d   1      16.135   8.378   8.985  0.00  0.00    -0.064 C 
ATOM     10  H1  J1V d   1      16.699   6.511  10.097  0.00  0.00     0.034 H 
ATOM     11  H2  J1V d   1      15.274   7.357  10.790  0.00  0.00     0.034 H 
ATOM     12  CAM J1V d   1      17.571   8.708   8.431  0.00  0.00    -0.065 C 
ATOM     13  H3  J1V d   1      15.612   9.316   9.222  0.00  0.00     0.033 H 
ATOM     14  H4  J1V d   1      15.568   7.825   8.221  0.00  0.00     0.033 H 
ATOM     15  CAO J1V d   1      18.586   9.176   9.551  0.00  0.00    -0.064 C 
ATOM     16  H5  J1V d   1      17.481   9.511   7.685  0.00  0.00     0.033 H 
ATOM     17  H6  J1V d   1      17.975   7.805   7.950  0.00  0.00     0.033 H 
ATOM     18  CAQ J1V d   1      18.547   8.290  10.833  0.00  0.00    -0.054 C 
ATOM     19  H7  J1V d   1      18.340  10.210   9.834  0.00  0.00     0.033 H 
ATOM     20  H8  J1V d   1      19.604   9.142   9.135  0.00  0.00     0.033 H 
ATOM     21  H9  J1V d   1      19.131   8.723  11.659  0.00  0.00     0.034 H 
ATOM     22  H10 J1V d   1      18.888   7.262  10.642  0.00  0.00     0.034 H 
ATOM     23  H11 J1V d   1      17.170   7.665  11.916  0.00  0.00     0.054 H 
ENDBRANCH   4   7
ENDBRANCH   1   3
BRANCH   1  24
ATOM     24  C   J1V d   1      13.725  11.268  11.188  0.00  0.00     0.268 C 
ATOM     25  O   J1V d   1      12.827  10.519  10.764  0.00  0.00    -0.269 OA
ATOM     26  NAR J1V d   1      14.063  12.396  10.610  0.00  0.00    -0.235 N 
ATOM     27  H14 J1V d   1      14.858  12.924  10.907  0.00  0.00     0.197 HD
BRANCH  26  28
ATOM     28  OAC J1V d   1      13.248  12.819   9.554  0.00  0.00    -0.287 OA
ATOM     29  H15 J1V d   1      13.579  13.640   9.209  0.00  0.00     0.244 HD
ENDBRANCH  26  28
ENDBRANCH   1  24
BRANCH   1  30
ATOM     30  CAZ J1V d   1      14.155  11.019  13.649  0.00  0.00    -0.026 A 
ATOM     31  CAJ J1V d   1      13.876  12.317  14.050  0.00  0.00    -0.074 A 
ATOM     32  CAH J1V d   1      13.433  12.605  15.361  0.00  0.00    -0.072 A 
ATOM     33  H16 J1V d   1      14.000  13.129  13.342  0.00  0.00     0.084 H 
ATOM     34  CAX J1V d   1      13.289  11.544  16.259  0.00  0.00    -0.026 A 
ATOM     35  H17 J1V d   1      13.211  13.622  15.662  0.00  0.00     0.084 H 
ATOM     36  CAG J1V d   1      13.595  10.241  15.853  0.00  0.00    -0.072 A 
ATOM     37  CAI J1V d   1      14.034   9.956  14.539  0.00  0.00    -0.074 A 
ATOM     38  H19 J1V d   1      13.493   9.429  16.564  0.00  0.00     0.084 H 
ATOM     39  H18 J1V d   1      14.269   8.942  14.235  0.00  0.00     0.084 H 
BRANCH  34  40
ATOM     40  CAY J1V d   1      12.923  11.788  17.595  0.00  0.00    -0.020 A 
ATOM     41  CAK J1V d   1      13.841  12.600  18.306  0.00  0.00    -0.032 A 
ATOM     42  CAV J1V d   1      13.614  12.876  19.660  0.00  0.00     0.158 A 
ATOM     43  H20 J1V d   1      14.713  13.005  17.805  0.00  0.00     0.089 H 
ATOM     44  FAD J1V d   1      14.461  13.648  20.418  0.00  0.00    -0.203 F 
ATOM     45  CBA J1V d   1      12.508  12.351  20.276  0.00  0.00     0.193 A 
ATOM     46  FAF J1V d   1      12.266  12.627  21.643  0.00  0.00    -0.200 F 
ATOM     47  CAW J1V d   1      11.624  11.547  19.578  0.00  0.00     0.158 A 
ATOM     48  FAE J1V d   1      10.581  11.082  20.227  0.00  0.00    -0.203 F 
ATOM     49  CAL J1V d   1      11.824  11.228  18.236  0.00  0.00    -0.032 A 
ATOM     50  H21 J1V d   1      11.146  10.566  17.710  0.00  0.00     0.089 H 
ENDBRANCH  34  40
ENDBRANCH   1  30
TORSDOF 6
