REMARK  6 active torsions:
REMARK  status: ('A' for Active; 'I' for Inactive)
REMARK    1  A    between atoms: CBB_6  and  CAU_7 
REMARK       I    between atoms: CAU_7  and  N_9 
REMARK    2  A    between atoms: N_9  and  CA_10 
REMARK    3  A    between atoms: CA_10  and  C_11 
REMARK    4  A    between atoms: CA_10  and  CAZ_15 
REMARK       I    between atoms: C_11  and  NAQ_13 
REMARK    5  A    between atoms: NAQ_13  and  OAC_14 
REMARK    6  A    between atoms: CAX_20  and  CAY_21 
ROOT
ATOM      1  CA  J2D d   1     -14.603  10.978 -12.304  0.00  0.00     0.117 C 
ATOM      2  H11 J2D d   1     -15.420  11.714 -12.260  0.00  0.00     0.095 H 
ENDROOT
BRANCH   1   3
ATOM      3  N   J2D d   1     -15.200   9.682 -11.909  0.00  0.00    -0.343 N 
ATOM      4  CAU J2D d   1     -16.508   9.596 -11.658  0.00  0.00     0.223 C 
ATOM      5  OAB J2D d   1     -17.318  10.468 -11.919  0.00  0.00    -0.273 OA
ATOM      6  H10 J2D d   1     -14.622   8.870 -11.830  0.00  0.00     0.163 HD
BRANCH   4   7
ATOM      7  CBB J2D d   1     -16.958   8.252 -11.054  0.00  0.00     0.027 C 
ATOM      8  CAO J2D d   1     -18.460   8.244 -10.728  0.00  0.00    -0.034 C 
ATOM      9  CAM J2D d   1     -18.773   9.153  -9.530  0.00  0.00     0.020 C 
ATOM     10  H1  J2D d   1     -19.019   8.601 -11.605  0.00  0.00     0.037 H 
ATOM     11  H2  J2D d   1     -18.770   7.216 -10.489  0.00  0.00     0.037 H 
ATOM     12  OAS J2D d   1     -17.957   8.906  -8.331  0.00  0.00    -0.391 OA
ATOM     13  H3  J2D d   1     -19.829   9.009  -9.259  0.00  0.00     0.074 H 
ATOM     14  H4  J2D d   1     -18.613  10.196  -9.842  0.00  0.00     0.074 H 
ATOM     15  CAN J2D d   1     -16.562   9.057  -8.642  0.00  0.00     0.020 C 
ATOM     16  CAP J2D d   1     -16.172   8.020  -9.732  0.00  0.00    -0.034 C 
ATOM     17  H5  J2D d   1     -15.961   8.884  -7.737  0.00  0.00     0.074 H 
ATOM     18  H6  J2D d   1     -16.376  10.074  -9.017  0.00  0.00     0.074 H 
ATOM     19  H7  J2D d   1     -16.393   7.010  -9.358  0.00  0.00     0.037 H 
ATOM     20  H8  J2D d   1     -15.095   8.107  -9.938  0.00  0.00     0.037 H 
ATOM     21  H9  J2D d   1     -16.738   7.444 -11.767  0.00  0.00     0.054 H 
ENDBRANCH   4   7
ENDBRANCH   1   3
BRANCH   1  22
ATOM     22  C   J2D d   1     -13.625  11.355 -11.177  0.00  0.00     0.268 C 
ATOM     23  O   J2D d   1     -12.722  10.603 -10.803  0.00  0.00    -0.269 OA
ATOM     24  NAQ J2D d   1     -13.922  12.507 -10.582  0.00  0.00    -0.235 N 
ATOM     25  H12 J2D d   1     -14.703  13.070 -10.853  0.00  0.00     0.197 HD
BRANCH  24  26
ATOM     26  OAC J2D d   1     -13.028  12.877  -9.517  0.00  0.00    -0.287 OA
ATOM     27  H13 J2D d   1     -13.306  13.706  -9.145  0.00  0.00     0.244 HD
ENDBRANCH  24  26
ENDBRANCH   1  22
BRANCH   1  28
ATOM     28  CAZ J2D d   1     -14.106  11.092 -13.640  0.00  0.00    -0.026 A 
ATOM     29  CAJ J2D d   1     -14.010  10.023 -14.526  0.00  0.00    -0.074 A 
ATOM     30  CAH J2D d   1     -13.569  10.220 -15.850  0.00  0.00    -0.072 A 
ATOM     31  H14 J2D d   1     -14.278   9.027 -14.194  0.00  0.00     0.084 H 
ATOM     32  CAX J2D d   1     -13.201  11.489 -16.293  0.00  0.00    -0.026 A 
ATOM     33  H15 J2D d   1     -13.516   9.377 -16.530  0.00  0.00     0.084 H 
ATOM     34  CAG J2D d   1     -13.320  12.560 -15.418  0.00  0.00    -0.072 A 
ATOM     35  CAI J2D d   1     -13.763  12.368 -14.098  0.00  0.00    -0.074 A 
ATOM     36  H17 J2D d   1     -13.068  13.558 -15.757  0.00  0.00     0.084 H 
ATOM     37  H16 J2D d   1     -13.839  13.217 -13.429  0.00  0.00     0.084 H 
BRANCH  32  38
ATOM     38  CAY J2D d   1     -12.827  11.724 -17.631  0.00  0.00    -0.020 A 
ATOM     39  CAK J2D d   1     -13.720  12.557 -18.337  0.00  0.00    -0.032 A 
ATOM     40  CAV J2D d   1     -13.505  12.865 -19.685  0.00  0.00     0.158 A 
ATOM     41  H18 J2D d   1     -14.586  12.965 -17.828  0.00  0.00     0.089 H 
ATOM     42  FAD J2D d   1     -14.375  13.651 -20.431  0.00  0.00    -0.203 F 
ATOM     43  CBA J2D d   1     -12.392  12.359 -20.318  0.00  0.00     0.193 A 
ATOM     44  FAF J2D d   1     -12.205  12.704 -21.719  0.00  0.00    -0.200 F 
ATOM     45  CAW J2D d   1     -11.503  11.529 -19.628  0.00  0.00     0.158 A 
ATOM     46  FAE J2D d   1     -10.446  11.052 -20.245  0.00  0.00    -0.203 F 
ATOM     47  CAL J2D d   1     -11.709  11.190 -18.269  0.00  0.00    -0.032 A 
ATOM     48  H19 J2D d   1     -11.021  10.538 -17.743  0.00  0.00     0.089 H 
ENDBRANCH  32  38
ENDBRANCH   1  28
TORSDOF 6
