REMARK  9 active torsions:
REMARK  status: ('A' for Active; 'I' for Inactive)
REMARK    1  A    between atoms: C10_1  and  C06_15 
REMARK    2  A    between atoms: C23_26  and  C24_7 
REMARK    3  A    between atoms: C02_11  and  C01_10 
REMARK    4  A    between atoms: C02_11  and  C03_12 
REMARK    5  A    between atoms: C02_11  and  C04_13 
REMARK    6  A    between atoms: O05_14  and  C02_11 
REMARK    7  A    between atoms: C06_15  and  O05_14 
REMARK    8  A    between atoms: C06_15  and  C07_16 
REMARK    9  A    between atoms: C11_19  and  C12_20 
ROOT
ATOM      1  C10 J3M d   1     -35.514  33.181 -28.482  0.00  0.00     0.022 A 
ATOM      2  C11 J3M d   1     -36.009  31.870 -28.392  0.00  0.00     0.078 A 
ATOM      3  N22 J3M d   1     -37.303  31.625 -28.218  0.00  0.00    -0.246 NA
ATOM      4  C23 J3M d   1     -38.180  32.611 -28.106  0.00  0.00     0.079 A 
ATOM      5  C30 J3M d   1     -37.776  33.957 -28.186  0.00  0.00     0.004 A 
ATOM      6  C31 J3M d   1     -38.747  34.983 -28.073  0.00  0.00    -0.070 A 
ATOM      7  C32 J3M d   1     -38.336  36.318 -28.162  0.00  0.00    -0.082 A 
ATOM      8  C33 J3M d   1     -36.980  36.632 -28.353  0.00  0.00    -0.082 A 
ATOM      9  C34 J3M d   1     -36.031  35.609 -28.463  0.00  0.00    -0.071 A 
ATOM     10  C35 J3M d   1     -36.443  34.253 -28.372  0.00  0.00    -0.012 A 
ATOM     11  H25 J3M d   1     -39.792  34.738 -27.920  0.00  0.00     0.084 H 
ATOM     12  H26 J3M d   1     -39.068  37.114 -28.083  0.00  0.00     0.083 H 
ATOM     13  H27 J3M d   1     -36.668  37.668 -28.415  0.00  0.00     0.083 H 
ATOM     14  H28 J3M d   1     -34.986  35.851 -28.617  0.00  0.00     0.084 H 
ENDROOT
BRANCH   1  15
ATOM     15  C06 J3M d   1     -33.965  33.400 -28.722  0.00  0.00     0.151 C 
ATOM     16  H16 J3M d   1     -33.453  32.434 -28.599  0.00  0.00     0.108 H 
BRANCH  15  17
ATOM     17  O05 J3M d   1     -33.409  34.326 -27.782  0.00  0.00    -0.360 OA
BRANCH  17  18
ATOM     18  C02 J3M d   1     -32.859  33.721 -26.582  0.00  0.00     0.051 C 
BRANCH  18  19
ATOM     19  C01 J3M d   1     -32.041  34.794 -25.878  0.00  0.00    -0.048 C 
ATOM     20  H7  J3M d   1     -31.604  34.377 -24.959  0.00  0.00     0.031 H 
ATOM     21  H8  J3M d   1     -32.692  35.643 -25.622  0.00  0.00     0.031 H 
ATOM     22  H9  J3M d   1     -31.236  35.138 -26.544  0.00  0.00     0.031 H 
ENDBRANCH  18  19
BRANCH  18  23
ATOM     23  C03 J3M d   1     -31.971  32.506 -26.936  0.00  0.00    -0.048 C 
ATOM     24  H10 J3M d   1     -32.579  31.743 -27.443  0.00  0.00     0.031 H 
ATOM     25  H11 J3M d   1     -31.545  32.082 -26.015  0.00  0.00     0.031 H 
ATOM     26  H12 J3M d   1     -31.157  32.828 -27.602  0.00  0.00     0.031 H 
ENDBRANCH  18  23
BRANCH  18  27
ATOM     27  C04 J3M d   1     -33.982  33.274 -25.636  0.00  0.00    -0.048 C 
ATOM     28  H13 J3M d   1     -34.614  34.138 -25.384  0.00  0.00     0.031 H 
ATOM     29  H14 J3M d   1     -33.544  32.859 -24.716  0.00  0.00     0.031 H 
ATOM     30  H15 J3M d   1     -34.593  32.504 -26.130  0.00  0.00     0.031 H 
ENDBRANCH  18  27
ENDBRANCH  17  18
ENDBRANCH  15  17
BRANCH  15  31
ATOM     31  C07 J3M d   1     -33.741  33.900 -30.157  0.00  0.00     0.208 C 
ATOM     32  O08 J3M d   1     -32.895  34.796 -30.427  0.00  0.00    -0.646 OA
ATOM     33  O09 J3M d   1     -34.432  33.377 -31.059  0.00  0.00    -0.646 OA
ENDBRANCH  15  31
ENDBRANCH   1  15
BRANCH   2  34
ATOM     34  C12 J3M d   1     -35.153  30.746 -28.538  0.00  0.00    -0.006 A 
ATOM     35  C13 J3M d   1     -34.801  29.926 -27.455  0.00  0.00    -0.068 A 
ATOM     36  C14 J3M d   1     -33.979  28.806 -27.675  0.00  0.00    -0.049 A 
ATOM     37  H1  J3M d   1     -35.159  30.154 -26.458  0.00  0.00     0.085 H 
ATOM     38  C15 J3M d   1     -33.522  28.485 -28.957  0.00  0.00     0.075 A 
ATOM     39  H17 J3M d   1     -33.695  28.181 -26.836  0.00  0.00     0.087 H 
ATOM     40  C20 J3M d   1     -33.885  29.293 -30.039  0.00  0.00    -0.024 A 
ATOM     41  O16 J3M d   1     -32.674  27.335 -29.114  0.00  0.00    -0.351 OA
ATOM     42  C21 J3M d   1     -34.714  30.406 -29.835  0.00  0.00    -0.062 A 
ATOM     43  C19 J3M d   1     -33.369  28.939 -31.466  0.00  0.00    -0.036 C 
ATOM     44  H4  J3M d   1     -35.020  31.010 -30.681  0.00  0.00     0.085 H 
ATOM     45  C18 J3M d   1     -32.607  27.620 -31.510  0.00  0.00    -0.041 C 
ATOM     46  H20 J3M d   1     -32.700  29.743 -31.807  0.00  0.00     0.040 H 
ATOM     47  H21 J3M d   1     -34.232  28.869 -32.144  0.00  0.00     0.040 H 
ATOM     48  C17 J3M d   1     -31.859  27.321 -30.241  0.00  0.00     0.026 C 
ATOM     49  H18 J3M d   1     -33.326  26.808 -31.691  0.00  0.00     0.036 H 
ATOM     50  H19 J3M d   1     -31.885  27.662 -32.339  0.00  0.00     0.036 H 
ATOM     51  H2  J3M d   1     -31.401  26.325 -30.330  0.00  0.00     0.075 H 
ATOM     52  H3  J3M d   1     -31.070  28.077 -30.113  0.00  0.00     0.075 H 
ENDBRANCH   2  34
BRANCH   4  53
ATOM     53  C24 J3M d   1     -39.532  32.249 -27.920  0.00  0.00    -0.006 A 
ATOM     54  C25 J3M d   1     -40.135  32.357 -26.671  0.00  0.00    -0.071 A 
ATOM     55  C26 J3M d   1     -41.460  31.974 -26.499  0.00  0.00    -0.082 A 
ATOM     56  H22 J3M d   1     -39.570  32.741 -25.829  0.00  0.00     0.084 H 
ATOM     57  C27 J3M d   1     -42.169  31.470 -27.586  0.00  0.00    -0.083 A 
ATOM     58  H5  J3M d   1     -41.936  32.067 -25.529  0.00  0.00     0.083 H 
ATOM     59  C28 J3M d   1     -41.564  31.357 -28.835  0.00  0.00    -0.082 A 
ATOM     60  H23 J3M d   1     -43.201  31.163 -27.459  0.00  0.00     0.083 H 
ATOM     61  C29 J3M d   1     -40.239  31.744 -29.003  0.00  0.00    -0.071 A 
ATOM     62  H6  J3M d   1     -42.126  30.967 -29.676  0.00  0.00     0.083 H 
ATOM     63  H24 J3M d   1     -39.762  31.652 -29.972  0.00  0.00     0.084 H 
ENDBRANCH   4  53
TORSDOF 9
