REMARK  11 active torsions:
REMARK  status: ('A' for Active; 'I' for Inactive)
REMARK    1  A    between atoms: C10_1  and  C06_14 
REMARK    2  A    between atoms: C24_7  and  C23_25 
REMARK    3  A    between atoms: N27_28  and  C28_8 
REMARK    4  A    between atoms: C28_8  and  C29_29 
REMARK    5  A    between atoms: C02_10  and  C01_9 
REMARK    6  A    between atoms: C02_10  and  C03_11 
REMARK    7  A    between atoms: C02_10  and  C04_12 
REMARK    8  A    between atoms: O05_13  and  C02_10 
REMARK    9  A    between atoms: C06_14  and  O05_13 
REMARK   10  A    between atoms: C06_14  and  C07_15 
REMARK   11  A    between atoms: C11_18  and  C12_19 
ROOT
ATOM      1  C10 J3P d   1     -35.450  33.173 -28.576  0.00  0.00     0.022 A 
ATOM      2  C11 J3P d   1     -35.864  31.850 -28.489  0.00  0.00     0.078 A 
ATOM      3  N22 J3P d   1     -37.142  31.485 -28.266  0.00  0.00    -0.246 NA
ATOM      4  C23 J3P d   1     -38.085  32.383 -28.090  0.00  0.00     0.081 A 
ATOM      5  C36 J3P d   1     -37.834  33.815 -28.147  0.00  0.00     0.004 A 
ATOM      6  C37 J3P d   1     -38.818  34.836 -27.963  0.00  0.00    -0.070 A 
ATOM      7  C38 J3P d   1     -38.480  36.180 -28.027  0.00  0.00    -0.082 A 
ATOM      8  C39 J3P d   1     -37.121  36.577 -28.280  0.00  0.00    -0.082 A 
ATOM      9  C40 J3P d   1     -36.168  35.603 -28.455  0.00  0.00    -0.071 A 
ATOM     10  C41 J3P d   1     -36.453  34.182 -28.397  0.00  0.00    -0.012 A 
ATOM     11  H29 J3P d   1     -39.847  34.555 -27.770  0.00  0.00     0.084 H 
ATOM     12  H30 J3P d   1     -39.245  36.935 -27.886  0.00  0.00     0.083 H 
ATOM     13  H31 J3P d   1     -36.853  37.626 -28.332  0.00  0.00     0.083 H 
ATOM     14  H32 J3P d   1     -35.147  35.913 -28.647  0.00  0.00     0.084 H 
ENDROOT
BRANCH   4  15
ATOM     15  C24 J3P d   1     -39.422  31.760 -27.850  0.00  0.00     0.030 A 
ATOM     16  C25 J3P d   1     -40.546  32.163 -27.075  0.00  0.00     0.035 A 
ATOM     17  N26 J3P d   1     -41.541  31.168 -27.139  0.00  0.00    -0.184 NA
ATOM     18  H22 J3P d   1     -40.624  33.096 -26.519  0.00  0.00     0.118 H 
ATOM     19  N27 J3P d   1     -41.023  30.112 -27.940  0.00  0.00    -0.276 N 
ATOM     20  C35 J3P d   1     -39.731  30.489 -28.347  0.00  0.00     0.012 A 
ATOM     21  H28 J3P d   1     -39.068  29.881 -28.960  0.00  0.00     0.115 H 
BRANCH  19  22
ATOM     22  C28 J3P d   1     -41.789  28.753 -28.336  0.00  0.00     0.040 C 
ATOM     23  H5  J3P d   1     -42.362  28.958 -29.252  0.00  0.00     0.074 H 
ATOM     24  H6  J3P d   1     -42.482  28.519 -27.515  0.00  0.00     0.074 H 
BRANCH  22  25
ATOM     25  C29 J3P d   1     -40.907  27.425 -28.610  0.00  0.00    -0.038 A 
ATOM     26  C30 J3P d   1     -39.890  27.378 -29.592  0.00  0.00    -0.075 A 
ATOM     27  C31 J3P d   1     -39.106  26.195 -29.842  0.00  0.00    -0.082 A 
ATOM     28  H23 J3P d   1     -39.693  28.267 -30.180  0.00  0.00     0.084 H 
ATOM     29  C32 J3P d   1     -39.300  24.990 -29.107  0.00  0.00    -0.083 A 
ATOM     30  H24 J3P d   1     -38.345  26.223 -30.613  0.00  0.00     0.083 H 
ATOM     31  C33 J3P d   1     -40.301  25.009 -28.113  0.00  0.00    -0.082 A 
ATOM     32  H25 J3P d   1     -38.708  24.103 -29.302  0.00  0.00     0.083 H 
ATOM     33  C34 J3P d   1     -41.083  26.198 -27.889  0.00  0.00    -0.075 A 
ATOM     34  H26 J3P d   1     -40.483  24.124 -27.514  0.00  0.00     0.083 H 
ATOM     35  H27 J3P d   1     -41.853  26.163 -27.127  0.00  0.00     0.084 H 
ENDBRANCH  22  25
ENDBRANCH  19  22
ENDBRANCH   4  15
BRANCH   2  36
ATOM     36  C12 J3P d   1     -34.962  30.665 -28.693  0.00  0.00    -0.006 A 
ATOM     37  C13 J3P d   1     -34.603  29.856 -27.599  0.00  0.00    -0.068 A 
ATOM     38  C14 J3P d   1     -33.753  28.774 -27.774  0.00  0.00    -0.049 A 
ATOM     39  H1  J3P d   1     -34.993  30.080 -26.613  0.00  0.00     0.085 H 
ATOM     40  C15 J3P d   1     -33.253  28.447 -29.034  0.00  0.00     0.075 A 
ATOM     41  H17 J3P d   1     -33.473  28.172 -26.917  0.00  0.00     0.087 H 
ATOM     42  C20 J3P d   1     -33.595  29.220 -30.153  0.00  0.00    -0.024 A 
ATOM     43  O16 J3P d   1     -32.436  27.396 -29.099  0.00  0.00    -0.351 OA
ATOM     44  C21 J3P d   1     -34.433  30.313 -29.942  0.00  0.00    -0.062 A 
ATOM     45  C19 J3P d   1     -33.078  28.845 -31.487  0.00  0.00    -0.036 C 
ATOM     46  H4  J3P d   1     -34.691  30.928 -30.796  0.00  0.00     0.085 H 
ATOM     47  C18 J3P d   1     -32.428  27.454 -31.600  0.00  0.00    -0.041 C 
ATOM     48  H20 J3P d   1     -32.324  29.592 -31.776  0.00  0.00     0.040 H 
ATOM     49  H21 J3P d   1     -33.919  28.880 -32.195  0.00  0.00     0.040 H 
ATOM     50  C17 J3P d   1     -31.681  27.133 -30.312  0.00  0.00     0.026 C 
ATOM     51  H18 J3P d   1     -33.209  26.698 -31.769  0.00  0.00     0.036 H 
ATOM     52  H19 J3P d   1     -31.722  27.447 -32.444  0.00  0.00     0.036 H 
ATOM     53  H2  J3P d   1     -31.413  26.066 -30.326  0.00  0.00     0.075 H 
ATOM     54  H3  J3P d   1     -30.764  27.741 -30.285  0.00  0.00     0.075 H 
ENDBRANCH   2  36
BRANCH   1  55
ATOM     55  C06 J3P d   1     -33.933  33.450 -28.835  0.00  0.00     0.151 C 
ATOM     56  H16 J3P d   1     -33.431  32.475 -28.751  0.00  0.00     0.108 H 
BRANCH  55  57
ATOM     57  O05 J3P d   1     -33.326  34.317 -27.887  0.00  0.00    -0.360 OA
BRANCH  57  58
ATOM     58  C02 J3P d   1     -32.718  33.778 -26.729  0.00  0.00     0.051 C 
BRANCH  58  59
ATOM     59  C01 J3P d   1     -32.153  32.359 -26.923  0.00  0.00    -0.048 C 
ATOM     60  H7  J3P d   1     -31.700  32.013 -25.982  0.00  0.00     0.031 H 
ATOM     61  H8  J3P d   1     -31.389  32.373 -27.714  0.00  0.00     0.031 H 
ATOM     62  H9  J3P d   1     -32.966  31.677 -27.211  0.00  0.00     0.031 H 
ENDBRANCH  58  59
BRANCH  58  63
ATOM     63  C03 J3P d   1     -33.683  33.806 -25.571  0.00  0.00    -0.048 C 
ATOM     64  H10 J3P d   1     -34.077  34.825 -25.446  0.00  0.00     0.031 H 
ATOM     65  H11 J3P d   1     -33.162  33.499 -24.652  0.00  0.00     0.031 H 
ATOM     66  H12 J3P d   1     -34.514  33.114 -25.770  0.00  0.00     0.031 H 
ENDBRANCH  58  63
BRANCH  58  67
ATOM     67  C04 J3P d   1     -31.568  34.693 -26.378  0.00  0.00    -0.048 C 
ATOM     68  H13 J3P d   1     -30.840  34.699 -27.202  0.00  0.00     0.031 H 
ATOM     69  H14 J3P d   1     -31.080  34.333 -25.460  0.00  0.00     0.031 H 
ATOM     70  H15 J3P d   1     -31.947  35.713 -26.216  0.00  0.00     0.031 H 
ENDBRANCH  58  67
ENDBRANCH  57  58
ENDBRANCH  55  57
BRANCH  55  71
ATOM     71  C07 J3P d   1     -33.622  34.001 -30.239  0.00  0.00     0.208 C 
ATOM     72  O08 J3P d   1     -34.277  33.415 -31.163  0.00  0.00    -0.646 OA
ATOM     73  O09 J3P d   1     -32.786  34.889 -30.361  0.00  0.00    -0.646 OA
ENDBRANCH  55  71
ENDBRANCH   1  55
TORSDOF 11
