REMARK  7 active torsions:
REMARK  status: ('A' for Active; 'I' for Inactive)
REMARK    1  A    between atoms: N4_31  and  C5_1 
REMARK    2  A    between atoms: C14_13  and  C15_7 
REMARK    3  A    between atoms: C9_23  and  C21_8 
REMARK       I    between atoms: C21_8  and  N23_29 
REMARK    4  A    between atoms: C2_15  and  C1_11 
REMARK    5  A    between atoms: N11_25  and  C12_12 
REMARK    6  A    between atoms: C2_15  and  C29_18 
REMARK    7  A    between atoms: C2_15  and  N4_31 
ROOT
ATOM      1  C5  J3Y d   1     -19.979  -9.637   6.395  0.00  0.00     0.126 A 
ATOM      2  C6  J3Y d   1     -20.410  -8.451   5.803  0.00  0.00    -0.038 A 
ATOM      3  C7  J3Y d   1     -21.656  -7.961   6.101  0.00  0.00    -0.065 A 
ATOM      4  C8  J3Y d   1     -22.458  -8.672   6.996  0.00  0.00     0.028 A 
ATOM      5  C10 J3Y d   1     -24.022  -9.531   8.389  0.00  0.00     0.005 A 
ATOM      6  C19 J3Y d   1     -21.968  -9.862   7.557  0.00  0.00     0.149 A 
ATOM      7  C9  J3Y d   1     -23.817  -8.476   7.546  0.00  0.00     0.062 A 
ATOM      8  N11 J3Y d   1     -22.946 -10.354   8.392  0.00  0.00    -0.290 N 
ATOM      9  N20 J3Y d   1     -20.755 -10.297   7.236  0.00  0.00    -0.213 NA
ATOM     10  H1  J3Y d   1     -19.765  -7.920   5.112  0.00  0.00     0.089 H 
ATOM     11  H2  J3Y d   1     -22.011  -7.041   5.651  0.00  0.00     0.085 H 
ATOM     12  H3  J3Y d   1     -24.925  -9.689   8.977  0.00  0.00     0.114 H 
ENDROOT
BRANCH   1  13
ATOM     13  N4  J3Y d   1     -18.715 -10.139   6.100  0.00  0.00    -0.365 N 
ATOM     14  H24 J3Y d   1     -18.086  -9.608   5.481  0.00  0.00     0.162 HD
BRANCH  13  15
ATOM     15  C2  J3Y d   1     -18.271 -11.420   6.665  0.00  0.00     0.050 C 
ATOM     16  H15 J3Y d   1     -19.070 -12.165   6.536  0.00  0.00     0.082 H 
BRANCH  15  17
ATOM     17  C1  J3Y d   1     -17.017 -11.895   5.929  0.00  0.00    -0.052 C 
ATOM     18  H12 J3Y d   1     -17.239 -12.001   4.857  0.00  0.00     0.030 H 
ATOM     19  H13 J3Y d   1     -16.699 -12.867   6.335  0.00  0.00     0.030 H 
ATOM     20  H14 J3Y d   1     -16.211 -11.159   6.066  0.00  0.00     0.030 H 
ENDBRANCH  15  17
BRANCH  15  21
ATOM     21  C29 J3Y d   1     -17.969 -11.274   8.138  0.00  0.00     0.056 A 
ATOM     22  C30 J3Y d   1     -18.012 -12.391   8.950  0.00  0.00    -0.054 A 
ATOM     23  C31 J3Y d   1     -17.738 -12.255  10.302  0.00  0.00    -0.042 A 
ATOM     24  H20 J3Y d   1     -18.257 -13.362   8.535  0.00  0.00     0.086 H 
ATOM     25  C32 J3Y d   1     -17.430 -10.992  10.792  0.00  0.00     0.133 A 
ATOM     26  H21 J3Y d   1     -17.764 -13.115  10.962  0.00  0.00     0.088 H 
ATOM     27  C34 J3Y d   1     -17.407  -9.919   9.918  0.00  0.00     0.040 A 
ATOM     28  F33 J3Y d   1     -17.157 -10.816  12.103  0.00  0.00    -0.205 F 
ATOM     29  N35 J3Y d   1     -17.674 -10.090   8.637  0.00  0.00    -0.260 NA
ATOM     30  H22 J3Y d   1     -17.168  -8.929  10.289  0.00  0.00     0.119 H 
ENDBRANCH  15  21
ENDBRANCH  13  15
ENDBRANCH   1  13
BRANCH   8  31
ATOM     31  C12 J3Y d   1     -22.853 -11.526   9.147  0.00  0.00     0.131 A 
ATOM     32  C13 J3Y d   1     -21.882 -12.475   9.056  0.00  0.00    -0.014 A 
ATOM     33  C14 J3Y d   1     -22.164 -13.469   9.995  0.00  0.00     0.054 A 
ATOM     34  H4  J3Y d   1     -21.035 -12.461   8.372  0.00  0.00     0.092 H 
ATOM     35  N16 J3Y d   1     -23.256 -13.136  10.632  0.00  0.00    -0.178 NA
ATOM     36  N17 J3Y d   1     -23.712 -11.915  10.123  0.00  0.00    -0.262 N 
ATOM     37  H23 J3Y d   1     -24.550 -11.403  10.434  0.00  0.00     0.191 HD
BRANCH  33  38
ATOM     38  C15 J3Y d   1     -21.346 -14.711  10.233  0.00  0.00    -0.034 C 
ATOM     39  H5  J3Y d   1     -21.810 -15.308  11.032  0.00  0.00     0.035 H 
ATOM     40  H6  J3Y d   1     -20.326 -14.427  10.532  0.00  0.00     0.035 H 
ATOM     41  H7  J3Y d   1     -21.305 -15.306   9.308  0.00  0.00     0.035 H 
ENDBRANCH  33  38
ENDBRANCH   8  31
BRANCH   7  42
ATOM     42  C21 J3Y d   1     -24.712  -7.335   7.249  0.00  0.00     0.256 C 
ATOM     43  N23 J3Y d   1     -26.071  -7.353   7.320  0.00  0.00    -0.344 N 
ATOM     44  C24 J3Y d   1     -26.815  -6.122   6.996  0.00  0.00     0.018 C 
ATOM     45  C28 J3Y d   1     -26.881  -8.524   7.714  0.00  0.00     0.018 C 
ATOM     46  C25 J3Y d   1     -27.949  -6.447   6.016  0.00  0.00     0.034 C 
ATOM     47  H8  J3Y d   1     -27.239  -5.697   7.918  0.00  0.00     0.067 H 
ATOM     48  H9  J3Y d   1     -26.132  -5.392   6.536  0.00  0.00     0.067 H 
ATOM     49  O26 J3Y d   1     -28.725  -7.531   6.530  0.00  0.00    -0.388 OA
ATOM     50  H16 J3Y d   1     -27.523  -6.730   5.042  0.00  0.00     0.076 H 
ATOM     51  H17 J3Y d   1     -28.591  -5.563   5.892  0.00  0.00     0.076 H 
ATOM     52  C27 J3Y d   1     -27.984  -8.744   6.669  0.00  0.00     0.034 C 
ATOM     53  H18 J3Y d   1     -28.653  -9.552   7.000  0.00  0.00     0.076 H 
ATOM     54  H19 J3Y d   1     -27.532  -9.015   5.704  0.00  0.00     0.076 H 
ATOM     55  H10 J3Y d   1     -26.239  -9.416   7.766  0.00  0.00     0.067 H 
ATOM     56  H11 J3Y d   1     -27.337  -8.343   8.698  0.00  0.00     0.067 H 
ATOM     57  O22 J3Y d   1     -24.186  -6.291   6.910  0.00  0.00    -0.267 OA
ENDBRANCH   7  42
TORSDOF 7
