REMARK  4 active torsions:
REMARK  status: ('A' for Active; 'I' for Inactive)
REMARK    1  A    between atoms: C_13  and  C10_7 
REMARK    2  A    between atoms: C13_8  and  C16_15 
REMARK       I    between atoms: N_20  and  C_13 
REMARK    3  A    between atoms: C1_21  and  N_20 
REMARK    4  A    between atoms: C1_21  and  C2_22 
ROOT
ATOM      1  O   J0P d   1      25.040  47.760  53.258  0.00  0.00    -0.268 OA
ATOM      2  C   J0P d   1      25.780  46.856  52.944  0.00  0.00     0.251 C 
ATOM      3  N   J0P d   1      25.800  46.378  51.657  0.00  0.00    -0.353 N 
ATOM      4  H13 J0P d   1      26.483  45.687  51.418  0.00  0.00     0.163 HD
ENDROOT
BRANCH   2   5
ATOM      5  C10 J0P d   1      26.757  46.287  53.898  0.00  0.00     0.032 A 
ATOM      6  C15 J0P d   1      27.131  44.940  53.816  0.00  0.00    -0.067 A 
ATOM      7  C14 J0P d   1      28.153  44.449  54.643  0.00  0.00    -0.071 A 
ATOM      8  H5  J0P d   1      26.633  44.279  53.116  0.00  0.00     0.085 H 
ATOM      9  C13 J0P d   1      28.804  45.304  55.560  0.00  0.00    -0.026 A 
ATOM     10  H8  J0P d   1      28.445  43.407  54.578  0.00  0.00     0.084 H 
ATOM     11  C12 J0P d   1      28.367  46.633  55.653  0.00  0.00    -0.071 A 
ATOM     12  C11 J0P d   1      27.352  47.121  54.838  0.00  0.00    -0.067 A 
ATOM     13  H11 J0P d   1      28.831  47.294  56.376  0.00  0.00     0.084 H 
ATOM     14  H12 J0P d   1      27.025  48.150  54.935  0.00  0.00     0.085 H 
BRANCH   9  15
ATOM     15  C16 J0P d   1      29.914  44.821  56.406  0.00  0.00    -0.023 A 
ATOM     16  C17 J0P d   1      30.136  45.394  57.705  0.00  0.00    -0.055 A 
ATOM     17  C18 J0P d   1      31.191  44.887  58.488  0.00  0.00     0.003 A 
ATOM     18  H6  J0P d   1      29.507  46.197  58.073  0.00  0.00     0.087 H 
ATOM     19  N1  J0P d   1      32.022  43.871  58.087  0.00  0.00    -0.273 NA
ATOM     20  H10 J0P d   1      31.357  45.325  59.465  0.00  0.00     0.114 H 
ATOM     21  C19 J0P d   1      31.796  43.321  56.856  0.00  0.00     0.003 A 
ATOM     22  C20 J0P d   1      30.768  43.754  55.981  0.00  0.00    -0.055 A 
ATOM     23  H9  J0P d   1      32.438  42.510  56.531  0.00  0.00     0.114 H 
ATOM     24  H7  J0P d   1      30.632  43.288  55.012  0.00  0.00     0.087 H 
ENDBRANCH   9  15
ENDBRANCH   2   5
BRANCH   3  25
ATOM     25  C1  J0P d   1      24.875  46.827  50.620  0.00  0.00     0.022 C 
ATOM     26  H14 J0P d   1      23.988  47.257  51.109  0.00  0.00     0.071 H 
ATOM     27  H15 J0P d   1      24.576  45.954  50.021  0.00  0.00     0.071 H 
BRANCH  25  28
ATOM     28  C2  J0P d   1      25.450  47.856  49.699  0.00  0.00    -0.004 A 
ATOM     29  C7  J0P d   1      24.553  48.743  49.081  0.00  0.00     0.110 A 
ATOM     30  C6  J0P d   1      25.032  49.758  48.248  0.00  0.00     0.102 A 
ATOM     31  O1  J0P d   1      23.196  48.566  49.306  0.00  0.00    -0.346 OA
ATOM     32  C5  J0P d   1      26.432  49.944  48.048  0.00  0.00    -0.048 A 
ATOM     33  O2  J0P d   1      24.137  50.534  47.542  0.00  0.00    -0.346 OA
ATOM     34  C4  J0P d   1      27.318  49.031  48.647  0.00  0.00    -0.080 A 
ATOM     35  H2  J0P d   1      26.803  50.768  47.450  0.00  0.00     0.087 H 
ATOM     36  C3  J0P d   1      26.822  47.993  49.441  0.00  0.00    -0.072 A 
ATOM     37  H1  J0P d   1      28.386  49.132  48.493  0.00  0.00     0.083 H 
ATOM     38  H18 J0P d   1      27.515  47.276  49.868  0.00  0.00     0.084 H 
ATOM     39  C9  J0P d   1      22.923  50.771  48.247  0.00  0.00     0.046 C 
ATOM     40  C8  J0P d   1      22.273  49.435  48.645  0.00  0.00     0.046 C 
ATOM     41  H16 J0P d   1      23.137  51.356  49.154  0.00  0.00     0.078 H 
ATOM     42  H17 J0P d   1      22.232  51.334  47.602  0.00  0.00     0.078 H 
ATOM     43  H3  J0P d   1      21.430  49.638  49.321  0.00  0.00     0.078 H 
ATOM     44  H4  J0P d   1      21.903  48.936  47.737  0.00  0.00     0.078 H 
ENDBRANCH  25  28
ENDBRANCH   3  25
TORSDOF 4
