REMARK  6 active torsions:
REMARK  status: ('A' for Active; 'I' for Inactive)
REMARK    1  A    between atoms: N4_25  and  C5_1 
REMARK    2  A    between atoms: C14_15  and  C15_7 
REMARK    3  A    between atoms: C2_16  and  C21_8 
REMARK    4  A    between atoms: C2_16  and  C1_12 
REMARK    5  A    between atoms: C11_13  and  C12_14 
REMARK    6  A    between atoms: C2_16  and  N4_25 
ROOT
ATOM      1  C5  J4M d   1      20.305  -9.121  -6.488  0.00  0.00     0.144 A 
ATOM      2  C6  J4M d   1      20.828  -7.926  -5.960  0.00  0.00    -0.034 A 
ATOM      3  C7  J4M d   1      22.098  -7.549  -6.266  0.00  0.00    -0.033 A 
ATOM      4  C8  J4M d   1      22.874  -8.365  -7.111  0.00  0.00     0.151 A 
ATOM      5  C10 J4M d   1      24.394  -9.296  -8.347  0.00  0.00     0.035 A 
ATOM      6  C11 J4M d   1      23.285 -10.118  -8.387  0.00  0.00     0.106 A 
ATOM      7  N19 J4M d   1      22.332  -9.522  -7.607  0.00  0.00    -0.210 N 
ATOM      8  N20 J4M d   1      21.027  -9.882  -7.274  0.00  0.00    -0.148 NA
ATOM      9  N9  J4M d   1      24.116  -8.252  -7.572  0.00  0.00    -0.239 NA
ATOM     10  H1  J4M d   1      20.217  -7.304  -5.308  0.00  0.00     0.089 H 
ATOM     11  H2  J4M d   1      22.511  -6.626  -5.862  0.00  0.00     0.089 H 
ATOM     12  H3  J4M d   1      25.337  -9.473  -8.863  0.00  0.00     0.118 H 
ENDROOT
BRANCH   1  13
ATOM     13  N4  J4M d   1      19.003  -9.511  -6.177  0.00  0.00    -0.365 N 
ATOM     14  H16 J4M d   1      18.377  -8.864  -5.677  0.00  0.00     0.162 HD
BRANCH  13  15
ATOM     15  C2  J4M d   1      18.526 -10.846  -6.564  0.00  0.00     0.036 C 
ATOM     16  H13 J4M d   1      19.321 -11.581  -6.372  0.00  0.00     0.079 H 
BRANCH  15  17
ATOM     17  C21 J4M d   1      18.170 -10.872  -8.030  0.00  0.00     0.003 A 
ATOM     18  C22 J4M d   1      17.874  -9.700  -8.698  0.00  0.00    -0.069 A 
ATOM     19  C23 J4M d   1      17.547  -9.732 -10.040  0.00  0.00    -0.045 A 
ATOM     20  H8  J4M d   1      17.898  -8.754  -8.169  0.00  0.00     0.084 H 
ATOM     21  C24 J4M d   1      17.518 -10.939 -10.718  0.00  0.00     0.119 A 
ATOM     22  H14 J4M d   1      17.313  -8.812 -10.562  0.00  0.00     0.088 H 
ATOM     23  C26 J4M d   1      17.814 -12.115 -10.054  0.00  0.00    -0.008 A 
ATOM     24  F25 J4M d   1      17.199 -10.966 -12.031  0.00  0.00    -0.206 F 
ATOM     25  C27 J4M d   1      18.141 -12.079  -8.709  0.00  0.00     0.127 A 
ATOM     26  H9  J4M d   1      17.790 -13.060 -10.584  0.00  0.00     0.093 H 
ATOM     27  F28 J4M d   1      18.433 -13.226  -8.054  0.00  0.00    -0.205 F 
ENDBRANCH  15  17
BRANCH  15  28
ATOM     28  C1  J4M d   1      17.290 -11.211  -5.738  0.00  0.00    -0.053 C 
ATOM     29  H10 J4M d   1      17.546 -11.193  -4.668  0.00  0.00     0.030 H 
ATOM     30  H11 J4M d   1      16.947 -12.219  -6.016  0.00  0.00     0.030 H 
ATOM     31  H12 J4M d   1      16.489 -10.484  -5.936  0.00  0.00     0.030 H 
ENDBRANCH  15  28
ENDBRANCH  13  15
ENDBRANCH   1  13
BRANCH   6  32
ATOM     32  C12 J4M d   1      23.147 -11.384  -9.127  0.00  0.00     0.082 A 
ATOM     33  C13 J4M d   1      22.041 -12.207  -9.131  0.00  0.00    -0.028 A 
ATOM     34  C14 J4M d   1      22.330 -13.296  -9.952  0.00  0.00     0.053 A 
ATOM     35  H4  J4M d   1      21.111 -12.037  -8.591  0.00  0.00     0.090 H 
ATOM     36  N16 J4M d   1      23.540 -13.155 -10.428  0.00  0.00    -0.179 NA
ATOM     37  N17 J4M d   1      24.087 -11.969  -9.929  0.00  0.00    -0.276 N 
ATOM     38  H15 J4M d   1      25.028 -11.602 -10.130  0.00  0.00     0.189 HD
BRANCH  34  39
ATOM     39  C15 J4M d   1      21.399 -14.445 -10.247  0.00  0.00    -0.034 C 
ATOM     40  H5  J4M d   1      21.896 -15.155 -10.925  0.00  0.00     0.035 H 
ATOM     41  H6  J4M d   1      20.484 -14.063 -10.723  0.00  0.00     0.035 H 
ATOM     42  H7  J4M d   1      21.138 -14.956  -9.308  0.00  0.00     0.035 H 
ENDBRANCH  34  39
ENDBRANCH   6  32
TORSDOF 6
