REMARK  9 active torsions:
REMARK  status: ('A' for Active; 'I' for Inactive)
REMARK    1  A    between atoms: S02_35  and  C03_1 
REMARK    2  A    between atoms: N07_29  and  C08_4 
REMARK    3  A    between atoms: C17_11  and  C18_12 
REMARK    4  A    between atoms: C18_12  and  O19_33 
REMARK    5  A    between atoms: C20_13  and  C21_14 
REMARK    6  A    between atoms: C24_17  and  C25_18 
REMARK    7  A    between atoms: C26_19  and  C27_20 
REMARK    8  A    between atoms: C28_21  and  C29_22 
REMARK    9  A    between atoms: N09_30  and  S02_35 
ROOT
ATOM      1  C10 J22 d   1      97.280 -67.662 -30.335  0.00  0.00     0.033 C 
ATOM      2  C11 J22 d   1      96.252 -66.744 -31.120  0.00  0.00     0.129 A 
ATOM      3  C12 J22 d   1      98.432 -66.064 -28.755  0.00  0.00     0.005 C 
ATOM      4  C13 J22 d   1      97.848 -64.685 -29.207  0.00  0.00    -0.048 C 
ATOM      5  C14 J22 d   1      96.366 -64.433 -28.798  0.00  0.00    -0.041 C 
ATOM      6  C15 J22 d   1      95.492 -65.722 -28.914  0.00  0.00     0.085 C 
ATOM      7  C17 J22 d   1      94.065 -66.709 -31.043  0.00  0.00     0.134 A 
ATOM      8  C20 J22 d   1      95.131 -67.548 -31.817  0.00  0.00     0.030 A 
ATOM      9  N09 J22 d   1      98.572 -67.009 -29.896  0.00  0.00    -0.302 N 
ATOM     10  N16 J22 d   1      95.146 -65.994 -30.326  0.00  0.00    -0.058 N 
ATOM     11  H6  J22 d   1      97.539 -68.508 -30.989  0.00  0.00     0.068 H 
ATOM     12  H7  J22 d   1      96.772 -68.037 -29.434  0.00  0.00     0.068 H 
ATOM     13  H8  J22 d   1      96.821 -66.083 -31.791  0.00  0.00     0.088 H 
ATOM     14  H9  J22 d   1      97.758 -66.507 -28.007  0.00  0.00     0.065 H 
ATOM     15  H10 J22 d   1      99.422 -65.900 -28.305  0.00  0.00     0.065 H 
ATOM     16  H11 J22 d   1      97.914 -64.629 -30.304  0.00  0.00     0.035 H 
ATOM     17  H12 J22 d   1      98.465 -63.891 -28.762  0.00  0.00     0.035 H 
ATOM     18  H13 J22 d   1      95.944 -63.659 -29.456  0.00  0.00     0.035 H 
ATOM     19  H14 J22 d   1      96.341 -64.082 -27.756  0.00  0.00     0.035 H 
ATOM     20  H15 J22 d   1      94.567 -65.584 -28.336  0.00  0.00     0.076 H 
ATOM     21  H16 J22 d   1      96.054 -66.577 -28.509  0.00  0.00     0.076 H 
ATOM     22  H17 J22 d   1      93.451 -66.058 -31.683  0.00  0.00     0.089 H 
ATOM     23  H20 J22 d   1      95.137 -68.615 -31.549  0.00  0.00     0.054 H 
ATOM     24  H34 J22 d   1      95.083 -65.051 -30.677  0.00  0.00     0.281 HD
ENDROOT
BRANCH   8  25
ATOM     25  C21 J22 d   1      95.024 -67.431 -33.348  0.00  0.00    -0.050 A 
ATOM     26  C22 J22 d   1      94.780 -68.596 -34.087  0.00  0.00    -0.076 A 
ATOM     27  C23 J22 d   1      94.658 -68.539 -35.485  0.00  0.00    -0.072 A 
ATOM     28  H21 J22 d   1      94.685 -69.547 -33.577  0.00  0.00     0.084 H 
ATOM     29  C24 J22 d   1      94.769 -67.323 -36.201  0.00  0.00    -0.025 A 
ATOM     30  H22 J22 d   1      94.473 -69.456 -36.033  0.00  0.00     0.084 H 
ATOM     31  C33 J22 d   1      95.006 -66.140 -35.445  0.00  0.00    -0.072 A 
ATOM     32  C34 J22 d   1      95.128 -66.195 -34.031  0.00  0.00    -0.076 A 
ATOM     33  H32 J22 d   1      95.094 -65.187 -35.954  0.00  0.00     0.084 H 
ATOM     34  H33 J22 d   1      95.302 -65.284 -33.470  0.00  0.00     0.084 H 
BRANCH  29  35
ATOM     35  C25 J22 d   1      94.624 -67.352 -37.626  0.00  0.00    -0.019 A 
ATOM     36  C26 J22 d   1      93.386 -67.082 -38.277  0.00  0.00    -0.045 A 
ATOM     37  C28 J22 d   1      93.295 -67.154 -39.679  0.00  0.00    -0.055 A 
ATOM     38  C30 J22 d   1      94.436 -67.513 -40.442  0.00  0.00    -0.077 A 
ATOM     39  C31 J22 d   1      95.680 -67.803 -39.813  0.00  0.00    -0.082 A 
ATOM     40  H29 J22 d   1      94.359 -67.567 -41.522  0.00  0.00     0.084 H 
ATOM     41  C32 J22 d   1      95.757 -67.726 -38.406  0.00  0.00    -0.072 A 
ATOM     42  H30 J22 d   1      96.548 -68.077 -40.401  0.00  0.00     0.083 H 
ATOM     43  H31 J22 d   1      96.693 -67.955 -37.910  0.00  0.00     0.084 H 
BRANCH  36  44
ATOM     44  C27 J22 d   1      92.172 -66.692 -37.441  0.00  0.00    -0.050 C 
ATOM     45  H23 J22 d   1      92.445 -66.693 -36.375  0.00  0.00     0.033 H 
ATOM     46  H24 J22 d   1      91.361 -67.415 -37.612  0.00  0.00     0.033 H 
ATOM     47  H25 J22 d   1      91.834 -65.686 -37.732  0.00  0.00     0.033 H 
ENDBRANCH  36  44
BRANCH  37  48
ATOM     48  C29 J22 d   1      91.987 -66.852 -40.365  0.00  0.00    -0.051 C 
ATOM     49  H26 J22 d   1      92.110 -66.960 -41.453  0.00  0.00     0.033 H 
ATOM     50  H27 J22 d   1      91.679 -65.822 -40.131  0.00  0.00     0.033 H 
ATOM     51  H28 J22 d   1      91.217 -67.554 -40.012  0.00  0.00     0.033 H 
ENDBRANCH  37  48
ENDBRANCH  29  35
ENDBRANCH   8  25
BRANCH   7  52
ATOM     52  C18 J22 d   1      93.141 -67.566 -30.149  0.00  0.00     0.044 C 
ATOM     53  H18 J22 d   1      92.181 -67.053 -29.989  0.00  0.00     0.077 H 
ATOM     54  H19 J22 d   1      93.620 -67.757 -29.178  0.00  0.00     0.077 H 
BRANCH  52  55
ATOM     55  O19 J22 d   1      92.930 -68.830 -30.872  0.00  0.00    -0.399 OA
ATOM     56  H35 J22 d   1      92.364 -69.396 -30.360  0.00  0.00     0.209 HD
ENDBRANCH  52  55
ENDBRANCH   7  52
BRANCH   9  57
ATOM     57  S02 J22 d   1     100.054 -67.566 -30.348  0.00  0.00     0.295 S 
ATOM     58  O01 J22 d   1     100.243 -67.499 -31.793  0.00  0.00    -0.197 OA
ATOM     59  O35 J22 d   1     101.122 -66.752 -29.824  0.00  0.00    -0.197 OA
BRANCH  57  60
ATOM     60  C03 J22 d   1     100.266 -69.272 -29.756  0.00  0.00     0.247 A 
ATOM     61  N04 J22 d   1      99.332 -69.985 -29.066  0.00  0.00    -0.230 NA
ATOM     62  C05 J22 d   1      99.862 -71.258 -28.786  0.00  0.00     0.020 A 
ATOM     63  C06 J22 d   1     101.166 -71.298 -29.341  0.00  0.00    -0.002 A 
ATOM     64  H1  J22 d   1      99.364 -72.061 -28.245  0.00  0.00     0.117 H 
ATOM     65  N07 J22 d   1     101.367 -70.062 -29.922  0.00  0.00    -0.334 N 
ATOM     66  H2  J22 d   1     101.865 -72.132 -29.314  0.00  0.00     0.113 H 
BRANCH  65  67
ATOM     67  C08 J22 d   1     102.614 -69.653 -30.634  0.00  0.00    -0.012 C 
ATOM     68  H3  J22 d   1     102.507 -68.621 -30.998  0.00  0.00     0.057 H 
ATOM     69  H4  J22 d   1     102.787 -70.326 -31.486  0.00  0.00     0.057 H 
ATOM     70  H5  J22 d   1     103.467 -69.711 -29.942  0.00  0.00     0.057 H 
ENDBRANCH  65  67
ENDBRANCH  57  60
ENDBRANCH   9  57
TORSDOF 9
