REMARK  6 active torsions:
REMARK  status: ('A' for Active; 'I' for Inactive)
REMARK    1  A    between atoms: CBB_6  and  CAU_7 
REMARK       I    between atoms: CAU_7  and  N_9 
REMARK    2  A    between atoms: N_9  and  CA_10 
REMARK    3  A    between atoms: CA_10  and  C_11 
REMARK    4  A    between atoms: CA_10  and  CAZ_15 
REMARK       I    between atoms: C_11  and  NAR_13 
REMARK    5  A    between atoms: NAR_13  and  OAC_14 
REMARK    6  A    between atoms: CAX_20  and  CAY_21 
ROOT
ATOM      1  CA  J1V d   1     174.623  15.089  83.865  0.00  0.00     0.117 C 
ATOM      2  H13 J1V d   1     174.698  14.570  82.898  0.00  0.00     0.095 H 
ENDROOT
BRANCH   1   3
ATOM      3  N   J1V d   1     175.902  15.755  84.083  0.00  0.00    -0.343 N 
ATOM      4  CAU J1V d   1     176.607  16.496  83.225  0.00  0.00     0.222 C 
ATOM      5  OAB J1V d   1     176.252  16.833  82.101  0.00  0.00    -0.273 OA
ATOM      6  H12 J1V d   1     176.303  15.642  84.992  0.00  0.00     0.163 HD
BRANCH   4   7
ATOM      7  CBB J1V d   1     178.025  16.724  83.759  0.00  0.00     0.024 C 
ATOM      8  CAP J1V d   1     178.053  16.601  85.264  0.00  0.00    -0.054 C 
ATOM      9  CAN J1V d   1     179.496  16.308  85.647  0.00  0.00    -0.064 C 
ATOM     10  H1  J1V d   1     177.720  17.541  85.728  0.00  0.00     0.034 H 
ATOM     11  H2  J1V d   1     177.399  15.779  85.590  0.00  0.00     0.034 H 
ATOM     12  CAM J1V d   1     180.407  17.451  85.178  0.00  0.00    -0.065 C 
ATOM     13  H3  J1V d   1     179.816  15.369  85.171  0.00  0.00     0.033 H 
ATOM     14  H4  J1V d   1     179.570  16.209  86.740  0.00  0.00     0.033 H 
ATOM     15  CAO J1V d   1     180.242  17.708  83.659  0.00  0.00    -0.064 C 
ATOM     16  H5  J1V d   1     181.454  17.184  85.386  0.00  0.00     0.033 H 
ATOM     17  H6  J1V d   1     180.146  18.367  85.728  0.00  0.00     0.033 H 
ATOM     18  CAQ J1V d   1     178.749  17.966  83.312  0.00  0.00    -0.054 C 
ATOM     19  H7  J1V d   1     180.597  16.828  83.102  0.00  0.00     0.033 H 
ATOM     20  H8  J1V d   1     180.838  18.588  83.373  0.00  0.00     0.033 H 
ATOM     21  H9  J1V d   1     178.624  18.118  82.230  0.00  0.00     0.034 H 
ATOM     22  H10 J1V d   1     178.373  18.848  83.852  0.00  0.00     0.034 H 
ATOM     23  H11 J1V d   1     178.619  15.887  83.365  0.00  0.00     0.054 H 
ENDBRANCH   4   7
ENDBRANCH   1   3
BRANCH   1  24
ATOM     24  C   J1V d   1     174.563  14.044  84.977  0.00  0.00     0.268 C 
ATOM     25  O   J1V d   1     174.468  14.422  86.152  0.00  0.00    -0.269 OA
ATOM     26  NAR J1V d   1     174.739  12.775  84.511  0.00  0.00    -0.235 N 
ATOM     27  H14 J1V d   1     174.912  12.642  83.535  0.00  0.00     0.197 HD
BRANCH  26  28
ATOM     28  OAC J1V d   1     174.682  11.529  85.434  0.00  0.00    -0.287 OA
ATOM     29  H15 J1V d   1     175.354  11.600  86.101  0.00  0.00     0.244 HD
ENDBRANCH  26  28
ENDBRANCH   1  24
BRANCH   1  30
ATOM     30  CAZ J1V d   1     173.440  15.826  83.797  0.00  0.00    -0.026 A 
ATOM     31  CAJ J1V d   1     172.391  15.216  83.110  0.00  0.00    -0.074 A 
ATOM     32  CAH J1V d   1     171.162  15.846  82.978  0.00  0.00    -0.072 A 
ATOM     33  H16 J1V d   1     172.538  14.235  82.673  0.00  0.00     0.084 H 
ATOM     34  CAX J1V d   1     170.984  17.098  83.550  0.00  0.00    -0.026 A 
ATOM     35  H17 J1V d   1     170.354  15.368  82.437  0.00  0.00     0.084 H 
ATOM     36  CAG J1V d   1     172.034  17.719  84.232  0.00  0.00    -0.072 A 
ATOM     37  CAI J1V d   1     173.271  17.083  84.369  0.00  0.00    -0.074 A 
ATOM     38  H19 J1V d   1     171.887  18.704  84.659  0.00  0.00     0.084 H 
ATOM     39  H18 J1V d   1     174.081  17.559  84.909  0.00  0.00     0.084 H 
BRANCH  34  40
ATOM     40  CAY J1V d   1     169.763  17.748  83.398  0.00  0.00    -0.020 A 
ATOM     41  CAK J1V d   1     168.912  17.352  82.371  0.00  0.00    -0.032 A 
ATOM     42  CAV J1V d   1     167.702  18.005  82.180  0.00  0.00     0.158 A 
ATOM     43  H20 J1V d   1     169.194  16.533  81.719  0.00  0.00     0.089 H 
ATOM     44  FAD J1V d   1     166.866  17.631  81.200  0.00  0.00    -0.203 F 
ATOM     45  CBA J1V d   1     167.342  19.056  83.008  0.00  0.00     0.193 A 
ATOM     46  FAF J1V d   1     166.196  19.695  82.840  0.00  0.00    -0.200 F 
ATOM     47  CAW J1V d   1     168.186  19.458  84.026  0.00  0.00     0.158 A 
ATOM     48  FAE J1V d   1     167.783  20.496  84.810  0.00  0.00    -0.203 F 
ATOM     49  CAL J1V d   1     169.409  18.811  84.224  0.00  0.00    -0.032 A 
ATOM     50  H21 J1V d   1     170.077  19.134  85.014  0.00  0.00     0.089 H 
ENDBRANCH  34  40
ENDBRANCH   1  30
TORSDOF 6
