REMARK  5 active torsions:
REMARK  status: ('A' for Active; 'I' for Inactive)
REMARK    1  A    between atoms: CAW_10  and  CAV_11 
REMARK       I    between atoms: CAV_11  and  N_13 
REMARK    2  A    between atoms: N_13  and  CA_14 
REMARK    3  A    between atoms: CA_14  and  C_15 
REMARK    4  A    between atoms: CA_14  and  CAC_19 
REMARK       I    between atoms: C_15  and  NAS_17 
REMARK    5  A    between atoms: CAF_24  and  CAG_25 
ROOT
ATOM      1  CAV J4V d   1      91.511 118.107  12.348  0.00  0.00     0.223 C 
ATOM      2  OAX J4V d   1      92.374 118.974  12.217  0.00  0.00    -0.273 OA
ATOM      3  N   J4V d   1      90.216 118.370  12.448  0.00  0.00    -0.343 N 
ATOM      4  H16 J4V d   1      89.575 117.604  12.485  0.00  0.00     0.163 HD
ENDROOT
BRANCH   3   5
ATOM      5  CA  J4V d   1      89.683 119.728  12.506  0.00  0.00     0.119 C 
ATOM      6  H17 J4V d   1      90.526 120.425  12.391  0.00  0.00     0.095 H 
BRANCH   5   7
ATOM      7  C   J4V d   1      88.770 119.996  11.329  0.00  0.00     0.296 C 
ATOM      8  O   J4V d   1      87.935 119.181  10.944  0.00  0.00    -0.266 OA
ATOM      9  NAS J4V d   1      89.048 121.138  10.730  0.00  0.00    -0.057 NA
ATOM     10  OAT J4V d   1      88.321 121.456   9.680  0.00  0.00    -0.058 OA
ENDBRANCH   5   7
BRANCH   5  11
ATOM     11  CAC J4V d   1      89.172 119.934  13.825  0.00  0.00    -0.026 A 
ATOM     12  CAD J4V d   1      88.922 121.224  14.279  0.00  0.00    -0.074 A 
ATOM     13  CAE J4V d   1      88.493 121.444  15.593  0.00  0.00    -0.072 A 
ATOM     14  H18 J4V d   1      89.060 122.066  13.610  0.00  0.00     0.084 H 
ATOM     15  CAF J4V d   1      88.319 120.363  16.464  0.00  0.00    -0.026 A 
ATOM     16  H19 J4V d   1      88.295 122.453  15.936  0.00  0.00     0.084 H 
ATOM     17  CAA J4V d   1      88.594 119.054  16.027  0.00  0.00    -0.072 A 
ATOM     18  CAB J4V d   1      89.013 118.854  14.706  0.00  0.00    -0.074 A 
ATOM     19  H21 J4V d   1      88.483 118.213  16.703  0.00  0.00     0.084 H 
ATOM     20  H20 J4V d   1      89.218 117.848  14.358  0.00  0.00     0.084 H 
BRANCH  15  21
ATOM     21  CAG J4V d   1      87.972 120.606  17.798  0.00  0.00    -0.020 A 
ATOM     22  CAH J4V d   1      86.891 120.064  18.458  0.00  0.00    -0.032 A 
ATOM     23  CAI J4V d   1      86.729 120.369  19.821  0.00  0.00     0.158 A 
ATOM     24  H22 J4V d   1      86.186 119.422  17.942  0.00  0.00     0.089 H 
ATOM     25  FAO J4V d   1      85.672 119.900  20.481  0.00  0.00    -0.203 F 
ATOM     26  CAJ J4V d   1      87.635 121.163  20.508  0.00  0.00     0.193 A 
ATOM     27  FAN J4V d   1      87.469 121.446  21.839  0.00  0.00    -0.200 F 
ATOM     28  CAK J4V d   1      88.737 121.666  19.863  0.00  0.00     0.158 A 
ATOM     29  FAM J4V d   1      89.585 122.406  20.554  0.00  0.00    -0.203 F 
ATOM     30  CAL J4V d   1      88.903 121.388  18.510  0.00  0.00    -0.032 A 
ATOM     31  H23 J4V d   1      89.769 121.782  17.991  0.00  0.00     0.089 H 
ENDBRANCH  15  21
ENDBRANCH   5  11
ENDBRANCH   3   5
BRANCH   1  32
ATOM     32  CAW J4V d   1      91.787 116.570  12.393  0.00  0.00     0.030 C 
ATOM     33  CAZ J4V d   1      91.914 116.032  10.964  0.00  0.00    -0.041 C 
ATOM     34  CBA J4V d   1      93.225 116.584  10.367  0.00  0.00    -0.058 C 
ATOM     35  CBF J4V d   1      91.988 114.480  11.024  0.00  0.00    -0.058 C 
ATOM     36  H3  J4V d   1      91.054 116.348  10.355  0.00  0.00     0.041 H 
ATOM     37  CBE J4V d   1      94.089 116.002  11.310  0.00  0.00    -0.053 C 
ATOM     38  H1  J4V d   1      93.265 117.683  10.379  0.00  0.00     0.034 H 
ATOM     39  H2  J4V d   1      93.409 116.222   9.345  0.00  0.00     0.034 H 
ATOM     40  CBD J4V d   1      94.480 114.640  11.136  0.00  0.00    -0.058 C 
ATOM     41  CBG J4V d   1      94.316 116.669  12.563  0.00  0.00    -0.058 C 
ATOM     42  H11 J4V d   1      95.001 116.404  10.844  0.00  0.00     0.040 H 
ATOM     43  CBC J4V d   1      93.239 114.036  11.813  0.00  0.00    -0.053 C 
ATOM     44  H9  J4V d   1      94.569 114.354  10.078  0.00  0.00     0.034 H 
ATOM     45  H10 J4V d   1      95.414 114.394  11.662  0.00  0.00     0.034 H 
ATOM     46  CBB J4V d   1      93.138 114.572  13.270  0.00  0.00    -0.058 C 
ATOM     47  H6  J4V d   1      93.311 112.938  11.821  0.00  0.00     0.040 H 
ATOM     48  CAY J4V d   1      93.054 116.148  13.237  0.00  0.00    -0.041 C 
ATOM     49  H7  J4V d   1      94.027 114.263  13.839  0.00  0.00     0.034 H 
ATOM     50  H8  J4V d   1      92.236 114.165  13.750  0.00  0.00     0.034 H 
ATOM     51  H14 J4V d   1      92.976 116.549  14.258  0.00  0.00     0.041 H 
ATOM     52  H12 J4V d   1      94.328 117.765  12.467  0.00  0.00     0.034 H 
ATOM     53  H13 J4V d   1      95.237 116.335  13.064  0.00  0.00     0.034 H 
ATOM     54  H4  J4V d   1      92.042 114.079  10.001  0.00  0.00     0.034 H 
ATOM     55  H5  J4V d   1      91.087 114.092  11.523  0.00  0.00     0.034 H 
ATOM     56  H15 J4V d   1      90.912 116.096  12.862  0.00  0.00     0.055 H 
ENDBRANCH   1  32
TORSDOF 5
