REMARK  7 active torsions:
REMARK  status: ('A' for Active; 'I' for Inactive)
REMARK    1  A    between atoms: CA_2  and  N_1 
REMARK       I    between atoms: N_1  and  CAS_17 
REMARK    2  A    between atoms: CA_2  and  C_3 
REMARK    3  A    between atoms: CAC_7  and  CA_2 
REMARK       I    between atoms: C_3  and  NAW_25 
REMARK    4  A    between atoms: CAF_10  and  CAG_11 
REMARK    5  A    between atoms: CAS_17  and  CAT_18 
REMARK    6  A    between atoms: CAT_18  and  CAV_19 
REMARK    7  A    between atoms: NAW_25  and  OAX_27 
ROOT
ATOM      1  CA  J4S d   1     -14.640  10.924 -12.391  0.00  0.00     0.117 C 
ATOM      2  H2  J4S d   1     -15.515  11.582 -12.289  0.00  0.00     0.095 H 
ENDROOT
BRANCH   1   3
ATOM      3  N   J4S d   1     -15.148   9.542 -12.308  0.00  0.00    -0.344 N 
ATOM      4  CAS J4S d   1     -16.460   9.293 -12.361  0.00  0.00     0.218 C 
ATOM      5  OAU J4S d   1     -17.323  10.183 -12.374  0.00  0.00    -0.274 OA
ATOM      6  H1  J4S d   1     -14.504   8.783 -12.211  0.00  0.00     0.163 HD
BRANCH   4   7
ATOM      7  CAT J4S d   1     -16.826   7.792 -12.357  0.00  0.00     0.013 C 
ATOM      8  H9  J4S d   1     -17.567   7.598 -13.147  0.00  0.00     0.047 H 
ATOM      9  H10 J4S d   1     -17.255   7.527 -11.379  0.00  0.00     0.047 H 
BRANCH   7  10
ATOM     10  CAV J4S d   1     -15.571   6.924 -12.613  0.00  0.00    -0.046 A 
ATOM     11  CAZ J4S d   1     -15.197   6.675 -14.075  0.00  0.00    -0.061 A 
ATOM     12  CBA J4S d   1     -15.776   5.547 -13.243  0.00  0.00    -0.061 A 
ATOM     13  H12 J4S d   1     -14.139   6.649 -14.375  0.00  0.00     0.033 H 
ATOM     14  H13 J4S d   1     -15.795   7.127 -14.880  0.00  0.00     0.033 H 
ATOM     15  H14 J4S d   1     -16.794   5.182 -13.445  0.00  0.00     0.033 H 
ATOM     16  H15 J4S d   1     -15.137   4.704 -12.940  0.00  0.00     0.033 H 
ATOM     17  H11 J4S d   1     -14.806   7.092 -11.841  0.00  0.00     0.040 H 
ENDBRANCH   7  10
ENDBRANCH   4   7
ENDBRANCH   1   3
BRANCH   1  18
ATOM     18  C   J4S d   1     -13.746  11.282 -11.207  0.00  0.00     0.268 C 
ATOM     19  O   J4S d   1     -12.859  10.536 -10.774  0.00  0.00    -0.269 OA
ATOM     20  NAW J4S d   1     -14.059  12.446 -10.652  0.00  0.00    -0.235 N 
ATOM     21  H16 J4S d   1     -14.804  13.025 -10.985  0.00  0.00     0.197 HD
BRANCH  20  22
ATOM     22  OAX J4S d   1     -13.257  12.791  -9.563  0.00  0.00    -0.287 OA
ATOM     23  H17 J4S d   1     -13.537  13.631  -9.219  0.00  0.00     0.244 HD
ENDBRANCH  20  22
ENDBRANCH   1  18
BRANCH   1  24
ATOM     24  CAC J4S d   1     -14.137  11.171 -13.707  0.00  0.00    -0.026 A 
ATOM     25  CAB J4S d   1     -13.962  10.130 -14.629  0.00  0.00    -0.074 A 
ATOM     26  CAA J4S d   1     -13.543  10.388 -15.945  0.00  0.00    -0.072 A 
ATOM     27  H4  J4S d   1     -14.153   9.108 -14.322  0.00  0.00     0.084 H 
ATOM     28  CAF J4S d   1     -13.282  11.704 -16.355  0.00  0.00    -0.026 A 
ATOM     29  H3  J4S d   1     -13.421   9.569 -16.645  0.00  0.00     0.084 H 
ATOM     30  CAE J4S d   1     -13.477  12.744 -15.449  0.00  0.00    -0.072 A 
ATOM     31  CAD J4S d   1     -13.894  12.472 -14.132  0.00  0.00    -0.074 A 
ATOM     32  H6  J4S d   1     -13.307  13.768 -15.760  0.00  0.00     0.084 H 
ATOM     33  H5  J4S d   1     -14.028  13.293 -13.436  0.00  0.00     0.084 H 
BRANCH  28  34
ATOM     34  CAG J4S d   1     -12.941  11.957 -17.694  0.00  0.00    -0.020 A 
ATOM     35  CAH J4S d   1     -13.883  12.719 -18.409  0.00  0.00    -0.032 A 
ATOM     36  CAI J4S d   1     -13.694  13.005 -19.765  0.00  0.00     0.158 A 
ATOM     37  H7  J4S d   1     -14.767  13.089 -17.902  0.00  0.00     0.089 H 
ATOM     38  CAJ J4S d   1     -12.578  12.507 -20.407  0.00  0.00     0.193 A 
ATOM     39  FAO J4S d   1     -14.586  13.758 -20.483  0.00  0.00    -0.203 F 
ATOM     40  CAK J4S d   1     -11.665  11.729 -19.716  0.00  0.00     0.158 A 
ATOM     41  FAN J4S d   1     -12.377  12.771 -21.730  0.00  0.00    -0.200 F 
ATOM     42  CAL J4S d   1     -11.842  11.430 -18.364  0.00  0.00    -0.032 A 
ATOM     43  FAM J4S d   1     -10.601  11.281 -20.365  0.00  0.00    -0.203 F 
ATOM     44  H8  J4S d   1     -11.133  10.796 -17.844  0.00  0.00     0.089 H 
ENDBRANCH  28  34
ENDBRANCH   1  24
TORSDOF 7
