REMARK  7 active torsions:
REMARK  status: ('A' for Active; 'I' for Inactive)
REMARK    1  A    between atoms: CA_2  and  N_1 
REMARK       I    between atoms: N_1  and  CAT_16 
REMARK    2  A    between atoms: CA_2  and  C_3 
REMARK    3  A    between atoms: CAZ_21  and  CA_2 
REMARK       I    between atoms: C_3  and  NAR_27 
REMARK    4  A    between atoms: CAT_16  and  CAQ_15 
REMARK    5  A    between atoms: CAQ_15  and  CBB_23 
REMARK    6  A    between atoms: CAX_19  and  CAY_20 
REMARK    7  A    between atoms: NAR_27  and  OAC_29 
ROOT
ATOM      1  CA  J4P d   1     165.772 228.147  12.331  0.00  0.00     0.117 C 
ATOM      2  H2  J4P d   1     166.579 228.892  12.275  0.00  0.00     0.095 H 
ENDROOT
BRANCH   1   3
ATOM      3  N   J4P d   1     166.398 226.844  11.988  0.00  0.00    -0.344 N 
ATOM      4  CAT J4P d   1     167.732 226.722  11.878  0.00  0.00     0.218 C 
ATOM      5  OAA J4P d   1     168.534 227.621  12.135  0.00  0.00    -0.274 OA
ATOM      6  H1  J4P d   1     165.817 226.044  11.836  0.00  0.00     0.163 HD
BRANCH   4   7
ATOM      7  CAQ J4P d   1     168.228 225.387  11.314  0.00  0.00     0.013 C 
ATOM      8  H17 J4P d   1     167.383 224.699  11.165  0.00  0.00     0.047 H 
ATOM      9  H18 J4P d   1     168.956 224.930  12.001  0.00  0.00     0.047 H 
BRANCH   7  10
ATOM     10  CBB J4P d   1     168.902 225.712   9.954  0.00  0.00    -0.046 C 
ATOM     11  CAO J4P d   1     167.914 226.384   8.984  0.00  0.00    -0.061 C 
ATOM     12  CAM J4P d   1     168.596 226.236   7.621  0.00  0.00    -0.065 C 
ATOM     13  H13 J4P d   1     166.941 225.870   8.995  0.00  0.00     0.033 H 
ATOM     14  H14 J4P d   1     167.772 227.444   9.240  0.00  0.00     0.033 H 
ATOM     15  CAN J4P d   1     169.654 225.134   7.845  0.00  0.00    -0.065 C 
ATOM     16  H9  J4P d   1     167.870 225.930   6.853  0.00  0.00     0.033 H 
ATOM     17  H10 J4P d   1     169.073 227.180   7.319  0.00  0.00     0.033 H 
ATOM     18  CAP J4P d   1     169.224 224.473   9.153  0.00  0.00    -0.061 C 
ATOM     19  H11 J4P d   1     170.660 225.570   7.939  0.00  0.00     0.033 H 
ATOM     20  H12 J4P d   1     169.645 224.409   7.018  0.00  0.00     0.033 H 
ATOM     21  H15 J4P d   1     170.039 223.889   9.607  0.00  0.00     0.033 H 
ATOM     22  H16 J4P d   1     168.342 223.829   9.019  0.00  0.00     0.033 H 
ATOM     23  H19 J4P d   1     169.796 226.330  10.127  0.00  0.00     0.040 H 
ENDBRANCH   7  10
ENDBRANCH   4   7
ENDBRANCH   1   3
BRANCH   1  24
ATOM     24  C   J4P d   1     164.813 228.485  11.196  0.00  0.00     0.268 C 
ATOM     25  O   J4P d   1     163.946 227.691  10.827  0.00  0.00    -0.269 OA
ATOM     26  NAR J4P d   1     165.084 229.646  10.580  0.00  0.00    -0.235 N 
ATOM     27  H20 J4P d   1     165.852 230.226  10.852  0.00  0.00     0.197 HD
BRANCH  26  28
ATOM     28  OAC J4P d   1     164.249 229.983   9.563  0.00  0.00    -0.287 OA
ATOM     29  H21 J4P d   1     164.521 230.815   9.194  0.00  0.00     0.244 HD
ENDBRANCH  26  28
ENDBRANCH   1  24
BRANCH   1  30
ATOM     30  CAZ J4P d   1     165.266 228.288  13.652  0.00  0.00    -0.026 A 
ATOM     31  CAI J4P d   1     165.020 229.582  14.099  0.00  0.00    -0.074 A 
ATOM     32  CAG J4P d   1     164.584 229.846  15.398  0.00  0.00    -0.072 A 
ATOM     33  H5  J4P d   1     165.172 230.411  13.417  0.00  0.00     0.084 H 
ATOM     34  CAX J4P d   1     164.356 228.796  16.284  0.00  0.00    -0.026 A 
ATOM     35  H3  J4P d   1     164.423 230.869  15.718  0.00  0.00     0.084 H 
ATOM     36  CAH J4P d   1     164.618 227.490  15.846  0.00  0.00    -0.072 A 
ATOM     37  CAJ J4P d   1     165.063 227.232  14.538  0.00  0.00    -0.074 A 
ATOM     38  H4  J4P d   1     164.474 226.662  16.531  0.00  0.00     0.084 H 
ATOM     39  H6  J4P d   1     165.248 226.213  14.219  0.00  0.00     0.084 H 
BRANCH  34  40
ATOM     40  CAY J4P d   1     163.993 229.044  17.617  0.00  0.00    -0.020 A 
ATOM     41  CAK J4P d   1     164.895 229.839  18.349  0.00  0.00    -0.032 A 
ATOM     42  CAV J4P d   1     164.684 230.124  19.701  0.00  0.00     0.158 A 
ATOM     43  H7  J4P d   1     165.772 230.239  17.853  0.00  0.00     0.089 H 
ATOM     44  CBA J4P d   1     163.578 229.605  20.334  0.00  0.00     0.193 A 
ATOM     45  FAD J4P d   1     165.553 230.921  20.460  0.00  0.00    -0.203 F 
ATOM     46  CAW J4P d   1     162.701 228.789  19.633  0.00  0.00     0.158 A 
ATOM     47  FAF J4P d   1     163.353 229.853  21.656  0.00  0.00    -0.200 F 
ATOM     48  CAL J4P d   1     162.909 228.483  18.283  0.00  0.00    -0.032 A 
ATOM     49  FAE J4P d   1     161.673 228.324  20.268  0.00  0.00    -0.203 F 
ATOM     50  H8  J4P d   1     162.232 227.816  17.762  0.00  0.00     0.089 H 
ENDBRANCH  34  40
ENDBRANCH   1  30
TORSDOF 7
