REMARK  7 active torsions:
REMARK  status: ('A' for Active; 'I' for Inactive)
REMARK    1  A    between atoms: C15_2  and  C25_25 
REMARK    2  A    between atoms: C02_5  and  N22_22 
REMARK    3  A    between atoms: C03_6  and  O07_10 
REMARK    4  A    between atoms: N08_11  and  C04_7 
REMARK    5  A    between atoms: C06_9  and  S18_18 
REMARK       I    between atoms: C09_12  and  N08_11 
REMARK       I    between atoms: N10_13  and  C09_12 
REMARK    6  A    between atoms: N10_13  and  C12_15 
REMARK    7  A    between atoms: S18_18  and  N21_21 
ROOT
ATOM      1  N08 J3V d   1      -3.288   4.553  12.528  0.00  0.00    -0.306 N 
ATOM      2  C09 J3V d   1      -4.124   5.550  11.916  0.00  0.00     0.325 C 
ATOM      3  N10 J3V d   1      -3.404   6.739  11.509  0.00  0.00    -0.309 N 
ATOM      4  O11 J3V d   1      -5.286   5.384  11.761  0.00  0.00    -0.247 OA
ATOM      5  H6  J3V d   1      -2.322   4.769  12.668  0.00  0.00     0.171 HD
ATOM      6  H7  J3V d   1      -2.411   6.716  11.626  0.00  0.00     0.170 HD
ENDROOT
BRANCH   1   7
ATOM      7  C04 J3V d   1      -3.761   3.268  12.948  0.00  0.00     0.073 A 
ATOM      8  C03 J3V d   1      -3.750   2.316  11.957  0.00  0.00     0.126 A 
ATOM      9  C02 J3V d   1      -4.156   1.035  12.243  0.00  0.00     0.139 A 
ATOM     10  C01 J3V d   1      -4.558   0.713  13.524  0.00  0.00    -0.025 A 
ATOM     11  C06 J3V d   1      -4.556   1.688  14.515  0.00  0.00     0.084 A 
ATOM     12  H3  J3V d   1      -4.874  -0.297  13.756  0.00  0.00     0.089 H 
ATOM     13  C05 J3V d   1      -4.154   2.984  14.248  0.00  0.00    -0.032 A 
ATOM     14  H4  J3V d   1      -4.146   3.744  15.020  0.00  0.00     0.089 H 
BRANCH   8  15
ATOM     15  O07 J3V d   1      -3.324   2.699  10.676  0.00  0.00    -0.356 OA
ATOM     16  H5  J3V d   1      -3.366   1.950  10.093  0.00  0.00     0.218 HD
ENDBRANCH   8  15
BRANCH   9  17
ATOM     17  N22 J3V d   1      -4.175   0.023  11.218  0.00  0.00    -0.113 N 
ATOM     18  O23 J3V d   1      -4.053  -1.106  11.523  0.00  0.00    -0.532 OA
ATOM     19  O24 J3V d   1      -4.379   0.399   9.886  0.00  0.00    -0.532 OA
ENDBRANCH   9  17
BRANCH  11  20
ATOM     20  S18 J3V d   1      -5.102   1.177  16.165  0.00  0.00     0.256 S 
ATOM     21  O19 J3V d   1      -4.208   1.687  17.203  0.00  0.00    -0.201 OA
ATOM     22  O20 J3V d   1      -6.437   1.677  16.474  0.00  0.00    -0.201 OA
BRANCH  20  23
ATOM     23  N21 J3V d   1      -5.034  -0.488  16.192  0.00  0.00    -0.324 N 
ATOM     24  H10 J3V d   1      -5.296  -0.986  17.019  0.00  0.00     0.169 HD
ATOM     25  H11 J3V d   1      -4.731  -0.989  15.382  0.00  0.00     0.169 HD
ENDBRANCH  20  23
ENDBRANCH  11  20
ENDBRANCH   1   7
BRANCH   3  26
ATOM     26  C12 J3V d   1      -3.954   7.954  10.953  0.00  0.00     0.036 A 
ATOM     27  C13 J3V d   1      -3.126   9.062  11.021  0.00  0.00    -0.056 A 
ATOM     28  C14 J3V d   1      -3.552  10.284  10.548  0.00  0.00    -0.066 A 
ATOM     29  H1  J3V d   1      -2.135   8.967  11.450  0.00  0.00     0.086 H 
ATOM     30  C15 J3V d   1      -4.824  10.394  10.023  0.00  0.00     0.048 A 
ATOM     31  H8  J3V d   1      -2.897  11.147  10.588  0.00  0.00     0.084 H 
ATOM     32  C16 J3V d   1      -5.668   9.290   9.967  0.00  0.00    -0.066 A 
ATOM     33  C17 J3V d   1      -5.239   8.057  10.443  0.00  0.00    -0.056 A 
ATOM     34  H9  J3V d   1      -6.664   9.392   9.551  0.00  0.00     0.084 H 
ATOM     35  H2  J3V d   1      -5.895   7.194  10.416  0.00  0.00     0.086 H 
BRANCH  30  36
ATOM     36  C25 J3V d   1      -5.275  11.752   9.498  0.00  0.00     0.417 C 
ATOM     37  F26 J3V d   1      -4.187  12.439   9.038  0.00  0.00    -0.166 F 
ATOM     38  F27 J3V d   1      -6.180  11.565   8.494  0.00  0.00    -0.166 F 
ATOM     39  F28 J3V d   1      -5.845  12.464  10.509  0.00  0.00    -0.166 F 
ENDBRANCH  30  36
ENDBRANCH   3  26
TORSDOF 7
