REMARK  6 active torsions:
REMARK  status: ('A' for Active; 'I' for Inactive)
REMARK    1  A    between atoms: CAW_10  and  CAV_11 
REMARK       I    between atoms: CAV_11  and  N_13 
REMARK    2  A    between atoms: N_13  and  CA_14 
REMARK    3  A    between atoms: CA_14  and  C_15 
REMARK    4  A    between atoms: CA_14  and  CAC_19 
REMARK       I    between atoms: C_15  and  NAS_17 
REMARK    5  A    between atoms: NAS_17  and  OAT_18 
REMARK    6  A    between atoms: CAF_24  and  CAG_25 
ROOT
ATOM      1  CAV J4V d   1     178.329  16.807  83.341  0.00  0.00     0.223 C 
ATOM      2  OAX J4V d   1     178.171  16.831  82.115  0.00  0.00    -0.273 OA
ATOM      3  N   J4V d   1     177.565  16.060  84.137  0.00  0.00    -0.343 N 
ATOM      4  H16 J4V d   1     177.688  16.122  85.127  0.00  0.00     0.163 HD
ENDROOT
BRANCH   3   5
ATOM      5  CA  J4V d   1     176.547  15.148  83.599  0.00  0.00     0.117 C 
ATOM      6  H17 J4V d   1     176.846  14.784  82.605  0.00  0.00     0.095 H 
BRANCH   5   7
ATOM      7  C   J4V d   1     176.520  13.989  84.579  0.00  0.00     0.268 C 
ATOM      8  O   J4V d   1     176.644  14.193  85.786  0.00  0.00    -0.269 OA
ATOM      9  NAS J4V d   1     176.496  12.786  83.997  0.00  0.00    -0.235 N 
ATOM     10  H18 J4V d   1     176.444  12.709  83.001  0.00  0.00     0.197 HD
BRANCH   9  11
ATOM     11  OAT J4V d   1     176.546  11.601  84.816  0.00  0.00    -0.287 OA
ATOM     12  H19 J4V d   1     175.800  11.592  85.404  0.00  0.00     0.244 HD
ENDBRANCH   9  11
ENDBRANCH   5   7
BRANCH   5  13
ATOM     13  CAC J4V d   1     175.318  15.818  83.478  0.00  0.00    -0.026 A 
ATOM     14  CAD J4V d   1     174.235  15.184  82.883  0.00  0.00    -0.074 A 
ATOM     15  CAE J4V d   1     173.012  15.836  82.759  0.00  0.00    -0.072 A 
ATOM     16  H20 J4V d   1     174.344  14.171  82.512  0.00  0.00     0.084 H 
ATOM     17  CAF J4V d   1     172.862  17.140  83.221  0.00  0.00    -0.026 A 
ATOM     18  H21 J4V d   1     172.173  15.326  82.300  0.00  0.00     0.084 H 
ATOM     19  CAA J4V d   1     173.947  17.797  83.819  0.00  0.00    -0.072 A 
ATOM     20  CAB J4V d   1     175.164  17.135  83.939  0.00  0.00    -0.074 A 
ATOM     21  H23 J4V d   1     173.838  18.812  84.184  0.00  0.00     0.084 H 
ATOM     22  H22 J4V d   1     176.006  17.643  84.395  0.00  0.00     0.084 H 
BRANCH  17  23
ATOM     23  CAG J4V d   1     171.628  17.779  83.085  0.00  0.00    -0.020 A 
ATOM     24  CAH J4V d   1     171.273  18.795  83.960  0.00  0.00    -0.032 A 
ATOM     25  CAI J4V d   1     170.034  19.423  83.813  0.00  0.00     0.158 A 
ATOM     26  H24 J4V d   1     171.950  19.099  84.750  0.00  0.00     0.089 H 
ATOM     27  FAO J4V d   1     169.621  20.466  84.654  0.00  0.00    -0.203 F 
ATOM     28  CAJ J4V d   1     169.159  19.034  82.814  0.00  0.00     0.193 A 
ATOM     29  FAN J4V d   1     167.964  19.678  82.726  0.00  0.00    -0.200 F 
ATOM     30  CAK J4V d   1     169.500  18.011  81.942  0.00  0.00     0.158 A 
ATOM     31  FAM J4V d   1     168.597  17.629  80.938  0.00  0.00    -0.203 F 
ATOM     32  CAL J4V d   1     170.735  17.384  82.084  0.00  0.00    -0.032 A 
ATOM     33  H25 J4V d   1     171.008  16.580  81.410  0.00  0.00     0.089 H 
ENDBRANCH  17  23
ENDBRANCH   5  13
ENDBRANCH   3   5
BRANCH   1  34
ATOM     34  CAW J4V d   1     179.295  17.771  84.103  0.00  0.00     0.030 C 
ATOM     35  CAZ J4V d   1     180.125  17.038  85.198  0.00  0.00    -0.041 C 
ATOM     36  CBA J4V d   1     181.064  16.057  84.529  0.00  0.00    -0.058 C 
ATOM     37  CBF J4V d   1     180.990  18.086  85.979  0.00  0.00    -0.058 C 
ATOM     38  H3  J4V d   1     179.452  16.510  85.890  0.00  0.00     0.041 H 
ATOM     39  CBE J4V d   1     181.751  17.005  83.732  0.00  0.00    -0.053 C 
ATOM     40  H1  J4V d   1     180.531  15.306  83.927  0.00  0.00     0.034 H 
ATOM     41  H2  J4V d   1     181.726  15.550  85.246  0.00  0.00     0.034 H 
ATOM     42  CBD J4V d   1     182.810  17.731  84.285  0.00  0.00    -0.058 C 
ATOM     43  CBG J4V d   1     181.134  17.428  82.500  0.00  0.00    -0.058 C 
ATOM     44  H11 J4V d   1     182.405  16.262  83.251  0.00  0.00     0.040 H 
ATOM     45  CBC J4V d   1     181.948  18.798  84.986  0.00  0.00    -0.053 C 
ATOM     46  H9  J4V d   1     183.405  17.136  84.994  0.00  0.00     0.034 H 
ATOM     47  H10 J4V d   1     183.473  18.160  83.519  0.00  0.00     0.034 H 
ATOM     48  CBB J4V d   1     181.071  19.532  83.941  0.00  0.00    -0.058 C 
ATOM     49  H6  J4V d   1     182.591  19.515  85.516  0.00  0.00     0.040 H 
ATOM     50  CAY J4V d   1     180.196  18.484  83.139  0.00  0.00    -0.041 C 
ATOM     51  H7  J4V d   1     181.719  20.078  83.240  0.00  0.00     0.034 H 
ATOM     52  H8  J4V d   1     180.408  20.242  84.456  0.00  0.00     0.034 H 
ATOM     53  H14 J4V d   1     179.605  18.994  82.364  0.00  0.00     0.041 H 
ATOM     54  H12 J4V d   1     180.583  16.617  82.001  0.00  0.00     0.034 H 
ATOM     55  H13 J4V d   1     181.853  17.870  81.795  0.00  0.00     0.034 H 
ATOM     56  H4  J4V d   1     181.578  17.573  86.754  0.00  0.00     0.034 H 
ATOM     57  H5  J4V d   1     180.330  18.829  86.451  0.00  0.00     0.034 H 
ATOM     58  H15 J4V d   1     178.677  18.527  84.609  0.00  0.00     0.055 H 
ENDBRANCH   1  34
TORSDOF 6
