REMARK  6 active torsions:
REMARK  status: ('A' for Active; 'I' for Inactive)
REMARK    1  A    between atoms: C02_5  and  N23_23 
REMARK    2  A    between atoms: C03_6  and  O07_10 
REMARK    3  A    between atoms: N08_11  and  C04_7 
REMARK    4  A    between atoms: C06_9  and  S26_26 
REMARK       I    between atoms: C09_12  and  N08_11 
REMARK       I    between atoms: N10_13  and  C09_12 
REMARK    5  A    between atoms: N10_13  and  C12_15 
REMARK    6  A    between atoms: S26_26  and  N29_29 
ROOT
ATOM      1  C01 J4D d   1      -4.567   0.806  13.635  0.00  0.00    -0.025 A 
ATOM      2  C02 J4D d   1      -4.253   1.215  12.361  0.00  0.00     0.139 A 
ATOM      3  C03 J4D d   1      -4.067   2.560  12.089  0.00  0.00     0.126 A 
ATOM      4  C04 J4D d   1      -4.211   3.507  13.081  0.00  0.00     0.073 A 
ATOM      5  C05 J4D d   1      -4.520   3.124  14.367  0.00  0.00    -0.032 A 
ATOM      6  C06 J4D d   1      -4.693   1.772  14.614  0.00  0.00     0.084 A 
ATOM      7  H1  J4D d   1      -4.712  -0.243  13.865  0.00  0.00     0.089 H 
ATOM      8  H2  J4D d   1      -4.624   3.856  15.160  0.00  0.00     0.089 H 
ENDROOT
BRANCH   4   9
ATOM      9  N08 J4D d   1      -3.983   4.886  12.683  0.00  0.00    -0.306 N 
ATOM     10  C09 J4D d   1      -3.608   5.973  13.556  0.00  0.00     0.325 C 
ATOM     11  N10 J4D d   1      -3.433   7.256  12.921  0.00  0.00    -0.303 N 
ATOM     12  O11 J4D d   1      -3.462   5.849  14.720  0.00  0.00    -0.247 OA
ATOM     13  H5  J4D d   1      -3.611   7.328  11.940  0.00  0.00     0.171 HD
ATOM     14  H4  J4D d   1      -4.096   5.102  11.713  0.00  0.00     0.171 HD
BRANCH  11  15
ATOM     15  C12 J4D d   1      -3.013   8.445  13.631  0.00  0.00     0.120 A 
ATOM     16  C13 J4D d   1      -3.751   9.613  13.641  0.00  0.00     0.188 A 
ATOM     17  C14 J4D d   1      -3.260  10.726  14.309  0.00  0.00     0.199 A 
ATOM     18  F22 J4D d   1      -4.955   9.654  13.010  0.00  0.00    -0.200 F 
ATOM     19  C15 J4D d   1      -2.039  10.675  14.946  0.00  0.00     0.199 A 
ATOM     20  F21 J4D d   1      -3.969  11.887  14.349  0.00  0.00    -0.199 F 
ATOM     21  C16 J4D d   1      -1.298   9.511  14.918  0.00  0.00     0.199 A 
ATOM     22  F20 J4D d   1      -1.566  11.774  15.606  0.00  0.00    -0.199 F 
ATOM     23  C17 J4D d   1      -1.782   8.397  14.256  0.00  0.00     0.188 A 
ATOM     24  F19 J4D d   1      -0.095   9.470  15.549  0.00  0.00    -0.199 F 
ATOM     25  F18 J4D d   1      -1.058   7.240  14.225  0.00  0.00    -0.200 F 
ENDBRANCH  11  15
ENDBRANCH   4   9
BRANCH   3  26
ATOM     26  O07 J4D d   1      -3.735   3.002  10.809  0.00  0.00    -0.356 OA
ATOM     27  H3  J4D d   1      -3.667   2.256  10.225  0.00  0.00     0.218 HD
ENDBRANCH   3  26
BRANCH   2  28
ATOM     28  N23 J4D d   1      -4.140   0.207  11.337  0.00  0.00    -0.113 N 
ATOM     29  O24 J4D d   1      -3.912  -0.909  11.637  0.00  0.00    -0.532 OA
ATOM     30  O25 J4D d   1      -4.382   0.571  10.011  0.00  0.00    -0.532 OA
ENDBRANCH   2  28
BRANCH   6  31
ATOM     31  S26 J4D d   1      -5.136   1.203  16.255  0.00  0.00     0.256 S 
ATOM     32  O27 J4D d   1      -4.223   1.691  17.289  0.00  0.00    -0.201 OA
ATOM     33  O28 J4D d   1      -6.464   1.700  16.571  0.00  0.00    -0.201 OA
BRANCH  31  34
ATOM     34  N29 J4D d   1      -5.049  -0.461  16.276  0.00  0.00    -0.324 N 
ATOM     35  H6  J4D d   1      -5.263  -0.962  17.114  0.00  0.00     0.169 HD
ATOM     36  H7  J4D d   1      -4.782  -0.958  15.450  0.00  0.00     0.169 HD
ENDBRANCH  31  34
ENDBRANCH   6  31
TORSDOF 6
