REMARK  26 active torsions:
REMARK  status: ('A' for Active; 'I' for Inactive)
REMARK    1  A    between atoms: C_1  and  CH3_3 
REMARK       I    between atoms: C_1  and  N_4 
REMARK    2  A    between atoms: N_4  and  CA_5 
REMARK    3  A    between atoms: CA_5  and  C_6 
REMARK    4  A    between atoms: CA_5  and  CB_8 
REMARK       I    between atoms: C_6  and  N_12 
REMARK    5  A    between atoms: CB_8  and  CG1_9 
REMARK    6  A    between atoms: CB_8  and  CG2_10 
REMARK    7  A    between atoms: CG1_9  and  CD1_11 
REMARK    8  A    between atoms: N_12  and  CA_13 
REMARK    9  A    between atoms: CA_13  and  C_14 
REMARK   10  A    between atoms: CA_13  and  CB_16 
REMARK       I    between atoms: C_14  and  N_21 
REMARK   11  A    between atoms: CB_16  and  CG_17 
REMARK   12  A    between atoms: CG_17  and  CD_18 
REMARK   13  A    between atoms: N_21  and  CA_22 
REMARK   14  A    between atoms: CA_22  and  C_23 
REMARK   15  A    between atoms: CA_22  and  CB_25 
REMARK       I    between atoms: C_23  and  N_30 
REMARK   16  A    between atoms: CB_25  and  CG_26 
REMARK   17  A    between atoms: CG_26  and  CD_27 
REMARK   18  A    between atoms: N_30  and  CA_31 
REMARK   19  A    between atoms: CA_31  and  C_32 
REMARK   20  A    between atoms: CA_31  and  CB_34 
REMARK       I    between atoms: C_32  and  N_37 
REMARK   21  A    between atoms: CB_34  and  CG1_35 
REMARK   22  A    between atoms: CB_34  and  CG2_36 
REMARK   23  A    between atoms: N_37  and  CA_38 
REMARK   24  A    between atoms: CA_38  and  C_39 
REMARK   25  A    between atoms: CA_38  and  CB_41 
REMARK   26  A    between atoms: CB_41  and  CG_42 
ROOT
ATOM      1  C   ACE d   1      -4.346   8.937  31.489  0.00  0.00     0.241 C 
ATOM      2  O   ACE d   1      -3.249   9.159  30.966  0.00  0.00    -0.271 OA
ATOM      3  N   ACE d   1      -4.793   9.586  32.570  0.00  0.00    -0.346 N 
ATOM      4  H21 ACE d   1      -5.679   9.326  32.954  0.00  0.00     0.163 HD
ENDROOT
BRANCH   3   5
ATOM      5  CA  ACE d   1      -4.042  10.652  33.207  0.00  0.00     0.090 C 
ATOM      6  H22 ACE d   1      -2.987  10.571  32.907  0.00  0.00     0.087 H 
BRANCH   5   7
ATOM      7  C   ACE d   1      -4.145  10.486  34.714  0.00  0.00     0.241 C 
ATOM      8  O   ACE d   1      -5.094   9.887  35.228  0.00  0.00    -0.271 OA
ATOM      9  N   ACE d   1      -3.142  10.994  35.419  0.00  0.00    -0.346 N 
ATOM     10  H27 ACE d   1      -2.393  11.463  34.951  0.00  0.00     0.163 HD
BRANCH   9  11
ATOM     11  CA  ACE d   1      -3.126  10.872  36.876  0.00  0.00     0.092 C 
ATOM     12  H28 ACE d   1      -3.599   9.914  37.138  0.00  0.00     0.088 H 
BRANCH  11  13
ATOM     13  C   ACE d   1      -3.938  11.981  37.529  0.00  0.00     0.241 C 
ATOM     14  O   ACE d   1      -4.087  13.081  36.986  0.00  0.00    -0.271 OA
ATOM     15  N   ACE d   1      -4.452  11.687  38.723  0.00  0.00    -0.344 N 
ATOM     16  H36 ACE d   1      -4.280  10.780  39.106  0.00  0.00     0.163 HD
BRANCH  15  17
ATOM     17  CA  ACE d   1      -5.257  12.633  39.499  0.00  0.00     0.105 C 
ATOM     18  H37 ACE d   1      -5.548  13.471  38.849  0.00  0.00     0.090 H 
BRANCH  17  19
ATOM     19  C   ACE d   1      -4.466  13.165  40.682  0.00  0.00     0.197 C 
ATOM     20  O   ACE d   1      -4.897  14.081  41.392  0.00  0.00    -0.646 OA
ATOM     21  OXT ACE d   1      -3.386  12.659  40.979  0.00  0.00    -0.646 OA
ENDBRANCH  17  19
BRANCH  17  22
ATOM     22  CB  ACE d   1      -6.513  11.946  40.036  0.00  0.00     0.044 C 
ATOM     23  H38 ACE d   1      -7.030  12.640  40.715  0.00  0.00     0.053 H 
ATOM     24  H39 ACE d   1      -6.210  11.047  40.593  0.00  0.00     0.053 H 
BRANCH  22  25
ATOM     25  CG  ACE d   1      -7.473  11.536  38.942  0.00  0.00     0.175 C 
ATOM     26  OD1 ACE d   1      -7.834  12.396  38.110  0.00  0.00    -0.648 OA
ATOM     27  OD2 ACE d   1      -7.875  10.354  38.936  0.00  0.00    -0.648 OA
ENDBRANCH  22  25
ENDBRANCH  17  22
ENDBRANCH  15  17
ENDBRANCH  11  13
BRANCH  11  28
ATOM     28  CB  ACE d   1      -1.685  10.843  37.407  0.00  0.00    -0.033 C 
ATOM     29  H29 ACE d   1      -1.710  10.895  38.505  0.00  0.00     0.042 H 
BRANCH  28  30
ATOM     30  CG1 ACE d   1      -1.031   9.547  37.003  0.00  0.00    -0.071 C 
ATOM     31  H30 ACE d   1       0.001   9.524  37.382  0.00  0.00     0.028 H 
ATOM     32  H31 ACE d   1      -1.021   9.468  35.906  0.00  0.00     0.028 H 
ATOM     33  H32 ACE d   1      -1.596   8.704  37.426  0.00  0.00     0.028 H 
ENDBRANCH  28  30
BRANCH  28  34
ATOM     34  CG2 ACE d   1      -0.901  12.057  36.881  0.00  0.00    -0.071 C 
ATOM     35  H33 ACE d   1      -1.406  12.983  37.194  0.00  0.00     0.028 H 
ATOM     36  H34 ACE d   1      -0.857  12.017  35.783  0.00  0.00     0.028 H 
ATOM     37  H35 ACE d   1       0.120  12.040  37.290  0.00  0.00     0.028 H 
ENDBRANCH  28  34
ENDBRANCH  11  28
ENDBRANCH   9  11
ENDBRANCH   5   7
BRANCH   5  38
ATOM     38  CB  ACE d   1      -4.564  12.038  32.789  0.00  0.00    -0.029 C 
ATOM     39  H23 ACE d   1      -3.929  12.800  33.264  0.00  0.00     0.037 H 
ATOM     40  H24 ACE d   1      -5.596  12.140  33.156  0.00  0.00     0.037 H 
BRANCH  38  41
ATOM     41  CG  ACE d   1      -4.568  12.295  31.275  0.00  0.00     0.018 C 
ATOM     42  H25 ACE d   1      -5.077  13.252  31.089  0.00  0.00     0.049 H 
ATOM     43  H26 ACE d   1      -5.127  11.482  30.788  0.00  0.00     0.049 H 
BRANCH  41  44
ATOM     44  CD  ACE d   1      -3.176  12.362  30.648  0.00  0.00     0.172 C 
ATOM     45  OE1 ACE d   1      -2.164  12.379  31.385  0.00  0.00    -0.648 OA
ATOM     46  OE2 ACE d   1      -3.095  12.403  29.398  0.00  0.00    -0.648 OA
ENDBRANCH  41  44
ENDBRANCH  38  41
ENDBRANCH   5  38
ENDBRANCH   3   5
BRANCH   1  47
ATOM     47  CA  ACE d   1      -5.325   7.883  30.969  0.00  0.00     0.090 C 
ATOM     48  H16 ACE d   1      -5.511   7.181  31.796  0.00  0.00     0.087 H 
BRANCH  47  49
ATOM     49  N   ACE d   1      -6.605   8.509  30.627  0.00  0.00    -0.346 N 
ATOM     50  C   ACE d   1      -7.558   8.664  31.546  0.00  0.00     0.241 C 
ATOM     51  O   ACE d   1      -7.392   8.347  32.721  0.00  0.00    -0.271 OA
ATOM     52  H15 ACE d   1      -6.766   8.824  29.692  0.00  0.00     0.163 HD
BRANCH  50  53
ATOM     53  CA  ACE d   1      -8.885   9.277  31.088  0.00  0.00     0.092 C 
ATOM     54  H5  ACE d   1      -9.226   9.928  31.907  0.00  0.00     0.088 H 
BRANCH  53  55
ATOM     55  N   ACE d   1      -8.724  10.130  29.914  0.00  0.00    -0.348 N 
ATOM     56  C   ACE d   1      -8.295  11.387  30.003  0.00  0.00     0.214 C 
ATOM     57  O   ACE d   1      -7.970  11.928  31.062  0.00  0.00    -0.274 OA
ATOM     58  H4  ACE d   1      -8.944   9.757  29.012  0.00  0.00     0.163 HD
BRANCH  56  59
ATOM     59  CH3 ACE d   1      -8.223  12.104  28.694  0.00  0.00    -0.003 C 
ATOM     60  H1  ACE d   1      -8.559  11.433  27.890  0.00  0.00     0.040 H 
ATOM     61  H2  ACE d   1      -7.185  12.415  28.503  0.00  0.00     0.040 H 
ATOM     62  H3  ACE d   1      -8.872  12.992  28.726  0.00  0.00     0.040 H 
ENDBRANCH  56  59
ENDBRANCH  53  55
BRANCH  53  63
ATOM     63  CB  ACE d   1      -9.988   8.222  30.877  0.00  0.00    -0.030 C 
ATOM     64  H6  ACE d   1     -10.848   8.714  30.400  0.00  0.00     0.043 H 
BRANCH  63  65
ATOM     65  CG1 ACE d   1     -10.452   7.655  32.225  0.00  0.00    -0.063 C 
ATOM     66  H7  ACE d   1     -10.674   8.496  32.898  0.00  0.00     0.033 H 
ATOM     67  H8  ACE d   1      -9.635   7.053  32.648  0.00  0.00     0.033 H 
BRANCH  65  68
ATOM     68  CD1 ACE d   1     -11.672   6.794  32.128  0.00  0.00    -0.076 C 
ATOM     69  H12 ACE d   1     -11.942   6.427  33.129  0.00  0.00     0.027 H 
ATOM     70  H13 ACE d   1     -11.466   5.939  31.467  0.00  0.00     0.027 H 
ATOM     71  H14 ACE d   1     -12.505   7.383  31.717  0.00  0.00     0.027 H 
ENDBRANCH  65  68
ENDBRANCH  63  65
BRANCH  63  72
ATOM     72  CG2 ACE d   1      -9.496   7.114  29.942  0.00  0.00    -0.071 C 
ATOM     73  H9  ACE d   1      -9.172   7.556  28.988  0.00  0.00     0.028 H 
ATOM     74  H10 ACE d   1     -10.313   6.401  29.757  0.00  0.00     0.028 H 
ATOM     75  H11 ACE d   1      -8.649   6.589  30.409  0.00  0.00     0.028 H 
ENDBRANCH  63  72
ENDBRANCH  53  63
ENDBRANCH  50  53
ENDBRANCH  47  49
BRANCH  47  76
ATOM     76  CB  ACE d   1      -4.782   7.058  29.805  0.00  0.00    -0.029 C 
ATOM     77  H17 ACE d   1      -3.749   6.753  30.030  0.00  0.00     0.037 H 
ATOM     78  H18 ACE d   1      -4.792   7.672  28.892  0.00  0.00     0.037 H 
BRANCH  76  79
ATOM     79  CG  ACE d   1      -5.637   5.805  29.577  0.00  0.00     0.018 C 
ATOM     80  H19 ACE d   1      -6.649   6.125  29.288  0.00  0.00     0.049 H 
ATOM     81  H20 ACE d   1      -5.686   5.244  30.522  0.00  0.00     0.049 H 
BRANCH  79  82
ATOM     82  CD  ACE d   1      -5.103   4.878  28.498  0.00  0.00     0.172 C 
ATOM     83  OE1 ACE d   1      -4.044   5.178  27.906  0.00  0.00    -0.648 OA
ATOM     84  OE2 ACE d   1      -5.754   3.841  28.242  0.00  0.00    -0.648 OA
ENDBRANCH  79  82
ENDBRANCH  76  79
ENDBRANCH  47  76
ENDBRANCH   1  47
TORSDOF 26
