REMARK  9 active torsions:
REMARK  status: ('A' for Active; 'I' for Inactive)
REMARK    1  A    between atoms: C20_12  and  N3_2 
REMARK    2  A    between atoms: C5_4  and  C4_3 
REMARK    3  A    between atoms: C6_5  and  C11_26 
REMARK    4  A    between atoms: N2_29  and  C13_9 
REMARK    5  A    between atoms: C17_11  and  C19_33 
REMARK    6  A    between atoms: C16_31  and  C20_12 
REMARK    7  A    between atoms: C3_24  and  C2_23 
REMARK    8  A    between atoms: C12_27  and  C9_25 
REMARK       I    between atoms: C12_27  and  N2_29 
REMARK    9  A    between atoms: N4_39  and  C25_38 
ROOT
ATOM      1  C13 MOL d   1       2.635 -29.229 -23.957  0.00  0.00     0.035 A 
ATOM      2  C15 MOL d   1       4.607 -29.392 -22.595  0.00  0.00    -0.072 A 
ATOM      3  C17 MOL d   1       3.494 -31.429 -23.267  0.00  0.00     0.058 A 
ATOM      4  C14 MOL d   1       3.675 -28.618 -23.258  0.00  0.00    -0.057 A 
ATOM      5  C16 MOL d   1       4.521 -30.782 -22.561  0.00  0.00    -0.017 A 
ATOM      6  C18 MOL d   1       2.557 -30.642 -23.963  0.00  0.00    -0.042 A 
ATOM      7  H5  MOL d   1       5.430 -28.903 -22.086  0.00  0.00     0.084 H 
ATOM      8  H22 MOL d   1       3.752 -27.537 -23.235  0.00  0.00     0.086 H 
ATOM      9  H23 MOL d   1       1.760 -31.128 -24.514  0.00  0.00     0.088 H 
ENDROOT
BRANCH   1  10
ATOM     10  N2  MOL d   1       1.822 -28.357 -24.581  0.00  0.00    -0.323 N 
ATOM     11  C12 MOL d   1       0.537 -28.625 -24.861  0.00  0.00     0.256 C 
ATOM     12  O1  MOL d   1      -0.049 -29.677 -24.619  0.00  0.00    -0.267 OA
ATOM     13  H21 MOL d   1       2.193 -27.468 -24.849  0.00  0.00     0.169 HD
BRANCH  11  14
ATOM     14  C9  MOL d   1      -0.150 -27.599 -25.495  0.00  0.00     0.033 A 
ATOM     15  C8  MOL d   1       0.214 -26.248 -25.390  0.00  0.00    -0.067 A 
ATOM     16  C7  MOL d   1      -0.547 -25.285 -26.059  0.00  0.00    -0.075 A 
ATOM     17  H3  MOL d   1       1.074 -25.955 -24.798  0.00  0.00     0.085 H 
ATOM     18  C6  MOL d   1      -1.660 -25.641 -26.822  0.00  0.00    -0.043 A 
ATOM     19  H2  MOL d   1      -0.267 -24.241 -25.984  0.00  0.00     0.084 H 
ATOM     20  C5  MOL d   1      -2.016 -26.970 -26.911  0.00  0.00     0.025 A 
ATOM     21  C10 MOL d   1      -1.275 -27.947 -26.253  0.00  0.00    -0.049 A 
ATOM     22  H4  MOL d   1      -1.571 -28.987 -26.328  0.00  0.00     0.087 H 
BRANCH  18  23
ATOM     23  C11 MOL d   1      -2.403 -24.683 -27.480  0.00  0.00    -0.050 C 
ATOM     24  H18 MOL d   1      -3.230 -25.167 -28.020  0.00  0.00     0.033 H 
ATOM     25  H19 MOL d   1      -1.761 -24.149 -28.196  0.00  0.00     0.033 H 
ATOM     26  H20 MOL d   1      -2.810 -23.969 -26.749  0.00  0.00     0.033 H 
ENDBRANCH  18  23
BRANCH  20  27
ATOM     27  C4  MOL d   1      -3.133 -27.453 -27.664  0.00  0.00    -0.059 C 
ATOM     28  C3  MOL d   1      -3.967 -27.825 -28.211  0.00  0.00    -0.040 C 
BRANCH  28  29
ATOM     29  C2  MOL d   1      -5.067 -28.329 -28.958  0.00  0.00     0.131 A 
ATOM     30  N82 MOL d   1      -6.313 -28.503 -28.532  0.00  0.00    -0.206 N 
ATOM     31  N81 MOL d   1      -6.755 -28.288 -27.457  0.00  0.00    -0.177 NA
ATOM     32  C84 MOL d   1      -6.993 -28.985 -29.584  0.00  0.00     0.151 A 
ATOM     33  C83 MOL d   1      -8.133 -28.551 -27.207  0.00  0.00     0.022 A 
ATOM     34  C82 MOL d   1      -8.918 -29.056 -28.251  0.00  0.00    -0.061 A 
ATOM     35  H16 MOL d   1      -8.566 -28.363 -26.226  0.00  0.00     0.117 H 
ATOM     36  C81 MOL d   1      -8.289 -29.270 -29.479  0.00  0.00    -0.035 A 
ATOM     37  H15 MOL d   1      -9.976 -29.273 -28.111  0.00  0.00     0.086 H 
ATOM     38  H14 MOL d   1      -8.845 -29.660 -30.330  0.00  0.00     0.089 H 
ATOM     39  N1  MOL d   1      -6.158 -29.092 -30.618  0.00  0.00    -0.238 NA
ATOM     40  C1  MOL d   1      -4.959 -28.682 -30.225  0.00  0.00     0.041 A 
ATOM     41  H17 MOL d   1      -4.056 -28.644 -30.833  0.00  0.00     0.119 H 
ENDBRANCH  28  29
ENDBRANCH  20  27
ENDBRANCH  11  14
ENDBRANCH   1  10
BRANCH   3  42
ATOM     42  C19 MOL d   1       3.364 -32.827 -23.298  0.00  0.00     0.418 C 
ATOM     43  F1  MOL d   1       2.555 -32.985 -24.354  0.00  0.00    -0.166 F 
ATOM     44  F2  MOL d   1       4.244 -33.430 -23.625  0.00  0.00    -0.166 F 
ATOM     45  F3  MOL d   1       2.774 -33.270 -22.500  0.00  0.00    -0.166 F 
ENDBRANCH   3  42
BRANCH   5  46
ATOM     46  C20 MOL d   1       5.520 -31.486 -21.853  0.00  0.00     0.108 C 
ATOM     47  H6  MOL d   1       5.532 -32.513 -22.246  0.00  0.00     0.083 H 
ATOM     48  H7  MOL d   1       6.480 -30.997 -22.075  0.00  0.00     0.083 H 
BRANCH  46  49
ATOM     49  N3  MOL d   1       5.410 -31.584 -20.372  0.00  0.00    -0.064 N 
ATOM     50  C21 MOL d   1       6.805 -31.652 -19.898  0.00  0.00     0.106 C 
ATOM     51  C22 MOL d   1       6.899 -31.768 -18.384  0.00  0.00     0.105 C 
ATOM     52  H8  MOL d   1       7.331 -30.739 -20.215  0.00  0.00     0.078 H 
ATOM     53  H9  MOL d   1       7.289 -32.530 -20.350  0.00  0.00     0.078 H 
ATOM     54  N4  MOL d   1       6.186 -30.662 -17.712  0.00  0.00    -0.072 N 
ATOM     55  H10 MOL d   1       7.958 -31.742 -18.088  0.00  0.00     0.078 H 
ATOM     56  H11 MOL d   1       6.454 -32.724 -18.070  0.00  0.00     0.078 H 
ATOM     57  C23 MOL d   1       4.793 -30.648 -18.174  0.00  0.00     0.105 C 
ATOM     58  H29 MOL d   1       6.635 -29.795 -17.964  0.00  0.00     0.279 HD
ATOM     59  C24 MOL d   1       4.743 -30.466 -19.666  0.00  0.00     0.106 C 
ATOM     60  H24 MOL d   1       4.312 -31.601 -17.908  0.00  0.00     0.078 H 
ATOM     61  H25 MOL d   1       4.258 -29.819 -17.689  0.00  0.00     0.078 H 
ATOM     62  H12 MOL d   1       3.691 -30.418 -19.985  0.00  0.00     0.078 H 
ATOM     63  H13 MOL d   1       5.249 -29.525 -19.928  0.00  0.00     0.078 H 
ATOM     64  H1  MOL d   1       4.918 -32.433 -20.143  0.00  0.00     0.280 HD
BRANCH  54  65
ATOM     65  C25 MOL d   1       6.164 -30.771 -16.239  0.00  0.00     0.066 C 
ATOM     66  H26 MOL d   1       7.195 -30.784 -15.857  0.00  0.00     0.068 H 
ATOM     67  H27 MOL d   1       5.653 -31.701 -15.948  0.00  0.00     0.068 H 
ATOM     68  H28 MOL d   1       5.627 -29.909 -15.816  0.00  0.00     0.068 H 
ENDBRANCH  54  65
ENDBRANCH  46  49
ENDBRANCH   5  46
TORSDOF 9
