REMARK  8 active torsions:
REMARK  status: ('A' for Active; 'I' for Inactive)
REMARK    1  A    between atoms: CBG_29  and  CAU_16 
REMARK    2  A    between atoms: CAU_16  and  NBN_37 
REMARK       I    between atoms: CBB_24  and  NAY_20 
REMARK    3  A    between atoms: NAY_20  and  CBD_26 
REMARK       I    between atoms: NAZ_21  and  CBC_25 
REMARK    4  A    between atoms: CBI_31  and  NAZ_21 
REMARK    5  A    between atoms: CBE_27  and  CBB_24 
REMARK    6  A    between atoms: CBC_25  and  CBM_35 
REMARK    7  A    between atoms: CBF_28  and  CBH_30 
REMARK    8  A    between atoms: CBJ_32  and  CBO_36 
ROOT
ATOM      1  NAY J8A d   1       3.272  28.607  24.713  0.00  0.00    -0.323 N 
ATOM      2  OAA J8A d   1       1.731  30.256  25.136  0.00  0.00    -0.267 OA
ATOM      3  CBB J8A d   1       2.108  29.091  25.192  0.00  0.00     0.256 C 
ATOM      4  H26 J8A d   1       3.464  27.633  24.830  0.00  0.00     0.169 HD
ENDROOT
BRANCH   1   5
ATOM      5  CBD J8A d   1       4.189  29.367  24.085  0.00  0.00     0.035 A 
ATOM      6  CAI J8A d   1       5.223  28.676  23.476  0.00  0.00    -0.057 A 
ATOM      7  CAJ J8A d   1       6.216  29.365  22.806  0.00  0.00    -0.072 A 
ATOM      8  H4  J8A d   1       5.253  27.593  23.525  0.00  0.00     0.086 H 
ATOM      9  CBG J8A d   1       6.201  30.755  22.700  0.00  0.00    -0.017 A 
ATOM     10  H5  J8A d   1       7.028  28.810  22.351  0.00  0.00     0.084 H 
ATOM     11  CBJ J8A d   1       5.172  31.480  23.321  0.00  0.00     0.058 A 
ATOM     12  CAN J8A d   1       4.182  30.765  23.997  0.00  0.00    -0.042 A 
ATOM     13  H9  J8A d   1       3.376  31.313  24.472  0.00  0.00     0.088 H 
BRANCH   9  14
ATOM     14  CAU J8A d   1       7.264  31.342  22.010  0.00  0.00     0.108 C 
ATOM     15  H22 J8A d   1       8.126  30.664  22.095  0.00  0.00     0.083 H 
ATOM     16  H23 J8A d   1       7.495  32.294  22.510  0.00  0.00     0.083 H 
BRANCH  14  17
ATOM     17  NBN J8A d   1       7.070  31.632  20.575  0.00  0.00    -0.064 N 
ATOM     18  CAS J8A d   1       6.629  30.483  19.759  0.00  0.00     0.106 C 
ATOM     19  CAO J8A d   1       6.607  30.845  18.270  0.00  0.00     0.104 C 
ATOM     20  H18 J8A d   1       7.322  29.643  19.915  0.00  0.00     0.078 H 
ATOM     21  H19 J8A d   1       5.617  30.186  20.072  0.00  0.00     0.078 H 
ATOM     22  NAX J8A d   1       7.949  31.251  17.824  0.00  0.00    -0.072 N 
ATOM     23  H10 J8A d   1       5.904  31.676  18.109  0.00  0.00     0.078 H 
ATOM     24  H11 J8A d   1       6.280  29.970  17.689  0.00  0.00     0.078 H 
ATOM     25  CAP J8A d   1       8.388  32.398  18.634  0.00  0.00     0.104 C 
ATOM     26  H24 J8A d   1       7.918  31.515  16.852  0.00  0.00     0.277 HD
ATOM     27  H25 J8A d   1       8.593  30.485  17.944  0.00  0.00     0.277 HD
ATOM     28  CAT J8A d   1       8.401  32.039  20.102  0.00  0.00     0.106 C 
ATOM     29  H12 J8A d   1       9.402  32.692  18.325  0.00  0.00     0.078 H 
ATOM     30  H13 J8A d   1       7.697  33.239  18.474  0.00  0.00     0.078 H 
ATOM     31  H20 J8A d   1       8.732  32.914  20.680  0.00  0.00     0.078 H 
ATOM     32  H21 J8A d   1       9.104  31.208  20.259  0.00  0.00     0.078 H 
ATOM     33  H29 J8A d   1       6.404  32.381  20.470  0.00  0.00     0.280 HD
ENDBRANCH  14  17
ENDBRANCH   9  14
BRANCH  11  34
ATOM     34  CBO J8A d   1       5.060  32.892  23.298  0.00  0.00     0.418 C 
ATOM     35  FAC J8A d   1       6.228  33.510  23.627  0.00  0.00    -0.166 F 
ATOM     36  FAD J8A d   1       4.686  33.301  22.123  0.00  0.00    -0.166 F 
ATOM     37  FAE J8A d   1       4.127  33.263  24.207  0.00  0.00    -0.166 F 
ENDBRANCH  11  34
ENDBRANCH   1   5
BRANCH   3  38
ATOM     38  CBE J8A d   1       1.268  28.161  25.790  0.00  0.00     0.033 A 
ATOM     39  CAG J8A d   1       1.391  26.793  25.576  0.00  0.00    -0.068 A 
ATOM     40  CAF J8A d   1       0.502  25.926  26.206  0.00  0.00    -0.081 A 
ATOM     41  H2  J8A d   1       2.169  26.406  24.927  0.00  0.00     0.085 H 
ATOM     42  CAH J8A d   1      -0.503  26.416  27.038  0.00  0.00    -0.071 A 
ATOM     43  H1  J8A d   1       0.593  24.858  26.047  0.00  0.00     0.083 H 
ATOM     44  CBF J8A d   1      -0.613  27.787  27.251  0.00  0.00    -0.006 A 
ATOM     45  H3  J8A d   1      -1.195  25.733  27.517  0.00  0.00     0.084 H 
ATOM     46  CAM J8A d   1       0.269  28.646  26.615  0.00  0.00    -0.056 A 
ATOM     47  H8  J8A d   1       0.175  29.715  26.766  0.00  0.00     0.086 H 
BRANCH  44  48
ATOM     48  CBH J8A d   1      -1.601  28.339  28.064  0.00  0.00     0.068 A 
ATOM     49  CAK J8A d   1      -1.274  29.241  29.064  0.00  0.00    -0.052 A 
ATOM     50  CAL J8A d   1      -2.301  29.772  29.835  0.00  0.00    -0.050 A 
ATOM     51  H6  J8A d   1      -0.243  29.525  29.240  0.00  0.00     0.087 H 
ATOM     52  CBK J8A d   1      -3.576  29.440  29.622  0.00  0.00     0.095 A 
ATOM     53  H7  J8A d   1      -2.061  30.472  30.627  0.00  0.00     0.087 H 
ATOM     54  NAV J8A d   1      -4.678  29.872  30.280  0.00  0.00    -0.222 NA
ATOM     55  CBL J8A d   1      -3.857  28.567  28.633  0.00  0.00     0.130 A 
ATOM     56  CBI J8A d   1      -5.834  29.371  29.832  0.00  0.00     0.176 A 
ATOM     57  SBA J8A d   1      -5.494  28.347  28.602  0.00  0.00    -0.030 SA
ATOM     58  NAW J8A d   1      -2.889  28.031  27.872  0.00  0.00    -0.238 NA
BRANCH  56  59
ATOM     59  NAZ J8A d   1      -7.030  29.665  30.366  0.00  0.00    -0.305 N 
ATOM     60  CBC J8A d   1      -8.197  29.468  29.705  0.00  0.00     0.227 C 
ATOM     61  OAB J8A d   1      -8.320  29.008  28.570  0.00  0.00    -0.273 OA
ATOM     62  H27 J8A d   1      -7.061  30.045  31.290  0.00  0.00     0.171 HD
BRANCH  60  63
ATOM     63  CBM J8A d   1      -9.445  29.834  30.517  0.00  0.00     0.024 A 
ATOM     64  CAQ J8A d   1     -10.518  28.761  30.528  0.00  0.00    -0.053 A 
ATOM     65  CAR J8A d   1     -10.718  30.031  29.718  0.00  0.00    -0.053 A 
ATOM     66  H14 J8A d   1     -10.344  27.803  30.016  0.00  0.00     0.034 H 
ATOM     67  H15 J8A d   1     -11.114  28.588  31.436  0.00  0.00     0.034 H 
ATOM     68  H16 J8A d   1     -11.459  30.777  30.040  0.00  0.00     0.034 H 
ATOM     69  H17 J8A d   1     -10.689  29.993  28.619  0.00  0.00     0.034 H 
ATOM     70  H28 J8A d   1      -9.207  30.445  31.400  0.00  0.00     0.054 H 
ENDBRANCH  60  63
ENDBRANCH  56  59
ENDBRANCH  44  48
ENDBRANCH   3  38
TORSDOF 8
