REMARK  16 active torsions:
REMARK  status: ('A' for Active; 'I' for Inactive)
REMARK    1  A    between atoms: O1'_10  and  C1'_1 
REMARK    2  A    between atoms: C2'_2  and  N2'_9 
REMARK    3  A    between atoms: C3'_3  and  O3'_11 
REMARK    4  A    between atoms: C4'_4  and  O4'_12 
REMARK    5  A    between atoms: C5'_5  and  C6'_6 
REMARK    6  A    between atoms: C6'_6  and  O6'_14 
REMARK    7  A    between atoms: C7'_7  and  C8'_8 
REMARK       I    between atoms: N2'_9  and  C7'_7 
REMARK    8  A    between atoms: PB_37  and  O1'_10 
REMARK    9  A    between atoms: C1B_24  and  N1_16 
REMARK   10  A    between atoms: C2B_25  and  O2'_26 
REMARK   11  A    between atoms: C3B_27  and  O3B_30 
REMARK   12  A    between atoms: C5B_31  and  C4B_28 
REMARK   13  A    between atoms: O5B_32  and  C5B_31 
REMARK   14  A    between atoms: PA_33  and  O5B_32 
REMARK   15  A    between atoms: O3A_36  and  PA_33 
REMARK   16  A    between atoms: O3A_36  and  PB_37 
ROOT
ATOM      1  O3A UD2 d   1     -11.228 -43.114  23.046  0.00  0.00    -0.180 OA
ENDROOT
BRANCH   1   2
ATOM      2  PA  UD2 d   1     -10.159 -43.892  23.999  0.00  0.00     0.417 P 
ATOM      3  O1A UD2 d   1      -8.819 -44.279  23.408  0.00  0.00    -0.624 OA
ATOM      4  O2A UD2 d   1     -10.946 -45.017  24.615  0.00  0.00    -0.624 OA
BRANCH   2   5
ATOM      5  O5B UD2 d   1      -9.825 -42.813  25.130  0.00  0.00    -0.287 OA
BRANCH   5   6
ATOM      6  C5B UD2 d   1     -10.785 -42.002  25.821  0.00  0.00     0.058 C 
ATOM      7  H24 UD2 d   1     -11.715 -41.966  25.235  0.00  0.00     0.079 H 
ATOM      8  H25 UD2 d   1     -10.989 -42.446  26.807  0.00  0.00     0.079 H 
BRANCH   6   9
ATOM      9  C4B UD2 d   1     -10.250 -40.564  26.013  0.00  0.00     0.089 C 
ATOM     10  C3B UD2 d   1      -9.623 -40.029  24.723  0.00  0.00     0.091 C 
ATOM     11  C2B UD2 d   1      -8.122 -40.172  24.949  0.00  0.00     0.105 C 
ATOM     12  H21 UD2 d   1      -9.930 -40.655  23.872  0.00  0.00     0.091 H 
ATOM     13  C1B UD2 d   1      -7.944 -40.168  26.467  0.00  0.00     0.141 C 
ATOM     14  H19 UD2 d   1      -7.784 -41.137  24.544  0.00  0.00     0.093 H 
ATOM     15  O4B UD2 d   1      -9.240 -40.477  27.039  0.00  0.00    -0.353 OA
ATOM     16  H18 UD2 d   1      -7.663 -39.154  26.789  0.00  0.00     0.123 H 
ATOM     17  H22 UD2 d   1     -11.097 -39.922  26.295  0.00  0.00     0.090 H 
BRANCH  10  18
ATOM     18  O3B UD2 d   1     -10.022 -38.675  24.448  0.00  0.00    -0.390 OA
ATOM     19  H23 UD2 d   1      -9.612 -38.383  23.642  0.00  0.00     0.210 HD
ENDBRANCH  10  18
BRANCH  11  20
ATOM     20  O2' UD2 d   1      -7.364 -39.138  24.313  0.00  0.00    -0.388 OA
ATOM     21  H20 UD2 d   1      -7.646 -38.292  24.642  0.00  0.00     0.210 HD
ENDBRANCH  11  20
BRANCH  13  22
ATOM     22  N1  UD2 d   1      -6.838 -41.086  26.880  0.00  0.00    -0.280 N 
ATOM     23  C2  UD2 d   1      -5.551 -40.543  27.176  0.00  0.00     0.331 A 
ATOM     24  N3  UD2 d   1      -4.568 -41.328  27.558  0.00  0.00    -0.275 N 
ATOM     25  O2  UD2 d   1      -5.274 -39.325  27.104  0.00  0.00    -0.246 OA
ATOM     26  C4  UD2 d   1      -4.757 -42.630  27.657  0.00  0.00     0.250 A 
ATOM     27  H15 UD2 d   1      -3.674 -40.937  27.774  0.00  0.00     0.173 HD
ATOM     28  C5  UD2 d   1      -5.983 -43.228  27.377  0.00  0.00    -0.002 A 
ATOM     29  O4  UD2 d   1      -3.768 -43.272  28.004  0.00  0.00    -0.268 OA
ATOM     30  C6  UD2 d   1      -7.033 -42.421  26.985  0.00  0.00    -0.008 A 
ATOM     31  H16 UD2 d   1      -6.111 -44.306  27.465  0.00  0.00     0.094 H 
ATOM     32  H17 UD2 d   1      -8.007 -42.854  26.763  0.00  0.00     0.112 H 
ENDBRANCH  13  22
ENDBRANCH   6   9
ENDBRANCH   5   6
ENDBRANCH   2   5
ENDBRANCH   1   2
BRANCH   1  33
ATOM     33  PB  UD2 d   1     -12.033 -43.869  21.844  0.00  0.00     0.420 P 
ATOM     34  O1B UD2 d   1     -12.403 -42.907  20.758  0.00  0.00    -0.624 OA
ATOM     35  O2B UD2 d   1     -13.083 -44.756  22.456  0.00  0.00    -0.624 OA
BRANCH  33  36
ATOM     36  O1' UD2 d   1     -10.919 -44.824  21.259  0.00  0.00    -0.256 OA
BRANCH  36  37
ATOM     37  C1' UD2 d   1     -10.693 -45.066  19.870  0.00  0.00     0.165 C 
ATOM     38  C2' UD2 d   1      -9.875 -46.368  19.811  0.00  0.00     0.087 C 
ATOM     39  C3' UD2 d   1      -8.521 -46.045  20.484  0.00  0.00     0.086 C 
ATOM     40  H2  UD2 d   1      -9.687 -46.647  18.764  0.00  0.00     0.084 H 
ATOM     41  C4' UD2 d   1      -7.845 -44.975  19.598  0.00  0.00     0.089 C 
ATOM     42  H3  UD2 d   1      -8.756 -45.570  21.448  0.00  0.00     0.090 H 
ATOM     43  C5' UD2 d   1      -8.687 -43.692  19.747  0.00  0.00     0.089 C 
ATOM     44  H4  UD2 d   1      -6.830 -44.789  19.980  0.00  0.00     0.091 H 
ATOM     45  O5' UD2 d   1     -10.015 -43.947  19.241  0.00  0.00    -0.348 OA
ATOM     46  H5  UD2 d   1      -8.778 -43.482  20.823  0.00  0.00     0.090 H 
ATOM     47  H1  UD2 d   1     -11.655 -45.216  19.359  0.00  0.00     0.133 H 
BRANCH  38  48
ATOM     48  N2' UD2 d   1     -10.656 -47.443  20.433  0.00  0.00    -0.349 N 
ATOM     49  C7' UD2 d   1     -11.037 -48.543  19.781  0.00  0.00     0.214 C 
ATOM     50  O7' UD2 d   1     -10.719 -48.800  18.631  0.00  0.00    -0.274 OA
ATOM     51  H11 UD2 d   1     -10.916 -47.346  21.394  0.00  0.00     0.163 HD
BRANCH  49  52
ATOM     52  C8' UD2 d   1     -11.907 -49.466  20.560  0.00  0.00    -0.003 C 
ATOM     53  H8  UD2 d   1     -12.165 -50.337  19.940  0.00  0.00     0.040 H 
ATOM     54  H9  UD2 d   1     -12.827 -48.941  20.856  0.00  0.00     0.040 H 
ATOM     55  H10 UD2 d   1     -11.371 -49.803  21.460  0.00  0.00     0.040 H 
ENDBRANCH  49  52
ENDBRANCH  38  48
BRANCH  39  56
ATOM     56  O3' UD2 d   1      -7.662 -47.154  20.813  0.00  0.00    -0.391 OA
ATOM     57  H12 UD2 d   1      -8.138 -47.771  21.357  0.00  0.00     0.210 HD
ENDBRANCH  39  56
BRANCH  41  58
ATOM     58  O4' UD2 d   1      -7.731 -45.362  18.208  0.00  0.00    -0.390 OA
ATOM     59  H13 UD2 d   1      -7.312 -44.663  17.719  0.00  0.00     0.210 HD
ENDBRANCH  41  58
BRANCH  43  60
ATOM     60  C6' UD2 d   1      -8.032 -42.458  19.115  0.00  0.00     0.043 C 
ATOM     61  H6  UD2 d   1      -8.743 -41.990  18.418  0.00  0.00     0.078 H 
ATOM     62  H7  UD2 d   1      -7.131 -42.770  18.566  0.00  0.00     0.078 H 
BRANCH  60  63
ATOM     63  O6' UD2 d   1      -7.660 -41.497  20.126  0.00  0.00    -0.398 OA
ATOM     64  H14 UD2 d   1      -7.257 -40.743  19.712  0.00  0.00     0.209 HD
ENDBRANCH  60  63
ENDBRANCH  43  60
ENDBRANCH  36  37
ENDBRANCH  33  36
ENDBRANCH   1  33
TORSDOF 16
