REMARK WARNING: 32 MAX_TORS EXCEEDED!!!
REMARK  76 active torsions:
REMARK  status: ('A' for Active; 'I' for Inactive)
REMARK    1  A    between atoms: N_1  and  CA_2 
REMARK    2  A    between atoms: CA_2  and  C_3 
REMARK    3  A    between atoms: CA_2  and  CB_5 
REMARK       I    between atoms: C_3  and  N_8 
REMARK    4  A    between atoms: CB_5  and  OG1_6 
REMARK    5  A    between atoms: CB_5  and  CG2_7 
REMARK    6  A    between atoms: N_8  and  CA_9 
REMARK    7  A    between atoms: CA_9  and  C_10 
REMARK    8  A    between atoms: CA_9  and  CB_12 
REMARK       I    between atoms: C_10  and  N_15 
REMARK    9  A    between atoms: CB_12  and  OG1_13 
REMARK   10  A    between atoms: CB_12  and  CG2_14 
REMARK   11  A    between atoms: N_15  and  CA_16 
REMARK   12  A    between atoms: CA_16  and  C_17 
REMARK   13  A    between atoms: CA_16  and  CB_19 
REMARK       I    between atoms: C_17  and  N_27 
REMARK   14  A    between atoms: CB_19  and  CG_20 
REMARK   15  A    between atoms: CZ_25  and  OH_26 
REMARK   16  A    between atoms: N_27  and  CA_28 
REMARK   17  A    between atoms: CA_28  and  C_29 
REMARK   18  A    between atoms: CA_28  and  CB_31 
REMARK       I    between atoms: C_29  and  N_32 
REMARK   19  A    between atoms: N_32  and  CA_33 
REMARK   20  A    between atoms: CA_33  and  C_34 
REMARK   21  A    between atoms: CA_33  and  CB_36 
REMARK       I    between atoms: C_34  and  N_40 
REMARK   22  A    between atoms: CB_36  and  CG_37 
REMARK   23  A    between atoms: N_40  and  CA_41 
REMARK   24  A    between atoms: CA_41  and  C_42 
REMARK   25  A    between atoms: CA_41  and  CB_44 
REMARK       I    between atoms: C_42  and  N_51 
REMARK   26  A    between atoms: CB_44  and  CG_45 
REMARK   27  A    between atoms: N_51  and  CA_52 
REMARK   28  A    between atoms: CA_52  and  C_53 
REMARK   29  A    between atoms: CA_52  and  CB_55 
REMARK       I    between atoms: C_53  and  N_59 
REMARK   30  A    between atoms: CB_55  and  CG1_56 
REMARK   31  A    between atoms: CB_55  and  CG2_57 
REMARK   32  A    between atoms: CG1_56  and  CD1_58 
REMARK   33  A    between atoms: N_59  and  CA_60 
REMARK   34  A    between atoms: CA_60  and  C_61 
REMARK   35  A    between atoms: CA_60  and  CB_63 
REMARK       I    between atoms: C_61  and  N_64 
REMARK   36  A    between atoms: N_64  and  CA_65 
REMARK   37  A    between atoms: CA_65  and  C_66 
REMARK   38  A    between atoms: CA_65  and  CB_68 
REMARK       I    between atoms: C_66  and  N_70 
REMARK   39  A    between atoms: CB_68  and  OG_69 
REMARK   40  A    between atoms: N_70  and  CA_71 
REMARK   41  A    between atoms: CA_71  and  C_72 
REMARK       I    between atoms: C_72  and  N_74 
REMARK   42  A    between atoms: N_74  and  CA_75 
REMARK   43  A    between atoms: CA_75  and  C_76 
REMARK   44  A    between atoms: CA_75  and  CB_78 
REMARK       I    between atoms: C_76  and  N_85 
REMARK   45  A    between atoms: CB_78  and  CG_79 
REMARK   46  A    between atoms: CG_79  and  CD_80 
REMARK   47  A    between atoms: CD_80  and  NE_81 
REMARK       I    between atoms: NE_81  and  CZ_82 
REMARK       I    between atoms: CZ_82  and  NH1_83 
REMARK       I    between atoms: CZ_82  and  NH2_84 
REMARK   48  A    between atoms: N_85  and  CA_86 
REMARK   49  A    between atoms: CA_86  and  C_87 
REMARK   50  A    between atoms: CA_86  and  CB_89 
REMARK       I    between atoms: C_87  and  N_92 
REMARK   51  A    between atoms: CB_89  and  OG1_90 
REMARK   52  A    between atoms: CB_89  and  CG2_91 
REMARK   53  A    between atoms: N_92  and  CA_93 
REMARK   54  A    between atoms: CA_93  and  C_94 
REMARK       I    between atoms: C_94  and  N_96 
REMARK   55  A    between atoms: N_96  and  CA_97 
REMARK   56  A    between atoms: CA_97  and  C_98 
REMARK   57  A    between atoms: CA_97  and  CB_100 
REMARK       I    between atoms: C_98  and  N_107 
REMARK   58  A    between atoms: CB_100  and  CG_101 
REMARK   59  A    between atoms: CG_101  and  CD_102 
REMARK   60  A    between atoms: CD_102  and  NE_103 
REMARK       I    between atoms: NE_103  and  CZ_104 
REMARK       I    between atoms: CZ_104  and  NH1_105 
REMARK       I    between atoms: CZ_104  and  NH2_106 
REMARK   61  A    between atoms: N_107  and  CA_108 
REMARK   62  A    between atoms: CA_108  and  C_109 
REMARK   63  A    between atoms: CA_108  and  CB_111 
REMARK       I    between atoms: C_109  and  N_118 
REMARK   64  A    between atoms: CB_111  and  CG_112 
REMARK   65  A    between atoms: CG_112  and  CD_113 
REMARK   66  A    between atoms: CD_113  and  NE_114 
REMARK       I    between atoms: NE_114  and  CZ_115 
REMARK       I    between atoms: CZ_115  and  NH1_116 
REMARK   67  A    between atoms: N_118  and  CA_119 
REMARK   68  A    between atoms: CA_119  and  C_120 
REMARK   69  A    between atoms: CA_119  and  CB_122 
REMARK       I    between atoms: C_120  and  N_126 
REMARK   70  A    between atoms: CB_122  and  CG_123 
REMARK       I    between atoms: CG_123  and  ND2_125 
REMARK   71  A    between atoms: N_126  and  CA_127 
REMARK   72  A    between atoms: CA_127  and  C_128 
REMARK   73  A    between atoms: CA_127  and  CB_130 
REMARK       I    between atoms: C_128  and  N_131 
REMARK   74  A    between atoms: N_131  and  CA_132 
REMARK   75  A    between atoms: CA_132  and  C_133 
REMARK   76  A    between atoms: CA_132  and  CB_135 
ROOT
ATOM      1  C   THR d   1     -10.467   7.557  24.983  0.00  0.00     0.242 C 
ATOM      2  O   THR d   1     -10.820   8.614  24.446  0.00  0.00    -0.271 OA
ATOM      3  N   THR d   1      -9.190   7.163  25.055  0.00  0.00    -0.350 N 
ATOM      4  H65 THR d   1      -8.982   6.300  25.516  0.00  0.00     0.163 HD
ENDROOT
BRANCH   3   5
ATOM      5  CA  THR d   1      -8.096   7.928  24.497  0.00  0.00     0.069 C 
ATOM      6  H66 THR d   1      -7.161   7.599  24.975  0.00  0.00     0.078 H 
ATOM      7  H67 THR d   1      -8.266   8.992  24.718  0.00  0.00     0.078 H 
BRANCH   5   8
ATOM      8  C   THR d   1      -7.952   7.768  23.010  0.00  0.00     0.236 C 
ATOM      9  O   THR d   1      -8.606   6.973  22.328  0.00  0.00    -0.272 OA
ATOM     10  N   THR d   1      -7.073   8.577  22.461  0.00  0.00    -0.346 N 
ATOM     11  H68 THR d   1      -6.624   9.270  23.026  0.00  0.00     0.163 HD
BRANCH  10  12
ATOM     12  CA  THR d   1      -6.742   8.484  21.053  0.00  0.00     0.089 C 
ATOM     13  H69 THR d   1      -7.538   7.951  20.513  0.00  0.00     0.087 H 
BRANCH  12  14
ATOM     14  C   THR d   1      -5.462   7.665  20.981  0.00  0.00     0.241 C 
ATOM     15  O   THR d   1      -4.430   8.084  21.499  0.00  0.00    -0.271 OA
ATOM     16  N   THR d   1      -5.555   6.449  20.429  0.00  0.00    -0.344 N 
ATOM     17  H81 THR d   1      -6.407   6.169  19.987  0.00  0.00     0.163 HD
BRANCH  16  18
ATOM     18  CA  THR d   1      -4.426   5.530  20.467  0.00  0.00     0.113 C 
ATOM     19  H82 THR d   1      -3.797   5.809  21.325  0.00  0.00     0.091 H 
BRANCH  18  20
ATOM     20  C   THR d   1      -3.555   5.581  19.213  0.00  0.00     0.243 C 
ATOM     21  O   THR d   1      -2.396   5.130  19.262  0.00  0.00    -0.271 OA
ATOM     22  N   THR d   1      -4.077   6.133  18.111  0.00  0.00    -0.350 N 
ATOM     23  H88 THR d   1      -5.006   6.501  18.154  0.00  0.00     0.163 HD
BRANCH  22  24
ATOM     24  CA  THR d   1      -3.355   6.220  16.858  0.00  0.00     0.069 C 
ATOM     25  H89 THR d   1      -4.069   6.109  16.028  0.00  0.00     0.078 H 
ATOM     26  H90 THR d   1      -2.615   5.407  16.817  0.00  0.00     0.078 H 
BRANCH  24  27
ATOM     27  C   THR d   1      -2.635   7.545  16.710  0.00  0.00     0.236 C 
ATOM     28  O   THR d   1      -2.583   8.369  17.623  0.00  0.00    -0.272 OA
ATOM     29  N   THR d   1      -2.046   7.736  15.532  0.00  0.00    -0.346 N 
ATOM     30  H91 THR d   1      -2.122   7.041  14.817  0.00  0.00     0.163 HD
BRANCH  29  31
ATOM     31  CA  THR d   1      -1.292   8.954  15.284  0.00  0.00     0.089 C 
ATOM     32  H92 THR d   1      -0.518   9.060  16.058  0.00  0.00     0.087 H 
BRANCH  31  33
ATOM     33  C   THR d   1      -2.235  10.146  15.364  0.00  0.00     0.241 C 
ATOM     34  O   THR d   1      -3.380  10.079  14.911  0.00  0.00    -0.271 OA
ATOM     35  N   THR d   1      -1.749  11.226  15.957  0.00  0.00    -0.346 N 
ATOM     36 4H10 THR d   1      -0.771  11.255  16.163  0.00  0.00     0.163 HD
BRANCH  35  37
ATOM     37  CA  THR d   1      -2.565  12.371  16.324  0.00  0.00     0.089 C 
ATOM     38 5H10 THR d   1      -3.625  12.109  16.190  0.00  0.00     0.087 H 
BRANCH  37  39
ATOM     39  C   THR d   1      -2.241  13.562  15.445  0.00  0.00     0.241 C 
ATOM     40  O   THR d   1      -1.079  13.966  15.350  0.00  0.00    -0.271 OA
ATOM     41  N   THR d   1      -3.279  14.134  14.847  0.00  0.00    -0.346 N 
ATOM     42 7H11 THR d   1      -4.192  13.746  14.975  0.00  0.00     0.163 HD
BRANCH  41  43
ATOM     43  CA  THR d   1      -3.120  15.307  14.014  0.00  0.00     0.097 C 
ATOM     44 8H11 THR d   1      -2.216  15.179  13.400  0.00  0.00     0.088 H 
BRANCH  43  45
ATOM     45  C   THR d   1      -2.973  16.555  14.854  0.00  0.00     0.241 C 
ATOM     46  O   THR d   1      -3.489  16.659  15.981  0.00  0.00    -0.271 OA
ATOM     47  N   THR d   1      -2.268  17.517  14.276  0.00  0.00    -0.346 N 
ATOM     48 3H12 THR d   1      -1.744  17.319  13.448  0.00  0.00     0.163 HD
BRANCH  47  49
ATOM     49  CA  THR d   1      -2.251  18.860  14.837  0.00  0.00     0.086 C 
ATOM     50 4H12 THR d   1      -2.043  18.789  15.915  0.00  0.00     0.086 H 
BRANCH  49  51
ATOM     51  C   THR d   1      -3.608  19.521  14.640  0.00  0.00     0.240 C 
ATOM     52  O   THR d   1      -4.416  19.118  13.794  0.00  0.00    -0.271 OA
ATOM     53  N   THR d   1      -3.863  20.496  15.512  0.00  0.00    -0.345 N 
ATOM     54 8H12 THR d   1      -3.354  20.459  16.372  0.00  0.00     0.163 HD
BRANCH  53  55
ATOM     55  CA  THR d   1      -4.801  21.619  15.366  0.00  0.00     0.093 C 
ATOM     56 9H12 THR d   1      -4.244  22.516  15.059  0.00  0.00     0.089 H 
BRANCH  55  57
ATOM     57  C   THR d   1      -5.344  21.816  16.783  0.00  0.00     0.196 C 
ATOM     58  O   THR d   1      -4.789  22.579  17.582  0.00  0.00    -0.646 OA
ATOM     59  OXT THR d   1      -6.309  21.180  17.189  0.00  0.00    -0.646 OA
ENDBRANCH  55  57
BRANCH  55  60
ATOM     60  CB  THR d   1      -5.904  21.394  14.334  0.00  0.00    -0.048 C 
ATOM     61 0H13 THR d   1      -6.554  22.280  14.293  0.00  0.00     0.030 H 
ATOM     62 1H13 THR d   1      -6.500  20.515  14.620  0.00  0.00     0.030 H 
ATOM     63 2H13 THR d   1      -5.452  21.225  13.345  0.00  0.00     0.030 H 
ENDBRANCH  55  60
ENDBRANCH  53  55
ENDBRANCH  49  51
BRANCH  49  64
ATOM     64  CB  THR d   1      -1.162  19.708  14.184  0.00  0.00    -0.049 C 
ATOM     65 5H12 THR d   1      -1.169  20.716  14.624  0.00  0.00     0.030 H 
ATOM     66 6H12 THR d   1      -1.351  19.778  13.103  0.00  0.00     0.030 H 
ATOM     67 7H12 THR d   1      -0.181  19.240  14.355  0.00  0.00     0.030 H 
ENDBRANCH  49  64
ENDBRANCH  47  49
ENDBRANCH  43  45
BRANCH  43  68
ATOM     68  CB  THR d   1      -4.314  15.488  13.105  0.00  0.00     0.036 C 
ATOM     69 9H11 THR d   1      -4.209  16.442  12.568  0.00  0.00     0.051 H 
ATOM     70 0H12 THR d   1      -5.226  15.511  13.719  0.00  0.00     0.051 H 
BRANCH  68  71
ATOM     71  CG  THR d   1      -4.432  14.399  12.120  0.00  0.00     0.217 C 
ATOM     72  OD1 THR d   1      -3.428  13.887  11.636  0.00  0.00    -0.274 OA
ATOM     73  ND2 THR d   1      -5.660  14.028  11.798  0.00  0.00    -0.370 N 
ATOM     74 1H12 THR d   1      -5.803  13.294  11.134  0.00  0.00     0.159 HD
ATOM     75 2H12 THR d   1      -6.446  14.482  12.218  0.00  0.00     0.159 HD
ENDBRANCH  68  71
ENDBRANCH  43  68
ENDBRANCH  41  43
ENDBRANCH  37  39
BRANCH  37  76
ATOM     76  CB  THR d   1      -2.322  12.728  17.787  0.00  0.00    -0.036 C 
ATOM     77 6H10 THR d   1      -2.842  13.670  18.014  0.00  0.00     0.036 H 
ATOM     78 7H10 THR d   1      -1.241  12.858  17.946  0.00  0.00     0.036 H 
BRANCH  76  79
ATOM     79  CG  THR d   1      -2.833  11.642  18.732  0.00  0.00    -0.048 C 
ATOM     80 8H10 THR d   1      -2.685  10.667  18.245  0.00  0.00     0.035 H 
ATOM     81 9H10 THR d   1      -3.907  11.810  18.898  0.00  0.00     0.035 H 
BRANCH  79  82
ATOM     82  CD  THR d   1      -2.135  11.605  20.104  0.00  0.00     0.009 C 
ATOM     83 0H11 THR d   1      -2.642  10.863  20.738  0.00  0.00     0.064 H 
ATOM     84 1H11 THR d   1      -2.214  12.599  20.568  0.00  0.00     0.064 H 
BRANCH  82  85
ATOM     85  NE  THR d   1      -0.719  11.246  20.000  0.00  0.00    -0.227 N 
ATOM     86  CZ  THR d   1       0.024  10.834  21.013  0.00  0.00     0.665 C 
ATOM     87  NH1 THR d   1      -0.524  10.681  22.227  0.00  0.00    -0.235 N 
ATOM     88  NH2 THR d   1       1.323  10.551  20.805  0.00  0.00    -0.235 N 
ATOM     89 3H11 THR d   1       0.054  10.360  23.016  0.00  0.00     0.174 HD
ATOM     90 4H11 THR d   1      -1.524  10.884  22.370  0.00  0.00     0.174 HD
ATOM     91 5H11 THR d   1       1.733  10.672  19.868  0.00  0.00     0.174 HD
ATOM     92 6H11 THR d   1       1.907  10.213  21.583  0.00  0.00     0.174 HD
ATOM     93 2H11 THR d   1      -0.272  11.319  19.075  0.00  0.00     0.177 HD
ENDBRANCH  82  85
ENDBRANCH  79  82
ENDBRANCH  76  79
ENDBRANCH  37  76
ENDBRANCH  35  37
ENDBRANCH  31  33
BRANCH  31  94
ATOM     94  CB  THR d   1      -0.611   8.890  13.921  0.00  0.00    -0.036 C 
ATOM     95  H93 THR d   1      -0.142   9.864  13.718  0.00  0.00     0.036 H 
ATOM     96  H94 THR d   1      -1.375   8.685  13.157  0.00  0.00     0.036 H 
BRANCH  94  97
ATOM     97  CG  THR d   1       0.458   7.811  13.838  0.00  0.00    -0.048 C 
ATOM     98  H95 THR d   1      -0.009   6.831  14.015  0.00  0.00     0.035 H 
ATOM     99  H96 THR d   1       1.218   8.000  14.611  0.00  0.00     0.035 H 
BRANCH  97 100
ATOM    100  CD  THR d   1       1.129   7.799  12.481  0.00  0.00     0.009 C 
ATOM    101  H97 THR d   1       1.451   8.822  12.235  0.00  0.00     0.064 H 
ATOM    102  H98 THR d   1       0.404   7.452  11.730  0.00  0.00     0.064 H 
BRANCH 100 103
ATOM    103  NE  THR d   1       2.291   6.921  12.453  0.00  0.00    -0.227 N 
ATOM    104  CZ  THR d   1       2.236   5.600  12.271  0.00  0.00     0.665 C 
ATOM    105  NH1 THR d   1       1.062   4.976  12.101  0.00  0.00    -0.235 N 
ATOM    106  NH2 THR d   1       3.364   4.899  12.258  0.00  0.00    -0.235 N 
ATOM    107 0H10 THR d   1       1.036   3.956  11.962  0.00  0.00     0.174 HD
ATOM    108 1H10 THR d   1       0.185   5.517  12.110  0.00  0.00     0.174 HD
ATOM    109 2H10 THR d   1       4.268   5.375  12.388  0.00  0.00     0.174 HD
ATOM    110 3H10 THR d   1       3.335   3.879  12.118  0.00  0.00     0.174 HD
ATOM    111  H99 THR d   1       3.219   7.349  12.583  0.00  0.00     0.177 HD
ENDBRANCH 100 103
ENDBRANCH  97 100
ENDBRANCH  94  97
ENDBRANCH  31  94
ENDBRANCH  29  31
ENDBRANCH  24  27
ENDBRANCH  22  24
ENDBRANCH  18  20
BRANCH  18 112
ATOM    112  CB  THR d   1      -4.927   4.097  20.677  0.00  0.00     0.060 C 
ATOM    113  H83 THR d   1      -4.068   3.411  20.723  0.00  0.00     0.086 H 
BRANCH 112 114
ATOM    114  OG1 THR d   1      -5.785   3.726  19.594  0.00  0.00    -0.393 OA
ATOM    115  H84 THR d   1      -6.094   2.837  19.727  0.00  0.00     0.210 HD
ENDBRANCH 112 114
BRANCH 112 116
ATOM    116  CG2 THR d   1      -5.719   4.013  21.970  0.00  0.00    -0.050 C 
ATOM    117  H85 THR d   1      -6.076   2.983  22.115  0.00  0.00     0.031 H 
ATOM    118  H86 THR d   1      -6.580   4.695  21.917  0.00  0.00     0.031 H 
ATOM    119  H87 THR d   1      -5.075   4.300  22.814  0.00  0.00     0.031 H 
ENDBRANCH 112 116
ENDBRANCH  18 112
ENDBRANCH  16  18
ENDBRANCH  12  14
BRANCH  12 120
ATOM    120  CB  THR d   1      -6.628   9.890  20.472  0.00  0.00    -0.036 C 
ATOM    121  H70 THR d   1      -6.347   9.830  19.410  0.00  0.00     0.036 H 
ATOM    122  H71 THR d   1      -5.862  10.456  21.022  0.00  0.00     0.036 H 
BRANCH 120 123
ATOM    123  CG  THR d   1      -7.972  10.586  20.606  0.00  0.00    -0.048 C 
ATOM    124  H72 THR d   1      -8.120  10.860  21.661  0.00  0.00     0.035 H 
ATOM    125  H73 THR d   1      -8.761   9.886  20.294  0.00  0.00     0.035 H 
BRANCH 123 126
ATOM    126  CD  THR d   1      -8.078  11.807  19.786  0.00  0.00     0.009 C 
ATOM    127  H74 THR d   1      -9.035  12.303  20.006  0.00  0.00     0.064 H 
ATOM    128  H75 THR d   1      -8.047  11.527  18.723  0.00  0.00     0.064 H 
BRANCH 126 129
ATOM    129  NE  THR d   1      -6.992  12.733  20.062  0.00  0.00    -0.227 N 
ATOM    130  CZ  THR d   1      -6.694  13.725  19.244  0.00  0.00     0.665 C 
ATOM    131  NH1 THR d   1      -5.677  14.511  19.514  0.00  0.00    -0.235 N 
ATOM    132  NH2 THR d   1      -7.416  13.908  18.136  0.00  0.00    -0.235 N 
ATOM    133  H77 THR d   1      -5.442  15.286  18.878  0.00  0.00     0.174 HD
ATOM    134  H78 THR d   1      -5.114  14.352  20.362  0.00  0.00     0.174 HD
ATOM    135  H79 THR d   1      -8.212  13.287  17.932  0.00  0.00     0.174 HD
ATOM    136  H80 THR d   1      -7.177  14.670  17.486  0.00  0.00     0.174 HD
ATOM    137  H76 THR d   1      -6.438  12.611  20.922  0.00  0.00     0.177 HD
ENDBRANCH 126 129
ENDBRANCH 123 126
ENDBRANCH 120 123
ENDBRANCH  12 120
ENDBRANCH  10  12
ENDBRANCH   5   8
ENDBRANCH   3   5
BRANCH   1 138
ATOM    138  CA  THR d   1     -11.518   6.657  25.586  0.00  0.00     0.109 C 
ATOM    139  H61 THR d   1     -12.401   6.669  24.930  0.00  0.00     0.090 H 
BRANCH 138 140
ATOM    140  N   THR d   1     -11.077   5.277  25.713  0.00  0.00    -0.344 N 
ATOM    141  C   THR d   1     -11.769   4.262  25.193  0.00  0.00     0.240 C 
ATOM    142  O   THR d   1     -12.682   4.439  24.385  0.00  0.00    -0.271 OA
ATOM    143  H60 THR d   1     -10.229   5.083  26.206  0.00  0.00     0.163 HD
BRANCH 141 144
ATOM    144  CA  THR d   1     -11.401   2.855  25.633  0.00  0.00     0.086 C 
ATOM    145  H56 THR d   1     -11.728   2.153  24.852  0.00  0.00     0.086 H 
BRANCH 144 146
ATOM    146  N   THR d   1      -9.957   2.702  25.810  0.00  0.00    -0.346 N 
ATOM    147  C   THR d   1      -9.146   2.638  24.751  0.00  0.00     0.241 C 
ATOM    148  O   THR d   1      -9.565   2.820  23.606  0.00  0.00    -0.271 OA
ATOM    149  H55 THR d   1      -9.574   2.645  26.732  0.00  0.00     0.163 HD
BRANCH 147 150
ATOM    150  CA  THR d   1      -7.667   2.358  25.009  0.00  0.00     0.092 C 
ATOM    151  H45 THR d   1      -7.100   2.726  24.141  0.00  0.00     0.088 H 
BRANCH 150 152
ATOM    152  N   THR d   1      -7.203   3.076  26.192  0.00  0.00    -0.346 N 
ATOM    153  C   THR d   1      -7.226   4.412  26.201  0.00  0.00     0.241 C 
ATOM    154  O   THR d   1      -7.605   5.061  25.224  0.00  0.00    -0.271 OA
ATOM    155  H44 THR d   1      -6.871   2.572  26.989  0.00  0.00     0.163 HD
BRANCH 153 156
ATOM    156  CA  THR d   1      -6.807   5.107  27.490  0.00  0.00     0.093 C 
ATOM    157  H36 THR d   1      -7.125   6.158  27.431  0.00  0.00     0.088 H 
BRANCH 156 158
ATOM    158  N   THR d   1      -7.444   4.496  28.654  0.00  0.00    -0.346 N 
ATOM    159  C   THR d   1      -8.778   4.449  28.773  0.00  0.00     0.241 C 
ATOM    160  O   THR d   1      -9.535   5.059  28.011  0.00  0.00    -0.271 OA
ATOM    161  H35 THR d   1      -6.873   4.105  29.376  0.00  0.00     0.163 HD
BRANCH 159 162
ATOM    162  CA  THR d   1      -9.350   3.665  29.951  0.00  0.00     0.098 C 
ATOM    163  H32 THR d   1     -10.372   3.346  29.698  0.00  0.00     0.088 H 
BRANCH 162 164
ATOM    164  N   THR d   1      -8.553   2.469  30.243  0.00  0.00    -0.346 N 
ATOM    165  C   THR d   1      -8.506   1.461  29.376  0.00  0.00     0.240 C 
ATOM    166  O   THR d   1      -9.168   1.462  28.335  0.00  0.00    -0.271 OA
ATOM    167  H31 THR d   1      -8.041   2.411  31.100  0.00  0.00     0.163 HD
BRANCH 165 168
ATOM    168  CA  THR d   1      -7.632   0.267  29.739  0.00  0.00     0.086 C 
ATOM    169  H27 THR d   1      -7.407  -0.290  28.817  0.00  0.00     0.086 H 
BRANCH 168 170
ATOM    170  N   THR d   1      -6.374   0.699  30.331  0.00  0.00    -0.346 N 
ATOM    171  C   THR d   1      -5.559   1.520  29.652  0.00  0.00     0.241 C 
ATOM    172  O   THR d   1      -5.817   1.900  28.503  0.00  0.00    -0.271 OA
ATOM    173  H26 THR d   1      -6.117   0.383  31.244  0.00  0.00     0.163 HD
BRANCH 171 174
ATOM    174  CA  THR d   1      -4.276   1.977  30.344  0.00  0.00     0.093 C 
ATOM    175  H18 THR d   1      -3.890   2.852  29.800  0.00  0.00     0.088 H 
BRANCH 174 176
ATOM    176  N   THR d   1      -4.542   2.377  31.718  0.00  0.00    -0.346 N 
ATOM    177  C   THR d   1      -5.406   3.361  31.972  0.00  0.00     0.243 C 
ATOM    178  O   THR d   1      -5.973   3.982  31.062  0.00  0.00    -0.271 OA
ATOM    179  H17 THR d   1      -4.077   1.914  32.472  0.00  0.00     0.163 HD
BRANCH 177 180
ATOM    180  CA  THR d   1      -5.721   3.664  33.436  0.00  0.00     0.113 C 
ATOM    181  H11 THR d   1      -6.668   4.222  33.470  0.00  0.00     0.091 H 
BRANCH 180 182
ATOM    182  N   THR d   1      -5.886   2.437  34.218  0.00  0.00    -0.344 N 
ATOM    183  C   THR d   1      -6.842   1.579  33.869  0.00  0.00     0.251 C 
ATOM    184  O   THR d   1      -7.650   1.822  32.973  0.00  0.00    -0.271 OA
ATOM    185  H10 THR d   1      -5.292   2.247  34.999  0.00  0.00     0.163 HD
BRANCH 183 186
ATOM    186  CA  THR d   1      -6.895   0.259  34.636  0.00  0.00     0.199 C 
ATOM    187  H4  THR d   1      -6.839   0.465  35.715  0.00  0.00     0.103 H 
BRANCH 186 188
ATOM    188  N   THR d   1      -8.134  -0.465  34.369  0.00  0.00    -0.064 N 
ATOM    189  H1  THR d   1      -8.920   0.097  34.657  0.00  0.00     0.275 HD
ATOM    190  H2  THR d   1      -8.134  -1.332  34.884  0.00  0.00     0.275 HD
ATOM    191  H3  THR d   1      -8.203  -0.660  33.383  0.00  0.00     0.275 HD
ENDBRANCH 186 188
BRANCH 186 192
ATOM    192  CB  THR d   1      -5.694  -0.543  34.222  0.00  0.00     0.068 C 
ATOM    193  H5  THR d   1      -4.773  -0.001  34.483  0.00  0.00     0.086 H 
BRANCH 192 194
ATOM    194  OG1 THR d   1      -5.768  -0.744  32.810  0.00  0.00    -0.393 OA
ATOM    195  H6  THR d   1      -5.017  -1.250  32.523  0.00  0.00     0.210 HD
ENDBRANCH 192 194
BRANCH 192 196
ATOM    196  CG2 THR d   1      -5.701  -1.907  34.904  0.00  0.00    -0.050 C 
ATOM    197  H7  THR d   1      -4.816  -2.479  34.589  0.00  0.00     0.031 H 
ATOM    198  H8  THR d   1      -6.612  -2.455  34.619  0.00  0.00     0.031 H 
ATOM    199  H9  THR d   1      -5.681  -1.771  35.995  0.00  0.00     0.031 H 
ENDBRANCH 192 196
ENDBRANCH 186 192
ENDBRANCH 183 186
ENDBRANCH 180 182
BRANCH 180 200
ATOM    200  CB  THR d   1      -4.633   4.530  34.060  0.00  0.00     0.060 C 
ATOM    201  H12 THR d   1      -3.683   3.975  34.042  0.00  0.00     0.086 H 
BRANCH 200 202
ATOM    202  OG1 THR d   1      -4.970   4.836  35.425  0.00  0.00    -0.393 OA
ATOM    203  H13 THR d   1      -4.287   5.375  35.805  0.00  0.00     0.210 HD
ENDBRANCH 200 202
BRANCH 200 204
ATOM    204  CG2 THR d   1      -4.464   5.830  33.265  0.00  0.00    -0.050 C 
ATOM    205  H14 THR d   1      -3.676   6.443  33.728  0.00  0.00     0.031 H 
ATOM    206  H15 THR d   1      -5.412   6.388  33.269  0.00  0.00     0.031 H 
ATOM    207  H16 THR d   1      -4.182   5.592  32.229  0.00  0.00     0.031 H 
ENDBRANCH 200 204
ENDBRANCH 180 200
ENDBRANCH 177 180
ENDBRANCH 174 176
BRANCH 174 208
ATOM    208  CB  THR d   1      -3.207   0.890  30.311  0.00  0.00    -0.014 C 
ATOM    209  H19 THR d   1      -3.548   0.041  30.922  0.00  0.00     0.043 H 
ATOM    210  H20 THR d   1      -2.277   1.297  30.736  0.00  0.00     0.043 H 
BRANCH 208 211
ATOM    211  CG  THR d   1      -2.924   0.396  28.908  0.00  0.00    -0.056 A 
ATOM    212  CD1 THR d   1      -2.275   1.206  27.978  0.00  0.00    -0.074 A 
ATOM    213  CE1 THR d   1      -2.041   0.771  26.703  0.00  0.00    -0.051 A 
ATOM    214  H21 THR d   1      -1.950   2.198  28.270  0.00  0.00     0.084 H 
ATOM    215  CZ  THR d   1      -2.471  -0.482  26.320  0.00  0.00     0.065 A 
ATOM    216  H23 THR d   1      -1.520   1.408  25.997  0.00  0.00     0.087 H 
ATOM    217  CE2 THR d   1      -3.114  -1.296  27.215  0.00  0.00    -0.051 A 
ATOM    218  CD2 THR d   1      -3.352  -0.850  28.492  0.00  0.00    -0.074 A 
ATOM    219  H24 THR d   1      -3.434  -2.288  26.916  0.00  0.00     0.087 H 
ATOM    220  H22 THR d   1      -3.886  -1.488  29.187  0.00  0.00     0.084 H 
BRANCH 215 221
ATOM    221  OH  THR d   1      -2.228  -0.935  25.038  0.00  0.00    -0.361 OA
ATOM    222  H25 THR d   1      -1.778  -0.259  24.544  0.00  0.00     0.217 HD
ENDBRANCH 215 221
ENDBRANCH 208 211
ENDBRANCH 174 208
ENDBRANCH 171 174
ENDBRANCH 168 170
BRANCH 168 223
ATOM    223  CB  THR d   1      -8.379  -0.663  30.698  0.00  0.00    -0.049 C 
ATOM    224  H28 THR d   1      -9.326  -0.981  30.237  0.00  0.00     0.030 H 
ATOM    225  H29 THR d   1      -8.589  -0.130  31.637  0.00  0.00     0.030 H 
ATOM    226  H30 THR d   1      -7.759  -1.547  30.909  0.00  0.00     0.030 H 
ENDBRANCH 168 223
ENDBRANCH 165 168
ENDBRANCH 162 164
BRANCH 162 227
ATOM    227  CB  THR d   1      -9.407   4.574  31.165  0.00  0.00     0.043 C 
ATOM    228  H33 THR d   1      -9.856   5.532  30.864  0.00  0.00     0.052 H 
ATOM    229  H34 THR d   1      -8.381   4.746  31.521  0.00  0.00     0.052 H 
BRANCH 227 230
ATOM    230  CG  THR d   1     -10.229   3.993  32.316  0.00  0.00     0.175 C 
ATOM    231  OD1 THR d   1     -10.934   2.975  32.144  0.00  0.00    -0.648 OA
ATOM    232  OD2 THR d   1     -10.133   4.559  33.425  0.00  0.00    -0.648 OA
ENDBRANCH 227 230
ENDBRANCH 162 227
ENDBRANCH 159 162
ENDBRANCH 156 158
BRANCH 156 233
ATOM    233  CB  THR d   1      -5.294   5.068  27.663  0.00  0.00    -0.014 C 
ATOM    234  H37 THR d   1      -4.999   4.034  27.894  0.00  0.00     0.043 H 
ATOM    235  H38 THR d   1      -5.026   5.722  28.505  0.00  0.00     0.043 H 
BRANCH 233 236
ATOM    236  CG  THR d   1      -4.528   5.518  26.454  0.00  0.00    -0.056 A 
ATOM    237  CD1 THR d   1      -4.603   6.823  26.031  0.00  0.00    -0.077 A 
ATOM    238  CE1 THR d   1      -3.885   7.245  24.912  0.00  0.00    -0.082 A 
ATOM    239  H39 THR d   1      -5.224   7.529  26.570  0.00  0.00     0.084 H 
ATOM    240  CZ  THR d   1      -3.130   6.363  24.198  0.00  0.00    -0.083 A 
ATOM    241  H41 THR d   1      -3.928   8.284  24.607  0.00  0.00     0.083 H 
ATOM    242  CE2 THR d   1      -3.034   5.035  24.617  0.00  0.00    -0.082 A 
ATOM    243  H43 THR d   1      -2.606   6.692  23.308  0.00  0.00     0.083 H 
ATOM    244  CD2 THR d   1      -3.753   4.625  25.728  0.00  0.00    -0.077 A 
ATOM    245  H42 THR d   1      -2.405   4.334  24.080  0.00  0.00     0.083 H 
ATOM    246  H40 THR d   1      -3.709   3.587  26.036  0.00  0.00     0.084 H 
ENDBRANCH 233 236
ENDBRANCH 156 233
ENDBRANCH 153 156
ENDBRANCH 150 152
BRANCH 150 247
ATOM    247  CB  THR d   1      -7.381   0.852  25.155  0.00  0.00    -0.030 C 
ATOM    248  H46 THR d   1      -7.921   0.478  26.037  0.00  0.00     0.043 H 
BRANCH 247 249
ATOM    249  CG1 THR d   1      -5.872   0.588  25.350  0.00  0.00    -0.063 C 
ATOM    250  H47 THR d   1      -5.720  -0.501  25.383  0.00  0.00     0.033 H 
ATOM    251  H48 THR d   1      -5.573   1.029  26.312  0.00  0.00     0.033 H 
BRANCH 249 252
ATOM    252  CD1 THR d   1      -4.975   1.147  24.288  0.00  0.00    -0.076 C 
ATOM    253  H52 THR d   1      -3.929   0.902  24.525  0.00  0.00     0.027 H 
ATOM    254  H53 THR d   1      -5.095   2.240  24.244  0.00  0.00     0.027 H 
ATOM    255  H54 THR d   1      -5.242   0.710  23.315  0.00  0.00     0.027 H 
ENDBRANCH 249 252
ENDBRANCH 247 249
BRANCH 247 256
ATOM    256  CG2 THR d   1      -7.868   0.102  23.927  0.00  0.00    -0.071 C 
ATOM    257  H49 THR d   1      -8.943   0.288  23.786  0.00  0.00     0.028 H 
ATOM    258  H50 THR d   1      -7.698  -0.976  24.064  0.00  0.00     0.028 H 
ATOM    259  H51 THR d   1      -7.316   0.451  23.042  0.00  0.00     0.028 H 
ENDBRANCH 247 256
ENDBRANCH 150 247
ENDBRANCH 147 150
ENDBRANCH 144 146
BRANCH 144 260
ATOM    260  CB  THR d   1     -12.125   2.513  26.925  0.00  0.00    -0.049 C 
ATOM    261  H57 THR d   1     -13.209   2.631  26.780  0.00  0.00     0.030 H 
ATOM    262  H58 THR d   1     -11.786   3.188  27.725  0.00  0.00     0.030 H 
ATOM    263  H59 THR d   1     -11.904   1.472  27.205  0.00  0.00     0.030 H 
ENDBRANCH 144 260
ENDBRANCH 141 144
ENDBRANCH 138 140
BRANCH 138 264
ATOM    264  CB  THR d   1     -11.915   7.235  26.963  0.00  0.00     0.044 C 
ATOM    265  H62 THR d   1     -12.244   8.277  26.835  0.00  0.00     0.077 H 
ATOM    266  H63 THR d   1     -11.042   7.206  27.632  0.00  0.00     0.077 H 
BRANCH 264 267
ATOM    267  OG  THR d   1     -12.964   6.485  27.538  0.00  0.00    -0.398 OA
ATOM    268  H64 THR d   1     -13.192   6.857  28.382  0.00  0.00     0.209 HD
ENDBRANCH 264 267
ENDBRANCH 138 264
ENDBRANCH   1 138
TORSDOF 76
