REMARK WARNING: 32 MAX_TORS EXCEEDED!!!
REMARK  77 active torsions:
REMARK  status: ('A' for Active; 'I' for Inactive)
REMARK    1  A    between atoms: N_1  and  CA_2 
REMARK    2  A    between atoms: CA_2  and  C_3 
REMARK    3  A    between atoms: CA_2  and  CB_5 
REMARK       I    between atoms: C_3  and  N_8 
REMARK    4  A    between atoms: CB_5  and  OG1_6 
REMARK    5  A    between atoms: CB_5  and  CG2_7 
REMARK    6  A    between atoms: N_8  and  CA_9 
REMARK    7  A    between atoms: CA_9  and  C_10 
REMARK    8  A    between atoms: CA_9  and  CB_12 
REMARK       I    between atoms: C_10  and  N_15 
REMARK    9  A    between atoms: CB_12  and  OG1_13 
REMARK   10  A    between atoms: CB_12  and  CG2_14 
REMARK   11  A    between atoms: N_15  and  CA_16 
REMARK   12  A    between atoms: CA_16  and  C_17 
REMARK   13  A    between atoms: CA_16  and  CB_19 
REMARK       I    between atoms: C_17  and  N_27 
REMARK   14  A    between atoms: CB_19  and  CG_20 
REMARK   15  A    between atoms: CZ_25  and  OH_26 
REMARK   16  A    between atoms: N_27  and  CA_28 
REMARK   17  A    between atoms: CA_28  and  C_29 
REMARK   18  A    between atoms: CA_28  and  CB_31 
REMARK       I    between atoms: C_29  and  N_32 
REMARK   19  A    between atoms: N_32  and  CA_33 
REMARK   20  A    between atoms: CA_33  and  C_34 
REMARK   21  A    between atoms: CA_33  and  CB_36 
REMARK       I    between atoms: C_34  and  N_40 
REMARK   22  A    between atoms: CB_36  and  CG_37 
REMARK   23  A    between atoms: N_40  and  CA_41 
REMARK   24  A    between atoms: CA_41  and  C_42 
REMARK   25  A    between atoms: CA_41  and  CB_44 
REMARK       I    between atoms: C_42  and  N_51 
REMARK   26  A    between atoms: CB_44  and  CG_45 
REMARK   27  A    between atoms: N_51  and  CA_52 
REMARK   28  A    between atoms: CA_52  and  C_53 
REMARK   29  A    between atoms: CA_52  and  CB_55 
REMARK       I    between atoms: C_53  and  N_59 
REMARK   30  A    between atoms: CB_55  and  CG1_56 
REMARK   31  A    between atoms: CB_55  and  CG2_57 
REMARK   32  A    between atoms: CG1_56  and  CD1_58 
REMARK   33  A    between atoms: N_59  and  CA_60 
REMARK   34  A    between atoms: CA_60  and  C_61 
REMARK   35  A    between atoms: CA_60  and  CB_63 
REMARK       I    between atoms: C_61  and  N_64 
REMARK   36  A    between atoms: N_64  and  CA_65 
REMARK   37  A    between atoms: CA_65  and  C_66 
REMARK   38  A    between atoms: CA_65  and  CB_68 
REMARK       I    between atoms: C_66  and  N_70 
REMARK   39  A    between atoms: CB_68  and  OG_69 
REMARK   40  A    between atoms: N_70  and  CA_71 
REMARK   41  A    between atoms: CA_71  and  C_72 
REMARK       I    between atoms: C_72  and  N_74 
REMARK   42  A    between atoms: N_74  and  CA_75 
REMARK   43  A    between atoms: CA_75  and  C_76 
REMARK   44  A    between atoms: CA_75  and  CB_78 
REMARK       I    between atoms: C_76  and  N_85 
REMARK   45  A    between atoms: CB_78  and  CG_79 
REMARK   46  A    between atoms: CG_79  and  CD_80 
REMARK   47  A    between atoms: CD_80  and  NE_81 
REMARK       I    between atoms: NE_81  and  CZ_82 
REMARK       I    between atoms: CZ_82  and  NH1_83 
REMARK       I    between atoms: CZ_82  and  NH2_84 
REMARK   48  A    between atoms: N_85  and  CA_86 
REMARK   49  A    between atoms: CA_86  and  C_87 
REMARK   50  A    between atoms: CA_86  and  CB_89 
REMARK       I    between atoms: C_87  and  N_92 
REMARK   51  A    between atoms: CB_89  and  OG1_90 
REMARK   52  A    between atoms: CB_89  and  CG2_91 
REMARK   53  A    between atoms: N_92  and  CA_93 
REMARK   54  A    between atoms: CA_93  and  C_94 
REMARK       I    between atoms: C_94  and  N_96 
REMARK   55  A    between atoms: N_96  and  CA_97 
REMARK   56  A    between atoms: CA_97  and  C_98 
REMARK   57  A    between atoms: CA_97  and  CB_100 
REMARK       I    between atoms: C_98  and  N_102 
REMARK   58  A    between atoms: CB_100  and  OG_101 
REMARK   59  A    between atoms: N_102  and  CA_103 
REMARK   60  A    between atoms: CA_103  and  C_104 
REMARK   61  A    between atoms: CA_103  and  CB_106 
REMARK       I    between atoms: C_104  and  N_113 
REMARK   62  A    between atoms: CB_106  and  CG_107 
REMARK   63  A    between atoms: CG_107  and  CD_108 
REMARK   64  A    between atoms: CD_108  and  NE_109 
REMARK       I    between atoms: NE_109  and  CZ_110 
REMARK       I    between atoms: CZ_110  and  NH1_111 
REMARK   65  A    between atoms: N_113  and  CA_114 
REMARK   66  A    between atoms: CA_114  and  C_115 
REMARK   67  A    between atoms: CA_114  and  CB_117 
REMARK       I    between atoms: C_115  and  N_121 
REMARK   68  A    between atoms: CB_117  and  CG_118 
REMARK       I    between atoms: CG_118  and  ND2_120 
REMARK   69  A    between atoms: N_121  and  CA_122 
REMARK   70  A    between atoms: CA_122  and  C_123 
REMARK   71  A    between atoms: CA_122  and  CB_125 
REMARK       I    between atoms: C_123  and  N_126 
REMARK   72  A    between atoms: N_126  and  CA_127 
REMARK   73  A    between atoms: CA_127  and  C_128 
REMARK   74  A    between atoms: CA_127  and  CB_130 
REMARK   75  A    between atoms: CB_130  and  CG1_131 
REMARK   76  A    between atoms: CB_130  and  CG2_132 
REMARK   77  A    between atoms: CG1_131  and  CD1_133 
ROOT
ATOM      1  C   THR d   1       9.750 -29.358  33.540  0.00  0.00     0.242 C 
ATOM      2  O   THR d   1       9.523 -28.354  34.226  0.00  0.00    -0.271 OA
ATOM      3  N   THR d   1       8.952 -30.422  33.543  0.00  0.00    -0.350 N 
ATOM      4  H65 THR d   1       9.200 -31.225  33.001  0.00  0.00     0.163 HD
ENDROOT
BRANCH   1   5
ATOM      5  CA  THR d   1      10.932 -29.368  32.603  0.00  0.00     0.109 C 
ATOM      6  H61 THR d   1      11.784 -28.877  33.096  0.00  0.00     0.090 H 
BRANCH   5   7
ATOM      7  N   THR d   1      11.349 -30.713  32.214  0.00  0.00    -0.344 N 
ATOM      8  C   THR d   1      11.813 -31.585  33.121  0.00  0.00     0.240 C 
ATOM      9  O   THR d   1      11.912 -31.303  34.318  0.00  0.00    -0.271 OA
ATOM     10  H60 THR d   1      11.287 -30.988  31.255  0.00  0.00     0.163 HD
BRANCH   8  11
ATOM     11  CA  THR d   1      12.259 -32.947  32.637  0.00  0.00     0.086 C 
ATOM     12  H56 THR d   1      11.988 -33.690  33.401  0.00  0.00     0.086 H 
BRANCH  11  13
ATOM     13  N   THR d   1      11.617 -33.332  31.384  0.00  0.00    -0.346 N 
ATOM     14  C   THR d   1      10.302 -33.579  31.326  0.00  0.00     0.241 C 
ATOM     15  O   THR d   1       9.559 -33.375  32.291  0.00  0.00    -0.271 OA
ATOM     16  H55 THR d   1      12.169 -33.413  30.554  0.00  0.00     0.163 HD
BRANCH  14  17
ATOM     17  CA  THR d   1       9.747 -34.072  29.998  0.00  0.00     0.092 C 
ATOM     18  H45 THR d   1       8.659 -33.914  30.001  0.00  0.00     0.088 H 
BRANCH  17  19
ATOM     19  N   THR d   1      10.329 -33.301  28.899  0.00  0.00    -0.346 N 
ATOM     20  C   THR d   1      10.194 -31.971  28.876  0.00  0.00     0.241 C 
ATOM     21  O   THR d   1       9.516 -31.370  29.699  0.00  0.00    -0.271 OA
ATOM     22  H44 THR d   1      10.826 -33.767  28.167  0.00  0.00     0.163 HD
BRANCH  20  23
ATOM     23  CA  THR d   1      10.914 -31.222  27.765  0.00  0.00     0.093 C 
ATOM     24  H36 THR d   1      10.926 -30.150  28.012  0.00  0.00     0.088 H 
BRANCH  23  25
ATOM     25  N   THR d   1      12.289 -31.698  27.642  0.00  0.00    -0.346 N 
ATOM     26  C   THR d   1      13.171 -31.532  28.628  0.00  0.00     0.241 C 
ATOM     27  O   THR d   1      12.886 -30.956  29.685  0.00  0.00    -0.271 OA
ATOM     28  H35 THR d   1      12.575 -32.158  26.801  0.00  0.00     0.163 HD
BRANCH  26  29
ATOM     29  CA  THR d   1      14.573 -32.091  28.395  0.00  0.00     0.098 C 
ATOM     30  H32 THR d   1      15.042 -32.273  29.373  0.00  0.00     0.088 H 
BRANCH  29  31
ATOM     31  N   THR d   1      14.510 -33.358  27.674  0.00  0.00    -0.346 N 
ATOM     32  C   THR d   1      13.869 -34.415  28.206  0.00  0.00     0.240 C 
ATOM     33  O   THR d   1      13.336 -34.375  29.325  0.00  0.00    -0.271 OA
ATOM     34  H31 THR d   1      14.946 -33.441  26.778  0.00  0.00     0.163 HD
BRANCH  32  35
ATOM     35  CA  THR d   1      13.820 -35.685  27.376  0.00  0.00     0.086 C 
ATOM     36  H27 THR d   1      12.986 -36.303  27.739  0.00  0.00     0.086 H 
BRANCH  35  37
ATOM     37  N   THR d   1      13.583 -35.384  25.962  0.00  0.00    -0.346 N 
ATOM     38  C   THR d   1      12.464 -34.747  25.607  0.00  0.00     0.241 C 
ATOM     39  O   THR d   1      11.592 -34.432  26.431  0.00  0.00    -0.271 OA
ATOM     40  H26 THR d   1      14.252 -35.653  25.269  0.00  0.00     0.163 HD
BRANCH  38  41
ATOM     41  CA  THR d   1      12.303 -34.397  24.136  0.00  0.00     0.093 C 
ATOM     42  H18 THR d   1      11.511 -33.640  24.043  0.00  0.00     0.088 H 
BRANCH  41  43
ATOM     43  N   THR d   1      13.542 -33.838  23.596  0.00  0.00    -0.346 N 
ATOM     44  C   THR d   1      14.070 -32.743  24.139  0.00  0.00     0.243 C 
ATOM     45  O   THR d   1      13.522 -32.139  25.078  0.00  0.00    -0.271 OA
ATOM     46  H17 THR d   1      13.992 -34.278  22.819  0.00  0.00     0.163 HD
BRANCH  44  47
ATOM     47  CA  THR d   1      15.384 -32.232  23.540  0.00  0.00     0.113 C 
ATOM     48  H11 THR d   1      15.849 -31.550  24.267  0.00  0.00     0.091 H 
BRANCH  47  49
ATOM     49  N   THR d   1      16.319 -33.326  23.273  0.00  0.00    -0.344 N 
ATOM     50  C   THR d   1      16.745 -34.082  24.288  0.00  0.00     0.251 C 
ATOM     51  O   THR d   1      16.371 -33.917  25.437  0.00  0.00    -0.271 OA
ATOM     52  H10 THR d   1      16.635 -33.505  22.341  0.00  0.00     0.163 HD
BRANCH  50  53
ATOM     53  CA  THR d   1      17.704 -35.198  23.967  0.00  0.00     0.199 C 
ATOM     54  H4  THR d   1      18.474 -34.834  23.271  0.00  0.00     0.103 H 
BRANCH  53  55
ATOM     55  N   THR d   1      18.361 -35.627  25.206  0.00  0.00    -0.064 N 
ATOM     56  H1  THR d   1      18.861 -34.849  25.608  0.00  0.00     0.275 HD
ATOM     57  H2  THR d   1      19.007 -36.373  25.003  0.00  0.00     0.275 HD
ATOM     58  H3  THR d   1      17.666 -35.953  25.859  0.00  0.00     0.275 HD
ENDBRANCH  53  55
BRANCH  53  59
ATOM     59  CB  THR d   1      16.917 -36.316  23.284  0.00  0.00     0.068 C 
ATOM     60  H5  THR d   1      16.569 -35.951  22.307  0.00  0.00     0.086 H 
BRANCH  59  61
ATOM     61  OG1 THR d   1      15.773 -36.656  24.081  0.00  0.00    -0.393 OA
ATOM     62  H6  THR d   1      15.286 -37.351  23.654  0.00  0.00     0.210 HD
ENDBRANCH  59  61
BRANCH  59  63
ATOM     63  CG2 THR d   1      17.794 -37.554  23.052  0.00  0.00    -0.050 C 
ATOM     64  H7  THR d   1      17.199 -38.338  22.560  0.00  0.00     0.031 H 
ATOM     65  H8  THR d   1      18.165 -37.927  24.018  0.00  0.00     0.031 H 
ATOM     66  H9  THR d   1      18.647 -37.285  22.411  0.00  0.00     0.031 H 
ENDBRANCH  59  63
ENDBRANCH  53  59
ENDBRANCH  50  53
ENDBRANCH  47  49
BRANCH  47  67
ATOM     67  CB  THR d   1      15.119 -31.460  22.251  0.00  0.00     0.060 C 
ATOM     68  H12 THR d   1      14.515 -32.075  21.568  0.00  0.00     0.086 H 
BRANCH  67  69
ATOM     69  OG1 THR d   1      16.378 -31.148  21.640  0.00  0.00    -0.393 OA
ATOM     70  H13 THR d   1      16.843 -31.953  21.446  0.00  0.00     0.210 HD
ENDBRANCH  67  69
BRANCH  67  71
ATOM     71  CG2 THR d   1      14.379 -30.168  22.561  0.00  0.00    -0.050 C 
ATOM     72  H14 THR d   1      14.193 -29.619  21.626  0.00  0.00     0.031 H 
ATOM     73  H15 THR d   1      14.989 -29.549  23.235  0.00  0.00     0.031 H 
ATOM     74  H16 THR d   1      13.420 -30.402  23.046  0.00  0.00     0.031 H 
ENDBRANCH  67  71
ENDBRANCH  47  67
ENDBRANCH  44  47
ENDBRANCH  41  43
BRANCH  41  75
ATOM     75  CB  THR d   1      11.891 -35.625  23.346  0.00  0.00    -0.014 C 
ATOM     76  H19 THR d   1      12.718 -36.350  23.367  0.00  0.00     0.043 H 
ATOM     77  H20 THR d   1      11.693 -35.325  22.307  0.00  0.00     0.043 H 
BRANCH  75  78
ATOM     78  CG  THR d   1      10.649 -36.290  23.903  0.00  0.00    -0.056 A 
ATOM     79  CD1 THR d   1      10.714 -37.532  24.529  0.00  0.00    -0.074 A 
ATOM     80  CE1 THR d   1       9.569 -38.138  25.022  0.00  0.00    -0.051 A 
ATOM     81  H21 THR d   1      11.671 -38.031  24.632  0.00  0.00     0.084 H 
ATOM     82  CZ  THR d   1       8.349 -37.499  24.922  0.00  0.00     0.065 A 
ATOM     83  H23 THR d   1       9.631 -39.115  25.487  0.00  0.00     0.087 H 
ATOM     84  CE2 THR d   1       8.264 -36.261  24.315  0.00  0.00    -0.051 A 
ATOM     85  CD2 THR d   1       9.408 -35.666  23.817  0.00  0.00    -0.074 A 
ATOM     86  H24 THR d   1       7.307 -35.760  24.230  0.00  0.00     0.087 H 
ATOM     87  H22 THR d   1       9.337 -34.691  23.349  0.00  0.00     0.084 H 
BRANCH  82  88
ATOM     88  OH  THR d   1       7.206 -38.111  25.409  0.00  0.00    -0.361 OA
ATOM     89  H25 THR d   1       7.436 -38.949  25.793  0.00  0.00     0.217 HD
ENDBRANCH  82  88
ENDBRANCH  75  78
ENDBRANCH  41  75
ENDBRANCH  38  41
ENDBRANCH  35  37
BRANCH  35  90
ATOM     90  CB  THR d   1      15.118 -36.477  27.550  0.00  0.00    -0.049 C 
ATOM     91  H28 THR d   1      15.276 -36.692  28.617  0.00  0.00     0.030 H 
ATOM     92  H29 THR d   1      15.963 -35.886  27.166  0.00  0.00     0.030 H 
ATOM     93  H30 THR d   1      15.048 -37.422  26.992  0.00  0.00     0.030 H 
ENDBRANCH  35  90
ENDBRANCH  32  35
ENDBRANCH  29  31
BRANCH  29  94
ATOM     94  CB  THR d   1      15.428 -31.068  27.630  0.00  0.00     0.043 C 
ATOM     95  H33 THR d   1      15.347 -30.096  28.138  0.00  0.00     0.052 H 
ATOM     96  H34 THR d   1      15.035 -30.980  26.606  0.00  0.00     0.052 H 
BRANCH  94  97
ATOM     97  CG  THR d   1      16.904 -31.452  27.551  0.00  0.00     0.175 C 
ATOM     98  OD1 THR d   1      17.330 -32.326  28.337  0.00  0.00    -0.648 OA
ATOM     99  OD2 THR d   1      17.627 -30.869  26.693  0.00  0.00    -0.648 OA
ENDBRANCH  94  97
ENDBRANCH  29  94
ENDBRANCH  26  29
ENDBRANCH  23  25
BRANCH  23 100
ATOM    100  CB  THR d   1      10.201 -31.414  26.436  0.00  0.00    -0.014 C 
ATOM    101  H37 THR d   1      10.264 -32.478  26.164  0.00  0.00     0.043 H 
ATOM    102  H38 THR d   1      10.721 -30.810  25.678  0.00  0.00     0.043 H 
BRANCH 100 103
ATOM    103  CG  THR d   1       8.750 -31.016  26.438  0.00  0.00    -0.056 A 
ATOM    104  CD1 THR d   1       8.346 -29.776  26.857  0.00  0.00    -0.077 A 
ATOM    105  CE1 THR d   1       6.988 -29.419  26.827  0.00  0.00    -0.082 A 
ATOM    106  H39 THR d   1       9.081 -29.064  27.215  0.00  0.00     0.084 H 
ATOM    107  CZ  THR d   1       6.049 -30.317  26.388  0.00  0.00    -0.083 A 
ATOM    108  H41 THR d   1       6.681 -28.431  27.152  0.00  0.00     0.083 H 
ATOM    109  CE2 THR d   1       6.441 -31.552  25.971  0.00  0.00    -0.082 A 
ATOM    110  H43 THR d   1       5.000 -30.045  26.373  0.00  0.00     0.083 H 
ATOM    111  CD2 THR d   1       7.792 -31.903  25.993  0.00  0.00    -0.077 A 
ATOM    112  H42 THR d   1       5.703 -32.264  25.621  0.00  0.00     0.083 H 
ATOM    113  H40 THR d   1       8.093 -32.888  25.655  0.00  0.00     0.084 H 
ENDBRANCH 100 103
ENDBRANCH  23 100
ENDBRANCH  20  23
ENDBRANCH  17  19
BRANCH  17 114
ATOM    114  CB  THR d   1      10.015 -35.577  29.780  0.00  0.00    -0.030 C 
ATOM    115  H46 THR d   1      11.104 -35.718  29.718  0.00  0.00     0.043 H 
BRANCH 114 116
ATOM    116  CG1 THR d   1       9.410 -36.057  28.467  0.00  0.00    -0.063 C 
ATOM    117  H47 THR d   1       9.424 -37.157  28.468  0.00  0.00     0.033 H 
ATOM    118  H48 THR d   1      10.039 -35.683  27.646  0.00  0.00     0.033 H 
BRANCH 116 119
ATOM    119  CD1 THR d   1       7.978 -35.604  28.209  0.00  0.00    -0.076 C 
ATOM    120  H52 THR d   1       7.636 -36.001  27.242  0.00  0.00     0.027 H 
ATOM    121  H53 THR d   1       7.939 -34.505  28.189  0.00  0.00     0.027 H 
ATOM    122  H54 THR d   1       7.325 -35.979  29.011  0.00  0.00     0.027 H 
ENDBRANCH 116 119
ENDBRANCH 114 116
BRANCH 114 123
ATOM    123  CG2 THR d   1       9.494 -36.423  30.984  0.00  0.00    -0.071 C 
ATOM    124  H49 THR d   1       9.948 -36.053  31.915  0.00  0.00     0.028 H 
ATOM    125  H50 THR d   1       9.768 -37.478  30.837  0.00  0.00     0.028 H 
ATOM    126  H51 THR d   1       8.399 -36.334  31.049  0.00  0.00     0.028 H 
ENDBRANCH 114 123
ENDBRANCH  17 114
ENDBRANCH  14  17
ENDBRANCH  11  13
BRANCH  11 127
ATOM    127  CB  THR d   1      13.784 -32.944  32.473  0.00  0.00    -0.049 C 
ATOM    128  H57 THR d   1      14.254 -32.653  33.424  0.00  0.00     0.030 H 
ATOM    129  H58 THR d   1      14.067 -32.227  31.689  0.00  0.00     0.030 H 
ATOM    130  H59 THR d   1      14.124 -33.951  32.189  0.00  0.00     0.030 H 
ENDBRANCH  11 127
ENDBRANCH   8  11
ENDBRANCH   5   7
BRANCH   5 131
ATOM    131  CB  THR d   1      10.508 -28.546  31.380  0.00  0.00     0.044 C 
ATOM    132  H62 THR d   1      11.262 -28.655  30.587  0.00  0.00     0.077 H 
ATOM    133  H63 THR d   1      10.423 -27.486  31.663  0.00  0.00     0.077 H 
BRANCH 131 134
ATOM    134  OG  THR d   1       9.245 -29.013  30.903  0.00  0.00    -0.398 OA
ATOM    135  H64 THR d   1       9.319 -29.928  30.659  0.00  0.00     0.209 HD
ENDBRANCH 131 134
ENDBRANCH   5 131
ENDBRANCH   1   5
BRANCH   3 136
ATOM    136  CA  THR d   1       7.733 -30.437  34.316  0.00  0.00     0.069 C 
ATOM    137  H66 THR d   1       7.964 -30.060  35.323  0.00  0.00     0.078 H 
ATOM    138  H67 THR d   1       7.386 -31.479  34.385  0.00  0.00     0.078 H 
BRANCH 136 139
ATOM    139  C   THR d   1       6.610 -29.608  33.755  0.00  0.00     0.236 C 
ATOM    140  O   THR d   1       5.598 -29.427  34.437  0.00  0.00    -0.272 OA
ATOM    141  N   THR d   1       6.760 -29.088  32.532  0.00  0.00    -0.346 N 
ATOM    142  H68 THR d   1       7.599 -29.291  32.027  0.00  0.00     0.163 HD
BRANCH 141 143
ATOM    143  CA  THR d   1       5.754 -28.237  31.901  0.00  0.00     0.089 C 
ATOM    144  H69 THR d   1       4.952 -28.057  32.632  0.00  0.00     0.087 H 
BRANCH 143 145
ATOM    145  C   THR d   1       5.132 -28.910  30.681  0.00  0.00     0.241 C 
ATOM    146  O   THR d   1       4.911 -28.266  29.655  0.00  0.00    -0.271 OA
ATOM    147  N   THR d   1       4.830 -30.225  30.792  0.00  0.00    -0.344 N 
ATOM    148  H81 THR d   1       5.066 -30.704  31.638  0.00  0.00     0.163 HD
BRANCH 147 149
ATOM    149  CA  THR d   1       4.173 -30.969  29.724  0.00  0.00     0.113 C 
ATOM    150  H82 THR d   1       4.467 -30.506  28.771  0.00  0.00     0.091 H 
BRANCH 149 151
ATOM    151  C   THR d   1       2.654 -30.932  29.819  0.00  0.00     0.243 C 
ATOM    152  O   THR d   1       1.993 -31.318  28.855  0.00  0.00    -0.271 OA
ATOM    153  N   THR d   1       2.085 -30.498  30.963  0.00  0.00    -0.350 N 
ATOM    154  H88 THR d   1       2.676 -30.229  31.724  0.00  0.00     0.163 HD
BRANCH 153 155
ATOM    155  CA  THR d   1       0.648 -30.408  31.128  0.00  0.00     0.069 C 
ATOM    156  H89 THR d   1       0.404 -30.581  32.187  0.00  0.00     0.078 H 
ATOM    157  H90 THR d   1       0.174 -31.185  30.511  0.00  0.00     0.078 H 
BRANCH 155 158
ATOM    158  C   THR d   1       0.095 -29.058  30.717  0.00  0.00     0.236 C 
ATOM    159  O   THR d   1       0.805 -28.189  30.226  0.00  0.00    -0.272 OA
ATOM    160  N   THR d   1      -1.216 -28.928  30.851  0.00  0.00    -0.344 N 
ATOM    161  H91 THR d   1      -1.763 -29.697  31.182  0.00  0.00     0.163 HD
BRANCH 160 162
ATOM    162  CA  THR d   1      -1.857 -27.676  30.519  0.00  0.00     0.109 C 
ATOM    163  H92 THR d   1      -1.784 -27.517  29.433  0.00  0.00     0.090 H 
BRANCH 162 164
ATOM    164  C   THR d   1      -1.140 -26.543  31.230  0.00  0.00     0.243 C 
ATOM    165  O   THR d   1      -0.694 -26.687  32.374  0.00  0.00    -0.271 OA
ATOM    166  N   THR d   1      -0.988 -25.431  30.514  0.00  0.00    -0.346 N 
ATOM    167  H96 THR d   1      -1.420 -25.381  29.613  0.00  0.00     0.163 HD
BRANCH 166 168
ATOM    168  CA  THR d   1      -0.222 -24.285  30.982  0.00  0.00     0.089 C 
ATOM    169  H97 THR d   1       0.293 -24.559  31.915  0.00  0.00     0.087 H 
BRANCH 168 170
ATOM    170  C   THR d   1      -1.166 -23.132  31.263  0.00  0.00     0.241 C 
ATOM    171  O   THR d   1      -2.010 -22.793  30.420  0.00  0.00    -0.271 OA
ATOM    172  N   THR d   1      -1.037 -22.550  32.457  0.00  0.00    -0.346 N 
ATOM    173 9H10 THR d   1      -0.353 -22.896  33.099  0.00  0.00     0.163 HD
BRANCH 172 174
ATOM    174  CA  THR d   1      -1.868 -21.425  32.842  0.00  0.00     0.097 C 
ATOM    175 0H11 THR d   1      -2.877 -21.568  32.427  0.00  0.00     0.088 H 
BRANCH 174 176
ATOM    176  C   THR d   1      -1.272 -20.131  32.301  0.00  0.00     0.241 C 
ATOM    177  O   THR d   1      -0.063 -20.028  32.098  0.00  0.00    -0.271 OA
ATOM    178  N   THR d   1      -2.140 -19.161  32.061  0.00  0.00    -0.346 N 
ATOM    179 5H11 THR d   1      -3.120 -19.361  32.070  0.00  0.00     0.163 HD
BRANCH 178 180
ATOM    180  CA  THR d   1      -1.685 -17.803  31.783  0.00  0.00     0.086 C 
ATOM    181 6H11 THR d   1      -0.951 -17.839  30.965  0.00  0.00     0.086 H 
BRANCH 180 182
ATOM    182  C   THR d   1      -1.010 -17.203  33.017  0.00  0.00     0.240 C 
ATOM    183  O   THR d   1      -1.230 -17.640  34.145  0.00  0.00    -0.271 OA
ATOM    184  N   THR d   1      -0.172 -16.190  32.794  0.00  0.00    -0.344 N 
ATOM    185 0H12 THR d   1      -0.034 -15.862  31.860  0.00  0.00     0.163 HD
BRANCH 184 186
ATOM    186  CA  THR d   1       0.550 -15.549  33.899  0.00  0.00     0.099 C 
ATOM    187 1H12 THR d   1       0.879 -16.338  34.591  0.00  0.00     0.090 H 
BRANCH 186 188
ATOM    188  C   THR d   1      -0.377 -14.600  34.661  0.00  0.00     0.197 C 
ATOM    189  O   THR d   1      -1.478 -14.263  34.207  0.00  0.00    -0.646 OA
ATOM    190  OXT THR d   1      -0.026 -14.145  35.756  0.00  0.00    -0.646 OA
ENDBRANCH 186 188
BRANCH 186 191
ATOM    191  CB  THR d   1       1.795 -14.801  33.409  0.00  0.00    -0.029 C 
ATOM    192 2H12 THR d   1       2.277 -14.339  34.283  0.00  0.00     0.043 H 
BRANCH 191 193
ATOM    193  CG1 THR d   1       1.416 -13.684  32.450  0.00  0.00    -0.063 C 
ATOM    194 3H12 THR d   1       0.743 -12.989  32.972  0.00  0.00     0.033 H 
ATOM    195 4H12 THR d   1       0.892 -14.125  31.589  0.00  0.00     0.033 H 
BRANCH 193 196
ATOM    196  CD1 THR d   1       2.628 -12.892  31.930  0.00  0.00    -0.076 C 
ATOM    197 8H12 THR d   1       2.284 -12.103  31.245  0.00  0.00     0.027 H 
ATOM    198 9H12 THR d   1       3.308 -13.571  31.395  0.00  0.00     0.027 H 
ATOM    199 0H13 THR d   1       3.159 -12.435  32.778  0.00  0.00     0.027 H 
ENDBRANCH 193 196
ENDBRANCH 191 193
BRANCH 191 200
ATOM    200  CG2 THR d   1       2.796 -15.779  32.789  0.00  0.00    -0.070 C 
ATOM    201 5H12 THR d   1       3.039 -16.566  33.518  0.00  0.00     0.028 H 
ATOM    202 6H12 THR d   1       3.714 -15.239  32.513  0.00  0.00     0.028 H 
ATOM    203 7H12 THR d   1       2.355 -16.235  31.890  0.00  0.00     0.028 H 
ENDBRANCH 191 200
ENDBRANCH 186 191
ENDBRANCH 184 186
ENDBRANCH 180 182
BRANCH 180 204
ATOM    204  CB  THR d   1      -2.862 -16.933  31.344  0.00  0.00    -0.049 C 
ATOM    205 7H11 THR d   1      -2.507 -15.913  31.137  0.00  0.00     0.030 H 
ATOM    206 8H11 THR d   1      -3.615 -16.904  32.145  0.00  0.00     0.030 H 
ATOM    207 9H11 THR d   1      -3.311 -17.356  30.433  0.00  0.00     0.030 H 
ENDBRANCH 180 204
ENDBRANCH 178 180
ENDBRANCH 174 176
BRANCH 174 208
ATOM    208  CB  THR d   1      -1.960 -21.298  34.360  0.00  0.00     0.036 C 
ATOM    209 1H11 THR d   1      -2.418 -20.329  34.606  0.00  0.00     0.051 H 
ATOM    210 2H11 THR d   1      -0.944 -21.340  34.780  0.00  0.00     0.051 H 
BRANCH 208 211
ATOM    211  CG  THR d   1      -2.789 -22.399  34.983  0.00  0.00     0.217 C 
ATOM    212  OD1 THR d   1      -3.773 -22.858  34.396  0.00  0.00    -0.274 OA
ATOM    213  ND2 THR d   1      -2.405 -22.814  36.178  0.00  0.00    -0.370 N 
ATOM    214 3H11 THR d   1      -2.913 -23.540  36.642  0.00  0.00     0.159 HD
ATOM    215 4H11 THR d   1      -1.607 -22.402  36.618  0.00  0.00     0.159 HD
ENDBRANCH 208 211
ENDBRANCH 174 208
ENDBRANCH 172 174
ENDBRANCH 168 170
BRANCH 168 216
ATOM    216  CB  THR d   1       0.831 -23.877  29.944  0.00  0.00    -0.036 C 
ATOM    217  H98 THR d   1       1.308 -22.943  30.277  0.00  0.00     0.036 H 
ATOM    218  H99 THR d   1       0.327 -23.708  28.981  0.00  0.00     0.036 H 
BRANCH 216 219
ATOM    219  CG  THR d   1       1.909 -24.926  29.747  0.00  0.00    -0.048 C 
ATOM    220 0H10 THR d   1       1.444 -25.921  29.804  0.00  0.00     0.035 H 
ATOM    221 1H10 THR d   1       2.652 -24.821  30.552  0.00  0.00     0.035 H 
BRANCH 219 222
ATOM    222  CD  THR d   1       2.613 -24.802  28.427  0.00  0.00     0.009 C 
ATOM    223 2H10 THR d   1       3.466 -25.497  28.402  0.00  0.00     0.064 H 
ATOM    224 3H10 THR d   1       2.976 -23.771  28.303  0.00  0.00     0.064 H 
BRANCH 222 225
ATOM    225  NE  THR d   1       1.692 -25.126  27.335  0.00  0.00    -0.227 N 
ATOM    226  CZ  THR d   1       2.063 -25.517  26.129  0.00  0.00     0.665 C 
ATOM    227  NH1 THR d   1       3.332 -25.681  25.833  0.00  0.00    -0.235 N 
ATOM    228  NH2 THR d   1       1.123 -25.747  25.215  0.00  0.00    -0.235 N 
ATOM    229 5H10 THR d   1       3.605 -25.986  24.888  0.00  0.00     0.174 HD
ATOM    230 6H10 THR d   1       4.054 -25.504  26.546  0.00  0.00     0.174 HD
ATOM    231 7H10 THR d   1       0.130 -25.616  25.454  0.00  0.00     0.174 HD
ATOM    232 8H10 THR d   1       1.389 -26.055  24.269  0.00  0.00     0.174 HD
ATOM    233 4H10 THR d   1       0.682 -25.043  27.521  0.00  0.00     0.177 HD
ENDBRANCH 222 225
ENDBRANCH 219 222
ENDBRANCH 216 219
ENDBRANCH 168 216
ENDBRANCH 166 168
ENDBRANCH 162 164
BRANCH 162 234
ATOM    234  CB  THR d   1      -3.334 -27.704  30.909  0.00  0.00     0.044 C 
ATOM    235  H93 THR d   1      -3.693 -26.673  31.043  0.00  0.00     0.077 H 
ATOM    236  H94 THR d   1      -3.450 -28.258  31.852  0.00  0.00     0.077 H 
BRANCH 234 237
ATOM    237  OG  THR d   1      -4.100 -28.339  29.897  0.00  0.00    -0.398 OA
ATOM    238  H95 THR d   1      -5.015 -28.349  30.153  0.00  0.00     0.209 HD
ENDBRANCH 234 237
ENDBRANCH 162 234
ENDBRANCH 160 162
ENDBRANCH 155 158
ENDBRANCH 153 155
ENDBRANCH 149 151
BRANCH 149 239
ATOM    239  CB  THR d   1       4.619 -32.444  29.705  0.00  0.00     0.060 C 
ATOM    240  H83 THR d   1       4.137 -32.945  28.852  0.00  0.00     0.086 H 
BRANCH 239 241
ATOM    241  OG1 THR d   1       4.199 -33.072  30.916  0.00  0.00    -0.393 OA
ATOM    242  H84 THR d   1       4.595 -32.627  31.656  0.00  0.00     0.210 HD
ENDBRANCH 239 241
BRANCH 239 243
ATOM    243  CG2 THR d   1       6.135 -32.588  29.560  0.00  0.00    -0.050 C 
ATOM    244  H85 THR d   1       6.403 -33.655  29.552  0.00  0.00     0.031 H 
ATOM    245  H86 THR d   1       6.633 -32.092  30.406  0.00  0.00     0.031 H 
ATOM    246  H87 THR d   1       6.459 -32.121  28.618  0.00  0.00     0.031 H 
ENDBRANCH 239 243
ENDBRANCH 149 239
ENDBRANCH 147 149
ENDBRANCH 143 145
BRANCH 143 247
ATOM    247  CB  THR d   1       6.372 -26.888  31.529  0.00  0.00    -0.036 C 
ATOM    248  H70 THR d   1       5.630 -26.289  30.980  0.00  0.00     0.036 H 
ATOM    249  H71 THR d   1       7.252 -27.057  30.891  0.00  0.00     0.036 H 
BRANCH 247 250
ATOM    250  CG  THR d   1       6.810 -26.113  32.815  0.00  0.00    -0.048 C 
ATOM    251  H72 THR d   1       7.613 -26.678  33.310  0.00  0.00     0.035 H 
ATOM    252  H73 THR d   1       5.946 -26.037  33.491  0.00  0.00     0.035 H 
BRANCH 250 253
ATOM    253  CD  THR d   1       7.323 -24.694  32.510  0.00  0.00     0.009 C 
ATOM    254  H74 THR d   1       8.163 -24.764  31.803  0.00  0.00     0.064 H 
ATOM    255  H75 THR d   1       7.669 -24.232  33.446  0.00  0.00     0.064 H 
BRANCH 253 256
ATOM    256  NE  THR d   1       6.278 -23.849  31.923  0.00  0.00    -0.227 N 
ATOM    257  CZ  THR d   1       5.389 -23.116  32.597  0.00  0.00     0.665 C 
ATOM    258  NH1 THR d   1       5.382 -23.094  33.935  0.00  0.00    -0.235 N 
ATOM    259  NH2 THR d   1       4.484 -22.406  31.934  0.00  0.00    -0.235 N 
ATOM    260  H77 THR d   1       4.688 -22.522  34.437  0.00  0.00     0.174 HD
ATOM    261  H78 THR d   1       6.071 -23.649  34.463  0.00  0.00     0.174 HD
ATOM    262  H79 THR d   1       4.477 -22.413  30.904  0.00  0.00     0.174 HD
ATOM    263  H80 THR d   1       3.789 -21.848  32.450  0.00  0.00     0.174 HD
ATOM    264  H76 THR d   1       6.225 -23.818  30.895  0.00  0.00     0.177 HD
ENDBRANCH 253 256
ENDBRANCH 250 253
ENDBRANCH 247 250
ENDBRANCH 143 247
ENDBRANCH 141 143
ENDBRANCH 136 139
ENDBRANCH   3 136
TORSDOF 77
