REMARK  4 active torsions:
REMARK  status: ('A' for Active; 'I' for Inactive)
REMARK    1  A    between atoms: C02_4  and  N01_3 
REMARK    2  A    between atoms: C04_6  and  C05_7 
REMARK    3  A    between atoms: N15_16  and  C14_15 
REMARK    4  A    between atoms: N15_16  and  C16_17 
ROOT
ATOM      1  C13 2GE d   1      10.260  -4.622  11.709  0.00  0.00    -0.009 A 
ATOM      2  C02 2GE d   1       9.131  -2.708  10.147  0.00  0.00     0.722 A 
ATOM      3  N03 2GE d   1      10.450  -2.706  10.314  0.00  0.00    -0.062 NA
ATOM      4  C04 2GE d   1      11.030  -3.634  11.072  0.00  0.00     0.091 A 
ATOM      5  C14 2GE d   1       8.871  -4.588  11.495  0.00  0.00     0.145 A 
ATOM      6  N19 2GE d   1       8.362  -3.630  10.724  0.00  0.00    -0.046 NA
ATOM      7  H1  2GE d   1      10.717  -5.377  12.338  0.00  0.00     0.093 H 
ENDROOT
BRANCH   4   8
ATOM      8  C05 2GE d   1      12.559  -3.559  11.228  0.00  0.00     0.017 A 
ATOM      9  C06 2GE d   1      13.117  -2.332  11.597  0.00  0.00    -0.069 A 
ATOM     10  C07 2GE d   1      14.496  -2.207  11.742  0.00  0.00    -0.080 A 
ATOM     11  H6  2GE d   1      12.475  -1.476  11.771  0.00  0.00     0.085 H 
ATOM     12  C08 2GE d   1      15.330  -3.301  11.513  0.00  0.00    -0.060 A 
ATOM     13  H7  2GE d   1      14.924  -1.255  12.034  0.00  0.00     0.083 H 
ATOM     14  C09 2GE d   1      14.775  -4.526  11.141  0.00  0.00     0.056 A 
ATOM     15  H8  2GE d   1      16.404  -3.200  11.623  0.00  0.00     0.086 H 
ATOM     16 CL1  2GE d   1      15.838  -5.933  10.845  0.00  0.00    -0.083 Cl
ATOM     17  C11 2GE d   1      13.393  -4.660  10.994  0.00  0.00     0.068 A 
ATOM     18 CL2  2GE d   1      12.733  -6.250  10.517  0.00  0.00    -0.082 Cl
ENDBRANCH   4   8
BRANCH   5  19
ATOM     19  N15 2GE d   1       7.963  -5.565  12.091  0.00  0.00    -0.370 N 
ATOM     20  H9  2GE d   1       6.959  -5.528  11.862  0.00  0.00     0.161 HD
BRANCH  19  21
ATOM     21  C16 2GE d   1       8.452  -6.591  13.004  0.00  0.00     0.011 A 
ATOM     22  C17 2GE d   1       9.152  -7.772  12.336  0.00  0.00    -0.044 A 
ATOM     23  C18 2GE d   1       7.734  -7.934  12.895  0.00  0.00    -0.044 A 
ATOM     24  H2  2GE d   1      10.000  -8.263  12.835  0.00  0.00     0.036 H 
ATOM     25  H3  2GE d   1       9.318  -7.770  11.249  0.00  0.00     0.036 H 
ATOM     26  H11 2GE d   1       7.564  -8.542  13.796  0.00  0.00     0.036 H 
ATOM     27  H12 2GE d   1       6.882  -8.048  12.209  0.00  0.00     0.036 H 
ATOM     28  H10 2GE d   1       8.786  -6.175  13.966  0.00  0.00     0.072 H 
ENDBRANCH  19  21
ENDBRANCH   5  19
BRANCH   2  29
ATOM     29  N01 2GE d   1       8.526  -1.682   9.304  0.00  0.00    -0.231 N 
ATOM     30  H4  2GE d   1       9.118  -0.968   8.857  0.00  0.00     0.174 HD
ATOM     31  H5  2GE d   1       7.507  -1.672   9.156  0.00  0.00     0.174 HD
ENDBRANCH   2  29
TORSDOF 4
