REMARK  4 active torsions:
REMARK  status: ('A' for Active; 'I' for Inactive)
REMARK    1  A    between atoms: C08_7  and  C03_3 
REMARK    2  A    between atoms: N09_21  and  C08_7 
REMARK    3  A    between atoms: C15_12  and  C16_13 
REMARK       I    between atoms: C15_12  and  N12_22 
REMARK    4  A    between atoms: C18_15  and  C23_19 
ROOT
ATOM      1  C10 B5N d   1      -3.347 -21.037  14.738  0.00  0.00     0.021 C 
ATOM      2  C11 B5N d   1      -2.201 -20.619  13.805  0.00  0.00     0.099 C 
ATOM      3  C13 B5N d   1      -3.966 -18.526  14.574  0.00  0.00     0.021 C 
ATOM      4  C14 B5N d   1      -2.715 -18.479  13.663  0.00  0.00     0.099 C 
ATOM      5  C15 B5N d   1      -5.716 -20.276  15.306  0.00  0.00     0.254 C 
ATOM      6  N09 B5N d   1      -1.831 -19.376  13.976  0.00  0.00    -0.064 N 
ATOM      7  N12 B5N d   1      -4.333 -19.954  14.871  0.00  0.00    -0.345 N 
ATOM      8  O22 B5N d   1      -6.021 -21.416  15.547  0.00  0.00    -0.267 OA
ATOM      9  H7  B5N d   1      -2.936 -21.274  15.730  0.00  0.00     0.067 H 
ATOM     10  H8  B5N d   1      -3.843 -21.927  14.324  0.00  0.00     0.067 H 
ATOM     11  H9  B5N d   1      -2.532 -20.746  12.764  0.00  0.00     0.078 H 
ATOM     12  H10 B5N d   1      -1.337 -21.272  13.997  0.00  0.00     0.078 H 
ATOM     13  H11 B5N d   1      -4.807 -18.032  14.064  0.00  0.00     0.067 H 
ATOM     14  H12 B5N d   1      -3.750 -18.002  15.517  0.00  0.00     0.067 H 
ATOM     15  H13 B5N d   1      -2.253 -17.485  13.751  0.00  0.00     0.078 H 
ATOM     16  H14 B5N d   1      -3.031 -18.645  12.623  0.00  0.00     0.078 H 
ATOM     17  H22 B5N d   1      -1.092 -19.242  13.304  0.00  0.00     0.280 HD
ENDROOT
BRANCH   5  18
ATOM     18  C16 B5N d   1      -6.783 -19.128  15.453  0.00  0.00     0.038 A 
ATOM     19  C18 B5N d   1      -7.528 -19.011  16.640  0.00  0.00    -0.046 A 
ATOM     20  C17 B5N d   1      -8.458 -18.011  16.772  0.00  0.00    -0.076 A 
ATOM     21  C19 B5N d   1      -8.669 -17.093  15.704  0.00  0.00    -0.082 A 
ATOM     22  H15 B5N d   1      -9.031 -17.920  17.688  0.00  0.00     0.084 H 
ATOM     23  C20 B5N d   1      -7.930 -17.212  14.530  0.00  0.00    -0.082 A 
ATOM     24  H16 B5N d   1      -9.404 -16.303  15.805  0.00  0.00     0.083 H 
ATOM     25  C21 B5N d   1      -6.989 -18.227  14.403  0.00  0.00    -0.067 A 
ATOM     26  H17 B5N d   1      -8.088 -16.514  13.716  0.00  0.00     0.083 H 
ATOM     27  H18 B5N d   1      -6.414 -18.320  13.489  0.00  0.00     0.085 H 
BRANCH  19  28
ATOM     28  C23 B5N d   1      -7.296 -20.001  17.784  0.00  0.00    -0.050 C 
ATOM     29  H19 B5N d   1      -6.519 -20.723  17.492  0.00  0.00     0.033 H 
ATOM     30  H20 B5N d   1      -8.232 -20.537  18.000  0.00  0.00     0.033 H 
ATOM     31  H21 B5N d   1      -6.971 -19.455  18.681  0.00  0.00     0.033 H 
ENDBRANCH  19  28
ENDBRANCH   5  18
BRANCH   6  32
ATOM     32  C08 B5N d   1      -1.250 -19.155  15.177  0.00  0.00     0.107 C 
ATOM     33  H5  B5N d   1      -2.003 -18.783  15.887  0.00  0.00     0.083 H 
ATOM     34  H6  B5N d   1      -0.822 -20.095  15.556  0.00  0.00     0.083 H 
BRANCH  32  35
ATOM     35  C03 B5N d   1      -0.130 -18.106  15.017  0.00  0.00    -0.032 A 
ATOM     36  C01 B5N d   1      -0.423 -16.736  15.139  0.00  0.00    -0.072 A 
ATOM     37  C02 B5N d   1       0.595 -15.788  14.993  0.00  0.00    -0.045 A 
ATOM     38  H1  B5N d   1      -1.437 -16.415  15.346  0.00  0.00     0.084 H 
ATOM     39  C04 B5N d   1       1.891 -16.201  14.728  0.00  0.00     0.116 A 
ATOM     40  H2  B5N d   1       0.370 -14.732  15.087  0.00  0.00     0.088 H 
ATOM     41  C06 B5N d   1       2.180 -17.562  14.608  0.00  0.00    -0.045 A 
ATOM     42  F07 B5N d   1       2.896 -15.267  14.584  0.00  0.00    -0.206 F 
ATOM     43  C05 B5N d   1       1.158 -18.513  14.754  0.00  0.00    -0.072 A 
ATOM     44  H4  B5N d   1       3.194 -17.884  14.402  0.00  0.00     0.088 H 
ATOM     45  H3  B5N d   1       1.383 -19.569  14.659  0.00  0.00     0.084 H 
ENDBRANCH  32  35
ENDBRANCH   6  32
TORSDOF 4
