REMARK  5 active torsions:
REMARK  status: ('A' for Active; 'I' for Inactive)
REMARK    1  A    between atoms: CBA_10  and  NBE_11 
REMARK    2  A    between atoms: NBD_19  and  CAA_20 
REMARK    3  A    between atoms: C2_21  and  NAS_22 
REMARK    4  A    between atoms: NAS_22  and  CAV_23 
REMARK    5  A    between atoms: CAW_26  and  CAT_27 
REMARK       I    between atoms: CAT_27  and  NAB_29 
ROOT
ATOM      1  C4  B7B d   1      -4.176  30.567  -9.897  0.00  0.00     0.174 A 
ATOM      2  C5  B7B d   1      -4.542  31.691  -9.140  0.00  0.00     0.102 A 
ATOM      3  C6  B7B d   1      -5.903  31.834  -8.809  0.00  0.00     0.051 A 
ATOM      4  N1  B7B d   1      -6.841  30.886  -9.236  0.00  0.00    -0.073 NA
ATOM      5  N3  B7B d   1      -5.143  29.681 -10.267  0.00  0.00    -0.043 NA
ATOM      6  NBE B7B d   1      -2.923  30.229 -10.311  0.00  0.00    -0.353 N 
ATOM      7  CBC B7B d   1      -1.653  30.426  -9.505  0.00  0.00     0.025 C 
ATOM      8  CAP B7B d   1      -1.244  29.096  -8.836  0.00  0.00    -0.045 C 
ATOM      9  CAL B7B d   1      -1.068  29.343  -7.353  0.00  0.00    -0.062 C 
ATOM     10  CAO B7B d   1      -2.037  30.482  -7.190  0.00  0.00    -0.052 C 
ATOM     11  CBB B7B d   1      -1.635  31.386  -8.293  0.00  0.00     0.044 C 
ATOM     12  CAU B7B d   1      -2.427  32.542  -8.332  0.00  0.00     0.230 C 
ATOM     13  OAD B7B d   1      -1.849  33.561  -7.945  0.00  0.00    -0.273 OA
ATOM     14  NBD B7B d   1      -3.729  32.680  -8.682  0.00  0.00    -0.317 N 
ATOM     15  C2  B7B d   1      -6.459  29.823  -9.961  0.00  0.00     0.728 A 
ATOM     16  H1  B7B d   1      -6.227  32.684  -8.219  0.00  0.00     0.119 H 
ATOM     17  H11 B7B d   1      -0.879  30.753 -10.214  0.00  0.00     0.074 H 
ATOM     18  H12 B7B d   1      -0.298  28.738  -9.268  0.00  0.00     0.036 H 
ATOM     19  H13 B7B d   1      -2.029  28.342  -8.997  0.00  0.00     0.036 H 
ATOM     20  H14 B7B d   1      -0.038  29.638  -7.103  0.00  0.00     0.033 H 
ATOM     21  H15 B7B d   1      -1.355  28.468  -6.752  0.00  0.00     0.033 H 
ATOM     22  H16 B7B d   1      -1.920  30.969  -6.211  0.00  0.00     0.034 H 
ATOM     23  H17 B7B d   1      -3.077  30.143  -7.309  0.00  0.00     0.034 H 
ATOM     24  H18 B7B d   1      -0.600  31.725  -8.137  0.00  0.00     0.057 H 
ENDROOT
BRANCH  15  25
ATOM     25  NAS B7B d   1      -7.435  28.964 -10.328  0.00  0.00    -0.188 N 
ATOM     26  H22 B7B d   1      -8.372  29.064  -9.912  0.00  0.00     0.184 HD
BRANCH  25  27
ATOM     27  CAV B7B d   1      -7.220  27.983 -11.220  0.00  0.00     0.049 A 
ATOM     28  CAE B7B d   1      -7.569  26.685 -10.860  0.00  0.00    -0.056 A 
ATOM     29  CAG B7B d   1      -7.380  25.624 -11.743  0.00  0.00    -0.066 A 
ATOM     30  H23 B7B d   1      -7.993  26.497  -9.880  0.00  0.00     0.087 H 
ATOM     31  CAW B7B d   1      -6.841  25.829 -13.015  0.00  0.00     0.032 A 
ATOM     32  H24 B7B d   1      -7.656  24.621 -11.437  0.00  0.00     0.085 H 
ATOM     33  CAH B7B d   1      -6.503  27.140 -13.385  0.00  0.00    -0.066 A 
ATOM     34  CAF B7B d   1      -6.697  28.206 -12.498  0.00  0.00    -0.056 A 
ATOM     35  H27 B7B d   1      -6.087  27.329 -14.368  0.00  0.00     0.085 H 
ATOM     36  H28 B7B d   1      -6.439  29.213 -12.805  0.00  0.00     0.087 H 
BRANCH  31  37
ATOM     37  CAT B7B d   1      -6.665  24.720 -13.860  0.00  0.00     0.249 C 
ATOM     38  OAC B7B d   1      -7.468  23.789 -13.853  0.00  0.00    -0.268 OA
ATOM     39  NAB B7B d   1      -5.551  24.682 -14.598  0.00  0.00    -0.366 N 
ATOM     40  H25 B7B d   1      -5.385  23.911 -15.213  0.00  0.00     0.159 HD
ATOM     41  H26 B7B d   1      -4.884  25.424 -14.535  0.00  0.00     0.159 HD
ENDBRANCH  31  37
ENDBRANCH  25  27
ENDBRANCH  15  25
BRANCH   6  42
ATOM     42  CBA B7B d   1      -2.777  29.586 -11.690  0.00  0.00     0.014 C 
ATOM     43  CAM B7B d   1      -1.364  29.623 -12.327  0.00  0.00    -0.046 C 
ATOM     44  CAJ B7B d   1      -1.688  28.939 -13.585  0.00  0.00    -0.063 C 
ATOM     45  H2  B7B d   1      -1.008  30.651 -12.491  0.00  0.00     0.036 H 
ATOM     46  H3  B7B d   1      -0.624  29.070 -11.731  0.00  0.00     0.036 H 
ATOM     47  CAK B7B d   1      -2.484  27.708 -13.136  0.00  0.00    -0.063 C 
ATOM     48  H4  B7B d   1      -0.772  28.641 -14.117  0.00  0.00     0.033 H 
ATOM     49  H5  B7B d   1      -2.297  29.583 -14.236  0.00  0.00     0.033 H 
ATOM     50  CAN B7B d   1      -3.014  28.067 -11.750  0.00  0.00    -0.046 C 
ATOM     51  H6  B7B d   1      -1.832  26.823 -13.084  0.00  0.00     0.033 H 
ATOM     52  H7  B7B d   1      -3.315  27.511 -13.829  0.00  0.00     0.033 H 
ATOM     53  H8  B7B d   1      -2.452  27.545 -10.961  0.00  0.00     0.036 H 
ATOM     54  H9  B7B d   1      -4.084  27.827 -11.658  0.00  0.00     0.036 H 
ATOM     55  H10 B7B d   1      -3.492  30.101 -12.348  0.00  0.00     0.072 H 
ENDBRANCH   6  42
BRANCH  14  56
ATOM     56  CAA B7B d   1      -4.269  34.092  -8.646  0.00  0.00    -0.011 C 
ATOM     57  H19 B7B d   1      -5.327  34.088  -8.946  0.00  0.00     0.057 H 
ATOM     58  H20 B7B d   1      -3.694  34.722  -9.340  0.00  0.00     0.057 H 
ATOM     59  H21 B7B d   1      -4.179  34.493  -7.626  0.00  0.00     0.057 H 
ENDBRANCH  14  56
TORSDOF 5
