REMARK  3 active torsions:
REMARK  status: ('A' for Active; 'I' for Inactive)
REMARK    1  A    between atoms: CAB_2  and  NAA_3 
REMARK    2  A    between atoms: CAD_7  and  CAH_8 
REMARK    3  A    between atoms: CAN_16  and  CAQ_17 
ROOT
ATOM      1  CAH B7W d   1       5.486  30.053   9.633  0.00  0.00    -0.007 A 
ATOM      2  CAP B7W d   1       5.625  29.124  10.672  0.00  0.00    -0.056 A 
ATOM      3  CAO B7W d   1       6.823  28.585  10.971  0.00  0.00     0.023 A 
ATOM      4  CAI B7W d   1       6.634  30.387   8.919  0.00  0.00     0.015 A 
ATOM      5  NAJ B7W d   1       7.860  29.805   9.271  0.00  0.00    -0.242 NA
ATOM      6  CAK B7W d   1       7.923  28.922  10.279  0.00  0.00     0.138 A 
ATOM      7  NAL B7W d   1       8.961  28.252  10.773  0.00  0.00    -0.349 N 
ATOM      8  CAM B7W d   1       8.530  27.493  11.773  0.00  0.00    -0.009 A 
ATOM      9  CAN B7W d   1       7.224  27.701  11.891  0.00  0.00     0.005 A 
ATOM     10  H7  B7W d   1       4.753  28.833  11.246  0.00  0.00     0.086 H 
ATOM     11  H8  B7W d   1       6.580  31.092   8.097  0.00  0.00     0.116 H 
ATOM     12  H9  B7W d   1       9.933  28.312  10.437  0.00  0.00     0.167 HD
ATOM     13  H10 B7W d   1       9.135  26.824  12.383  0.00  0.00     0.112 H 
ENDROOT
BRANCH   1  14
ATOM     14  CAD B7W d   1       4.246  30.614   9.288  0.00  0.00    -0.022 A 
ATOM     15  CAC B7W d   1       4.116  31.977   8.987  0.00  0.00    -0.047 A 
ATOM     16  CAB B7W d   1       2.874  32.508   8.627  0.00  0.00     0.026 A 
ATOM     17  H1  B7W d   1       4.985  32.624   9.034  0.00  0.00     0.088 H 
ATOM     18  CAG B7W d   1       1.749  31.686   8.562  0.00  0.00    -0.058 A 
ATOM     19  CAF B7W d   1       1.867  30.328   8.853  0.00  0.00    -0.080 A 
ATOM     20  H4  B7W d   1       0.787  32.102   8.286  0.00  0.00     0.086 H 
ATOM     21  CAE B7W d   1       3.109  29.798   9.206  0.00  0.00    -0.072 A 
ATOM     22  H5  B7W d   1       0.996  29.685   8.805  0.00  0.00     0.083 H 
ATOM     23  H6  B7W d   1       3.196  28.739   9.420  0.00  0.00     0.084 H 
BRANCH  16  24
ATOM     24  NAA B7W d   1       2.760  33.802   8.347  0.00  0.00    -0.399 N 
ATOM     25  H2  B7W d   1       1.845  34.193   8.082  0.00  0.00     0.156 HD
ATOM     26  H3  B7W d   1       3.587  34.414   8.395  0.00  0.00     0.156 HD
ENDBRANCH  16  24
ENDBRANCH   1  14
BRANCH   9  27
ATOM     27  CAQ B7W d   1       6.467  27.092  12.809  0.00  0.00    -0.006 A 
ATOM     28  CAV B7W d   1       5.314  26.400  12.436  0.00  0.00    -0.069 A 
ATOM     29  CAU B7W d   1       4.518  25.759  13.384  0.00  0.00    -0.065 A 
ATOM     30  H11 B7W d   1       5.032  26.360  11.390  0.00  0.00     0.085 H 
ATOM     31  CAT B7W d   1       4.874  25.793  14.728  0.00  0.00     0.002 A 
ATOM     32  H12 B7W d   1       3.622  25.234  13.074  0.00  0.00     0.085 H 
ATOM     33  NAS B7W d   1       6.038  26.480  15.119  0.00  0.00    -0.272 NA
ATOM     34  H13 B7W d   1       4.260  25.294  15.469  0.00  0.00     0.114 H 
ATOM     35  CAR B7W d   1       6.834  27.129  14.156  0.00  0.00     0.013 A 
ATOM     36  H14 B7W d   1       7.731  27.657  14.460  0.00  0.00     0.116 H 
ENDBRANCH   9  27
TORSDOF 3
