REMARK  16 active torsions:
REMARK  status: ('A' for Active; 'I' for Inactive)
REMARK    1  A    between atoms: O1'_10  and  C1'_1 
REMARK    2  A    between atoms: C2'_2  and  N2'_9 
REMARK    3  A    between atoms: C3'_3  and  O3'_11 
REMARK    4  A    between atoms: C4'_4  and  O4'_12 
REMARK    5  A    between atoms: C5'_5  and  C6'_6 
REMARK    6  A    between atoms: C6'_6  and  O6'_14 
REMARK    7  A    between atoms: C7'_7  and  C8'_8 
REMARK       I    between atoms: N2'_9  and  C7'_7 
REMARK    8  A    between atoms: PB_37  and  O1'_10 
REMARK    9  A    between atoms: C1B_24  and  N1_16 
REMARK   10  A    between atoms: C2B_25  and  O2'_26 
REMARK   11  A    between atoms: C3B_27  and  O3B_30 
REMARK   12  A    between atoms: C5B_31  and  C4B_28 
REMARK   13  A    between atoms: O5B_32  and  C5B_31 
REMARK   14  A    between atoms: PA_33  and  O5B_32 
REMARK   15  A    between atoms: O3A_36  and  PA_33 
REMARK   16  A    between atoms: O3A_36  and  PB_37 
ROOT
ATOM      1  O3A UD2 d   1      16.860   6.081  18.218  0.00  0.00    -0.180 OA
ENDROOT
BRANCH   1   2
ATOM      2  PA  UD2 d   1      17.344   4.750  17.312  0.00  0.00     0.417 P 
ATOM      3  O1A UD2 d   1      16.929   3.486  17.918  0.00  0.00    -0.624 OA
ATOM      4  O2A UD2 d   1      18.801   4.620  17.286  0.00  0.00    -0.624 OA
BRANCH   2   5
ATOM      5  O5B UD2 d   1      16.702   4.952  15.786  0.00  0.00    -0.287 OA
BRANCH   5   6
ATOM      6  C5B UD2 d   1      16.859   6.253  15.275  0.00  0.00     0.058 C 
ATOM      7  H24 UD2 d   1      16.345   6.973  15.929  0.00  0.00     0.079 H 
ATOM      8  H25 UD2 d   1      17.929   6.504  15.223  0.00  0.00     0.079 H 
BRANCH   6   9
ATOM      9  C4B UD2 d   1      16.253   6.303  13.881  0.00  0.00     0.089 C 
ATOM     10  C3B UD2 d   1      16.313   5.234  12.969  0.00  0.00     0.091 C 
ATOM     11  C2B UD2 d   1      17.308   5.688  12.052  0.00  0.00     0.105 C 
ATOM     12  H21 UD2 d   1      16.890   4.502  13.553  0.00  0.00     0.091 H 
ATOM     13  C1B UD2 d   1      17.264   7.084  12.249  0.00  0.00     0.141 C 
ATOM     14  H19 UD2 d   1      18.212   5.451  12.631  0.00  0.00     0.093 H 
ATOM     15  O4B UD2 d   1      16.356   7.358  13.135  0.00  0.00    -0.353 OA
ATOM     16  H18 UD2 d   1      16.593   7.255  11.394  0.00  0.00     0.123 H 
ATOM     17  H22 UD2 d   1      15.189   6.310  14.159  0.00  0.00     0.090 H 
BRANCH  10  18
ATOM     18  O3B UD2 d   1      15.254   4.372  12.641  0.00  0.00    -0.390 OA
ATOM     19  H23 UD2 d   1      15.552   3.736  12.002  0.00  0.00     0.210 HD
ENDBRANCH  10  18
BRANCH  11  20
ATOM     20  O2' UD2 d   1      17.730   5.021  10.886  0.00  0.00    -0.388 OA
ATOM     21  H20 UD2 d   1      17.661   4.083  11.017  0.00  0.00     0.210 HD
ENDBRANCH  11  20
BRANCH  13  22
ATOM     22  N1  UD2 d   1      18.226   8.065  11.717  0.00  0.00    -0.280 N 
ATOM     23  C2  UD2 d   1      17.909   8.714  10.558  0.00  0.00     0.331 A 
ATOM     24  N3  UD2 d   1      18.764   9.614  10.058  0.00  0.00    -0.275 N 
ATOM     25  O2  UD2 d   1      16.867   8.473   9.991  0.00  0.00    -0.246 OA
ATOM     26  C4  UD2 d   1      19.911   9.897  10.657  0.00  0.00     0.250 A 
ATOM     27  H15 UD2 d   1      18.530  10.086   9.208  0.00  0.00     0.173 HD
ATOM     28  C5  UD2 d   1      20.255   9.251  11.844  0.00  0.00    -0.002 A 
ATOM     29  O4  UD2 d   1      20.652  10.716  10.170  0.00  0.00    -0.268 OA
ATOM     30  C6  UD2 d   1      19.368   8.318  12.362  0.00  0.00    -0.008 A 
ATOM     31  H16 UD2 d   1      21.193   9.473  12.350  0.00  0.00     0.094 H 
ATOM     32  H17 UD2 d   1      19.602   7.795  13.289  0.00  0.00     0.112 H 
ENDBRANCH  13  22
ENDBRANCH   6   9
ENDBRANCH   5   6
ENDBRANCH   2   5
ENDBRANCH   1   2
BRANCH   1  33
ATOM     33  PB  UD2 d   1      16.483   5.994  19.848  0.00  0.00     0.420 P 
ATOM     34  O1B UD2 d   1      17.699   6.059  20.646  0.00  0.00    -0.624 OA
ATOM     35  O2B UD2 d   1      15.785   7.196  20.281  0.00  0.00    -0.624 OA
BRANCH  33  36
ATOM     36  O1' UD2 d   1      15.598   4.612  20.128  0.00  0.00    -0.256 OA
BRANCH  36  37
ATOM     37  C1' UD2 d   1      14.988   4.371  21.329  0.00  0.00     0.165 C 
ATOM     38  C2' UD2 d   1      15.891   3.373  22.034  0.00  0.00     0.087 C 
ATOM     39  C3' UD2 d   1      16.181   2.217  21.131  0.00  0.00     0.086 C 
ATOM     40  H2  UD2 d   1      15.380   2.996  22.932  0.00  0.00     0.084 H 
ATOM     41  C4' UD2 d   1      14.915   1.553  20.700  0.00  0.00     0.089 C 
ATOM     42  H3  UD2 d   1      16.697   2.595  20.236  0.00  0.00     0.090 H 
ATOM     43  C5' UD2 d   1      13.943   2.564  20.097  0.00  0.00     0.089 C 
ATOM     44  H4  UD2 d   1      15.150   0.791  19.942  0.00  0.00     0.091 H 
ATOM     45  O5' UD2 d   1      13.701   3.755  20.986  0.00  0.00    -0.348 OA
ATOM     46  H5  UD2 d   1      14.407   2.939  19.173  0.00  0.00     0.090 H 
ATOM     47  H1  UD2 d   1      14.851   5.284  21.927  0.00  0.00     0.133 H 
BRANCH  38  48
ATOM     48  N2' UD2 d   1      17.143   4.074  22.449  0.00  0.00    -0.349 N 
ATOM     49  C7' UD2 d   1      17.616   3.880  23.795  0.00  0.00     0.214 C 
ATOM     50  O7' UD2 d   1      17.019   3.166  24.535  0.00  0.00    -0.274 OA
ATOM     51  H11 UD2 d   1      17.639   4.662  21.810  0.00  0.00     0.163 HD
BRANCH  49  52
ATOM     52  C8' UD2 d   1      18.885   4.584  24.267  0.00  0.00    -0.003 C 
ATOM     53  H8  UD2 d   1      19.085   4.315  25.315  0.00  0.00     0.040 H 
ATOM     54  H9  UD2 d   1      18.752   5.673  24.187  0.00  0.00     0.040 H 
ATOM     55  H10 UD2 d   1      19.733   4.271  23.640  0.00  0.00     0.040 H 
ENDBRANCH  49  52
ENDBRANCH  38  48
BRANCH  39  56
ATOM     56  O3' UD2 d   1      17.037   1.283  21.788  0.00  0.00    -0.391 OA
ATOM     57  H12 UD2 d   1      17.836   1.721  22.055  0.00  0.00     0.210 HD
ENDBRANCH  39  56
BRANCH  41  58
ATOM     58  O4' UD2 d   1      14.314   0.918  21.837  0.00  0.00    -0.390 OA
ATOM     59  H13 UD2 d   1      13.522   0.469  21.566  0.00  0.00     0.210 HD
ENDBRANCH  41  58
BRANCH  43  60
ATOM     60  C6' UD2 d   1      12.654   1.934  19.722  0.00  0.00     0.043 C 
ATOM     61  H6  UD2 d   1      12.851   1.031  19.126  0.00  0.00     0.078 H 
ATOM     62  H7  UD2 d   1      12.062   2.644  19.127  0.00  0.00     0.078 H 
BRANCH  60  63
ATOM     63  O6' UD2 d   1      11.925   1.577  20.890  0.00  0.00    -0.398 OA
ATOM     64  H14 UD2 d   1      12.435   0.962  21.404  0.00  0.00     0.209 HD
ENDBRANCH  60  63
ENDBRANCH  43  60
ENDBRANCH  36  37
ENDBRANCH  33  36
ENDBRANCH   1  33
TORSDOF 16
