REMARK  7 active torsions:
REMARK  status: ('A' for Active; 'I' for Inactive)
REMARK    1  A    between atoms: N15_20  and  C04_9 
REMARK    2  A    between atoms: C06_11  and  C07_12 
REMARK    3  A    between atoms: C09_14  and  S13_18 
REMARK    4  A    between atoms: C11_16  and  C12_17 
REMARK    5  A    between atoms: S13_18  and  C14_19 
REMARK    6  A    between atoms: C16_21  and  N15_20 
REMARK    7  A    between atoms: N22_24  and  C19_23 
ROOT
ATOM      1  N15 B9K d   1       7.895  34.182  11.673  0.00  0.00    -0.341 N 
ATOM      2  H18 B9K d   1       6.992  34.415  11.236  0.00  0.00     0.167 HD
ENDROOT
BRANCH   1   3
ATOM      3  C04 B9K d   1       9.108  34.574  10.972  0.00  0.00     0.128 A 
ATOM      4  N03 B9K d   1       8.933  35.050   9.761  0.00  0.00    -0.243 NA
ATOM      5  C02 B9K d   1       9.935  35.435   8.994  0.00  0.00     0.005 A 
ATOM      6  C01 B9K d   1      11.223  35.361   9.446  0.00  0.00    -0.054 A 
ATOM      7  H9  B9K d   1       9.735  35.813   7.998  0.00  0.00     0.114 H 
ATOM      8  C06 B9K d   1      11.479  34.902  10.726  0.00  0.00    -0.000 A 
ATOM      9  H8  B9K d   1      12.042  35.661   8.803  0.00  0.00     0.087 H 
ATOM     10  C05 B9K d   1      10.392  34.486  11.507  0.00  0.00    -0.026 A 
ATOM     11  H10 B9K d   1      10.547  34.103  12.509  0.00  0.00     0.090 H 
BRANCH   8  12
ATOM     12  C07 B9K d   1      12.773  34.786  11.239  0.00  0.00     0.092 A 
ATOM     13  N08 B9K d   1      13.120  33.911  12.179  0.00  0.00    -0.222 NA
ATOM     14  C09 B9K d   1      14.398  34.059  12.423  0.00  0.00     0.167 A 
ATOM     15  N10 B9K d   1      14.912  34.980  11.652  0.00  0.00    -0.337 N 
ATOM     16  C11 B9K d   1      13.950  35.462  10.890  0.00  0.00     0.037 A 
ATOM     17  H11 B9K d   1      15.898  35.278  11.641  0.00  0.00     0.168 HD
BRANCH  14  18
ATOM     18  S13 B9K d   1      15.309  33.109  13.631  0.00  0.00    -0.096 SA
BRANCH  18  19
ATOM     19  C14 B9K d   1      17.060  33.181  13.168  0.00  0.00    -0.027 C 
ATOM     20  H15 B9K d   1      17.655  32.605  13.892  0.00  0.00     0.042 H 
ATOM     21  H16 B9K d   1      17.396  34.228  13.168  0.00  0.00     0.042 H 
ATOM     22  H17 B9K d   1      17.191  32.754  12.163  0.00  0.00     0.042 H 
ENDBRANCH  18  19
ENDBRANCH  14  18
BRANCH  16  23
ATOM     23  C12 B9K d   1      14.177  36.573   9.873  0.00  0.00    -0.035 C 
ATOM     24  H12 B9K d   1      13.230  36.802   9.363  0.00  0.00     0.035 H 
ATOM     25  H13 B9K d   1      14.922  36.246   9.133  0.00  0.00     0.035 H 
ATOM     26  H14 B9K d   1      14.543  37.473  10.389  0.00  0.00     0.035 H 
ENDBRANCH  16  23
ENDBRANCH   8  12
ENDBRANCH   1   3
BRANCH   1  27
ATOM     27  C16 B9K d   1       7.870  33.491  12.936  0.00  0.00     0.033 A 
ATOM     28  C17 B9K d   1       8.692  32.401  13.214  0.00  0.00    -0.055 A 
ATOM     29  C18 B9K d   1       8.624  31.777  14.453  0.00  0.00    -0.055 A 
ATOM     30  H1  B9K d   1       9.385  32.040  12.463  0.00  0.00     0.087 H 
ATOM     31  C19 B9K d   1       7.698  32.225  15.422  0.00  0.00     0.030 A 
ATOM     32  H19 B9K d   1       9.282  30.945  14.677  0.00  0.00     0.087 H 
ATOM     33  C20 B9K d   1       6.862  33.312  15.112  0.00  0.00    -0.055 A 
ATOM     34  C21 B9K d   1       6.954  33.937  13.880  0.00  0.00    -0.055 A 
ATOM     35  H2  B9K d   1       6.141  33.663  15.842  0.00  0.00     0.087 H 
ATOM     36  H3  B9K d   1       6.309  34.778  13.651  0.00  0.00     0.087 H 
BRANCH  31  37
ATOM     37  N22 B9K d   1       7.616  31.571  16.734  0.00  0.00    -0.377 N 
ATOM     38  C23 B9K d   1       6.805  32.228  17.806  0.00  0.00     0.015 C 
ATOM     39  C24 B9K d   1       6.829  31.592  19.187  0.00  0.00     0.034 C 
ATOM     40  H20 B9K d   1       7.170  33.260  17.911  0.00  0.00     0.067 H 
ATOM     41  H21 B9K d   1       5.759  32.242  17.467  0.00  0.00     0.067 H 
ATOM     42  O25 B9K d   1       8.136  31.316  19.573  0.00  0.00    -0.388 OA
ATOM     43  H4  B9K d   1       6.253  30.655  19.164  0.00  0.00     0.076 H 
ATOM     44  H5  B9K d   1       6.376  32.284  19.912  0.00  0.00     0.076 H 
ATOM     45  C26 B9K d   1       8.772  30.425  18.728  0.00  0.00     0.034 C 
ATOM     46  C27 B9K d   1       8.845  30.943  17.285  0.00  0.00     0.015 C 
ATOM     47  H6  B9K d   1       8.219  29.474  18.735  0.00  0.00     0.076 H 
ATOM     48  H7  B9K d   1       9.795  30.257  19.096  0.00  0.00     0.076 H 
ATOM     49  H22 B9K d   1       9.101  30.091  16.638  0.00  0.00     0.067 H 
ATOM     50  H23 B9K d   1       9.649  31.692  17.241  0.00  0.00     0.067 H 
ENDBRANCH  31  37
ENDBRANCH   1  27
TORSDOF 7
