REMARK  10 active torsions:
REMARK  status: ('A' for Active; 'I' for Inactive)
REMARK    1  A    between atoms: S13_2  and  C14_4 
REMARK    2  A    between atoms: S13_2  and  C3_19 
REMARK    3  A    between atoms: C19_5  and  C20_6 
REMARK    4  A    between atoms: C20_6  and  C25_7 
REMARK    5  A    between atoms: C20_6  and  C21_10 
REMARK    6  A    between atoms: C21_10  and  C22_11 
REMARK    7  A    between atoms: C22_11  and  C23_12 
REMARK    8  A    between atoms: C6_23  and  C7_25 
REMARK    9  A    between atoms: C10_28  and  O28_29 
REMARK   10  A    between atoms: O28_29  and  C29_30 
ROOT
ATOM      1  O32 B9N d   1       0.067 -15.739   3.985  0.00  0.00    -0.217 OA
ATOM      2  S13 B9N d   1       0.341 -14.326   4.413  0.00  0.00     0.207 S 
ATOM      3  O31 B9N d   1      -0.731 -13.730   5.138  0.00  0.00    -0.217 OA
ENDROOT
BRANCH   2   4
ATOM      4  C14 B9N d   1       0.764 -13.493   3.028  0.00  0.00     0.071 A 
ATOM      5  C19 B9N d   1       0.832 -12.061   2.895  0.00  0.00    -0.022 A 
ATOM      6  C18 B9N d   1       1.260 -11.501   1.655  0.00  0.00    -0.074 A 
ATOM      7  C17 B9N d   1       1.644 -12.371   0.553  0.00  0.00    -0.082 A 
ATOM      8  H6  B9N d   1       1.299 -10.425   1.533  0.00  0.00     0.084 H 
ATOM      9  C16 B9N d   1       1.590 -13.713   0.763  0.00  0.00    -0.082 A 
ATOM     10  H7  B9N d   1       1.961 -11.964  -0.400  0.00  0.00     0.083 H 
ATOM     11  C15 B9N d   1       1.183 -14.273   1.955  0.00  0.00    -0.061 A 
ATOM     12  H8  B9N d   1       1.881 -14.374  -0.045  0.00  0.00     0.083 H 
ATOM     13  H9  B9N d   1       1.190 -15.352   2.059  0.00  0.00     0.085 H 
BRANCH   5  14
ATOM     14  C20 B9N d   1       0.492 -11.140   4.044  0.00  0.00     0.058 C 
ATOM     15  H1  B9N d   1       0.012 -11.740   4.831  0.00  0.00     0.064 H 
BRANCH  14  16
ATOM     16  C25 B9N d   1       1.722 -10.539   4.606  0.00  0.00     0.181 C 
ATOM     17  O27 B9N d   1       1.693  -9.920   5.689  0.00  0.00    -0.647 OA
ATOM     18  O26 B9N d   1       2.742 -10.693   4.000  0.00  0.00    -0.647 OA
ENDBRANCH  14  16
BRANCH  14  19
ATOM     19  C21 B9N d   1      -0.481 -10.061   3.619  0.00  0.00    -0.040 C 
ATOM     20  H2  B9N d   1      -0.066  -9.527   2.751  0.00  0.00     0.035 H 
ATOM     21  H3  B9N d   1      -0.618  -9.356   4.452  0.00  0.00     0.035 H 
BRANCH  19  22
ATOM     22  C22 B9N d   1      -1.825 -10.642   3.241  0.00  0.00     0.017 C 
ATOM     23  H4  B9N d   1      -2.250 -11.116   4.138  0.00  0.00     0.049 H 
ATOM     24  H5  B9N d   1      -1.654 -11.406   2.469  0.00  0.00     0.049 H 
BRANCH  22  25
ATOM     25  C23 B9N d   1      -2.846  -9.672   2.708  0.00  0.00     0.172 C 
ATOM     26  O30 B9N d   1      -2.562  -8.858   1.835  0.00  0.00    -0.648 OA
ATOM     27  O29 B9N d   1      -4.049  -9.645   3.123  0.00  0.00    -0.648 OA
ENDBRANCH  22  25
ENDBRANCH  19  22
ENDBRANCH  14  19
ENDBRANCH   5  14
ENDBRANCH   2   4
BRANCH   2  28
ATOM     28  C3  B9N d   1       1.662 -14.320   5.373  0.00  0.00     0.064 A 
ATOM     29  C2  B9N d   1       1.753 -13.853   6.650  0.00  0.00    -0.061 A 
ATOM     30  C1  B9N d   1       2.817 -14.069   7.474  0.00  0.00    -0.071 A 
ATOM     31  H10 B9N d   1       0.924 -13.271   7.036  0.00  0.00     0.085 H 
ATOM     32  C6  B9N d   1       3.967 -14.675   7.062  0.00  0.00    -0.026 A 
ATOM     33  H13 B9N d   1       2.746 -13.744   8.506  0.00  0.00     0.084 H 
ATOM     34  C5  B9N d   1       3.953 -15.253   5.717  0.00  0.00    -0.071 A 
ATOM     35  C4  B9N d   1       2.777 -15.064   4.943  0.00  0.00    -0.061 A 
ATOM     36  H12 B9N d   1       4.803 -15.802   5.329  0.00  0.00     0.084 H 
ATOM     37  H11 B9N d   1       2.736 -15.521   3.961  0.00  0.00     0.085 H 
BRANCH  32  38
ATOM     38  C7  B9N d   1       5.119 -14.971   7.778  0.00  0.00    -0.026 A 
ATOM     39  C12 B9N d   1       4.856 -15.244   9.128  0.00  0.00    -0.070 A 
ATOM     40  C11 B9N d   1       5.931 -15.667   9.922  0.00  0.00    -0.050 A 
ATOM     41  H14 B9N d   1       3.860 -15.132   9.541  0.00  0.00     0.085 H 
ATOM     42  C10 B9N d   1       7.201 -15.769   9.500  0.00  0.00     0.068 A 
ATOM     43  H15 B9N d   1       5.721 -15.931  10.952  0.00  0.00     0.087 H 
ATOM     44  C9  B9N d   1       7.556 -15.517   8.127  0.00  0.00    -0.050 A 
ATOM     45  C8  B9N d   1       6.464 -15.082   7.353  0.00  0.00    -0.070 A 
ATOM     46  H19 B9N d   1       8.557 -15.648   7.732  0.00  0.00     0.087 H 
ATOM     47  H20 B9N d   1       6.675 -14.804   6.327  0.00  0.00     0.085 H 
BRANCH  42  48
ATOM     48  O28 B9N d   1       8.102 -16.194  10.461  0.00  0.00    -0.356 OA
BRANCH  48  49
ATOM     49  C29 B9N d   1       9.294 -16.433   9.876  0.00  0.00     0.010 C 
ATOM     50  H16 B9N d   1      10.014 -16.771  10.636  0.00  0.00     0.066 H 
ATOM     51  H17 B9N d   1       9.664 -15.510   9.406  0.00  0.00     0.066 H 
ATOM     52  H18 B9N d   1       9.176 -17.213   9.109  0.00  0.00     0.066 H 
ENDBRANCH  48  49
ENDBRANCH  42  48
ENDBRANCH  32  38
ENDBRANCH   2  28
TORSDOF 10
