REMARK  10 active torsions:
REMARK  status: ('A' for Active; 'I' for Inactive)
REMARK    1  A    between atoms: C1_1  and  C2_4 
REMARK    2  A    between atoms: C4_6  and  N4_20 
REMARK    3  A    between atoms: C5_7  and  N5_8 
REMARK       I    between atoms: N5_8  and  C10_9 
REMARK    4  A    between atoms: C10_9  and  C11_11 
REMARK    5  A    between atoms: C6_12  and  O7_14 
REMARK    6  A    between atoms: O7_14  and  C8_15 
REMARK    7  A    between atoms: C8_15  and  C9_16 
REMARK    8  A    between atoms: C8_15  and  C81_17 
REMARK    9  A    between atoms: C9_16  and  C91_19 
REMARK   10  A    between atoms: C81_17  and  C82_18 
ROOT
ATOM      1  C2  G39 d   1     -16.750  22.187   0.239  0.00  0.00     0.019 C 
ATOM      2  C3  G39 d   1     -15.969  21.090  -0.251  0.00  0.00    -0.006 C 
ATOM      3  C4  G39 d   1     -14.627  20.949   0.515  0.00  0.00     0.126 C 
ATOM      4  C5  G39 d   1     -14.933  20.884   2.035  0.00  0.00     0.068 C 
ATOM      5  C6  G39 d   1     -15.468  22.240   2.407  0.00  0.00     0.077 C 
ATOM      6  C7  G39 d   1     -16.508  22.702   1.530  0.00  0.00    -0.061 C 
ATOM      7  H1  G39 d   1     -15.755  21.254  -1.317  0.00  0.00     0.043 H 
ATOM      8  H2  G39 d   1     -16.546  20.161  -0.132  0.00  0.00     0.043 H 
ATOM      9  H3  G39 d   1     -13.998  21.827   0.305  0.00  0.00     0.087 H 
ATOM     10  H4  G39 d   1     -15.688  20.111   2.241  0.00  0.00     0.080 H 
ATOM     11  H9  G39 d   1     -14.638  22.954   2.304  0.00  0.00     0.093 H 
ATOM     12  H10 G39 d   1     -17.153  23.504   1.886  0.00  0.00     0.082 H 
ENDROOT
BRANCH   5  13
ATOM     13  O7  G39 d   1     -15.851  22.234   3.800  0.00  0.00    -0.375 OA
BRANCH  13  14
ATOM     14  C8  G39 d   1     -16.114  23.603   4.157  0.00  0.00     0.039 C 
ATOM     15  H11 G39 d   1     -16.821  24.018   3.423  0.00  0.00     0.083 H 
BRANCH  14  16
ATOM     16  C9  G39 d   1     -16.774  23.652   5.539  0.00  0.00    -0.044 C 
ATOM     17  H12 G39 d   1     -16.655  24.652   5.981  0.00  0.00     0.036 H 
ATOM     18  H13 G39 d   1     -16.320  22.902   6.203  0.00  0.00     0.036 H 
BRANCH  16  19
ATOM     19  C91 G39 d   1     -18.259  23.341   5.328  0.00  0.00    -0.074 C 
ATOM     20  H19 G39 d   1     -18.780  23.364   6.297  0.00  0.00     0.027 H 
ATOM     21  H20 G39 d   1     -18.364  22.342   4.879  0.00  0.00     0.027 H 
ATOM     22  H21 G39 d   1     -18.699  24.093   4.657  0.00  0.00     0.027 H 
ENDBRANCH  16  19
ENDBRANCH  14  16
BRANCH  14  23
ATOM     23  C81 G39 d   1     -14.840  24.460   4.116  0.00  0.00    -0.044 C 
ATOM     24  H14 G39 d   1     -15.078  25.471   4.478  0.00  0.00     0.036 H 
ATOM     25  H15 G39 d   1     -14.481  24.517   3.078  0.00  0.00     0.036 H 
BRANCH  23  26
ATOM     26  C82 G39 d   1     -13.734  23.865   4.992  0.00  0.00    -0.074 C 
ATOM     27  H16 G39 d   1     -12.840  24.504   4.938  0.00  0.00     0.027 H 
ATOM     28  H17 G39 d   1     -13.486  22.855   4.633  0.00  0.00     0.027 H 
ATOM     29  H18 G39 d   1     -14.082  23.809   6.034  0.00  0.00     0.027 H 
ENDBRANCH  23  26
ENDBRANCH  14  23
ENDBRANCH  13  14
ENDBRANCH   5  13
BRANCH   4  30
ATOM     30  N5  G39 d   1     -13.681  20.566   2.791  0.00  0.00    -0.352 N 
ATOM     31  C10 G39 d   1     -13.521  19.409   3.460  0.00  0.00     0.214 C 
ATOM     32  O10 G39 d   1     -14.390  18.536   3.519  0.00  0.00    -0.274 OA
ATOM     33  H5  G39 d   1     -12.938  21.236   2.799  0.00  0.00     0.163 HD
BRANCH  31  34
ATOM     34  C11 G39 d   1     -12.143  19.204   4.122  0.00  0.00    -0.003 C 
ATOM     35  H6  G39 d   1     -12.125  18.232   4.637  0.00  0.00     0.040 H 
ATOM     36  H7  G39 d   1     -11.963  20.009   4.850  0.00  0.00     0.040 H 
ATOM     37  H8  G39 d   1     -11.359  19.225   3.351  0.00  0.00     0.040 H 
ENDBRANCH  31  34
ENDBRANCH   4  30
BRANCH   3  38
ATOM     38  N4  G39 d   1     -13.908  19.743   0.107  0.00  0.00    -0.073 N 
ATOM     39  H22 G39 d   1     -13.710  19.788  -0.880  0.00  0.00     0.274 HD
ATOM     40  H23 G39 d   1     -14.475  18.932   0.300  0.00  0.00     0.274 HD
ATOM     41  H24 G39 d   1     -13.043  19.678   0.620  0.00  0.00     0.274 HD
ENDBRANCH   3  38
BRANCH   1  42
ATOM     42  C1  G39 d   1     -17.763  22.768  -0.583  0.00  0.00     0.205 C 
ATOM     43  O1A G39 d   1     -17.987  22.311  -1.736  0.00  0.00    -0.644 OA
ATOM     44  O1B G39 d   1     -18.444  23.756  -0.200  0.00  0.00    -0.644 OA
ENDBRANCH   1  42
TORSDOF 10
