REMARK  10 active torsions:
REMARK  status: ('A' for Active; 'I' for Inactive)
REMARK    1  A    between atoms: C4_1  and  O14_25 
REMARK    2  A    between atoms: S13_30  and  C10_5 
REMARK    3  A    between atoms: C21_7  and  C22_8 
REMARK    4  A    between atoms: C22_8  and  C23_12 
REMARK    5  A    between atoms: C22_8  and  C26_20 
REMARK    6  A    between atoms: C7_23  and  C1_9 
REMARK    7  A    between atoms: O14_25  and  C15_16 
REMARK    8  A    between atoms: C16_17  and  S13_30 
REMARK    9  A    between atoms: C26_20  and  C27_21 
REMARK   10  A    between atoms: C27_21  and  C28_22 
ROOT
ATOM      1  C8  B9Z d   1      11.310  10.201  35.512  0.00  0.00    -0.071 A 
ATOM      2  C10 B9Z d   1       9.022  10.793  35.204  0.00  0.00     0.005 A 
ATOM      3  C12 B9Z d   1       9.773   8.579  34.627  0.00  0.00    -0.071 A 
ATOM      4  C11 B9Z d   1       8.750   9.520  34.724  0.00  0.00    -0.066 A 
ATOM      5  C7  B9Z d   1      11.056   8.929  35.029  0.00  0.00    -0.026 A 
ATOM      6  C9  B9Z d   1      10.294  11.131  35.602  0.00  0.00    -0.066 A 
ATOM      7  H3  B9Z d   1      12.314  10.469  35.822  0.00  0.00     0.084 H 
ATOM      8  H6  B9Z d   1       9.570   7.586  34.243  0.00  0.00     0.084 H 
ATOM      9  H10 B9Z d   1       7.742   9.258  34.425  0.00  0.00     0.085 H 
ATOM     10  H20 B9Z d   1      10.498  12.124  35.985  0.00  0.00     0.085 H 
ENDROOT
BRANCH   2  11
ATOM     11  S13 B9Z d   1       7.750  12.074  35.342  0.00  0.00    -0.090 SA
BRANCH  11  12
ATOM     12  C16 B9Z d   1       6.148  11.239  35.314  0.00  0.00     0.012 A 
ATOM     13  C21 B9Z d   1       5.264  11.465  34.270  0.00  0.00    -0.027 A 
ATOM     14  C20 B9Z d   1       4.042  10.818  34.301  0.00  0.00    -0.075 A 
ATOM     15  C19 B9Z d   1       3.732   9.942  35.327  0.00  0.00    -0.082 A 
ATOM     16  H4  B9Z d   1       3.319  10.999  33.514  0.00  0.00     0.084 H 
ATOM     17  C18 B9Z d   1       4.622   9.712  36.362  0.00  0.00    -0.082 A 
ATOM     18  H7  B9Z d   1       2.777   9.428  35.320  0.00  0.00     0.083 H 
ATOM     19  C17 B9Z d   1       5.840  10.364  36.348  0.00  0.00    -0.066 A 
ATOM     20  H15 B9Z d   1       4.368   9.033  37.168  0.00  0.00     0.083 H 
ATOM     21  H14 B9Z d   1       6.556  10.193  37.144  0.00  0.00     0.085 H 
BRANCH  13  22
ATOM     22  C22 B9Z d   1       5.632  12.442  33.133  0.00  0.00     0.058 C 
ATOM     23  H5  B9Z d   1       5.964  13.382  33.598  0.00  0.00     0.064 H 
BRANCH  22  24
ATOM     24  C23 B9Z d   1       6.764  11.915  32.252  0.00  0.00     0.181 C 
ATOM     25  O24 B9Z d   1       7.698  12.683  31.868  0.00  0.00    -0.647 OA
ATOM     26  O25 B9Z d   1       6.739  10.721  31.893  0.00  0.00    -0.647 OA
ENDBRANCH  22  24
BRANCH  22  27
ATOM     27  C26 B9Z d   1       4.430  12.747  32.223  0.00  0.00    -0.040 C 
ATOM     28  H16 B9Z d   1       3.930  11.802  31.966  0.00  0.00     0.035 H 
ATOM     29  H17 B9Z d   1       4.793  13.231  31.305  0.00  0.00     0.035 H 
BRANCH  27  30
ATOM     30  C27 B9Z d   1       3.420  13.672  32.904  0.00  0.00     0.017 C 
ATOM     31  H18 B9Z d   1       3.917  14.622  33.151  0.00  0.00     0.049 H 
ATOM     32  H19 B9Z d   1       3.065  13.193  33.828  0.00  0.00     0.049 H 
BRANCH  30  33
ATOM     33  C28 B9Z d   1       2.219  13.960  32.002  0.00  0.00     0.172 C 
ATOM     34  O29 B9Z d   1       1.418  14.884  32.302  0.00  0.00    -0.648 OA
ATOM     35  O30 B9Z d   1       2.037  13.271  30.960  0.00  0.00    -0.648 OA
ENDBRANCH  30  33
ENDBRANCH  27  30
ENDBRANCH  22  27
ENDBRANCH  13  22
ENDBRANCH  11  12
ENDBRANCH   2  11
BRANCH   5  36
ATOM     36  C1  B9Z d   1      12.205   7.935  34.940  0.00  0.00    -0.026 A 
ATOM     37  C6  B9Z d   1      13.469   8.279  35.395  0.00  0.00    -0.070 A 
ATOM     38  C5  B9Z d   1      14.503   7.357  35.294  0.00  0.00    -0.050 A 
ATOM     39  H2  B9Z d   1      13.648   9.258  35.825  0.00  0.00     0.085 H 
ATOM     40  C4  B9Z d   1      14.285   6.102  34.741  0.00  0.00     0.068 A 
ATOM     41  H1  B9Z d   1      15.492   7.620  35.651  0.00  0.00     0.087 H 
ATOM     42  C3  B9Z d   1      13.029   5.766  34.286  0.00  0.00    -0.050 A 
ATOM     43  C2  B9Z d   1      11.997   6.682  34.382  0.00  0.00    -0.070 A 
ATOM     44  H8  B9Z d   1      12.850   4.788  33.855  0.00  0.00     0.087 H 
ATOM     45  H9  B9Z d   1      11.012   6.417  34.016  0.00  0.00     0.085 H 
BRANCH  40  46
ATOM     46  O14 B9Z d   1      15.314   5.160  34.625  0.00  0.00    -0.356 OA
BRANCH  46  47
ATOM     47  C15 B9Z d   1      16.455   5.402  35.417  0.00  0.00     0.010 C 
ATOM     48  H11 B9Z d   1      17.194   4.605  35.248  0.00  0.00     0.066 H 
ATOM     49  H12 B9Z d   1      16.168   5.417  36.479  0.00  0.00     0.066 H 
ATOM     50  H13 B9Z d   1      16.893   6.373  35.142  0.00  0.00     0.066 H 
ENDBRANCH  46  47
ENDBRANCH  40  46
ENDBRANCH   5  36
TORSDOF 10
