REMARK WARNING: 32 MAX_TORS EXCEEDED!!!
REMARK  75 active torsions:
REMARK  status: ('A' for Active; 'I' for Inactive)
REMARK    1  A    between atoms: N_1  and  CA_2 
REMARK    2  A    between atoms: CA_2  and  C_3 
REMARK    3  A    between atoms: CA_2  and  CB_5 
REMARK       I    between atoms: C_3  and  N_8 
REMARK    4  A    between atoms: CB_5  and  OG1_6 
REMARK    5  A    between atoms: CB_5  and  CG2_7 
REMARK    6  A    between atoms: N_8  and  CA_9 
REMARK    7  A    between atoms: CA_9  and  C_10 
REMARK    8  A    between atoms: CA_9  and  CB_12 
REMARK       I    between atoms: C_10  and  N_15 
REMARK    9  A    between atoms: CB_12  and  OG1_13 
REMARK   10  A    between atoms: CB_12  and  CG2_14 
REMARK   11  A    between atoms: N_15  and  CA_16 
REMARK   12  A    between atoms: CA_16  and  C_17 
REMARK   13  A    between atoms: CA_16  and  CB_19 
REMARK       I    between atoms: C_17  and  N_27 
REMARK   14  A    between atoms: CB_19  and  CG_20 
REMARK   15  A    between atoms: CZ_25  and  OH_26 
REMARK   16  A    between atoms: N_27  and  CA_28 
REMARK   17  A    between atoms: CA_28  and  C_29 
REMARK   18  A    between atoms: CA_28  and  CB_31 
REMARK       I    between atoms: C_29  and  N_32 
REMARK   19  A    between atoms: N_32  and  CA_33 
REMARK   20  A    between atoms: CA_33  and  C_34 
REMARK   21  A    between atoms: CA_33  and  CB_36 
REMARK       I    between atoms: C_34  and  N_40 
REMARK   22  A    between atoms: CB_36  and  CG_37 
REMARK   23  A    between atoms: N_40  and  CA_41 
REMARK   24  A    between atoms: CA_41  and  C_42 
REMARK   25  A    between atoms: CA_41  and  CB_44 
REMARK       I    between atoms: C_42  and  N_51 
REMARK   26  A    between atoms: CB_44  and  CG_45 
REMARK   27  A    between atoms: N_51  and  CA_52 
REMARK   28  A    between atoms: CA_52  and  C_53 
REMARK   29  A    between atoms: CA_52  and  CB_55 
REMARK       I    between atoms: C_53  and  N_59 
REMARK   30  A    between atoms: CB_55  and  CG1_56 
REMARK   31  A    between atoms: CB_55  and  CG2_57 
REMARK   32  A    between atoms: CG1_56  and  CD1_58 
REMARK   33  A    between atoms: N_59  and  CA_60 
REMARK   34  A    between atoms: CA_60  and  C_61 
REMARK   35  A    between atoms: CA_60  and  CB_63 
REMARK       I    between atoms: C_61  and  N_64 
REMARK   36  A    between atoms: N_64  and  CA_65 
REMARK   37  A    between atoms: CA_65  and  C_66 
REMARK   38  A    between atoms: CA_65  and  CB_68 
REMARK       I    between atoms: C_66  and  N_70 
REMARK   39  A    between atoms: CB_68  and  OG_69 
REMARK   40  A    between atoms: N_70  and  CA_71 
REMARK   41  A    between atoms: CA_71  and  C_72 
REMARK       I    between atoms: C_72  and  N_74 
REMARK   42  A    between atoms: N_74  and  CA_75 
REMARK   43  A    between atoms: CA_75  and  C_76 
REMARK   44  A    between atoms: CA_75  and  CB_78 
REMARK       I    between atoms: C_76  and  N_85 
REMARK   45  A    between atoms: CB_78  and  CG_79 
REMARK   46  A    between atoms: CG_79  and  CD_80 
REMARK   47  A    between atoms: CD_80  and  NE_81 
REMARK       I    between atoms: NE_81  and  CZ_82 
REMARK       I    between atoms: CZ_82  and  NH1_83 
REMARK       I    between atoms: CZ_82  and  NH2_84 
REMARK   48  A    between atoms: N_85  and  CA_86 
REMARK   49  A    between atoms: CA_86  and  C_87 
REMARK   50  A    between atoms: CA_86  and  CB_89 
REMARK       I    between atoms: C_87  and  N_92 
REMARK   51  A    between atoms: CB_89  and  OG1_90 
REMARK   52  A    between atoms: CB_89  and  CG2_91 
REMARK   53  A    between atoms: N_92  and  CA_93 
REMARK   54  A    between atoms: CA_93  and  C_94 
REMARK       I    between atoms: C_94  and  N_96 
REMARK   55  A    between atoms: N_96  and  CA_97 
REMARK   56  A    between atoms: CA_97  and  C_98 
REMARK   57  A    between atoms: CA_97  and  CB_100 
REMARK       I    between atoms: C_98  and  N_101 
REMARK   58  A    between atoms: N_101  and  CA_102 
REMARK   59  A    between atoms: CA_102  and  C_103 
REMARK   60  A    between atoms: CA_102  and  CB_105 
REMARK       I    between atoms: C_103  and  N_112 
REMARK   61  A    between atoms: CB_105  and  CG_106 
REMARK   62  A    between atoms: CG_106  and  CD_107 
REMARK   63  A    between atoms: CD_107  and  NE_108 
REMARK       I    between atoms: NE_108  and  CZ_109 
REMARK       I    between atoms: CZ_109  and  NH1_110 
REMARK   64  A    between atoms: N_112  and  CA_113 
REMARK   65  A    between atoms: CA_113  and  C_114 
REMARK   66  A    between atoms: CA_113  and  CB_116 
REMARK       I    between atoms: C_114  and  N_120 
REMARK   67  A    between atoms: CB_116  and  CG_117 
REMARK       I    between atoms: CG_117  and  ND2_119 
REMARK   68  A    between atoms: N_120  and  CA_121 
REMARK   69  A    between atoms: CA_121  and  C_122 
REMARK   70  A    between atoms: CA_121  and  CB_124 
REMARK       I    between atoms: C_122  and  N_125 
REMARK   71  A    between atoms: N_125  and  CA_126 
REMARK   72  A    between atoms: CA_126  and  C_127 
REMARK   73  A    between atoms: CA_126  and  CB_129 
REMARK   74  A    between atoms: CB_129  and  CG1_130 
REMARK   75  A    between atoms: CB_129  and  CG2_131 
ROOT
ATOM      1  CA  THR d   1      10.443   6.685 -25.420  0.00  0.00     0.109 C 
ATOM      2  H61 THR d   1      11.333   7.169 -25.848  0.00  0.00     0.090 H 
ENDROOT
BRANCH   1   3
ATOM      3  N   THR d   1      10.350   5.339 -25.970  0.00  0.00    -0.344 N 
ATOM      4  C   THR d   1      11.381   4.492 -25.883  0.00  0.00     0.240 C 
ATOM      5  O   THR d   1      12.419   4.770 -25.269  0.00  0.00    -0.271 OA
ATOM      6  H60 THR d   1       9.505   5.045 -26.418  0.00  0.00     0.163 HD
BRANCH   4   7
ATOM      7  CA  THR d   1      11.240   3.120 -26.538  0.00  0.00     0.086 C 
ATOM      8  H56 THR d   1      11.738   2.383 -25.891  0.00  0.00     0.086 H 
BRANCH   7   9
ATOM      9  N   THR d   1       9.850   2.716 -26.696  0.00  0.00    -0.346 N 
ATOM     10  C   THR d   1       9.072   2.492 -25.633  0.00  0.00     0.241 C 
ATOM     11  O   THR d   1       9.472   2.694 -24.480  0.00  0.00    -0.271 OA
ATOM     12  H55 THR d   1       9.472   2.604 -27.615  0.00  0.00     0.163 HD
BRANCH  10  13
ATOM     13  CA  THR d   1       7.642   2.030 -25.897  0.00  0.00     0.092 C 
ATOM     14  H45 THR d   1       7.048   2.227 -24.993  0.00  0.00     0.088 H 
BRANCH  13  15
ATOM     15  N   THR d   1       7.069   2.785 -27.002  0.00  0.00    -0.346 N 
ATOM     16  C   THR d   1       6.993   4.115 -26.921  0.00  0.00     0.241 C 
ATOM     17  O   THR d   1       7.347   4.723 -25.908  0.00  0.00    -0.271 OA
ATOM     18  H44 THR d   1       6.735   2.310 -27.816  0.00  0.00     0.163 HD
BRANCH  16  19
ATOM     19  CA  THR d   1       6.470   4.857 -28.140  0.00  0.00     0.093 C 
ATOM     20  H36 THR d   1       6.704   5.925 -28.023  0.00  0.00     0.088 H 
BRANCH  19  21
ATOM     21  N   THR d   1       7.113   4.367 -29.362  0.00  0.00    -0.346 N 
ATOM     22  C   THR d   1       8.427   4.501 -29.558  0.00  0.00     0.241 C 
ATOM     23  O   THR d   1       9.159   5.083 -28.755  0.00  0.00    -0.271 OA
ATOM     24  H35 THR d   1       6.556   3.923 -30.064  0.00  0.00     0.163 HD
BRANCH  22  25
ATOM     25  CA  THR d   1       9.011   3.905 -30.836  0.00  0.00     0.098 C 
ATOM     26  H32 THR d   1      10.079   3.705 -30.667  0.00  0.00     0.088 H 
BRANCH  25  27
ATOM     27  N   THR d   1       8.358   2.649 -31.177  0.00  0.00    -0.346 N 
ATOM     28  C   THR d   1       8.432   1.603 -30.345  0.00  0.00     0.240 C 
ATOM     29  O   THR d   1       9.095   1.630 -29.302  0.00  0.00    -0.271 OA
ATOM     30  H31 THR d   1       7.852   2.567 -32.036  0.00  0.00     0.163 HD
BRANCH  28  31
ATOM     31  CA  THR d   1       7.660   0.357 -30.731  0.00  0.00     0.086 C 
ATOM     32  H27 THR d   1       7.460  -0.222 -29.817  0.00  0.00     0.086 H 
BRANCH  31  33
ATOM     33  N   THR d   1       6.382   0.702 -31.341  0.00  0.00    -0.346 N 
ATOM     34  C   THR d   1       5.465   1.337 -30.615  0.00  0.00     0.241 C 
ATOM     35  O   THR d   1       5.666   1.635 -29.432  0.00  0.00    -0.271 OA
ATOM     36  H26 THR d   1       6.196   0.464 -32.294  0.00  0.00     0.163 HD
BRANCH  34  37
ATOM     37  CA  THR d   1       4.154   1.696 -31.305  0.00  0.00     0.093 C 
ATOM     38  H18 THR d   1       3.652   2.469 -30.705  0.00  0.00     0.088 H 
BRANCH  37  39
ATOM     39  N   THR d   1       4.388   2.235 -32.643  0.00  0.00    -0.346 N 
ATOM     40  C   THR d   1       5.125   3.342 -32.805  0.00  0.00     0.243 C 
ATOM     41  O   THR d   1       5.608   3.958 -31.847  0.00  0.00    -0.271 OA
ATOM     42  H17 THR d   1       3.997   1.776 -33.441  0.00  0.00     0.163 HD
BRANCH  40  43
ATOM     43  CA  THR d   1       5.368   3.820 -34.230  0.00  0.00     0.113 C 
ATOM     44  H11 THR d   1       6.254   4.472 -34.227  0.00  0.00     0.091 H 
BRANCH  43  45
ATOM     45  N   THR d   1       5.632   2.692 -35.116  0.00  0.00    -0.344 N 
ATOM     46  C   THR d   1       6.693   1.916 -34.897  0.00  0.00     0.251 C 
ATOM     47  O   THR d   1       7.484   2.090 -33.968  0.00  0.00    -0.271 OA
ATOM     48  H10 THR d   1       5.020   2.502 -35.884  0.00  0.00     0.163 HD
BRANCH  46  49
ATOM     49  CA  THR d   1       6.881   0.745 -35.853  0.00  0.00     0.199 C 
ATOM     50  H4  THR d   1       6.700   1.079 -36.885  0.00  0.00     0.103 H 
BRANCH  49  51
ATOM     51  N   THR d   1       8.251   0.262 -35.753  0.00  0.00    -0.064 N 
ATOM     52  H1  THR d   1       8.887   1.003 -36.000  0.00  0.00     0.275 HD
ATOM     53  H2  THR d   1       8.380  -0.515 -36.382  0.00  0.00     0.275 HD
ATOM     54  H3  THR d   1       8.434  -0.036 -34.808  0.00  0.00     0.275 HD
ENDBRANCH  49  51
BRANCH  49  55
ATOM     55  CB  THR d   1       5.856  -0.323 -35.493  0.00  0.00     0.068 C 
ATOM     56  H5  THR d   1       4.846   0.078 -35.665  0.00  0.00     0.086 H 
BRANCH  55  57
ATOM     57  OG1 THR d   1       6.005  -0.646 -34.113  0.00  0.00    -0.393 OA
ATOM     58  H6  THR d   1       5.860   0.133 -33.589  0.00  0.00     0.210 HD
ENDBRANCH  55  57
BRANCH  55  59
ATOM     59  CG2 THR d   1       6.036  -1.593 -36.351  0.00  0.00    -0.050 C 
ATOM     60  H7  THR d   1       5.281  -2.340 -36.064  0.00  0.00     0.031 H 
ATOM     61  H8  THR d   1       7.042  -2.007 -36.187  0.00  0.00     0.031 H 
ATOM     62  H9  THR d   1       5.913  -1.338 -37.414  0.00  0.00     0.031 H 
ENDBRANCH  55  59
ENDBRANCH  49  55
ENDBRANCH  46  49
ENDBRANCH  43  45
BRANCH  43  63
ATOM     63  CB  THR d   1       4.177   4.632 -34.742  0.00  0.00     0.060 C 
ATOM     64  H12 THR d   1       3.276   4.001 -34.750  0.00  0.00     0.086 H 
BRANCH  63  65
ATOM     65  OG1 THR d   1       4.461   5.100 -36.066  0.00  0.00    -0.393 OA
ATOM     66  H13 THR d   1       4.611   4.356 -36.638  0.00  0.00     0.210 HD
ENDBRANCH  63  65
BRANCH  63  67
ATOM     67  CG2 THR d   1       3.949   5.849 -33.855  0.00  0.00    -0.050 C 
ATOM     68  H14 THR d   1       3.091   6.423 -34.234  0.00  0.00     0.031 H 
ATOM     69  H15 THR d   1       4.848   6.483 -33.865  0.00  0.00     0.031 H 
ATOM     70  H16 THR d   1       3.744   5.519 -32.826  0.00  0.00     0.031 H 
ENDBRANCH  63  67
ENDBRANCH  43  63
ENDBRANCH  40  43
ENDBRANCH  37  39
BRANCH  37  71
ATOM     71  CB  THR d   1       3.235   0.473 -31.385  0.00  0.00    -0.014 C 
ATOM     72  H19 THR d   1       3.684  -0.260 -32.072  0.00  0.00     0.043 H 
ATOM     73  H20 THR d   1       2.258   0.792 -31.777  0.00  0.00     0.043 H 
BRANCH  71  74
ATOM     74  CG  THR d   1       3.025  -0.188 -30.044  0.00  0.00    -0.056 A 
ATOM     75  CD1 THR d   1       2.307   0.450 -29.040  0.00  0.00    -0.074 A 
ATOM     76  CE1 THR d   1       2.121  -0.143 -27.805  0.00  0.00    -0.051 A 
ATOM     77  H21 THR d   1       1.885   1.431 -29.229  0.00  0.00     0.084 H 
ATOM     78  CZ  THR d   1       2.655  -1.383 -27.560  0.00  0.00     0.065 A 
ATOM     79  H23 THR d   1       1.556   0.369 -27.034  0.00  0.00     0.087 H 
ATOM     80  CE2 THR d   1       3.373  -2.039 -28.541  0.00  0.00    -0.051 A 
ATOM     81  CD2 THR d   1       3.557  -1.445 -29.769  0.00  0.00    -0.074 A 
ATOM     82  H24 THR d   1       3.791  -3.020 -28.344  0.00  0.00     0.087 H 
ATOM     83  H22 THR d   1       4.125  -1.964 -30.533  0.00  0.00     0.084 H 
BRANCH  78  84
ATOM     84  OH  THR d   1       2.458  -1.963 -26.319  0.00  0.00    -0.361 OA
ATOM     85  H25 THR d   1       1.993  -2.784 -26.425  0.00  0.00     0.217 HD
ENDBRANCH  78  84
ENDBRANCH  71  74
ENDBRANCH  37  71
ENDBRANCH  34  37
ENDBRANCH  31  33
BRANCH  31  86
ATOM     86  CB  THR d   1       8.488  -0.510 -31.678  0.00  0.00    -0.049 C 
ATOM     87  H28 THR d   1       9.447  -0.760 -31.202  0.00  0.00     0.030 H 
ATOM     88  H29 THR d   1       8.675   0.042 -32.611  0.00  0.00     0.030 H 
ATOM     89  H30 THR d   1       7.938  -1.436 -31.903  0.00  0.00     0.030 H 
ENDBRANCH  31  86
ENDBRANCH  28  31
ENDBRANCH  25  27
BRANCH  25  90
ATOM     90  CB  THR d   1       8.880   4.891 -31.990  0.00  0.00     0.043 C 
ATOM     91  H33 THR d   1       9.279   5.864 -31.667  0.00  0.00     0.052 H 
ATOM     92  H34 THR d   1       7.814   4.997 -32.241  0.00  0.00     0.052 H 
BRANCH  90  93
ATOM     93  CG  THR d   1       9.639   4.445 -33.252  0.00  0.00     0.175 C 
ATOM     94  OD1 THR d   1      10.507   3.553 -33.164  0.00  0.00    -0.648 OA
ATOM     95  OD2 THR d   1       9.363   5.023 -34.325  0.00  0.00    -0.648 OA
ENDBRANCH  90  93
ENDBRANCH  25  90
ENDBRANCH  22  25
ENDBRANCH  19  21
BRANCH  19  96
ATOM     96  CB  THR d   1       4.952   4.699 -28.267  0.00  0.00    -0.014 C 
ATOM     97  H37 THR d   1       4.730   3.637 -28.448  0.00  0.00     0.043 H 
ATOM     98  H38 THR d   1       4.614   5.296 -29.127  0.00  0.00     0.043 H 
BRANCH  96  99
ATOM     99  CG  THR d   1       4.181   5.142 -27.054  0.00  0.00    -0.056 A 
ATOM    100  CD1 THR d   1       4.318   6.432 -26.560  0.00  0.00    -0.077 A 
ATOM    101  CE1 THR d   1       3.595   6.835 -25.449  0.00  0.00    -0.082 A 
ATOM    102  H39 THR d   1       4.994   7.127 -27.046  0.00  0.00     0.084 H 
ATOM    103  CZ  THR d   1       2.710   5.962 -24.851  0.00  0.00    -0.083 A 
ATOM    104  H41 THR d   1       3.724   7.835 -25.050  0.00  0.00     0.083 H 
ATOM    105  CE2 THR d   1       2.557   4.689 -25.338  0.00  0.00    -0.082 A 
ATOM    106  H43 THR d   1       2.133   6.284 -23.992  0.00  0.00     0.083 H 
ATOM    107  CD2 THR d   1       3.289   4.280 -26.440  0.00  0.00    -0.077 A 
ATOM    108  H42 THR d   1       1.865   4.005 -24.861  0.00  0.00     0.083 H 
ATOM    109  H40 THR d   1       3.162   3.275 -26.826  0.00  0.00     0.084 H 
ENDBRANCH  96  99
ENDBRANCH  19  96
ENDBRANCH  16  19
ENDBRANCH  13  15
BRANCH  13 110
ATOM    110  CB  THR d   1       7.562   0.519 -26.204  0.00  0.00    -0.030 C 
ATOM    111  H46 THR d   1       8.142   0.330 -27.120  0.00  0.00     0.043 H 
BRANCH 110 112
ATOM    112  CG1 THR d   1       6.114   0.091 -26.473  0.00  0.00    -0.063 C 
ATOM    113  H47 THR d   1       6.116  -0.988 -26.687  0.00  0.00     0.033 H 
ATOM    114  H48 THR d   1       5.759   0.640 -27.358  0.00  0.00     0.033 H 
BRANCH 112 115
ATOM    115  CD1 THR d   1       5.124   0.341 -25.339  0.00  0.00    -0.076 C 
ATOM    116  H52 THR d   1       4.124  -0.003 -25.643  0.00  0.00     0.027 H 
ATOM    117  H53 THR d   1       5.089   1.417 -25.114  0.00  0.00     0.027 H 
ATOM    118  H54 THR d   1       5.445  -0.211 -24.443  0.00  0.00     0.027 H 
ENDBRANCH 112 115
ENDBRANCH 110 112
BRANCH 110 119
ATOM    119  CG2 THR d   1       8.188  -0.296 -25.086  0.00  0.00    -0.071 C 
ATOM    120  H49 THR d   1       9.223   0.039 -24.923  0.00  0.00     0.028 H 
ATOM    121  H50 THR d   1       8.187  -1.361 -25.363  0.00  0.00     0.028 H 
ATOM    122  H51 THR d   1       7.608  -0.157 -24.162  0.00  0.00     0.028 H 
ENDBRANCH 110 119
ENDBRANCH  13 110
ENDBRANCH  10  13
ENDBRANCH   7   9
BRANCH   7 123
ATOM    123  CB  THR d   1      11.931   3.117 -27.898  0.00  0.00    -0.049 C 
ATOM    124  H57 THR d   1      12.981   3.422 -27.777  0.00  0.00     0.030 H 
ATOM    125  H58 THR d   1      11.420   3.821 -28.571  0.00  0.00     0.030 H 
ATOM    126  H59 THR d   1      11.891   2.105 -28.328  0.00  0.00     0.030 H 
ENDBRANCH   7 123
ENDBRANCH   4   7
ENDBRANCH   1   3
BRANCH   1 127
ATOM    127  C   THR d   1      10.584   6.672 -23.910  0.00  0.00     0.242 C 
ATOM    128  O   THR d   1      11.099   7.623 -23.328  0.00  0.00    -0.271 OA
ATOM    129  N   THR d   1      10.135   5.622 -23.255  0.00  0.00    -0.350 N 
ATOM    130  H65 THR d   1       9.806   4.826 -23.763  0.00  0.00     0.163 HD
BRANCH 129 131
ATOM    131  CA  THR d   1      10.112   5.606 -21.826  0.00  0.00     0.069 C 
ATOM    132  H66 THR d   1      11.075   5.994 -21.463  0.00  0.00     0.078 H 
ATOM    133  H67 THR d   1       9.989   4.564 -21.497  0.00  0.00     0.078 H 
BRANCH 131 134
ATOM    134  C   THR d   1       9.005   6.432 -21.203  0.00  0.00     0.236 C 
ATOM    135  O   THR d   1       8.937   6.509 -19.967  0.00  0.00    -0.272 OA
ATOM    136  N   THR d   1       8.133   7.036 -22.005  0.00  0.00    -0.346 N 
ATOM    137  H68 THR d   1       8.229   6.934 -22.995  0.00  0.00     0.163 HD
BRANCH 136 138
ATOM    138  CA  THR d   1       7.039   7.844 -21.476  0.00  0.00     0.089 C 
ATOM    139  H69 THR d   1       7.207   7.989 -20.399  0.00  0.00     0.087 H 
BRANCH 138 140
ATOM    140  C   THR d   1       5.692   7.148 -21.652  0.00  0.00     0.241 C 
ATOM    141  O   THR d   1       4.724   7.745 -22.140  0.00  0.00    -0.271 OA
ATOM    142  N   THR d   1       5.627   5.864 -21.301  0.00  0.00    -0.344 N 
ATOM    143  H81 THR d   1       6.451   5.398 -20.979  0.00  0.00     0.163 HD
BRANCH 142 144
ATOM    144  CA  THR d   1       4.372   5.130 -21.380  0.00  0.00     0.113 C 
ATOM    145  H82 THR d   1       3.758   5.591 -22.168  0.00  0.00     0.091 H 
BRANCH 144 146
ATOM    146  C   THR d   1       3.573   5.153 -20.080  0.00  0.00     0.243 C 
ATOM    147  O   THR d   1       2.405   4.739 -20.086  0.00  0.00    -0.271 OA
ATOM    148  N   THR d   1       4.170   5.600 -18.975  0.00  0.00    -0.350 N 
ATOM    149  H88 THR d   1       5.124   5.895 -19.028  0.00  0.00     0.163 HD
BRANCH 148 150
ATOM    150  CA  THR d   1       3.487   5.673 -17.702  0.00  0.00     0.069 C 
ATOM    151  H89 THR d   1       4.220   5.515 -16.897  0.00  0.00     0.078 H 
ATOM    152  H90 THR d   1       2.724   4.882 -17.663  0.00  0.00     0.078 H 
BRANCH 150 153
ATOM    153  C   THR d   1       2.809   7.020 -17.492  0.00  0.00     0.236 C 
ATOM    154  O   THR d   1       2.836   7.907 -18.342  0.00  0.00    -0.272 OA
ATOM    155  N   THR d   1       2.188   7.172 -16.331  0.00  0.00    -0.347 N 
ATOM    156  H91 THR d   1       2.226   6.453 -15.637  0.00  0.00     0.163 HD
BRANCH 155 157
ATOM    157  CA  THR d   1       1.449   8.403 -16.080  0.00  0.00     0.086 C 
ATOM    158  H92 THR d   1       0.691   8.527 -16.867  0.00  0.00     0.086 H 
BRANCH 157 159
ATOM    159  C   THR d   1       2.407   9.587 -16.138  0.00  0.00     0.240 C 
ATOM    160  O   THR d   1       3.562   9.492 -15.713  0.00  0.00    -0.271 OA
ATOM    161  N   THR d   1       1.916  10.702 -16.672  0.00  0.00    -0.346 N 
ATOM    162  H96 THR d   1       0.933  10.760 -16.844  0.00  0.00     0.163 HD
BRANCH 161 163
ATOM    163  CA  THR d   1       2.757  11.844 -17.017  0.00  0.00     0.089 C 
ATOM    164  H97 THR d   1       3.812  11.552 -16.904  0.00  0.00     0.087 H 
BRANCH 163 165
ATOM    165  C   THR d   1       2.468  13.007 -16.084  0.00  0.00     0.241 C 
ATOM    166  O   THR d   1       1.308  13.404 -15.922  0.00  0.00    -0.271 OA
ATOM    167  N   THR d   1       3.526  13.533 -15.475  0.00  0.00    -0.346 N 
ATOM    168 9H10 THR d   1       4.419  13.104 -15.613  0.00  0.00     0.163 HD
BRANCH 167 169
ATOM    169  CA  THR d   1       3.443  14.703 -14.619  0.00  0.00     0.097 C 
ATOM    170 0H11 THR d   1       2.540  14.620 -13.997  0.00  0.00     0.088 H 
BRANCH 169 171
ATOM    171  C   THR d   1       3.366  15.977 -15.443  0.00  0.00     0.241 C 
ATOM    172  O   THR d   1       3.833  16.056 -16.582  0.00  0.00    -0.271 OA
ATOM    173  N   THR d   1       2.813  17.003 -14.816  0.00  0.00    -0.346 N 
ATOM    174 5H11 THR d   1       2.445  16.883 -13.894  0.00  0.00     0.163 HD
BRANCH 173 175
ATOM    175  CA  THR d   1       2.738  18.298 -15.459  0.00  0.00     0.086 C 
ATOM    176 6H11 THR d   1       2.438  18.151 -16.507  0.00  0.00     0.086 H 
BRANCH 175 177
ATOM    177  C   THR d   1       4.094  18.991 -15.439  0.00  0.00     0.240 C 
ATOM    178  O   THR d   1       5.049  18.546 -14.787  0.00  0.00    -0.271 OA
ATOM    179  N   THR d   1       4.151  20.060 -16.238  0.00  0.00    -0.344 N 
ATOM    180 0H12 THR d   1       3.489  20.075 -16.987  0.00  0.00     0.163 HD
BRANCH 179 181
ATOM    181  CA  THR d   1       5.052  21.215 -16.167  0.00  0.00     0.099 C 
ATOM    182 1H12 THR d   1       4.427  22.118 -16.101  0.00  0.00     0.090 H 
BRANCH 181 183
ATOM    183  C   THR d   1       5.833  21.302 -17.477  0.00  0.00     0.197 C 
ATOM    184  O   THR d   1       5.707  22.343 -18.133  0.00  0.00    -0.646 OA
ATOM    185  OXT THR d   1       6.516  20.386 -17.944  0.00  0.00    -0.646 OA
ENDBRANCH 181 183
BRANCH 181 186
ATOM    186  CB  THR d   1       5.935  21.204 -14.903  0.00  0.00    -0.032 C 
ATOM    187 2H12 THR d   1       6.287  20.179 -14.714  0.00  0.00     0.042 H 
BRANCH 186 188
ATOM    188  CG1 THR d   1       5.098  21.700 -13.736  0.00  0.00    -0.071 C 
ATOM    189 3H12 THR d   1       5.709  21.701 -12.821  0.00  0.00     0.028 H 
ATOM    190 4H12 THR d   1       4.232  21.037 -13.598  0.00  0.00     0.028 H 
ATOM    191 5H12 THR d   1       4.748  22.722 -13.944  0.00  0.00     0.028 H 
ENDBRANCH 186 188
BRANCH 186 192
ATOM    192  CG2 THR d   1       7.110  22.122 -15.022  0.00  0.00    -0.071 C 
ATOM    193 6H12 THR d   1       7.745  21.797 -15.859  0.00  0.00     0.028 H 
ATOM    194 7H12 THR d   1       7.692  22.096 -14.089  0.00  0.00     0.028 H 
ATOM    195 8H12 THR d   1       6.757  23.148 -15.206  0.00  0.00     0.028 H 
ENDBRANCH 186 192
ENDBRANCH 181 186
ENDBRANCH 179 181
ENDBRANCH 175 177
BRANCH 175 196
ATOM    196  CB  THR d   1       1.686  19.157 -14.769  0.00  0.00    -0.049 C 
ATOM    197 7H11 THR d   1       1.634  20.139 -15.262  0.00  0.00     0.030 H 
ATOM    198 8H11 THR d   1       1.958  19.291 -13.712  0.00  0.00     0.030 H 
ATOM    199 9H11 THR d   1       0.707  18.661 -14.835  0.00  0.00     0.030 H 
ENDBRANCH 175 196
ENDBRANCH 173 175
ENDBRANCH 169 171
BRANCH 169 200
ATOM    200  CB  THR d   1       4.665  14.799 -13.718  0.00  0.00     0.036 C 
ATOM    201 1H11 THR d   1       4.669  15.787 -13.234  0.00  0.00     0.051 H 
ATOM    202 2H11 THR d   1       5.568  14.690 -14.336  0.00  0.00     0.051 H 
BRANCH 200 203
ATOM    203  CG  THR d   1       4.681  13.741 -12.652  0.00  0.00     0.217 C 
ATOM    204  OD1 THR d   1       3.633  13.286 -12.199  0.00  0.00    -0.274 OA
ATOM    205  ND2 THR d   1       5.874  13.350 -12.233  0.00  0.00    -0.370 N 
ATOM    206 3H11 THR d   1       5.950  12.648 -11.525  0.00  0.00     0.159 HD
ATOM    207 4H11 THR d   1       6.699  13.756 -12.625  0.00  0.00     0.159 HD
ENDBRANCH 200 203
ENDBRANCH 169 200
ENDBRANCH 167 169
ENDBRANCH 163 165
BRANCH 163 208
ATOM    208  CB  THR d   1       2.516  12.267 -18.467  0.00  0.00    -0.036 C 
ATOM    209  H98 THR d   1       3.032  13.223 -18.641  0.00  0.00     0.036 H 
ATOM    210  H99 THR d   1       1.434  12.402 -18.614  0.00  0.00     0.036 H 
BRANCH 208 211
ATOM    211  CG  THR d   1       3.022  11.249 -19.497  0.00  0.00    -0.048 C 
ATOM    212 0H10 THR d   1       2.898  10.242 -19.071  0.00  0.00     0.035 H 
ATOM    213 1H10 THR d   1       4.090  11.444 -19.673  0.00  0.00     0.035 H 
BRANCH 211 214
ATOM    214  CD  THR d   1       2.312  11.283 -20.836  0.00  0.00     0.009 C 
ATOM    215 2H10 THR d   1       2.756  10.518 -21.489  0.00  0.00     0.064 H 
ATOM    216 3H10 THR d   1       2.455  12.277 -21.285  0.00  0.00     0.064 H 
BRANCH 214 217
ATOM    217  NE  THR d   1       0.870  11.023 -20.721  0.00  0.00    -0.227 N 
ATOM    218  CZ  THR d   1       0.088  10.620 -21.720  0.00  0.00     0.665 C 
ATOM    219  NH1 THR d   1       0.580  10.418 -22.940  0.00  0.00    -0.235 N 
ATOM    220  NH2 THR d   1      -1.208  10.417 -21.518  0.00  0.00    -0.235 N 
ATOM    221 5H10 THR d   1      -0.041  10.106 -23.701  0.00  0.00     0.174 HD
ATOM    222 6H10 THR d   1       1.581  10.573 -23.124  0.00  0.00     0.174 HD
ATOM    223 7H10 THR d   1      -1.613  10.566 -20.583  0.00  0.00     0.174 HD
ATOM    224 8H10 THR d   1      -1.809  10.110 -22.296  0.00  0.00     0.174 HD
ATOM    225 4H10 THR d   1       0.432  11.163 -19.799  0.00  0.00     0.177 HD
ENDBRANCH 214 217
ENDBRANCH 211 214
ENDBRANCH 208 211
ENDBRANCH 163 208
ENDBRANCH 161 163
ENDBRANCH 157 159
BRANCH 157 226
ATOM    226  CB  THR d   1       0.735   8.332 -14.730  0.00  0.00    -0.049 C 
ATOM    227  H93 THR d   1       0.183   9.268 -14.557  0.00  0.00     0.030 H 
ATOM    228  H94 THR d   1       1.477   8.191 -13.930  0.00  0.00     0.030 H 
ATOM    229  H95 THR d   1       0.031   7.487 -14.731  0.00  0.00     0.030 H 
ENDBRANCH 157 226
ENDBRANCH 155 157
ENDBRANCH 150 153
ENDBRANCH 148 150
ENDBRANCH 144 146
BRANCH 144 230
ATOM    230  CB  THR d   1       4.651   3.672 -21.758  0.00  0.00     0.060 C 
ATOM    231  H83 THR d   1       3.702   3.119 -21.817  0.00  0.00     0.086 H 
BRANCH 230 232
ATOM    232  OG1 THR d   1       5.473   3.112 -20.738  0.00  0.00    -0.393 OA
ATOM    233  H84 THR d   1       5.662   2.205 -20.948  0.00  0.00     0.210 HD
ENDBRANCH 230 232
BRANCH 230 234
ATOM    234  CG2 THR d   1       5.361   3.587 -23.098  0.00  0.00    -0.050 C 
ATOM    235  H85 THR d   1       5.550   2.532 -23.347  0.00  0.00     0.031 H 
ATOM    236  H86 THR d   1       6.318   4.127 -23.041  0.00  0.00     0.031 H 
ATOM    237  H87 THR d   1       4.730   4.040 -23.877  0.00  0.00     0.031 H 
ENDBRANCH 230 234
ENDBRANCH 144 230
ENDBRANCH 142 144
ENDBRANCH 138 140
BRANCH 138 238
ATOM    238  CB  THR d   1       7.048   9.223 -22.158  0.00  0.00    -0.036 C 
ATOM    239  H70 THR d   1       6.156   9.783 -21.841  0.00  0.00     0.036 H 
ATOM    240  H71 THR d   1       7.024   9.082 -23.249  0.00  0.00     0.036 H 
BRANCH 238 241
ATOM    241  CG  THR d   1       8.292  10.026 -21.791  0.00  0.00    -0.048 C 
ATOM    242  H72 THR d   1       9.180   9.488 -22.154  0.00  0.00     0.035 H 
ATOM    243  H73 THR d   1       8.342  10.120 -20.696  0.00  0.00     0.035 H 
BRANCH 241 244
ATOM    244  CD  THR d   1       8.283  11.416 -22.399  0.00  0.00     0.009 C 
ATOM    245  H74 THR d   1       8.159  11.323 -23.488  0.00  0.00     0.064 H 
ATOM    246  H75 THR d   1       9.244  11.903 -22.179  0.00  0.00     0.064 H 
BRANCH 244 247
ATOM    247  NE  THR d   1       7.203  12.252 -21.874  0.00  0.00    -0.227 N 
ATOM    248  CZ  THR d   1       7.273  12.969 -20.751  0.00  0.00     0.665 C 
ATOM    249  NH1 THR d   1       8.361  12.952 -19.988  0.00  0.00    -0.235 N 
ATOM    250  NH2 THR d   1       6.231  13.694 -20.365  0.00  0.00    -0.235 N 
ATOM    251  H77 THR d   1       8.394  13.513 -19.125  0.00  0.00     0.174 HD
ATOM    252  H78 THR d   1       9.172  12.377 -20.260  0.00  0.00     0.174 HD
ATOM    253  H79 THR d   1       5.379  13.720 -20.943  0.00  0.00     0.174 HD
ATOM    254  H80 THR d   1       6.274  14.231 -19.487  0.00  0.00     0.174 HD
ATOM    255  H76 THR d   1       6.325  12.290 -22.410  0.00  0.00     0.177 HD
ENDBRANCH 244 247
ENDBRANCH 241 244
ENDBRANCH 238 241
ENDBRANCH 138 238
ENDBRANCH 136 138
ENDBRANCH 131 134
ENDBRANCH 129 131
ENDBRANCH   1 127
BRANCH   1 256
ATOM    256  CB  THR d   1       9.205   7.505 -25.804  0.00  0.00     0.044 C 
ATOM    257  H62 THR d   1       8.963   7.314 -26.860  0.00  0.00     0.077 H 
ATOM    258  H63 THR d   1       9.427   8.573 -25.666  0.00  0.00     0.077 H 
BRANCH 256 259
ATOM    259  OG  THR d   1       8.084   7.158 -25.003  0.00  0.00    -0.398 OA
ATOM    260  H64 THR d   1       7.885   6.237 -25.122  0.00  0.00     0.209 HD
ENDBRANCH 256 259
ENDBRANCH   1 256
TORSDOF 75
