REMARK WARNING: 32 MAX_TORS EXCEEDED!!!
REMARK  79 active torsions:
REMARK  status: ('A' for Active; 'I' for Inactive)
REMARK    1  A    between atoms: N_1  and  CA_2 
REMARK    2  A    between atoms: CA_2  and  C_3 
REMARK    3  A    between atoms: CA_2  and  CB_5 
REMARK       I    between atoms: C_3  and  N_8 
REMARK    4  A    between atoms: CB_5  and  OG1_6 
REMARK    5  A    between atoms: CB_5  and  CG2_7 
REMARK    6  A    between atoms: N_8  and  CA_9 
REMARK    7  A    between atoms: CA_9  and  C_10 
REMARK    8  A    between atoms: CA_9  and  CB_12 
REMARK       I    between atoms: C_10  and  N_15 
REMARK    9  A    between atoms: CB_12  and  OG1_13 
REMARK   10  A    between atoms: CB_12  and  CG2_14 
REMARK   11  A    between atoms: N_15  and  CA_16 
REMARK   12  A    between atoms: CA_16  and  C_17 
REMARK   13  A    between atoms: CA_16  and  CB_19 
REMARK       I    between atoms: C_17  and  N_27 
REMARK   14  A    between atoms: CB_19  and  CG_20 
REMARK   15  A    between atoms: CZ_25  and  OH_26 
REMARK   16  A    between atoms: N_27  and  CA_28 
REMARK   17  A    between atoms: CA_28  and  C_29 
REMARK   18  A    between atoms: CA_28  and  CB_31 
REMARK       I    between atoms: C_29  and  N_32 
REMARK   19  A    between atoms: N_32  and  CA_33 
REMARK   20  A    between atoms: CA_33  and  C_34 
REMARK   21  A    between atoms: CA_33  and  CB_36 
REMARK       I    between atoms: C_34  and  N_40 
REMARK   22  A    between atoms: CB_36  and  CG_37 
REMARK   23  A    between atoms: N_40  and  CA_41 
REMARK   24  A    between atoms: CA_41  and  C_42 
REMARK   25  A    between atoms: CA_41  and  CB_44 
REMARK       I    between atoms: C_42  and  N_51 
REMARK   26  A    between atoms: CB_44  and  CG_45 
REMARK   27  A    between atoms: N_51  and  CA_52 
REMARK   28  A    between atoms: CA_52  and  C_53 
REMARK   29  A    between atoms: CA_52  and  CB_55 
REMARK       I    between atoms: C_53  and  N_59 
REMARK   30  A    between atoms: CB_55  and  CG1_56 
REMARK   31  A    between atoms: CB_55  and  CG2_57 
REMARK   32  A    between atoms: CG1_56  and  CD1_58 
REMARK   33  A    between atoms: N_59  and  CA_60 
REMARK   34  A    between atoms: CA_60  and  C_61 
REMARK   35  A    between atoms: CA_60  and  CB_63 
REMARK       I    between atoms: C_61  and  N_64 
REMARK   36  A    between atoms: N_64  and  CA_65 
REMARK   37  A    between atoms: CA_65  and  C_66 
REMARK   38  A    between atoms: CA_65  and  CB_68 
REMARK       I    between atoms: C_66  and  N_70 
REMARK   39  A    between atoms: CB_68  and  OG_69 
REMARK   40  A    between atoms: N_70  and  CA_71 
REMARK   41  A    between atoms: CA_71  and  C_72 
REMARK       I    between atoms: C_72  and  N_74 
REMARK   42  A    between atoms: N_74  and  CA_75 
REMARK   43  A    between atoms: CA_75  and  C_76 
REMARK   44  A    between atoms: CA_75  and  CB_78 
REMARK       I    between atoms: C_76  and  N_85 
REMARK   45  A    between atoms: CB_78  and  CG_79 
REMARK   46  A    between atoms: CG_79  and  CD_80 
REMARK   47  A    between atoms: CD_80  and  NE_81 
REMARK       I    between atoms: NE_81  and  CZ_82 
REMARK       I    between atoms: CZ_82  and  NH1_83 
REMARK       I    between atoms: CZ_82  and  NH2_84 
REMARK   48  A    between atoms: N_85  and  CA_86 
REMARK   49  A    between atoms: CA_86  and  C_87 
REMARK   50  A    between atoms: CA_86  and  CB_89 
REMARK       I    between atoms: C_87  and  N_92 
REMARK   51  A    between atoms: CB_89  and  OG1_90 
REMARK   52  A    between atoms: CB_89  and  CG2_91 
REMARK   53  A    between atoms: N_92  and  CA_93 
REMARK   54  A    between atoms: CA_93  and  C_94 
REMARK       I    between atoms: C_94  and  N_96 
REMARK   55  A    between atoms: N_96  and  CA_97 
REMARK   56  A    between atoms: CA_97  and  C_98 
REMARK   57  A    between atoms: CA_97  and  CB_100 
REMARK       I    between atoms: C_98  and  N_107 
REMARK   58  A    between atoms: CB_100  and  CG_101 
REMARK   59  A    between atoms: CG_101  and  CD_102 
REMARK   60  A    between atoms: CD_102  and  NE_103 
REMARK       I    between atoms: NE_103  and  CZ_104 
REMARK       I    between atoms: CZ_104  and  NH1_105 
REMARK       I    between atoms: CZ_104  and  NH2_106 
REMARK   61  A    between atoms: N_107  and  CA_108 
REMARK   62  A    between atoms: CA_108  and  C_109 
REMARK   63  A    between atoms: CA_108  and  CB_111 
REMARK       I    between atoms: C_109  and  N_118 
REMARK   64  A    between atoms: CB_111  and  CG_112 
REMARK   65  A    between atoms: CG_112  and  CD_113 
REMARK   66  A    between atoms: CD_113  and  NE_114 
REMARK       I    between atoms: NE_114  and  CZ_115 
REMARK       I    between atoms: CZ_115  and  NH1_116 
REMARK   67  A    between atoms: N_118  and  CA_119 
REMARK   68  A    between atoms: CA_119  and  C_120 
REMARK   69  A    between atoms: CA_119  and  CB_122 
REMARK       I    between atoms: C_120  and  N_124 
REMARK   70  A    between atoms: CB_122  and  OG_123 
REMARK   71  A    between atoms: N_124  and  CA_125 
REMARK   72  A    between atoms: CA_125  and  C_126 
REMARK   73  A    between atoms: CA_125  and  CB_128 
REMARK       I    between atoms: C_126  and  N_129 
REMARK   74  A    between atoms: N_129  and  CA_130 
REMARK   75  A    between atoms: CA_130  and  C_131 
REMARK   76  A    between atoms: CA_130  and  CB_133 
REMARK   77  A    between atoms: CB_133  and  CG1_134 
REMARK   78  A    between atoms: CB_133  and  CG2_135 
REMARK   79  A    between atoms: CG1_134  and  CD1_136 
ROOT
ATOM      1  CA  THR d   1       5.569 -35.440  28.138  0.00  0.00     0.069 C 
ATOM      2  H66 THR d   1       5.928 -34.933  29.046  0.00  0.00     0.078 H 
ATOM      3  H67 THR d   1       5.064 -36.376  28.417  0.00  0.00     0.078 H 
ENDROOT
BRANCH   1   4
ATOM      4  N   THR d   1       6.731 -35.786  27.334  0.00  0.00    -0.350 N 
ATOM      5  C   THR d   1       6.717 -36.758  26.432  0.00  0.00     0.242 C 
ATOM      6  O   THR d   1       5.713 -37.424  26.180  0.00  0.00    -0.271 OA
ATOM      7  H65 THR d   1       7.576 -35.269  27.467  0.00  0.00     0.163 HD
BRANCH   5   8
ATOM      8  CA  THR d   1       8.037 -36.958  25.692  0.00  0.00     0.109 C 
ATOM      9  H61 THR d   1       8.850 -37.011  26.431  0.00  0.00     0.090 H 
BRANCH   8  10
ATOM     10  N   THR d   1       8.031 -38.194  24.937  0.00  0.00    -0.344 N 
ATOM     11  C   THR d   1       8.258 -39.379  25.501  0.00  0.00     0.240 C 
ATOM     12  O   THR d   1       8.463 -39.501  26.713  0.00  0.00    -0.271 OA
ATOM     13  H60 THR d   1       7.849 -38.156  23.954  0.00  0.00     0.163 HD
BRANCH  11  14
ATOM     14  CA  THR d   1       8.258 -40.620  24.614  0.00  0.00     0.086 C 
ATOM     15  H56 THR d   1       7.532 -41.333  25.030  0.00  0.00     0.086 H 
BRANCH  14  16
ATOM     16  N   THR d   1       7.868 -40.332  23.244  0.00  0.00    -0.346 N 
ATOM     17  C   THR d   1       6.613 -40.317  22.812  0.00  0.00     0.241 C 
ATOM     18  O   THR d   1       5.659 -40.568  23.560  0.00  0.00    -0.271 OA
ATOM     19  H55 THR d   1       8.592 -40.132  22.584  0.00  0.00     0.163 HD
BRANCH  17  20
ATOM     20  CA  THR d   1       6.377 -39.947  21.351  0.00  0.00     0.092 C 
ATOM     21  H45 THR d   1       5.421 -39.406  21.303  0.00  0.00     0.088 H 
BRANCH  20  22
ATOM     22  N   THR d   1       7.433 -39.052  20.847  0.00  0.00    -0.346 N 
ATOM     23  C   THR d   1       7.609 -37.820  21.335  0.00  0.00     0.241 C 
ATOM     24  O   THR d   1       6.983 -37.411  22.322  0.00  0.00    -0.271 OA
ATOM     25  H44 THR d   1       8.036 -39.376  20.118  0.00  0.00     0.163 HD
BRANCH  23  26
ATOM     26  CA  THR d   1       8.631 -36.929  20.622  0.00  0.00     0.093 C 
ATOM     27  H36 THR d   1       8.855 -36.078  21.282  0.00  0.00     0.088 H 
BRANCH  26  28
ATOM     28  N   THR d   1       9.882 -37.640  20.372  0.00  0.00    -0.346 N 
ATOM     29  C   THR d   1      10.604 -38.074  21.408  0.00  0.00     0.241 C 
ATOM     30  O   THR d   1      10.272 -37.840  22.581  0.00  0.00    -0.271 OA
ATOM     31  H35 THR d   1      10.194 -37.800  19.436  0.00  0.00     0.163 HD
BRANCH  29  32
ATOM     32  CA  THR d   1      11.854 -38.901  21.111  0.00  0.00     0.098 C 
ATOM     33  H32 THR d   1      12.088 -39.491  22.009  0.00  0.00     0.088 H 
BRANCH  32  34
ATOM     34  N   THR d   1      11.607 -39.823  20.015  0.00  0.00    -0.346 N 
ATOM     35  C   THR d   1      10.740 -40.829  20.153  0.00  0.00     0.240 C 
ATOM     36  O   THR d   1      10.124 -41.024  21.212  0.00  0.00    -0.271 OA
ATOM     37  H31 THR d   1      12.091 -39.703  19.148  0.00  0.00     0.163 HD
BRANCH  35  38
ATOM     38  CA  THR d   1      10.522 -41.723  18.937  0.00  0.00     0.086 C 
ATOM     39  H27 THR d   1       9.532 -42.193  19.032  0.00  0.00     0.086 H 
BRANCH  38  40
ATOM     40  N   THR d   1      10.534 -40.951  17.697  0.00  0.00    -0.346 N 
ATOM     41  C   THR d   1       9.634 -39.986  17.500  0.00  0.00     0.241 C 
ATOM     42  O   THR d   1       8.769 -39.716  18.347  0.00  0.00    -0.271 OA
ATOM     43  H26 THR d   1      11.218 -41.146  16.994  0.00  0.00     0.163 HD
BRANCH  41  44
ATOM     44  CA  THR d   1       9.690 -39.222  16.184  0.00  0.00     0.093 C 
ATOM     45  H18 THR d   1       9.022 -38.351  16.258  0.00  0.00     0.088 H 
BRANCH  44  46
ATOM     46  N   THR d   1      11.042 -38.755  15.898  0.00  0.00    -0.346 N 
ATOM     47  C   THR d   1      11.724 -38.000  16.762  0.00  0.00     0.243 C 
ATOM     48  O   THR d   1      11.220 -37.590  17.815  0.00  0.00    -0.271 OA
ATOM     49  H17 THR d   1      11.470 -39.008  15.030  0.00  0.00     0.163 HD
BRANCH  47  50
ATOM     50  CA  THR d   1      13.177 -37.674  16.414  0.00  0.00     0.113 C 
ATOM     51  H11 THR d   1      13.698 -37.390  17.340  0.00  0.00     0.091 H 
BRANCH  50  52
ATOM     52  N   THR d   1      13.841 -38.838  15.851  0.00  0.00    -0.344 N 
ATOM     53  C   THR d   1      13.982 -39.947  16.580  0.00  0.00     0.251 C 
ATOM     54  O   THR d   1      13.572 -40.031  17.746  0.00  0.00    -0.271 OA
ATOM     55  H10 THR d   1      14.193 -38.808  14.915  0.00  0.00     0.163 HD
BRANCH  53  56
ATOM     56  CA  THR d   1      14.670 -41.126  15.911  0.00  0.00     0.199 C 
ATOM     57  H4  THR d   1      15.474 -40.752  15.260  0.00  0.00     0.103 H 
BRANCH  56  58
ATOM     58  N   THR d   1      15.266 -41.992  16.934  0.00  0.00    -0.064 N 
ATOM     59  H1  THR d   1      15.930 -41.462  17.477  0.00  0.00     0.275 HD
ATOM     60  H2  THR d   1      15.737 -42.764  16.488  0.00  0.00     0.275 HD
ATOM     61  H3  THR d   1      14.541 -42.345  17.539  0.00  0.00     0.275 HD
ENDBRANCH  56  58
BRANCH  56  62
ATOM     62  CB  THR d   1      13.649 -41.868  15.046  0.00  0.00     0.068 C 
ATOM     63  H5  THR d   1      13.335 -41.198  14.232  0.00  0.00     0.086 H 
BRANCH  62  64
ATOM     64  OG1 THR d   1      12.507 -42.178  15.850  0.00  0.00    -0.393 OA
ATOM     65  H6  THR d   1      12.126 -41.373  16.181  0.00  0.00     0.210 HD
ENDBRANCH  62  64
BRANCH  62  66
ATOM     66  CG2 THR d   1      14.226 -43.132  14.416  0.00  0.00    -0.050 C 
ATOM     67  H7  THR d   1      13.453 -43.624  13.807  0.00  0.00     0.031 H 
ATOM     68  H8  THR d   1      14.560 -43.817  15.209  0.00  0.00     0.031 H 
ATOM     69  H9  THR d   1      15.081 -42.866  13.777  0.00  0.00     0.031 H 
ENDBRANCH  62  66
ENDBRANCH  56  62
ENDBRANCH  53  56
ENDBRANCH  50  52
BRANCH  50  70
ATOM     70  CB  THR d   1      13.256 -36.500  15.436  0.00  0.00     0.060 C 
ATOM     71  H12 THR d   1      12.714 -36.744  14.511  0.00  0.00     0.086 H 
BRANCH  70  72
ATOM     72  OG1 THR d   1      14.639 -36.281  15.157  0.00  0.00    -0.393 OA
ATOM     73  H13 THR d   1      14.727 -35.556  14.550  0.00  0.00     0.210 HD
ENDBRANCH  70  72
BRANCH  70  74
ATOM     74  CG2 THR d   1      12.671 -35.251  16.050  0.00  0.00    -0.050 C 
ATOM     75  H14 THR d   1      12.739 -34.422  15.330  0.00  0.00     0.031 H 
ATOM     76  H15 THR d   1      13.232 -34.993  16.960  0.00  0.00     0.031 H 
ATOM     77  H16 THR d   1      11.616 -35.428  16.307  0.00  0.00     0.031 H 
ENDBRANCH  70  74
ENDBRANCH  50  70
ENDBRANCH  47  50
ENDBRANCH  44  46
BRANCH  44  78
ATOM     78  CB  THR d   1       9.221 -40.117  15.016  0.00  0.00    -0.014 C 
ATOM     79  H19 THR d   1      10.042 -40.803  14.762  0.00  0.00     0.043 H 
ATOM     80  H20 THR d   1       9.006 -39.468  14.155  0.00  0.00     0.043 H 
BRANCH  78  81
ATOM     81  CG  THR d   1       7.977 -40.953  15.300  0.00  0.00    -0.056 A 
ATOM     82  CD1 THR d   1       8.064 -42.311  15.623  0.00  0.00    -0.074 A 
ATOM     83  CE1 THR d   1       6.939 -43.039  15.887  0.00  0.00    -0.051 A 
ATOM     84  H21 THR d   1       9.035 -42.791  15.664  0.00  0.00     0.084 H 
ATOM     85  CZ  THR d   1       5.696 -42.440  15.858  0.00  0.00     0.065 A 
ATOM     86  H23 THR d   1       7.023 -44.094  16.121  0.00  0.00     0.087 H 
ATOM     87  CE2 THR d   1       5.570 -41.112  15.542  0.00  0.00    -0.051 A 
ATOM     88  CD2 THR d   1       6.735 -40.372  15.271  0.00  0.00    -0.074 A 
ATOM     89  H24 THR d   1       4.594 -40.642  15.502  0.00  0.00     0.087 H 
ATOM     90  H22 THR d   1       6.649 -39.318  15.034  0.00  0.00     0.084 H 
BRANCH  85  91
ATOM     91  OH  THR d   1       4.597 -43.211  16.144  0.00  0.00    -0.361 OA
ATOM     92  H25 THR d   1       4.876 -44.098  16.338  0.00  0.00     0.217 HD
ENDBRANCH  85  91
ENDBRANCH  78  81
ENDBRANCH  44  78
ENDBRANCH  41  44
ENDBRANCH  38  40
BRANCH  38  93
ATOM     93  CB  THR d   1      11.572 -42.829  18.904  0.00  0.00    -0.049 C 
ATOM     94  H28 THR d   1      11.540 -43.393  19.848  0.00  0.00     0.030 H 
ATOM     95  H29 THR d   1      12.570 -42.384  18.776  0.00  0.00     0.030 H 
ATOM     96  H30 THR d   1      11.363 -43.508  18.064  0.00  0.00     0.030 H 
ENDBRANCH  38  93
ENDBRANCH  35  38
ENDBRANCH  32  34
BRANCH  32  97
ATOM     97  CB  THR d   1      13.064 -38.022  20.800  0.00  0.00     0.043 C 
ATOM     98  H33 THR d   1      13.140 -37.243  21.573  0.00  0.00     0.052 H 
ATOM     99  H34 THR d   1      12.911 -37.550  19.818  0.00  0.00     0.052 H 
BRANCH  97 100
ATOM    100  CG  THR d   1      14.376 -38.803  20.766  0.00  0.00     0.175 C 
ATOM    101  OD1 THR d   1      14.468 -39.872  21.407  0.00  0.00    -0.648 OA
ATOM    102  OD2 THR d   1      15.341 -38.320  20.121  0.00  0.00    -0.648 OA
ENDBRANCH  97 100
ENDBRANCH  32  97
ENDBRANCH  29  32
ENDBRANCH  26  28
BRANCH  26 103
ATOM    103  CB  THR d   1       8.046 -36.375  19.322  0.00  0.00    -0.014 C 
ATOM    104  H37 THR d   1       7.894 -37.209  18.621  0.00  0.00     0.043 H 
ATOM    105  H38 THR d   1       8.762 -35.660  18.891  0.00  0.00     0.043 H 
BRANCH 103 106
ATOM    106  CG  THR d   1       6.726 -35.671  19.527  0.00  0.00    -0.056 A 
ATOM    107  CD1 THR d   1       6.657 -34.534  20.304  0.00  0.00    -0.077 A 
ATOM    108  CE1 THR d   1       5.441 -33.885  20.506  0.00  0.00    -0.082 A 
ATOM    109  H39 THR d   1       7.558 -34.141  20.762  0.00  0.00     0.084 H 
ATOM    110  CZ  THR d   1       4.294 -34.399  19.972  0.00  0.00    -0.083 A 
ATOM    111  H41 THR d   1       5.405 -32.971  21.088  0.00  0.00     0.083 H 
ATOM    112  CE2 THR d   1       4.338 -35.543  19.229  0.00  0.00    -0.082 A 
ATOM    113  H43 THR d   1       3.347 -33.898  20.139  0.00  0.00     0.083 H 
ATOM    114  CD2 THR d   1       5.549 -36.198  19.027  0.00  0.00    -0.077 A 
ATOM    115  H42 THR d   1       3.428 -35.942  18.796  0.00  0.00     0.083 H 
ATOM    116  H40 THR d   1       5.570 -37.130  18.473  0.00  0.00     0.084 H 
ENDBRANCH 103 106
ENDBRANCH  26 103
ENDBRANCH  23  26
ENDBRANCH  20  22
BRANCH  20 117
ATOM    117  CB  THR d   1       6.266 -41.184  20.410  0.00  0.00    -0.030 C 
ATOM    118  H46 THR d   1       7.281 -41.588  20.282  0.00  0.00     0.043 H 
BRANCH 117 119
ATOM    119  CG1 THR d   1       5.741 -40.772  19.014  0.00  0.00    -0.063 C 
ATOM    120  H47 THR d   1       5.733 -41.669  18.377  0.00  0.00     0.033 H 
ATOM    121  H48 THR d   1       6.438 -40.031  18.595  0.00  0.00     0.033 H 
BRANCH 119 122
ATOM    122  CD1 THR d   1       4.377 -40.182  18.992  0.00  0.00    -0.076 C 
ATOM    123  H52 THR d   1       4.105 -39.927  17.957  0.00  0.00     0.027 H 
ATOM    124  H53 THR d   1       4.361 -39.272  19.610  0.00  0.00     0.027 H 
ATOM    125  H54 THR d   1       3.656 -40.910  19.392  0.00  0.00     0.027 H 
ENDBRANCH 119 122
ENDBRANCH 117 119
BRANCH 117 126
ATOM    126  CG2 THR d   1       5.398 -42.302  20.986  0.00  0.00    -0.071 C 
ATOM    127  H49 THR d   1       5.779 -42.588  21.978  0.00  0.00     0.028 H 
ATOM    128  H50 THR d   1       5.430 -43.174  20.316  0.00  0.00     0.028 H 
ATOM    129  H51 THR d   1       4.360 -41.949  21.079  0.00  0.00     0.028 H 
ENDBRANCH 117 126
ENDBRANCH  20 117
ENDBRANCH  17  20
ENDBRANCH  14  16
BRANCH  14 130
ATOM    130  CB  THR d   1       9.644 -41.272  24.630  0.00  0.00    -0.049 C 
ATOM    131  H57 THR d   1       9.935 -41.488  25.668  0.00  0.00     0.030 H 
ATOM    132  H58 THR d   1      10.377 -40.587  24.179  0.00  0.00     0.030 H 
ATOM    133  H59 THR d   1       9.615 -42.209  24.055  0.00  0.00     0.030 H 
ENDBRANCH  14 130
ENDBRANCH  11  14
ENDBRANCH   8  10
BRANCH   8 134
ATOM    134  CB  THR d   1       8.280 -35.753  24.784  0.00  0.00     0.044 C 
ATOM    135  H62 THR d   1       9.044 -36.014  24.037  0.00  0.00     0.077 H 
ATOM    136  H63 THR d   1       8.636 -34.909  25.393  0.00  0.00     0.077 H 
BRANCH 134 137
ATOM    137  OG  THR d   1       7.080 -35.369  24.110  0.00  0.00    -0.398 OA
ATOM    138  H64 THR d   1       6.771 -36.093  23.579  0.00  0.00     0.209 HD
ENDBRANCH 134 137
ENDBRANCH   8 134
ENDBRANCH   5   8
ENDBRANCH   1   4
BRANCH   1 139
ATOM    139  C   THR d   1       4.548 -34.544  27.485  0.00  0.00     0.236 C 
ATOM    140  O   THR d   1       3.556 -34.213  28.138  0.00  0.00    -0.272 OA
ATOM    141  N   THR d   1       4.742 -34.133  26.238  0.00  0.00    -0.346 N 
ATOM    142  H68 THR d   1       5.489 -34.529  25.705  0.00  0.00     0.163 HD
BRANCH 141 143
ATOM    143  CA  THR d   1       3.889 -33.115  25.625  0.00  0.00     0.089 C 
ATOM    144  H69 THR d   1       3.054 -32.950  26.321  0.00  0.00     0.087 H 
BRANCH 143 145
ATOM    145  C   THR d   1       3.255 -33.606  24.317  0.00  0.00     0.241 C 
ATOM    146  O   THR d   1       3.170 -32.865  23.327  0.00  0.00    -0.271 OA
ATOM    147  N   THR d   1       2.791 -34.866  24.309  0.00  0.00    -0.344 N 
ATOM    148  H81 THR d   1       2.916 -35.429  25.126  0.00  0.00     0.163 HD
BRANCH 147 149
ATOM    149  CA  THR d   1       2.110 -35.448  23.152  0.00  0.00     0.113 C 
ATOM    150  H82 THR d   1       2.442 -34.887  22.266  0.00  0.00     0.091 H 
BRANCH 149 151
ATOM    151  C   THR d   1       0.591 -35.351  23.216  0.00  0.00     0.243 C 
ATOM    152  O   THR d   1      -0.049 -35.645  22.203  0.00  0.00    -0.271 OA
ATOM    153  N   THR d   1       0.018 -34.942  24.360  0.00  0.00    -0.350 N 
ATOM    154  H88 THR d   1       0.604 -34.749  25.147  0.00  0.00     0.163 HD
BRANCH 153 155
ATOM    155  CA  THR d   1      -1.415 -34.768  24.501  0.00  0.00     0.069 C 
ATOM    156  H89 THR d   1      -1.709 -35.038  25.526  0.00  0.00     0.078 H 
ATOM    157  H90 THR d   1      -1.927 -35.429  23.786  0.00  0.00     0.078 H 
BRANCH 155 158
ATOM    158  C   THR d   1      -1.831 -33.327  24.230  0.00  0.00     0.236 C 
ATOM    159  O   THR d   1      -1.034 -32.475  23.843  0.00  0.00    -0.272 OA
ATOM    160  N   THR d   1      -3.106 -33.042  24.468  0.00  0.00    -0.346 N 
ATOM    161  H91 THR d   1      -3.714 -33.751  24.826  0.00  0.00     0.163 HD
BRANCH 160 162
ATOM    162  CA  THR d   1      -3.628 -31.705  24.212  0.00  0.00     0.089 C 
ATOM    163  H92 THR d   1      -3.480 -31.470  23.148  0.00  0.00     0.087 H 
BRANCH 162 164
ATOM    164  C   THR d   1      -2.871 -30.679  25.050  0.00  0.00     0.241 C 
ATOM    165  O   THR d   1      -2.655 -30.862  26.257  0.00  0.00    -0.271 OA
ATOM    166  N   THR d   1      -2.489 -29.576  24.413  0.00  0.00    -0.346 N 
ATOM    167 4H10 THR d   1      -2.778 -29.451  23.464  0.00  0.00     0.163 HD
BRANCH 166 168
ATOM    168  CA  THR d   1      -1.670 -28.539  25.030  0.00  0.00     0.089 C 
ATOM    169 5H10 THR d   1      -1.224 -28.944  25.950  0.00  0.00     0.087 H 
BRANCH 168 170
ATOM    170  C   THR d   1      -2.512 -27.322  25.390  0.00  0.00     0.241 C 
ATOM    171  O   THR d   1      -3.287 -26.833  24.570  0.00  0.00    -0.271 OA
ATOM    172  N   THR d   1      -2.357 -26.850  26.623  0.00  0.00    -0.344 N 
ATOM    173 7H11 THR d   1      -1.707 -27.308  27.230  0.00  0.00     0.163 HD
BRANCH 172 174
ATOM    174  CA  THR d   1      -3.086 -25.701  27.132  0.00  0.00     0.109 C 
ATOM    175 8H11 THR d   1      -4.059 -25.643  26.623  0.00  0.00     0.090 H 
BRANCH 174 176
ATOM    176  C   THR d   1      -2.318 -24.414  26.892  0.00  0.00     0.243 C 
ATOM    177  O   THR d   1      -1.089 -24.396  26.775  0.00  0.00    -0.271 OA
ATOM    178  N   THR d   1      -3.070 -23.320  26.836  0.00  0.00    -0.346 N 
ATOM    179 2H12 THR d   1      -4.066 -23.404  26.875  0.00  0.00     0.163 HD
BRANCH 178 180
ATOM    180  CA  THR d   1      -2.471 -22.010  26.720  0.00  0.00     0.086 C 
ATOM    181 3H12 THR d   1      -1.735 -22.017  25.903  0.00  0.00     0.086 H 
BRANCH 180 182
ATOM    182  C   THR d   1      -1.780 -21.649  28.024  0.00  0.00     0.240 C 
ATOM    183  O   THR d   1      -2.163 -22.110  29.107  0.00  0.00    -0.271 OA
ATOM    184  N   THR d   1      -0.756 -20.810  27.917  0.00  0.00    -0.344 N 
ATOM    185 7H12 THR d   1      -0.484 -20.483  27.012  0.00  0.00     0.163 HD
BRANCH 184 186
ATOM    186  CA  THR d   1      -0.019 -20.355  29.090  0.00  0.00     0.099 C 
ATOM    187 8H12 THR d   1       0.165 -21.237  29.721  0.00  0.00     0.090 H 
BRANCH 186 188
ATOM    188  C   THR d   1      -0.875 -19.384  29.903  0.00  0.00     0.197 C 
ATOM    189  O   THR d   1      -0.606 -19.176  31.080  0.00  0.00    -0.646 OA
ATOM    190  OXT THR d   1      -1.848 -18.798  29.409  0.00  0.00    -0.646 OA
ENDBRANCH 186 188
BRANCH 186 191
ATOM    191  CB  THR d   1       1.365 -19.761  28.737  0.00  0.00    -0.029 C 
ATOM    192 9H12 THR d   1       1.886 -19.527  29.677  0.00  0.00     0.043 H 
BRANCH 191 193
ATOM    193  CG1 THR d   1       1.216 -18.460  27.940  0.00  0.00    -0.063 C 
ATOM    194 0H13 THR d   1       0.570 -17.779  28.513  0.00  0.00     0.033 H 
ATOM    195 1H13 THR d   1       0.736 -18.699  26.979  0.00  0.00     0.033 H 
BRANCH 193 196
ATOM    196  CD1 THR d   1       2.522 -17.744  27.652  0.00  0.00    -0.076 C 
ATOM    197 5H13 THR d   1       2.319 -16.827  27.079  0.00  0.00     0.027 H 
ATOM    198 6H13 THR d   1       3.180 -18.403  27.067  0.00  0.00     0.027 H 
ATOM    199 7H13 THR d   1       3.014 -17.483  28.601  0.00  0.00     0.027 H 
ENDBRANCH 193 196
ENDBRANCH 191 193
BRANCH 191 200
ATOM    200  CG2 THR d   1       2.207 -20.771  27.968  0.00  0.00    -0.070 C 
ATOM    201 2H13 THR d   1       2.300 -21.695  28.558  0.00  0.00     0.028 H 
ATOM    202 3H13 THR d   1       3.207 -20.351  27.784  0.00  0.00     0.028 H 
ATOM    203 4H13 THR d   1       1.722 -20.997  27.007  0.00  0.00     0.028 H 
ENDBRANCH 191 200
ENDBRANCH 186 191
ENDBRANCH 184 186
ENDBRANCH 180 182
BRANCH 180 204
ATOM    204  CB  THR d   1      -3.549 -20.970  26.425  0.00  0.00    -0.049 C 
ATOM    205 4H12 THR d   1      -3.086 -19.976  26.338  0.00  0.00     0.030 H 
ATOM    206 5H12 THR d   1      -4.284 -20.962  27.243  0.00  0.00     0.030 H 
ATOM    207 6H12 THR d   1      -4.054 -21.223  25.481  0.00  0.00     0.030 H 
ENDBRANCH 180 204
ENDBRANCH 178 180
ENDBRANCH 174 176
BRANCH 174 208
ATOM    208  CB  THR d   1      -3.305 -25.848  28.634  0.00  0.00     0.044 C 
ATOM    209 9H11 THR d   1      -3.928 -25.018  29.000  0.00  0.00     0.077 H 
ATOM    210 0H12 THR d   1      -2.335 -25.835  29.152  0.00  0.00     0.077 H 
BRANCH 208 211
ATOM    211  OG  THR d   1      -3.954 -27.068  28.878  0.00  0.00    -0.398 OA
ATOM    212 1H12 THR d   1      -4.095 -27.169  29.812  0.00  0.00     0.209 HD
ENDBRANCH 208 211
ENDBRANCH 174 208
ENDBRANCH 172 174
ENDBRANCH 168 170
BRANCH 168 213
ATOM    213  CB  THR d   1      -0.550 -28.124  24.077  0.00  0.00    -0.036 C 
ATOM    214 6H10 THR d   1       0.014 -27.295  24.528  0.00  0.00     0.036 H 
ATOM    215 7H10 THR d   1      -0.994 -27.791  23.127  0.00  0.00     0.036 H 
BRANCH 213 216
ATOM    216  CG  THR d   1       0.410 -29.286  23.798  0.00  0.00    -0.048 C 
ATOM    217 8H10 THR d   1      -0.175 -30.216  23.741  0.00  0.00     0.035 H 
ATOM    218 9H10 THR d   1       1.126 -29.354  24.630  0.00  0.00     0.035 H 
BRANCH 216 219
ATOM    219  CD  THR d   1       1.196 -29.125  22.492  0.00  0.00     0.009 C 
ATOM    220 0H11 THR d   1       1.941 -29.931  22.417  0.00  0.00     0.064 H 
ATOM    221 1H11 THR d   1       1.708 -28.151  22.496  0.00  0.00     0.064 H 
BRANCH 219 222
ATOM    222  NE  THR d   1       0.306 -29.191  21.346  0.00  0.00    -0.227 N 
ATOM    223  CZ  THR d   1       0.705 -29.357  20.092  0.00  0.00     0.665 C 
ATOM    224  NH1 THR d   1      -0.179 -29.336  19.118  0.00  0.00    -0.235 N 
ATOM    225  NH2 THR d   1       1.988 -29.510  19.799  0.00  0.00    -0.235 N 
ATOM    226 3H11 THR d   1       0.126 -29.465  18.143  0.00  0.00     0.174 HD
ATOM    227 4H11 THR d   1      -1.176 -29.191  19.331  0.00  0.00     0.174 HD
ATOM    228 5H11 THR d   1       2.690 -29.528  20.553  0.00  0.00     0.174 HD
ATOM    229 6H11 THR d   1       2.284 -29.611  18.817  0.00  0.00     0.174 HD
ATOM    230 2H11 THR d   1      -0.706 -29.103  21.519  0.00  0.00     0.177 HD
ENDBRANCH 219 222
ENDBRANCH 216 219
ENDBRANCH 213 216
ENDBRANCH 168 213
ENDBRANCH 166 168
ENDBRANCH 162 164
BRANCH 162 231
ATOM    231  CB  THR d   1      -5.128 -31.629  24.523  0.00  0.00    -0.036 C 
ATOM    232  H93 THR d   1      -5.455 -30.587  24.395  0.00  0.00     0.036 H 
ATOM    233  H94 THR d   1      -5.280 -31.936  25.568  0.00  0.00     0.036 H 
BRANCH 231 234
ATOM    234  CG  THR d   1      -5.995 -32.518  23.630  0.00  0.00    -0.048 C 
ATOM    235  H95 THR d   1      -5.583 -33.538  23.649  0.00  0.00     0.035 H 
ATOM    236  H96 THR d   1      -5.955 -32.125  22.603  0.00  0.00     0.035 H 
BRANCH 234 237
ATOM    237  CD  THR d   1      -7.445 -32.577  24.066  0.00  0.00     0.009 C 
ATOM    238  H97 THR d   1      -7.476 -32.735  25.154  0.00  0.00     0.064 H 
ATOM    239  H98 THR d   1      -7.928 -33.425  23.558  0.00  0.00     0.064 H 
BRANCH 237 240
ATOM    240  NE  THR d   1      -8.190 -31.367  23.754  0.00  0.00    -0.227 N 
ATOM    241  CZ  THR d   1      -8.542 -30.415  24.621  0.00  0.00     0.665 C 
ATOM    242  NH1 THR d   1      -8.179 -30.467  25.898  0.00  0.00    -0.235 N 
ATOM    243  NH2 THR d   1      -9.275 -29.384  24.199  0.00  0.00    -0.235 N 
ATOM    244 0H10 THR d   1      -8.465 -29.719  26.546  0.00  0.00     0.174 HD
ATOM    245 1H10 THR d   1      -7.612 -31.256  26.241  0.00  0.00     0.174 HD
ATOM    246 2H10 THR d   1      -9.565 -29.328  23.212  0.00  0.00     0.174 HD
ATOM    247 3H10 THR d   1      -9.551 -28.644  24.860  0.00  0.00     0.174 HD
ATOM    248  H99 THR d   1      -8.472 -31.232  22.773  0.00  0.00     0.177 HD
ENDBRANCH 237 240
ENDBRANCH 234 237
ENDBRANCH 231 234
ENDBRANCH 162 231
ENDBRANCH 160 162
ENDBRANCH 155 158
ENDBRANCH 153 155
ENDBRANCH 149 151
BRANCH 149 249
ATOM    249  CB  THR d   1       2.501 -36.926  22.957  0.00  0.00     0.060 C 
ATOM    250  H83 THR d   1       2.106 -37.246  21.982  0.00  0.00     0.086 H 
BRANCH 249 251
ATOM    251  OG1 THR d   1       1.916 -37.771  23.965  0.00  0.00    -0.393 OA
ATOM    252  H84 THR d   1       2.216 -37.493  24.823  0.00  0.00     0.210 HD
ENDBRANCH 249 251
BRANCH 249 253
ATOM    253  CG2 THR d   1       4.022 -37.109  22.927  0.00  0.00    -0.050 C 
ATOM    254  H85 THR d   1       4.261 -38.174  22.787  0.00  0.00     0.031 H 
ATOM    255  H86 THR d   1       4.452 -36.759  23.877  0.00  0.00     0.031 H 
ATOM    256  H87 THR d   1       4.445 -36.526  22.096  0.00  0.00     0.031 H 
ENDBRANCH 249 253
ENDBRANCH 149 249
ENDBRANCH 147 149
ENDBRANCH 143 145
BRANCH 143 257
ATOM    257  CB  THR d   1       4.610 -31.770  25.507  0.00  0.00    -0.036 C 
ATOM    258  H70 THR d   1       3.925 -31.043  25.046  0.00  0.00     0.036 H 
ATOM    259  H71 THR d   1       5.493 -31.900  24.864  0.00  0.00     0.036 H 
BRANCH 257 260
ATOM    260  CG  THR d   1       5.068 -31.219  26.865  0.00  0.00    -0.048 C 
ATOM    261  H72 THR d   1       5.815 -31.904  27.294  0.00  0.00     0.035 H 
ATOM    262  H73 THR d   1       4.199 -31.158  27.536  0.00  0.00     0.035 H 
BRANCH 260 263
ATOM    263  CD  THR d   1       5.686 -29.837  26.734  0.00  0.00     0.009 C 
ATOM    264  H74 THR d   1       6.562 -29.905  26.073  0.00  0.00     0.064 H 
ATOM    265  H75 THR d   1       6.004 -29.499  27.731  0.00  0.00     0.064 H 
BRANCH 263 266
ATOM    266  NE  THR d   1       4.759 -28.850  26.180  0.00  0.00    -0.227 N 
ATOM    267  CZ  THR d   1       3.930 -28.088  26.888  0.00  0.00     0.665 C 
ATOM    268  NH1 THR d   1       3.154 -27.221  26.239  0.00  0.00    -0.235 N 
ATOM    269  NH2 THR d   1       3.867 -28.188  28.216  0.00  0.00    -0.235 N 
ATOM    270  H77 THR d   1       2.503 -26.619  26.764  0.00  0.00     0.174 HD
ATOM    271  H78 THR d   1       3.205 -27.152  25.212  0.00  0.00     0.174 HD
ATOM    272  H79 THR d   1       4.470 -28.860  28.711  0.00  0.00     0.174 HD
ATOM    273  H80 THR d   1       3.215 -27.593  28.747  0.00  0.00     0.174 HD
ATOM    274  H76 THR d   1       4.747 -28.736  25.156  0.00  0.00     0.177 HD
ENDBRANCH 263 266
ENDBRANCH 260 263
ENDBRANCH 257 260
ENDBRANCH 143 257
ENDBRANCH 141 143
ENDBRANCH   1 139
TORSDOF 79
