REMARK WARNING: 32 MAX_TORS EXCEEDED!!!
REMARK  78 active torsions:
REMARK  status: ('A' for Active; 'I' for Inactive)
REMARK    1  A    between atoms: N_1  and  CA_2 
REMARK    2  A    between atoms: CA_2  and  C_3 
REMARK    3  A    between atoms: CA_2  and  CB_5 
REMARK       I    between atoms: C_3  and  N_8 
REMARK    4  A    between atoms: CB_5  and  OG1_6 
REMARK    5  A    between atoms: CB_5  and  CG2_7 
REMARK    6  A    between atoms: N_8  and  CA_9 
REMARK    7  A    between atoms: CA_9  and  C_10 
REMARK    8  A    between atoms: CA_9  and  CB_12 
REMARK       I    between atoms: C_10  and  N_15 
REMARK    9  A    between atoms: CB_12  and  OG1_13 
REMARK   10  A    between atoms: CB_12  and  CG2_14 
REMARK   11  A    between atoms: N_15  and  CA_16 
REMARK   12  A    between atoms: CA_16  and  C_17 
REMARK   13  A    between atoms: CA_16  and  CB_19 
REMARK       I    between atoms: C_17  and  N_27 
REMARK   14  A    between atoms: CB_19  and  CG_20 
REMARK   15  A    between atoms: CZ_25  and  OH_26 
REMARK   16  A    between atoms: N_27  and  CA_28 
REMARK   17  A    between atoms: CA_28  and  C_29 
REMARK   18  A    between atoms: CA_28  and  CB_31 
REMARK       I    between atoms: C_29  and  N_32 
REMARK   19  A    between atoms: N_32  and  CA_33 
REMARK   20  A    between atoms: CA_33  and  C_34 
REMARK   21  A    between atoms: CA_33  and  CB_36 
REMARK       I    between atoms: C_34  and  N_40 
REMARK   22  A    between atoms: CB_36  and  CG_37 
REMARK   23  A    between atoms: N_40  and  CA_41 
REMARK   24  A    between atoms: CA_41  and  C_42 
REMARK   25  A    between atoms: CA_41  and  CB_44 
REMARK       I    between atoms: C_42  and  N_51 
REMARK   26  A    between atoms: CB_44  and  CG_45 
REMARK   27  A    between atoms: N_51  and  CA_52 
REMARK   28  A    between atoms: CA_52  and  C_53 
REMARK   29  A    between atoms: CA_52  and  CB_55 
REMARK       I    between atoms: C_53  and  N_59 
REMARK   30  A    between atoms: CB_55  and  CG1_56 
REMARK   31  A    between atoms: CB_55  and  CG2_57 
REMARK   32  A    between atoms: CG1_56  and  CD1_58 
REMARK   33  A    between atoms: N_59  and  CA_60 
REMARK   34  A    between atoms: CA_60  and  C_61 
REMARK   35  A    between atoms: CA_60  and  CB_63 
REMARK       I    between atoms: C_61  and  N_64 
REMARK   36  A    between atoms: N_64  and  CA_65 
REMARK   37  A    between atoms: CA_65  and  C_66 
REMARK   38  A    between atoms: CA_65  and  CB_68 
REMARK       I    between atoms: C_66  and  N_70 
REMARK   39  A    between atoms: CB_68  and  OG_69 
REMARK   40  A    between atoms: N_70  and  CA_71 
REMARK   41  A    between atoms: CA_71  and  C_72 
REMARK       I    between atoms: C_72  and  N_74 
REMARK   42  A    between atoms: N_74  and  CA_75 
REMARK   43  A    between atoms: CA_75  and  C_76 
REMARK   44  A    between atoms: CA_75  and  CB_78 
REMARK       I    between atoms: C_76  and  N_85 
REMARK   45  A    between atoms: CB_78  and  CG_79 
REMARK   46  A    between atoms: CG_79  and  CD_80 
REMARK   47  A    between atoms: CD_80  and  NE_81 
REMARK       I    between atoms: NE_81  and  CZ_82 
REMARK       I    between atoms: CZ_82  and  NH1_83 
REMARK       I    between atoms: CZ_82  and  NH2_84 
REMARK   48  A    between atoms: N_85  and  CA_86 
REMARK   49  A    between atoms: CA_86  and  C_87 
REMARK   50  A    between atoms: CA_86  and  CB_89 
REMARK       I    between atoms: C_87  and  N_92 
REMARK   51  A    between atoms: CB_89  and  OG1_90 
REMARK   52  A    between atoms: CB_89  and  CG2_91 
REMARK   53  A    between atoms: N_92  and  CA_93 
REMARK   54  A    between atoms: CA_93  and  C_94 
REMARK       I    between atoms: C_94  and  N_96 
REMARK   55  A    between atoms: N_96  and  CA_97 
REMARK   56  A    between atoms: CA_97  and  C_98 
REMARK   57  A    between atoms: CA_97  and  CB_100 
REMARK       I    between atoms: C_98  and  N_107 
REMARK   58  A    between atoms: CB_100  and  CG_101 
REMARK   59  A    between atoms: CG_101  and  CD_102 
REMARK   60  A    between atoms: CD_102  and  NE_103 
REMARK       I    between atoms: NE_103  and  CZ_104 
REMARK       I    between atoms: CZ_104  and  NH1_105 
REMARK       I    between atoms: CZ_104  and  NH2_106 
REMARK   61  A    between atoms: N_107  and  CA_108 
REMARK   62  A    between atoms: CA_108  and  C_109 
REMARK   63  A    between atoms: CA_108  and  CB_111 
REMARK       I    between atoms: C_109  and  N_118 
REMARK   64  A    between atoms: CB_111  and  CG_112 
REMARK   65  A    between atoms: CG_112  and  CD_113 
REMARK   66  A    between atoms: CD_113  and  NE_114 
REMARK       I    between atoms: NE_114  and  CZ_115 
REMARK       I    between atoms: CZ_115  and  NH1_116 
REMARK   67  A    between atoms: N_118  and  CA_119 
REMARK   68  A    between atoms: CA_119  and  C_120 
REMARK   69  A    between atoms: CA_119  and  CB_122 
REMARK       I    between atoms: C_120  and  N_123 
REMARK   70  A    between atoms: N_123  and  CA_124 
REMARK   71  A    between atoms: CA_124  and  C_125 
REMARK   72  A    between atoms: CA_124  and  CB_127 
REMARK       I    between atoms: C_125  and  N_128 
REMARK   73  A    between atoms: N_128  and  CA_129 
REMARK   74  A    between atoms: CA_129  and  C_130 
REMARK   75  A    between atoms: CA_129  and  CB_132 
REMARK   76  A    between atoms: CB_132  and  CG1_133 
REMARK   77  A    between atoms: CB_132  and  CG2_134 
REMARK   78  A    between atoms: CG1_133  and  CD1_135 
ROOT
ATOM      1  CA  THR d   1      -9.733   5.333  21.387  0.00  0.00     0.069 C 
ATOM      2  H66 THR d   1     -10.699   5.662  20.977  0.00  0.00     0.078 H 
ATOM      3  H67 THR d   1      -9.551   4.286  21.102  0.00  0.00     0.078 H 
ENDROOT
BRANCH   1   4
ATOM      4  N   THR d   1      -9.812   5.397  22.825  0.00  0.00    -0.350 N 
ATOM      5  C   THR d   1     -10.309   6.468  23.437  0.00  0.00     0.242 C 
ATOM      6  O   THR d   1     -10.794   7.417  22.812  0.00  0.00    -0.271 OA
ATOM      7  H65 THR d   1      -9.488   4.624  23.371  0.00  0.00     0.163 HD
BRANCH   5   8
ATOM      8  CA  THR d   1     -10.209   6.525  24.948  0.00  0.00     0.109 C 
ATOM      9  H61 THR d   1     -11.102   7.034  25.340  0.00  0.00     0.090 H 
BRANCH   8  10
ATOM     10  N   THR d   1     -10.136   5.195  25.543  0.00  0.00    -0.344 N 
ATOM     11  C   THR d   1     -11.143   4.325  25.425  0.00  0.00     0.240 C 
ATOM     12  O   THR d   1     -12.183   4.587  24.808  0.00  0.00    -0.271 OA
ATOM     13  H60 THR d   1      -9.316   4.929  26.049  0.00  0.00     0.163 HD
BRANCH  11  14
ATOM     14  CA  THR d   1     -10.982   2.965  26.089  0.00  0.00     0.086 C 
ATOM     15  H56 THR d   1     -11.439   2.208  25.435  0.00  0.00     0.086 H 
BRANCH  14  16
ATOM     16  N   THR d   1      -9.577   2.611  26.283  0.00  0.00    -0.346 N 
ATOM     17  C   THR d   1      -8.778   2.417  25.229  0.00  0.00     0.241 C 
ATOM     18  O   THR d   1      -9.167   2.610  24.072  0.00  0.00    -0.271 OA
ATOM     19  H55 THR d   1      -9.212   2.514  27.209  0.00  0.00     0.163 HD
BRANCH  17  20
ATOM     20  CA  THR d   1      -7.352   1.960  25.509  0.00  0.00     0.092 C 
ATOM     21  H45 THR d   1      -6.749   2.141  24.607  0.00  0.00     0.088 H 
BRANCH  20  22
ATOM     22  N   THR d   1      -6.783   2.724  26.611  0.00  0.00    -0.346 N 
ATOM     23  C   THR d   1      -6.744   4.050  26.556  0.00  0.00     0.241 C 
ATOM     24  O   THR d   1      -7.093   4.671  25.543  0.00  0.00    -0.271 OA
ATOM     25  H44 THR d   1      -6.420   2.248  27.412  0.00  0.00     0.163 HD
BRANCH  23  26
ATOM     26  CA  THR d   1      -6.231   4.771  27.798  0.00  0.00     0.093 C 
ATOM     27  H36 THR d   1      -6.468   5.841  27.700  0.00  0.00     0.088 H 
BRANCH  26  28
ATOM     28  N   THR d   1      -6.878   4.259  29.009  0.00  0.00    -0.346 N 
ATOM     29  C   THR d   1      -8.193   4.412  29.195  0.00  0.00     0.241 C 
ATOM     30  O   THR d   1      -8.907   4.990  28.373  0.00  0.00    -0.271 OA
ATOM     31  H35 THR d   1      -6.331   3.791  29.703  0.00  0.00     0.163 HD
BRANCH  29  32
ATOM     32  CA  THR d   1      -8.812   3.808  30.450  0.00  0.00     0.098 C 
ATOM     33  H32 THR d   1      -9.865   3.575  30.236  0.00  0.00     0.088 H 
BRANCH  32  34
ATOM     34  N   THR d   1      -8.138   2.568  30.824  0.00  0.00    -0.346 N 
ATOM     35  C   THR d   1      -8.158   1.533  29.980  0.00  0.00     0.240 C 
ATOM     36  O   THR d   1      -8.762   1.578  28.903  0.00  0.00    -0.271 OA
ATOM     37  H31 THR d   1      -7.666   2.494  31.703  0.00  0.00     0.163 HD
BRANCH  35  38
ATOM     38  CA  THR d   1      -7.410   0.277  30.396  0.00  0.00     0.086 C 
ATOM     39  H27 THR d   1      -7.261  -0.350  29.504  0.00  0.00     0.086 H 
BRANCH  38  40
ATOM     40  N   THR d   1      -6.103   0.607  30.949  0.00  0.00    -0.346 N 
ATOM     41  C   THR d   1      -5.219   1.310  30.231  0.00  0.00     0.241 C 
ATOM     42  O   THR d   1      -5.435   1.641  29.059  0.00  0.00    -0.271 OA
ATOM     43  H26 THR d   1      -5.865   0.306  31.872  0.00  0.00     0.163 HD
BRANCH  41  44
ATOM     44  CA  THR d   1      -3.916   1.676  30.918  0.00  0.00     0.093 C 
ATOM     45  H18 THR d   1      -3.417   2.454  30.322  0.00  0.00     0.088 H 
BRANCH  44  46
ATOM     46  N   THR d   1      -4.161   2.209  32.252  0.00  0.00    -0.346 N 
ATOM     47  C   THR d   1      -4.938   3.283  32.406  0.00  0.00     0.243 C 
ATOM     48  O   THR d   1      -5.454   3.849  31.440  0.00  0.00    -0.271 OA
ATOM     49  H17 THR d   1      -3.748   1.771  33.050  0.00  0.00     0.163 HD
BRANCH  47  50
ATOM     50  CA  THR d   1      -5.243   3.747  33.833  0.00  0.00     0.113 C 
ATOM     51  H11 THR d   1      -6.151   4.366  33.794  0.00  0.00     0.091 H 
BRANCH  50  52
ATOM     52  N   THR d   1      -5.503   2.607  34.704  0.00  0.00    -0.344 N 
ATOM     53  C   THR d   1      -6.563   1.840  34.467  0.00  0.00     0.251 C 
ATOM     54  O   THR d   1      -7.355   2.084  33.560  0.00  0.00    -0.271 OA
ATOM     55  H10 THR d   1      -4.892   2.405  35.469  0.00  0.00     0.163 HD
BRANCH  53  56
ATOM     56  CA  THR d   1      -6.744   0.612  35.356  0.00  0.00     0.199 C 
ATOM     57  H4  THR d   1      -6.663   0.916  36.410  0.00  0.00     0.103 H 
BRANCH  56  58
ATOM     58  N   THR d   1      -8.061   0.018  35.145  0.00  0.00    -0.064 N 
ATOM     59  H1  THR d   1      -8.774   0.697  35.360  0.00  0.00     0.275 HD
ATOM     60  H2  THR d   1      -8.168  -0.784  35.746  0.00  0.00     0.275 HD
ATOM     61  H3  THR d   1      -8.150  -0.269  34.183  0.00  0.00     0.275 HD
ENDBRANCH  56  58
BRANCH  56  62
ATOM     62  CB  THR d   1      -5.622  -0.387  35.040  0.00  0.00     0.068 C 
ATOM     63  H5  THR d   1      -4.651   0.084  35.254  0.00  0.00     0.086 H 
BRANCH  62  64
ATOM     64  OG1 THR d   1      -5.686  -0.740  33.656  0.00  0.00    -0.393 OA
ATOM     65  H6  THR d   1      -4.993  -1.358  33.456  0.00  0.00     0.210 HD
ENDBRANCH  62  64
BRANCH  62  66
ATOM     66  CG2 THR d   1      -5.757  -1.653  35.882  0.00  0.00    -0.050 C 
ATOM     67  H7  THR d   1      -4.941  -2.347  35.633  0.00  0.00     0.031 H 
ATOM     68  H8  THR d   1      -6.724  -2.133  35.670  0.00  0.00     0.031 H 
ATOM     69  H9  THR d   1      -5.703  -1.391  36.949  0.00  0.00     0.031 H 
ENDBRANCH  62  66
ENDBRANCH  56  62
ENDBRANCH  53  56
ENDBRANCH  50  52
BRANCH  50  70
ATOM     70  CB  THR d   1      -4.121   4.595  34.432  0.00  0.00     0.060 C 
ATOM     71  H12 THR d   1      -3.198   3.998  34.477  0.00  0.00     0.086 H 
BRANCH  70  72
ATOM     72  OG1 THR d   1      -4.505   4.997  35.758  0.00  0.00    -0.393 OA
ATOM     73  H13 THR d   1      -3.814   5.525  36.140  0.00  0.00     0.210 HD
ENDBRANCH  70  72
BRANCH  70  74
ATOM     74  CG2 THR d   1      -3.876   5.824  33.606  0.00  0.00    -0.050 C 
ATOM     75  H14 THR d   1      -3.066   6.415  34.059  0.00  0.00     0.031 H 
ATOM     76  H15 THR d   1      -4.794   6.429  33.568  0.00  0.00     0.031 H 
ATOM     77  H16 THR d   1      -3.589   5.529  32.586  0.00  0.00     0.031 H 
ENDBRANCH  70  74
ENDBRANCH  50  70
ENDBRANCH  47  50
ENDBRANCH  44  46
BRANCH  44  78
ATOM     78  CB  THR d   1      -2.994   0.456  30.991  0.00  0.00    -0.014 C 
ATOM     79  H19 THR d   1      -3.450  -0.292  31.657  0.00  0.00     0.043 H 
ATOM     80  H20 THR d   1      -2.023   0.770  31.402  0.00  0.00     0.043 H 
BRANCH  78  81
ATOM     81  CG  THR d   1      -2.767  -0.171  29.644  0.00  0.00    -0.056 A 
ATOM     82  CD1 THR d   1      -2.091   0.521  28.649  0.00  0.00    -0.074 A 
ATOM     83  CE1 THR d   1      -1.877  -0.040  27.405  0.00  0.00    -0.051 A 
ATOM     84  H21 THR d   1      -1.724   1.521  28.852  0.00  0.00     0.084 H 
ATOM     85  CZ  THR d   1      -2.341  -1.311  27.139  0.00  0.00     0.065 A 
ATOM     86  H23 THR d   1      -1.347   0.517  26.641  0.00  0.00     0.087 H 
ATOM     87  CE2 THR d   1      -3.018  -2.028  28.112  0.00  0.00    -0.051 A 
ATOM     88  CD2 THR d   1      -3.230  -1.457  29.358  0.00  0.00    -0.074 A 
ATOM     89  H24 THR d   1      -3.379  -3.028  27.901  0.00  0.00     0.087 H 
ATOM     90  H22 THR d   1      -3.762  -2.016  30.119  0.00  0.00     0.084 H 
BRANCH  85  91
ATOM     91  OH  THR d   1      -2.111  -1.843  25.890  0.00  0.00    -0.361 OA
ATOM     92  H25 THR d   1      -1.597  -2.637  25.975  0.00  0.00     0.217 HD
ENDBRANCH  85  91
ENDBRANCH  78  81
ENDBRANCH  44  78
ENDBRANCH  41  44
ENDBRANCH  38  40
BRANCH  38  93
ATOM     93  CB  THR d   1      -8.235  -0.517  31.419  0.00  0.00    -0.049 C 
ATOM     94  H28 THR d   1      -9.218  -0.759  30.989  0.00  0.00     0.030 H 
ATOM     95  H29 THR d   1      -8.371   0.087  32.328  0.00  0.00     0.030 H 
ATOM     96  H30 THR d   1      -7.707  -1.448  31.673  0.00  0.00     0.030 H 
ENDBRANCH  38  93
ENDBRANCH  35  38
ENDBRANCH  32  34
BRANCH  32  97
ATOM     97  CB  THR d   1      -8.767   4.814  31.601  0.00  0.00     0.043 C 
ATOM     98  H33 THR d   1      -9.308   5.721  31.295  0.00  0.00     0.052 H 
ATOM     99  H34 THR d   1      -7.716   5.065  31.806  0.00  0.00     0.052 H 
BRANCH  97 100
ATOM    100  CG  THR d   1      -9.400   4.280  32.887  0.00  0.00     0.175 C 
ATOM    101  OD1 THR d   1     -10.171   3.292  32.836  0.00  0.00    -0.648 OA
ATOM    102  OD2 THR d   1      -9.115   4.862  33.950  0.00  0.00    -0.648 OA
ENDBRANCH  97 100
ENDBRANCH  32  97
ENDBRANCH  29  32
ENDBRANCH  26  28
BRANCH  26 103
ATOM    103  CB  THR d   1      -4.713   4.616  27.927  0.00  0.00    -0.014 C 
ATOM    104  H37 THR d   1      -4.488   3.556  28.117  0.00  0.00     0.043 H 
ATOM    105  H38 THR d   1      -4.375   5.222  28.781  0.00  0.00     0.043 H 
BRANCH 103 106
ATOM    106  CG  THR d   1      -3.944   5.052  26.700  0.00  0.00    -0.056 A 
ATOM    107  CD1 THR d   1      -4.097   6.324  26.183  0.00  0.00    -0.077 A 
ATOM    108  CE1 THR d   1      -3.385   6.726  25.055  0.00  0.00    -0.082 A 
ATOM    109  H39 THR d   1      -4.779   7.018  26.661  0.00  0.00     0.084 H 
ATOM    110  CZ  THR d   1      -2.512   5.861  24.446  0.00  0.00    -0.083 A 
ATOM    111  H41 THR d   1      -3.521   7.725  24.657  0.00  0.00     0.083 H 
ATOM    112  CE2 THR d   1      -2.339   4.585  24.948  0.00  0.00    -0.082 A 
ATOM    113  H43 THR d   1      -1.957   6.178  23.570  0.00  0.00     0.083 H 
ATOM    114  CD2 THR d   1      -3.052   4.183  26.077  0.00  0.00    -0.077 A 
ATOM    115  H42 THR d   1      -1.652   3.899  24.466  0.00  0.00     0.083 H 
ATOM    116  H40 THR d   1      -2.910   3.184  26.474  0.00  0.00     0.084 H 
ENDBRANCH 103 106
ENDBRANCH  26 103
ENDBRANCH  23  26
ENDBRANCH  20  22
BRANCH  20 117
ATOM    117  CB  THR d   1      -7.293   0.456  25.839  0.00  0.00    -0.030 C 
ATOM    118  H46 THR d   1      -7.921   0.265  26.721  0.00  0.00     0.043 H 
BRANCH 117 119
ATOM    119  CG1 THR d   1      -5.851   0.038  26.166  0.00  0.00    -0.063 C 
ATOM    120  H47 THR d   1      -5.829  -1.056  26.279  0.00  0.00     0.033 H 
ATOM    121  H48 THR d   1      -5.565   0.511  27.117  0.00  0.00     0.033 H 
BRANCH 119 122
ATOM    122  CD1 THR d   1      -4.801   0.432  25.098  0.00  0.00    -0.076 C 
ATOM    123  H52 THR d   1      -3.805   0.092  25.420  0.00  0.00     0.027 H 
ATOM    124  H53 THR d   1      -4.794   1.525  24.977  0.00  0.00     0.027 H 
ATOM    125  H54 THR d   1      -5.058  -0.042  24.139  0.00  0.00     0.027 H 
ENDBRANCH 119 122
ENDBRANCH 117 119
BRANCH 117 126
ATOM    126  CG2 THR d   1      -7.828  -0.351  24.686  0.00  0.00    -0.071 C 
ATOM    127  H49 THR d   1      -8.860  -0.038  24.467  0.00  0.00     0.028 H 
ATOM    128  H50 THR d   1      -7.817  -1.419  24.950  0.00  0.00     0.028 H 
ATOM    129  H51 THR d   1      -7.199  -0.185  23.799  0.00  0.00     0.028 H 
ENDBRANCH 117 126
ENDBRANCH  20 117
ENDBRANCH  17  20
ENDBRANCH  14  16
BRANCH  14 130
ATOM    130  CB  THR d   1     -11.713   2.954  27.430  0.00  0.00    -0.049 C 
ATOM    131  H57 THR d   1     -12.769   3.221  27.274  0.00  0.00     0.030 H 
ATOM    132  H58 THR d   1     -11.246   3.684  28.108  0.00  0.00     0.030 H 
ATOM    133  H59 THR d   1     -11.651   1.949  27.873  0.00  0.00     0.030 H 
ENDBRANCH  14 130
ENDBRANCH  11  14
ENDBRANCH   8  10
BRANCH   8 134
ATOM    134  CB  THR d   1      -8.968   7.327  25.334  0.00  0.00     0.044 C 
ATOM    135  H62 THR d   1      -8.669   7.062  26.359  0.00  0.00     0.077 H 
ATOM    136  H63 THR d   1      -9.201   8.401  25.287  0.00  0.00     0.077 H 
BRANCH 134 137
ATOM    137  OG  THR d   1      -7.896   7.039  24.442  0.00  0.00    -0.398 OA
ATOM    138  H64 THR d   1      -7.692   6.112  24.483  0.00  0.00     0.209 HD
ENDBRANCH 134 137
ENDBRANCH   8 134
ENDBRANCH   5   8
ENDBRANCH   1   4
BRANCH   1 139
ATOM    139  C   THR d   1      -8.646   6.184  20.767  0.00  0.00     0.236 C 
ATOM    140  O   THR d   1      -8.553   6.228  19.537  0.00  0.00    -0.272 OA
ATOM    141  N   THR d   1      -7.828   6.870  21.565  0.00  0.00    -0.346 N 
ATOM    142  H68 THR d   1      -7.944   6.816  22.557  0.00  0.00     0.163 HD
BRANCH 141 143
ATOM    143  CA  THR d   1      -6.762   7.702  21.006  0.00  0.00     0.089 C 
ATOM    144  H69 THR d   1      -6.939   7.803  19.925  0.00  0.00     0.087 H 
BRANCH 143 145
ATOM    145  C   THR d   1      -5.392   7.052  21.200  0.00  0.00     0.241 C 
ATOM    146  O   THR d   1      -4.446   7.701  21.647  0.00  0.00    -0.271 OA
ATOM    147  N   THR d   1      -5.267   5.767  20.847  0.00  0.00    -0.344 N 
ATOM    148  H81 THR d   1      -6.058   5.280  20.477  0.00  0.00     0.163 HD
BRANCH 147 149
ATOM    149  CA  THR d   1      -3.998   5.065  20.993  0.00  0.00     0.113 C 
ATOM    150  H82 THR d   1      -3.429   5.564  21.791  0.00  0.00     0.091 H 
BRANCH 149 151
ATOM    151  C   THR d   1      -3.163   5.090  19.723  0.00  0.00     0.243 C 
ATOM    152  O   THR d   1      -1.987   4.712  19.772  0.00  0.00    -0.271 OA
ATOM    153  N   THR d   1      -3.738   5.505  18.593  0.00  0.00    -0.350 N 
ATOM    154  H88 THR d   1      -4.704   5.763  18.611  0.00  0.00     0.163 HD
BRANCH 153 155
ATOM    155  CA  THR d   1      -3.017   5.596  17.342  0.00  0.00     0.069 C 
ATOM    156  H89 THR d   1      -3.720   5.417  16.515  0.00  0.00     0.078 H 
ATOM    157  H90 THR d   1      -2.232   4.825  17.329  0.00  0.00     0.078 H 
BRANCH 155 158
ATOM    158  C   THR d   1      -2.368   6.956  17.145  0.00  0.00     0.236 C 
ATOM    159  O   THR d   1      -2.331   7.796  18.043  0.00  0.00    -0.272 OA
ATOM    160  N   THR d   1      -1.848   7.169  15.934  0.00  0.00    -0.346 N 
ATOM    161  H91 THR d   1      -1.951   6.479  15.218  0.00  0.00     0.163 HD
BRANCH 160 162
ATOM    162  CA  THR d   1      -1.128   8.410  15.654  0.00  0.00     0.089 C 
ATOM    163  H92 THR d   1      -0.347   8.541  16.417  0.00  0.00     0.087 H 
BRANCH 162 164
ATOM    164  C   THR d   1      -2.084   9.596  15.734  0.00  0.00     0.241 C 
ATOM    165  O   THR d   1      -3.236   9.515  15.294  0.00  0.00    -0.271 OA
ATOM    166  N   THR d   1      -1.604  10.696  16.318  0.00  0.00    -0.346 N 
ATOM    167 4H10 THR d   1      -0.626  10.740  16.520  0.00  0.00     0.163 HD
BRANCH 166 168
ATOM    168  CA  THR d   1      -2.438  11.835  16.674  0.00  0.00     0.089 C 
ATOM    169 5H10 THR d   1      -3.492  11.556  16.528  0.00  0.00     0.087 H 
BRANCH 168 170
ATOM    170  C   THR d   1      -2.118  13.018  15.767  0.00  0.00     0.241 C 
ATOM    171  O   THR d   1      -0.944  13.348  15.567  0.00  0.00    -0.271 OA
ATOM    172  N   THR d   1      -3.169  13.639  15.225  0.00  0.00    -0.346 N 
ATOM    173 7H11 THR d   1      -4.082  13.285  15.430  0.00  0.00     0.163 HD
BRANCH 172 174
ATOM    174  CA  THR d   1      -3.065  14.803  14.351  0.00  0.00     0.086 C 
ATOM    175 8H11 THR d   1      -2.159  14.701  13.735  0.00  0.00     0.086 H 
BRANCH 174 176
ATOM    176  C   THR d   1      -3.000  16.082  15.156  0.00  0.00     0.240 C 
ATOM    177  O   THR d   1      -3.592  16.190  16.230  0.00  0.00    -0.271 OA
ATOM    178  N   THR d   1      -2.332  17.077  14.580  0.00  0.00    -0.346 N 
ATOM    179 2H12 THR d   1      -1.782  16.898  13.764  0.00  0.00     0.163 HD
BRANCH 178 180
ATOM    180  CA  THR d   1      -2.394  18.420  15.126  0.00  0.00     0.086 C 
ATOM    181 3H12 THR d   1      -2.223  18.369  16.212  0.00  0.00     0.086 H 
BRANCH 180 182
ATOM    182  C   THR d   1      -3.774  19.029  14.875  0.00  0.00     0.240 C 
ATOM    183  O   THR d   1      -4.476  18.660  13.930  0.00  0.00    -0.271 OA
ATOM    184  N   THR d   1      -4.160  19.976  15.730  0.00  0.00    -0.344 N 
ATOM    185 7H12 THR d   1      -3.533  20.270  16.452  0.00  0.00     0.163 HD
BRANCH 184 186
ATOM    186  CA  THR d   1      -5.481  20.592  15.633  0.00  0.00     0.099 C 
ATOM    187 8H12 THR d   1      -6.209  19.799  15.407  0.00  0.00     0.090 H 
BRANCH 186 188
ATOM    188  C   THR d   1      -5.510  21.606  14.487  0.00  0.00     0.197 C 
ATOM    189  O   THR d   1      -4.478  21.992  13.933  0.00  0.00    -0.646 OA
ATOM    190  OXT THR d   1      -6.579  22.063  14.084  0.00  0.00    -0.646 OA
ENDBRANCH 186 188
BRANCH 186 191
ATOM    191  CB  THR d   1      -5.903  21.259  16.966  0.00  0.00    -0.029 C 
ATOM    192 9H12 THR d   1      -6.927  21.643  16.849  0.00  0.00     0.043 H 
BRANCH 191 193
ATOM    193  CG1 THR d   1      -4.987  22.444  17.297  0.00  0.00    -0.063 C 
ATOM    194 0H13 THR d   1      -5.050  23.167  16.471  0.00  0.00     0.033 H 
ATOM    195 1H13 THR d   1      -3.956  22.069  17.378  0.00  0.00     0.033 H 
BRANCH 193 196
ATOM    196  CD1 THR d   1      -5.330  23.168  18.587  0.00  0.00    -0.076 C 
ATOM    197 5H13 THR d   1      -4.624  23.997  18.741  0.00  0.00     0.027 H 
ATOM    198 6H13 THR d   1      -5.260  22.466  19.431  0.00  0.00     0.027 H 
ATOM    199 7H13 THR d   1      -6.354  23.565  18.524  0.00  0.00     0.027 H 
ENDBRANCH 193 196
ENDBRANCH 191 193
BRANCH 191 200
ATOM    200  CG2 THR d   1      -5.908  20.232  18.095  0.00  0.00    -0.070 C 
ATOM    201 2H13 THR d   1      -6.572  19.397  17.828  0.00  0.00     0.028 H 
ATOM    202 3H13 THR d   1      -6.268  20.706  19.020  0.00  0.00     0.028 H 
ATOM    203 4H13 THR d   1      -4.887  19.853  18.251  0.00  0.00     0.028 H 
ENDBRANCH 191 200
ENDBRANCH 186 191
ENDBRANCH 184 186
ENDBRANCH 180 182
BRANCH 180 204
ATOM    204  CB  THR d   1      -1.305  19.289  14.498  0.00  0.00    -0.049 C 
ATOM    205 4H12 THR d   1      -1.359  20.305  14.917  0.00  0.00     0.030 H 
ATOM    206 5H12 THR d   1      -1.454  19.333  13.409  0.00  0.00     0.030 H 
ATOM    207 6H12 THR d   1      -0.318  18.855  14.716  0.00  0.00     0.030 H 
ENDBRANCH 180 204
ENDBRANCH 178 180
ENDBRANCH 174 176
BRANCH 174 208
ATOM    208  CB  THR d   1      -4.286  14.953  13.451  0.00  0.00    -0.049 C 
ATOM    209 9H11 THR d   1      -4.164  15.840  12.812  0.00  0.00     0.030 H 
ATOM    210 0H12 THR d   1      -5.187  15.069  14.072  0.00  0.00     0.030 H 
ATOM    211 1H12 THR d   1      -4.388  14.058  12.820  0.00  0.00     0.030 H 
ENDBRANCH 174 208
ENDBRANCH 172 174
ENDBRANCH 168 170
BRANCH 168 212
ATOM    212  CB  THR d   1      -2.236  12.216  18.148  0.00  0.00    -0.036 C 
ATOM    213 6H10 THR d   1      -2.803  13.136  18.354  0.00  0.00     0.036 H 
ATOM    214 7H10 THR d   1      -1.165  12.399  18.320  0.00  0.00     0.036 H 
BRANCH 212 215
ATOM    215  CG  THR d   1      -2.706  11.128  19.108  0.00  0.00    -0.048 C 
ATOM    216 8H10 THR d   1      -2.494  10.149  18.652  0.00  0.00     0.035 H 
ATOM    217 9H10 THR d   1      -3.791  11.238  19.251  0.00  0.00     0.035 H 
BRANCH 215 218
ATOM    218  CD  THR d   1      -2.029  11.176  20.487  0.00  0.00     0.009 C 
ATOM    219 0H11 THR d   1      -2.522  10.447  21.148  0.00  0.00     0.064 H 
ATOM    220 1H11 THR d   1      -2.147  12.187  20.903  0.00  0.00     0.064 H 
BRANCH 218 221
ATOM    221  NE  THR d   1      -0.599  10.859  20.421  0.00  0.00    -0.227 N 
ATOM    222  CZ  THR d   1       0.147  10.515  21.469  0.00  0.00     0.665 C 
ATOM    223  NH1 THR d   1      -0.394  10.415  22.674  0.00  0.00    -0.235 N 
ATOM    224  NH2 THR d   1       1.439  10.269  21.306  0.00  0.00    -0.235 N 
ATOM    225 3H11 THR d   1       0.189  10.148  23.480  0.00  0.00     0.174 HD
ATOM    226 4H11 THR d   1      -1.398  10.604  22.805  0.00  0.00     0.174 HD
ATOM    227 5H11 THR d   1       1.864  10.345  20.371  0.00  0.00     0.174 HD
ATOM    228 6H11 THR d   1       2.018  10.001  22.114  0.00  0.00     0.174 HD
ATOM    229 2H11 THR d   1      -0.140  10.906  19.500  0.00  0.00     0.177 HD
ENDBRANCH 218 221
ENDBRANCH 215 218
ENDBRANCH 212 215
ENDBRANCH 168 212
ENDBRANCH 166 168
ENDBRANCH 162 164
BRANCH 162 230
ATOM    230  CB  THR d   1      -0.455   8.337  14.287  0.00  0.00    -0.036 C 
ATOM    231  H93 THR d   1       0.219   9.199  14.179  0.00  0.00     0.036 H 
ATOM    232  H94 THR d   1      -1.231   8.379  13.509  0.00  0.00     0.036 H 
BRANCH 230 233
ATOM    233  CG  THR d   1       0.360   7.047  14.103  0.00  0.00    -0.048 C 
ATOM    234  H95 THR d   1      -0.318   6.259  13.744  0.00  0.00     0.035 H 
ATOM    235  H96 THR d   1       0.773   6.758  15.080  0.00  0.00     0.035 H 
BRANCH 233 236
ATOM    236  CD  THR d   1       1.508   7.172  13.119  0.00  0.00     0.009 C 
ATOM    237  H97 THR d   1       1.815   6.165  12.800  0.00  0.00     0.064 H 
ATOM    238  H98 THR d   1       2.352   7.672  13.618  0.00  0.00     0.064 H 
BRANCH 236 239
ATOM    239  NE  THR d   1       1.132   7.942  11.947  0.00  0.00    -0.227 N 
ATOM    240  CZ  THR d   1       1.584   9.155  11.649  0.00  0.00     0.665 C 
ATOM    241  NH1 THR d   1       2.464   9.787  12.414  0.00  0.00    -0.235 N 
ATOM    242  NH2 THR d   1       1.147   9.738  10.555  0.00  0.00    -0.235 N 
ATOM    243 0H10 THR d   1       2.793  10.727  12.152  0.00  0.00     0.174 HD
ATOM    244 1H10 THR d   1       2.819   9.338  13.270  0.00  0.00     0.174 HD
ATOM    245 2H10 THR d   1       0.464   9.257   9.953  0.00  0.00     0.174 HD
ATOM    246 3H10 THR d   1       1.488  10.676  10.300  0.00  0.00     0.174 HD
ATOM    247  H99 THR d   1       0.461   7.513  11.294  0.00  0.00     0.177 HD
ENDBRANCH 236 239
ENDBRANCH 233 236
ENDBRANCH 230 233
ENDBRANCH 162 230
ENDBRANCH 160 162
ENDBRANCH 155 158
ENDBRANCH 153 155
ENDBRANCH 149 151
BRANCH 149 248
ATOM    248  CB  THR d   1      -4.218   3.590  21.391  0.00  0.00     0.060 C 
ATOM    249  H83 THR d   1      -3.238   3.129  21.584  0.00  0.00     0.086 H 
BRANCH 248 250
ATOM    250  OG1 THR d   1      -4.844   2.914  20.303  0.00  0.00    -0.393 OA
ATOM    251  H84 THR d   1      -4.284   2.963  19.537  0.00  0.00     0.210 HD
ENDBRANCH 248 250
BRANCH 248 252
ATOM    252  CG2 THR d   1      -5.065   3.451  22.645  0.00  0.00    -0.050 C 
ATOM    253  H85 THR d   1      -5.192   2.385  22.885  0.00  0.00     0.031 H 
ATOM    254  H86 THR d   1      -6.051   3.908  22.474  0.00  0.00     0.031 H 
ATOM    255  H87 THR d   1      -4.565   3.959  23.483  0.00  0.00     0.031 H 
ENDBRANCH 248 252
ENDBRANCH 149 248
ENDBRANCH 147 149
ENDBRANCH 143 145
BRANCH 143 256
ATOM    256  CB  THR d   1      -6.801   9.103  21.630  0.00  0.00    -0.036 C 
ATOM    257  H70 THR d   1      -5.912   9.663  21.303  0.00  0.00     0.036 H 
ATOM    258  H71 THR d   1      -6.791   9.005  22.726  0.00  0.00     0.036 H 
BRANCH 256 259
ATOM    259  CG  THR d   1      -8.066   9.884  21.210  0.00  0.00    -0.048 C 
ATOM    260  H72 THR d   1      -8.950   9.319  21.541  0.00  0.00     0.035 H 
ATOM    261  H73 THR d   1      -8.075   9.969  20.113  0.00  0.00     0.035 H 
BRANCH 259 262
ATOM    262  CD  THR d   1      -8.139  11.277  21.800  0.00  0.00     0.009 C 
ATOM    263  H74 THR d   1      -8.104  11.202  22.897  0.00  0.00     0.064 H 
ATOM    264  H75 THR d   1      -9.087  11.744  21.494  0.00  0.00     0.064 H 
BRANCH 262 265
ATOM    265  NE  THR d   1      -7.034  12.113  21.349  0.00  0.00    -0.227 N 
ATOM    266  CZ  THR d   1      -7.036  12.835  20.232  0.00  0.00     0.665 C 
ATOM    267  NH1 THR d   1      -8.099  12.826  19.428  0.00  0.00    -0.235 N 
ATOM    268  NH2 THR d   1      -5.973  13.569  19.911  0.00  0.00    -0.235 N 
ATOM    269  H77 THR d   1      -8.096  13.387  18.564  0.00  0.00     0.174 HD
ATOM    270  H78 THR d   1      -8.924  12.258  19.671  0.00  0.00     0.174 HD
ATOM    271  H79 THR d   1      -5.149  13.580  20.529  0.00  0.00     0.174 HD
ATOM    272  H80 THR d   1      -5.975  14.126  19.045  0.00  0.00     0.174 HD
ATOM    273  H76 THR d   1      -6.190  12.147  21.938  0.00  0.00     0.177 HD
ENDBRANCH 262 265
ENDBRANCH 259 262
ENDBRANCH 256 259
ENDBRANCH 143 256
ENDBRANCH 141 143
ENDBRANCH   1 139
TORSDOF 78
