REMARK  5 active torsions:
REMARK  status: ('A' for Active; 'I' for Inactive)
REMARK    1  A    between atoms: C17_2  and  N20_23 
REMARK    2  A    between atoms: N13_18  and  C04_9 
REMARK    3  A    between atoms: C06_11  and  C07_12 
REMARK    4  A    between atoms: C11_16  and  C12_17 
REMARK    5  A    between atoms: N13_18  and  C14_19 
ROOT
ATOM      1  C15 BGE d   1       6.574   1.988 -15.605  0.00  0.00    -0.055 A 
ATOM      2  C17 BGE d   1       8.411   0.446 -15.797  0.00  0.00     0.030 A 
ATOM      3  C14 BGE d   1       7.108   2.474 -14.420  0.00  0.00     0.033 A 
ATOM      4  C16 BGE d   1       7.227   0.981 -16.299  0.00  0.00    -0.055 A 
ATOM      5  C18 BGE d   1       8.941   0.949 -14.618  0.00  0.00    -0.055 A 
ATOM      6  C19 BGE d   1       8.297   1.960 -13.928  0.00  0.00    -0.055 A 
ATOM      7  H1  BGE d   1       5.646   2.396 -15.988  0.00  0.00     0.087 H 
ATOM      8  H17 BGE d   1       6.817   0.610 -17.231  0.00  0.00     0.087 H 
ATOM      9  H18 BGE d   1       9.870   0.545 -14.233  0.00  0.00     0.087 H 
ATOM     10  H19 BGE d   1       8.720   2.348 -13.008  0.00  0.00     0.087 H 
ENDROOT
BRANCH   3  11
ATOM     11  N13 BGE d   1       6.500   3.530 -13.647  0.00  0.00    -0.341 N 
ATOM     12  H16 BGE d   1       6.527   3.441 -12.621  0.00  0.00     0.167 HD
BRANCH  11  13
ATOM     13  C04 BGE d   1       5.860   4.695 -14.191  0.00  0.00     0.128 A 
ATOM     14  N03 BGE d   1       5.283   5.472 -13.288  0.00  0.00    -0.243 NA
ATOM     15  C02 BGE d   1       4.657   6.579 -13.618  0.00  0.00     0.005 A 
ATOM     16  C01 BGE d   1       4.580   6.997 -14.926  0.00  0.00    -0.054 A 
ATOM     17  H9  BGE d   1       4.191   7.176 -12.842  0.00  0.00     0.114 H 
ATOM     18  C06 BGE d   1       5.189   6.255 -15.931  0.00  0.00    -0.000 A 
ATOM     19  H8  BGE d   1       4.044   7.906 -15.173  0.00  0.00     0.087 H 
ATOM     20  C05 BGE d   1       5.829   5.067 -15.549  0.00  0.00    -0.026 A 
ATOM     21  H10 BGE d   1       6.298   4.437 -16.296  0.00  0.00     0.090 H 
BRANCH  18  22
ATOM     22  C07 BGE d   1       5.105   6.629 -17.293  0.00  0.00     0.090 A 
ATOM     23  N08 BGE d   1       5.265   5.767 -18.302  0.00  0.00    -0.241 NA
ATOM     24  C09 BGE d   1       5.113   6.393 -19.444  0.00  0.00     0.065 A 
ATOM     25  N10 BGE d   1       4.876   7.676 -19.210  0.00  0.00    -0.352 N 
ATOM     26  H11 BGE d   1       5.172   5.932 -20.429  0.00  0.00     0.143 H 
ATOM     27  C11 BGE d   1       4.851   7.863 -17.906  0.00  0.00     0.036 A 
ATOM     28  H12 BGE d   1       4.735   8.403 -19.926  0.00  0.00     0.166 HD
BRANCH  27  29
ATOM     29  C12 BGE d   1       4.588   9.238 -17.311  0.00  0.00    -0.035 C 
ATOM     30  H13 BGE d   1       4.610   9.173 -16.213  0.00  0.00     0.035 H 
ATOM     31  H14 BGE d   1       3.600   9.596 -17.637  0.00  0.00     0.035 H 
ATOM     32  H15 BGE d   1       5.363   9.940 -17.652  0.00  0.00     0.035 H 
ENDBRANCH  27  29
ENDBRANCH  18  22
ENDBRANCH  11  13
ENDBRANCH   3  11
BRANCH   2  33
ATOM     33  N20 BGE d   1       9.109  -0.605 -16.525  0.00  0.00    -0.377 N 
ATOM     34  C21 BGE d   1       9.680  -1.810 -15.876  0.00  0.00     0.015 C 
ATOM     35  C22 BGE d   1      10.862  -2.475 -16.602  0.00  0.00     0.034 C 
ATOM     36  H2  BGE d   1      10.023  -1.520 -14.872  0.00  0.00     0.067 H 
ATOM     37  H3  BGE d   1       8.877  -2.557 -15.788  0.00  0.00     0.067 H 
ATOM     38  O23 BGE d   1      11.213  -1.846 -17.791  0.00  0.00    -0.388 OA
ATOM     39  H4  BGE d   1      10.589  -3.517 -16.828  0.00  0.00     0.076 H 
ATOM     40  H5  BGE d   1      11.734  -2.461 -15.931  0.00  0.00     0.076 H 
ATOM     41  C24 BGE d   1      10.126  -1.627 -18.626  0.00  0.00     0.034 C 
ATOM     42  C25 BGE d   1       9.141  -0.627 -18.000  0.00  0.00     0.015 C 
ATOM     43  H6  BGE d   1       9.608  -2.582 -18.799  0.00  0.00     0.076 H 
ATOM     44  H7  BGE d   1      10.485  -1.226 -19.585  0.00  0.00     0.076 H 
ATOM     45  H20 BGE d   1       8.131  -0.877 -18.357  0.00  0.00     0.067 H 
ATOM     46  H21 BGE d   1       9.414   0.380 -18.348  0.00  0.00     0.067 H 
ENDBRANCH   2  33
TORSDOF 5
