REMARK  20 active torsions:
REMARK  status: ('A' for Active; 'I' for Inactive)
REMARK    1  A    between atoms: C17_4  and  C16_1 
REMARK    2  A    between atoms: C14_3  and  C15_2 
REMARK    3  A    between atoms: C14_3  and  C13_6 
REMARK    4  A    between atoms: C19_31  and  C18_5 
REMARK    5  A    between atoms: C11_7  and  C12_38 
REMARK    6  A    between atoms: C3_9  and  O3_25 
REMARK    7  A    between atoms: C6_12  and  C7_14 
REMARK    8  A    between atoms: C6_12  and  O4_26 
REMARK    9  A    between atoms: C26_17  and  O8_15 
REMARK   10  A    between atoms: C21_30  and  C22_16 
REMARK   11  A    between atoms: C24_19  and  C26_17 
REMARK   12  A    between atoms: C26_17  and  C27_22 
REMARK   13  A    between atoms: C24_19  and  C25_18 
REMARK   14  A    between atoms: C23_27  and  C24_19 
REMARK   15  A    between atoms: C27_22  and  C28_20 
REMARK   16  A    between atoms: C8_35  and  O5_28 
REMARK   17  A    between atoms: O5_28  and  C29_36 
REMARK   18  A    between atoms: C21_30  and  C19_31 
REMARK   19  A    between atoms: C19_31  and  C20_32 
REMARK   20  A    between atoms: C29_36  and  C30_37 
ROOT
ATOM      1  C13 BGZ d   1     -51.889  -4.811  14.659  0.00  0.00     0.075 C 
ATOM      2  C11 BGZ d   1     -51.608  -3.400  15.192  0.00  0.00    -0.012 C 
ATOM      3  C2  BGZ d   1     -50.371  -5.701  11.407  0.00  0.00     0.040 C 
ATOM      4  C3  BGZ d   1     -48.915  -5.497  11.000  0.00  0.00     0.044 C 
ATOM      5  C4  BGZ d   1     -48.269  -4.313  11.701  0.00  0.00    -0.038 C 
ATOM      6  C5  BGZ d   1     -48.980  -2.994  11.386  0.00  0.00    -0.032 C 
ATOM      7  C6  BGZ d   1     -48.414  -1.725  12.039  0.00  0.00     0.084 C 
ATOM      8  C1  BGZ d   1     -50.678  -5.809  12.875  0.00  0.00     0.261 C 
ATOM      9  O2  BGZ d   1     -50.275  -6.677  13.601  0.00  0.00    -0.265 OA
ATOM     10  O1  BGZ d   1     -51.472  -4.806  13.278  0.00  0.00    -0.311 OA
ATOM     11  C10 BGZ d   1     -50.188  -3.012  14.889  0.00  0.00    -0.098 C 
ATOM     12  C9  BGZ d   1     -49.803  -2.018  14.117  0.00  0.00    -0.075 C 
ATOM     13  C8  BGZ d   1     -48.423  -1.841  13.574  0.00  0.00     0.093 C 
ATOM     14  H7  BGZ d   1     -51.295  -5.539  15.231  0.00  0.00     0.092 H 
ATOM     15  H8  BGZ d   1     -52.279  -2.698  14.676  0.00  0.00     0.050 H 
ATOM     16  H9  BGZ d   1     -50.719  -6.629  10.930  0.00  0.00     0.051 H 
ATOM     17  H10 BGZ d   1     -50.945  -4.849  11.013  0.00  0.00     0.051 H 
ATOM     18  H11 BGZ d   1     -48.879  -5.320   9.915  0.00  0.00     0.083 H 
ATOM     19  H12 BGZ d   1     -47.221  -4.237  11.375  0.00  0.00     0.036 H 
ATOM     20  H13 BGZ d   1     -48.303  -4.483  12.787  0.00  0.00     0.036 H 
ATOM     21  H14 BGZ d   1     -50.026  -3.095  11.710  0.00  0.00     0.037 H 
ATOM     22  H15 BGZ d   1     -48.945  -2.850  10.296  0.00  0.00     0.037 H 
ATOM     23  H40 BGZ d   1     -49.404  -3.610  15.352  0.00  0.00     0.077 H 
ATOM     24  H41 BGZ d   1     -50.547  -1.268  13.854  0.00  0.00     0.080 H 
ATOM     25  H42 BGZ d   1     -47.799  -2.694  13.880  0.00  0.00     0.095 H 
ENDROOT
BRANCH   1  26
ATOM     26  C14 BGZ d   1     -53.346  -5.209  14.736  0.00  0.00    -0.054 C 
ATOM     27  C16 BGZ d   1     -53.674  -6.354  15.336  0.00  0.00    -0.079 C 
ATOM     28  H1  BGZ d   1     -52.853  -6.939  15.747  0.00  0.00     0.083 H 
BRANCH  27  29
ATOM     29  C17 BGZ d   1     -54.989  -6.897  15.498  0.00  0.00    -0.086 C 
ATOM     30  C18 BGZ d   1     -55.259  -8.054  16.100  0.00  0.00    -0.099 C 
ATOM     31  H6  BGZ d   1     -54.444  -8.644  16.516  0.00  0.00     0.077 H 
ATOM     32  H5  BGZ d   1     -55.826  -6.324  15.102  0.00  0.00     0.083 H 
BRANCH  30  33
ATOM     33  C19 BGZ d   1     -56.667  -8.558  16.215  0.00  0.00    -0.039 C 
ATOM     34  H36 BGZ d   1     -57.354  -7.717  16.042  0.00  0.00     0.045 H 
BRANCH  33  35
ATOM     35  C21 BGZ d   1     -56.892  -9.086  17.633  0.00  0.00    -0.032 C 
ATOM     36  H34 BGZ d   1     -57.903  -9.518  17.679  0.00  0.00     0.037 H 
ATOM     37  H35 BGZ d   1     -56.148  -9.873  17.825  0.00  0.00     0.037 H 
BRANCH  35  38
ATOM     38  C22 BGZ d   1     -56.774  -8.051  18.736  0.00  0.00     0.065 A 
ATOM     39  O7  BGZ d   1     -56.889  -8.543  20.091  0.00  0.00    -0.375 OA
ATOM     40  C23 BGZ d   1     -55.644  -7.959  19.656  0.00  0.00     0.069 A 
ATOM     41  H33 BGZ d   1     -54.743  -8.571  19.501  0.00  0.00     0.088 H 
ATOM     42  H20 BGZ d   1     -57.276  -7.125  18.421  0.00  0.00     0.087 H 
BRANCH  40  43
ATOM     43  C24 BGZ d   1     -55.280  -6.601  20.265  0.00  0.00    -0.005 C 
ATOM     44  H25 BGZ d   1     -56.178  -6.218  20.771  0.00  0.00     0.047 H 
BRANCH  43  45
ATOM     45  C26 BGZ d   1     -54.182  -6.739  21.328  0.00  0.00     0.041 C 
ATOM     46  H21 BGZ d   1     -54.428  -7.573  22.002  0.00  0.00     0.083 H 
BRANCH  45  47
ATOM     47  O8  BGZ d   1     -52.932  -6.997  20.686  0.00  0.00    -0.395 OA
ATOM     48  H19 BGZ d   1     -52.252  -7.083  21.343  0.00  0.00     0.210 HD
ENDBRANCH  45  47
BRANCH  45  49
ATOM     49  C27 BGZ d   1     -54.077  -5.456  22.131  0.00  0.00    -0.044 C 
ATOM     50  H29 BGZ d   1     -53.806  -4.638  21.447  0.00  0.00     0.036 H 
ATOM     51  H30 BGZ d   1     -53.285  -5.581  22.884  0.00  0.00     0.036 H 
BRANCH  49  52
ATOM     52  C28 BGZ d   1     -55.359  -5.080  22.842  0.00  0.00    -0.074 C 
ATOM     53  H26 BGZ d   1     -55.208  -4.144  23.401  0.00  0.00     0.027 H 
ATOM     54  H27 BGZ d   1     -55.640  -5.882  23.540  0.00  0.00     0.027 H 
ATOM     55  H28 BGZ d   1     -56.161  -4.940  22.102  0.00  0.00     0.027 H 
ENDBRANCH  49  52
ENDBRANCH  45  49
ENDBRANCH  43  45
BRANCH  43  56
ATOM     56  C25 BGZ d   1     -54.900  -5.587  19.187  0.00  0.00    -0.068 C 
ATOM     57  H22 BGZ d   1     -55.711  -5.518  18.447  0.00  0.00     0.028 H 
ATOM     58  H23 BGZ d   1     -53.975  -5.911  18.688  0.00  0.00     0.028 H 
ATOM     59  H24 BGZ d   1     -54.741  -4.602  19.650  0.00  0.00     0.028 H 
ENDBRANCH  43  56
ENDBRANCH  40  43
ENDBRANCH  35  38
ENDBRANCH  33  35
BRANCH  33  60
ATOM     60  C20 BGZ d   1     -56.961  -9.632  15.170  0.00  0.00    -0.070 C 
ATOM     61  H37 BGZ d   1     -56.790  -9.221  14.164  0.00  0.00     0.028 H 
ATOM     62  H38 BGZ d   1     -58.008  -9.955  15.261  0.00  0.00     0.028 H 
ATOM     63  H39 BGZ d   1     -56.296 -10.493  15.332  0.00  0.00     0.028 H 
ENDBRANCH  33  60
ENDBRANCH  30  33
ENDBRANCH  27  29
BRANCH  26  64
ATOM     64  C15 BGZ d   1     -54.331  -4.269  14.105  0.00  0.00    -0.052 C 
ATOM     65  H2  BGZ d   1     -55.349  -4.668  14.227  0.00  0.00     0.033 H 
ATOM     66  H3  BGZ d   1     -54.104  -4.165  13.034  0.00  0.00     0.033 H 
ATOM     67  H4  BGZ d   1     -54.262  -3.285  14.592  0.00  0.00     0.033 H 
ENDBRANCH  26  64
ENDBRANCH   1  26
BRANCH   2  68
ATOM     68  C12 BGZ d   1     -51.879  -3.299  16.695  0.00  0.00    -0.067 C 
ATOM     69  H46 BGZ d   1     -51.666  -2.276  17.038  0.00  0.00     0.028 H 
ATOM     70  H47 BGZ d   1     -51.232  -4.008  17.233  0.00  0.00     0.028 H 
ATOM     71  H48 BGZ d   1     -52.933  -3.541  16.895  0.00  0.00     0.028 H 
ENDBRANCH   2  68
BRANCH  13  72
ATOM     72  O5  BGZ d   1     -47.880  -0.598  14.117  0.00  0.00    -0.309 OA
BRANCH  72  73
ATOM     73  C29 BGZ d   1     -47.258  -0.660  15.312  0.00  0.00     0.255 C 
ATOM     74  O6  BGZ d   1     -47.177  -1.665  15.956  0.00  0.00    -0.266 OA
BRANCH  73  75
ATOM     75  C30 BGZ d   1     -46.701   0.668  15.695  0.00  0.00     0.004 C 
ATOM     76  H43 BGZ d   1     -46.201   0.588  16.671  0.00  0.00     0.041 H 
ATOM     77  H44 BGZ d   1     -47.517   1.403  15.760  0.00  0.00     0.041 H 
ATOM     78  H45 BGZ d   1     -45.974   0.994  14.936  0.00  0.00     0.041 H 
ENDBRANCH  73  75
ENDBRANCH  72  73
ENDBRANCH  13  72
BRANCH   4  79
ATOM     79  O3  BGZ d   1     -48.175  -6.682  11.306  0.00  0.00    -0.395 OA
ATOM     80  H31 BGZ d   1     -48.181  -6.824  12.245  0.00  0.00     0.210 HD
ENDBRANCH   4  79
BRANCH   7  81
ATOM     81  C7  BGZ d   1     -47.003  -1.445  11.539  0.00  0.00    -0.045 C 
ATOM     82  H16 BGZ d   1     -46.618  -0.533  12.019  0.00  0.00     0.031 H 
ATOM     83  H17 BGZ d   1     -47.022  -1.305  10.448  0.00  0.00     0.031 H 
ATOM     84  H18 BGZ d   1     -46.350  -2.294  11.789  0.00  0.00     0.031 H 
ENDBRANCH   7  81
BRANCH   7  85
ATOM     85  O4  BGZ d   1     -49.270  -0.633  11.655  0.00  0.00    -0.387 OA
ATOM     86  H32 BGZ d   1     -48.946   0.172  12.040  0.00  0.00     0.210 HD
ENDBRANCH   7  85
TORSDOF 20
