REMARK  11 active torsions:
REMARK  status: ('A' for Active; 'I' for Inactive)
REMARK    1  A    between atoms: C02_2  and  C01_1 
REMARK    2  A    between atoms: C21_13  and  C02_2 
REMARK    3  A    between atoms: C02_2  and  N03_19 
REMARK    4  A    between atoms: C04_3  and  C05_4 
REMARK    5  A    between atoms: C04_3  and  C08_5 
REMARK    6  A    between atoms: N03_19  and  C04_3 
REMARK    7  A    between atoms: C13_9  and  C15_10 
REMARK       I    between atoms: N12_20  and  C13_9 
REMARK    8  A    between atoms: C15_10  and  C17_11 
REMARK    9  A    between atoms: C15_10  and  N16_21 
REMARK   10  A    between atoms: C17_11  and  C18_12 
REMARK       I    between atoms: N23_22  and  C21_13 
REMARK   11  A    between atoms: C27_17  and  C28_18 
ROOT
ATOM      1  C04 BJ2 d   1      -2.178  28.206  -3.904  0.00  0.00     0.204 C 
ATOM      2  H5  BJ2 d   1      -2.214  27.117  -3.751  0.00  0.00     0.105 H 
ENDROOT
BRANCH   1   3
ATOM      3  C05 BJ2 d   1      -0.703  28.601  -4.262  0.00  0.00     0.207 C 
ATOM      4  O06 BJ2 d   1      -0.286  29.806  -4.242  0.00  0.00    -0.646 OA
ATOM      5  O07 BJ2 d   1       0.137  27.690  -4.526  0.00  0.00    -0.646 OA
ENDBRANCH   1   3
BRANCH   1   6
ATOM      6  C08 BJ2 d   1      -3.281  28.636  -4.970  0.00  0.00     0.052 C 
ATOM      7  C09 BJ2 d   1      -4.383  27.785  -5.042  0.00  0.00    -0.042 C 
ATOM      8  C10 BJ2 d   1      -3.829  26.577  -5.875  0.00  0.00    -0.048 C 
ATOM      9  H7  BJ2 d   1      -5.226  28.269  -5.557  0.00  0.00     0.036 H 
ATOM     10  H8  BJ2 d   1      -4.702  27.463  -4.040  0.00  0.00     0.036 H 
ATOM     11  C11 BJ2 d   1      -2.830  27.255  -6.884  0.00  0.00    -0.002 C 
ATOM     12  H9  BJ2 d   1      -4.641  26.063  -6.411  0.00  0.00     0.035 H 
ATOM     13  H10 BJ2 d   1      -3.306  25.859  -5.226  0.00  0.00     0.035 H 
ATOM     14  N12 BJ2 d   1      -2.705  28.536  -6.440  0.00  0.00    -0.343 N 
ATOM     15  H11 BJ2 d   1      -3.238  27.237  -7.905  0.00  0.00     0.064 H 
ATOM     16  H12 BJ2 d   1      -1.857  26.743  -6.869  0.00  0.00     0.064 H 
ATOM     17  C13 BJ2 d   1      -2.216  29.654  -7.197  0.00  0.00     0.251 C 
ATOM     18  O14 BJ2 d   1      -2.166  30.744  -6.709  0.00  0.00    -0.271 OA
ATOM     19  H6  BJ2 d   1      -3.606  29.662  -4.741  0.00  0.00     0.076 H 
BRANCH  17  20
ATOM     20  C15 BJ2 d   1      -1.675  29.358  -8.676  0.00  0.00     0.185 C 
ATOM     21  H13 BJ2 d   1      -1.791  28.290  -8.914  0.00  0.00     0.100 H 
BRANCH  20  22
ATOM     22  C17 BJ2 d   1      -0.102  29.733  -8.670  0.00  0.00     0.050 C 
ATOM     23  H14 BJ2 d   1       0.371  29.265  -7.794  0.00  0.00     0.052 H 
ATOM     24  H15 BJ2 d   1       0.002  30.826  -8.602  0.00  0.00     0.052 H 
BRANCH  22  25
ATOM     25  C18 BJ2 d   1       0.619  29.242  -9.948  0.00  0.00     0.175 C 
ATOM     26  O19 BJ2 d   1       0.646  27.977 -10.142  0.00  0.00    -0.648 OA
ATOM     27  O20 BJ2 d   1       1.155  30.086 -10.757  0.00  0.00    -0.648 OA
ENDBRANCH  22  25
ENDBRANCH  20  22
BRANCH  20  28
ATOM     28  N16 BJ2 d   1      -2.457  30.137  -9.632  0.00  0.00    -0.066 N 
ATOM     29  H25 BJ2 d   1      -3.424  29.855  -9.585  0.00  0.00     0.275 HD
ATOM     30  H26 BJ2 d   1      -2.106  29.977 -10.563  0.00  0.00     0.275 HD
ATOM     31  H27 BJ2 d   1      -2.382  31.117  -9.408  0.00  0.00     0.275 HD
ENDBRANCH  20  28
ENDBRANCH  17  20
ENDBRANCH   1   6
BRANCH   1  32
ATOM     32  N03 BJ2 d   1      -2.627  28.926  -2.681  0.00  0.00    -0.047 N 
ATOM     33  H23 BJ2 d   1      -2.689  29.910  -2.892  0.00  0.00     0.279 HD
ATOM     34  H24 BJ2 d   1      -3.537  28.580  -2.421  0.00  0.00     0.279 HD
BRANCH  32  35
ATOM     35  C02 BJ2 d   1      -1.691  28.744  -1.512  0.00  0.00     0.175 C 
ATOM     36  H4  BJ2 d   1      -0.678  29.040  -1.824  0.00  0.00     0.099 H 
BRANCH  35  37
ATOM     37  C01 BJ2 d   1      -2.123  29.648  -0.365  0.00  0.00    -0.041 C 
ATOM     38  H1  BJ2 d   1      -2.140  30.693  -0.708  0.00  0.00     0.030 H 
ATOM     39  H2  BJ2 d   1      -1.413  29.547   0.469  0.00  0.00     0.030 H 
ATOM     40  H3  BJ2 d   1      -3.128  29.357  -0.027  0.00  0.00     0.030 H 
ENDBRANCH  35  37
BRANCH  35  41
ATOM     41  C21 BJ2 d   1      -1.650  27.262  -1.084  0.00  0.00     0.251 C 
ATOM     42  N23 BJ2 d   1      -0.476  26.794  -0.341  0.00  0.00    -0.336 N 
ATOM     43  C24 BJ2 d   1       0.604  27.507   0.047  0.00  0.00    -0.001 C 
ATOM     44  C27 BJ2 d   1      -0.390  25.285   0.187  0.00  0.00     0.098 C 
ATOM     45  C25 BJ2 d   1       1.627  26.442   0.571  0.00  0.00    -0.048 C 
ATOM     46  H16 BJ2 d   1       1.026  28.063  -0.803  0.00  0.00     0.064 H 
ATOM     47  H17 BJ2 d   1       0.335  28.211   0.848  0.00  0.00     0.064 H 
ATOM     48  C26 BJ2 d   1       0.777  25.188   0.933  0.00  0.00    -0.035 C 
ATOM     49  H18 BJ2 d   1       2.153  26.820   1.460  0.00  0.00     0.035 H 
ATOM     50  H19 BJ2 d   1       2.360  26.196  -0.211  0.00  0.00     0.035 H 
ATOM     51  H20 BJ2 d   1       0.543  25.183   2.008  0.00  0.00     0.036 H 
ATOM     52  H21 BJ2 d   1       1.322  24.269   0.671  0.00  0.00     0.036 H 
ATOM     53  H22 BJ2 d   1      -0.375  24.566  -0.645  0.00  0.00     0.089 H 
ATOM     54  O22 BJ2 d   1      -2.550  26.477  -1.308  0.00  0.00    -0.271 OA
BRANCH  44  55
ATOM     55  C28 BJ2 d   1      -1.630  25.074   1.058  0.00  0.00     0.196 C 
ATOM     56  O29 BJ2 d   1      -2.082  26.052   1.723  0.00  0.00    -0.646 OA
ATOM     57  O30 BJ2 d   1      -2.212  23.966   1.133  0.00  0.00    -0.646 OA
ENDBRANCH  44  55
ENDBRANCH  35  41
ENDBRANCH  32  35
ENDBRANCH   1  32
TORSDOF 11
