REMARK  8 active torsions:
REMARK  status: ('A' for Active; 'I' for Inactive)
REMARK       I    between atoms: C24_2  and  N1_3 
REMARK    1  A    between atoms: C24_2  and  C23_5 
REMARK    2  A    between atoms: N1_3  and  ON1_4 
REMARK    3  A    between atoms: C23_5  and  C22_6 
REMARK    4  A    between atoms: C17_11  and  S1_12 
REMARK    5  A    between atoms: S1_12  and  C13_15 
REMARK    6  A    between atoms: C10_18  and  C4_21 
REMARK    7  A    between atoms: C1_24  and  OA_25 
REMARK    8  A    between atoms: OA_25  and  C8_26 
ROOT
ATOM      1  C13 LPW d   1       5.156   4.841   8.642  0.00  0.00     0.064 A 
ATOM      2  C12 LPW d   1       6.549   4.901   8.394  0.00  0.00    -0.061 A 
ATOM      3  C11 LPW d   1       7.439   5.297   9.361  0.00  0.00    -0.071 A 
ATOM      4  C10 LPW d   1       7.053   5.614  10.625  0.00  0.00    -0.026 A 
ATOM      5  C15 LPW d   1       5.640   5.634  10.892  0.00  0.00    -0.071 A 
ATOM      6  C14 LPW d   1       4.729   5.206   9.913  0.00  0.00    -0.061 A 
ATOM      7  H9  LPW d   1       6.923   4.627   7.414  0.00  0.00     0.085 H 
ATOM      8  H10 LPW d   1       8.491   5.359   9.107  0.00  0.00     0.084 H 
ATOM      9  H11 LPW d   1       5.277   5.981  11.853  0.00  0.00     0.084 H 
ATOM     10  H12 LPW d   1       3.673   5.159  10.153  0.00  0.00     0.085 H 
ENDROOT
BRANCH   1  11
ATOM     11  S1  LPW d   1       4.092   4.512   7.418  0.00  0.00     0.207 S 
ATOM     12  OSB LPW d   1       3.224   5.618   7.358  0.00  0.00    -0.217 OA
ATOM     13  OSA LPW d   1       4.776   4.235   6.245  0.00  0.00    -0.217 OA
BRANCH  11  14
ATOM     14  C17 LPW d   1       3.117   3.221   7.911  0.00  0.00     0.071 A 
ATOM     15  C22 LPW d   1       3.353   1.875   7.636  0.00  0.00    -0.028 A 
ATOM     16  C21 LPW d   1       2.511   0.927   8.121  0.00  0.00    -0.075 A 
ATOM     17  C20 LPW d   1       1.407   1.254   8.889  0.00  0.00    -0.082 A 
ATOM     18  H5  LPW d   1       2.709  -0.116   7.901  0.00  0.00     0.084 H 
ATOM     19  C19 LPW d   1       1.168   2.531   9.176  0.00  0.00    -0.082 A 
ATOM     20  H6  LPW d   1       0.744   0.478   9.253  0.00  0.00     0.083 H 
ATOM     21  C18 LPW d   1       1.966   3.532   8.709  0.00  0.00    -0.061 A 
ATOM     22  H7  LPW d   1       0.316   2.782   9.798  0.00  0.00     0.083 H 
ATOM     23  H8  LPW d   1       1.731   4.564   8.941  0.00  0.00     0.085 H 
BRANCH  15  24
ATOM     24  C23 LPW d   1       4.536   1.370   6.813  0.00  0.00     0.036 C 
ATOM     25  H3  LPW d   1       4.252   0.449   6.282  0.00  0.00     0.054 H 
ATOM     26  H4  LPW d   1       4.834   2.137   6.083  0.00  0.00     0.054 H 
BRANCH  24  27
ATOM     27  C24 LPW d   1       5.683   1.085   7.748  0.00  0.00     0.245 C 
ATOM     28  O3  LPW d   1       5.477   0.660   8.913  0.00  0.00    -0.271 OA
ATOM     29  N1  LPW d   1       6.848   1.240   7.208  0.00  0.00    -0.237 N 
ATOM     30  H1  LPW d   1       6.975   1.581   6.276  0.00  0.00     0.197 HD
BRANCH  29  31
ATOM     31  ON1 LPW d   1       7.885   0.899   8.019  0.00  0.00    -0.287 OA
ATOM     32  H2  LPW d   1       8.704   1.038   7.559  0.00  0.00     0.244 HD
ENDBRANCH  29  31
ENDBRANCH  24  27
ENDBRANCH  15  24
ENDBRANCH  11  14
ENDBRANCH   1  11
BRANCH   4  33
ATOM     33  C4  LPW d   1       7.918   6.198  11.686  0.00  0.00    -0.026 A 
ATOM     34  C3  LPW d   1       8.842   7.139  11.236  0.00  0.00    -0.070 A 
ATOM     35  C2  LPW d   1       9.632   7.845  12.154  0.00  0.00    -0.050 A 
ATOM     36  H13 LPW d   1       8.950   7.325  10.174  0.00  0.00     0.085 H 
ATOM     37  C1  LPW d   1       9.427   7.728  13.523  0.00  0.00     0.068 A 
ATOM     38  H14 LPW d   1      10.418   8.495  11.788  0.00  0.00     0.087 H 
ATOM     39  C6  LPW d   1       8.469   6.762  13.960  0.00  0.00    -0.050 A 
ATOM     40  C5  LPW d   1       7.685   6.075  13.054  0.00  0.00    -0.070 A 
ATOM     41  H18 LPW d   1       8.356   6.565  15.020  0.00  0.00     0.087 H 
ATOM     42  H19 LPW d   1       6.884   5.437  13.409  0.00  0.00     0.085 H 
BRANCH  37  43
ATOM     43  OA  LPW d   1      10.191   8.465  14.374  0.00  0.00    -0.356 OA
BRANCH  43  44
ATOM     44  C8  LPW d   1       9.772   8.602  15.740  0.00  0.00     0.010 C 
ATOM     45  H15 LPW d   1      10.497   9.224  16.285  0.00  0.00     0.066 H 
ATOM     46  H16 LPW d   1       9.716   7.608  16.208  0.00  0.00     0.066 H 
ATOM     47  H17 LPW d   1       8.781   9.079  15.774  0.00  0.00     0.066 H 
ENDBRANCH  43  44
ENDBRANCH  37  43
ENDBRANCH   4  33
TORSDOF 8
