REMARK WARNING: 32 MAX_TORS EXCEEDED!!!
REMARK  35 active torsions:
REMARK  status: ('A' for Active; 'I' for Inactive)
REMARK    1  A    between atoms: C3_3  and  N10_80 
REMARK    2  A    between atoms: C13_16  and  C12_15 
REMARK    3  A    between atoms: C14_17  and  C13_16 
REMARK    4  A    between atoms: C14_17  and  C15_18 
REMARK    5  A    between atoms: N5_24  and  C14_17 
REMARK       I    between atoms: C15_18  and  N4_20 
REMARK    6  A    between atoms: N4_20  and  C16_21 
REMARK    7  A    between atoms: C16_21  and  C17_22 
REMARK    8  A    between atoms: C16_21  and  C18_23 
REMARK       I    between atoms: C19_25  and  N5_24 
REMARK    9  A    between atoms: C20_27  and  C19_25 
REMARK   10  A    between atoms: C20_27  and  N6_28 
REMARK   11  A    between atoms: C29_39  and  C20_27 
REMARK       I    between atoms: N6_28  and  C21_29 
REMARK   12  A    between atoms: C21_29  and  O4_31 
REMARK   13  A    between atoms: O4_31  and  C22_32 
REMARK   14  A    between atoms: C22_32  and  C23_33 
REMARK   15  A    between atoms: C30_40  and  C29_39 
REMARK   16  A    between atoms: C31_41  and  C30_40 
REMARK   17  A    between atoms: C32_42  and  C31_41 
REMARK   18  A    between atoms: N7_43  and  C32_42 
REMARK   19  A    between atoms: C33_44  and  N7_43 
REMARK   20  A    between atoms: C33_44  and  C34_45 
REMARK   21  A    between atoms: C34_45  and  C35_46 
REMARK   22  A    between atoms: C35_46  and  C36_47 
REMARK   23  A    between atoms: C36_47  and  C37_48 
REMARK   24  A    between atoms: C40_56  and  O9_57 
REMARK   25  A    between atoms: C42_59  and  C41_58 
REMARK   26  A    between atoms: O10_60  and  C42_59 
REMARK   27  A    between atoms: P1_61  and  O10_60 
REMARK   28  A    between atoms: O13_64  and  P1_61 
REMARK   29  A    between atoms: P2_65  and  O13_64 
REMARK   30  A    between atoms: O16_68  and  P2_65 
REMARK   31  A    between atoms: C43_69  and  O16_68 
REMARK   32  A    between atoms: C44_70  and  C43_69 
REMARK   33  A    between atoms: C45_72  and  O18_73 
REMARK   34  A    between atoms: C46_74  and  O19_75 
REMARK   35  A    between atoms: C47_76  and  N8_77 
ROOT
ATOM      1  C32 BJW d   1      -8.484  20.195   6.296  0.00  0.00     0.086 C 
ATOM      2  H35 BJW d   1      -8.855  19.990   5.281  0.00  0.00     0.075 H 
ATOM      3  H36 BJW d   1      -8.277  21.270   6.401  0.00  0.00     0.075 H 
ENDROOT
BRANCH   1   4
ATOM      4  C31 BJW d   1      -7.204  19.375   6.573  0.00  0.00    -0.042 C 
ATOM      5  H33 BJW d   1      -6.822  19.648   7.568  0.00  0.00     0.035 H 
ATOM      6  H34 BJW d   1      -7.464  18.306   6.561  0.00  0.00     0.035 H 
BRANCH   4   7
ATOM      7  C30 BJW d   1      -6.100  19.618   5.545  0.00  0.00    -0.061 C 
ATOM      8  H31 BJW d   1      -6.506  19.478   4.532  0.00  0.00     0.033 H 
ATOM      9  H32 BJW d   1      -5.722  20.646   5.650  0.00  0.00     0.033 H 
BRANCH   7  10
ATOM     10  C29 BJW d   1      -4.954  18.627   5.776  0.00  0.00    -0.038 C 
ATOM     11  H29 BJW d   1      -4.698  18.617   6.846  0.00  0.00     0.036 H 
ATOM     12  H30 BJW d   1      -5.280  17.623   5.468  0.00  0.00     0.036 H 
BRANCH  10  13
ATOM     13  C20 BJW d   1      -3.720  19.019   4.972  0.00  0.00     0.091 C 
ATOM     14  H20 BJW d   1      -4.005  19.230   3.931  0.00  0.00     0.087 H 
BRANCH  13  15
ATOM     15  C19 BJW d   1      -3.088  20.257   5.597  0.00  0.00     0.241 C 
ATOM     16  N5  BJW d   1      -3.237  21.399   4.928  0.00  0.00    -0.346 N 
ATOM     17  H19 BJW d   1      -3.743  21.419   4.066  0.00  0.00     0.163 HD
ATOM     18  O2  BJW d   1      -2.635  20.211   6.741  0.00  0.00    -0.271 OA
BRANCH  16  19
ATOM     19  C14 BJW d   1      -2.644  22.636   5.478  0.00  0.00     0.093 C 
ATOM     20  H10 BJW d   1      -2.829  22.648   6.562  0.00  0.00     0.088 H 
BRANCH  19  21
ATOM     21  C13 BJW d   1      -1.094  22.639   5.237  0.00  0.00    -0.012 C 
ATOM     22  H8  BJW d   1      -0.707  21.622   5.400  0.00  0.00     0.044 H 
ATOM     23  H9  BJW d   1      -0.897  22.944   4.199  0.00  0.00     0.044 H 
BRANCH  21  24
ATOM     24  C12 BJW d   1      -0.384  23.580   6.160  0.00  0.00    -0.028 A 
ATOM     25  C9  BJW d   1      -0.115  23.387   7.473  0.00  0.00    -0.002 A 
ATOM     26  C8  BJW d   1      -0.364  22.365   8.290  0.00  0.00    -0.070 A 
ATOM     27  C10 BJW d   1       0.589  24.477   7.917  0.00  0.00     0.042 A 
ATOM     28  C7  BJW d   1       0.024  22.417   9.634  0.00  0.00    -0.082 A 
ATOM     29  H5  BJW d   1      -0.872  21.485   7.911  0.00  0.00     0.084 H 
ATOM     30  C6  BJW d   1       0.744  23.516  10.086  0.00  0.00    -0.081 A 
ATOM     31  H4  BJW d   1      -0.234  21.612  10.312  0.00  0.00     0.083 H 
ATOM     32  C5  BJW d   1       1.004  24.573   9.191  0.00  0.00    -0.056 A 
ATOM     33  H3  BJW d   1       1.099  23.560  11.109  0.00  0.00     0.083 H 
ATOM     34  H2  BJW d   1       1.534  25.456   9.528  0.00  0.00     0.086 H 
ATOM     35  N3  BJW d   1       0.712  25.326   6.903  0.00  0.00    -0.365 N 
ATOM     36  C11 BJW d   1       0.114  24.781   5.814  0.00  0.00    -0.015 A 
ATOM     37  H6  BJW d   1       1.181  26.242   6.938  0.00  0.00     0.165 HD
ATOM     38  H7  BJW d   1       0.048  25.238   4.828  0.00  0.00     0.112 H 
ENDBRANCH  21  24
ENDBRANCH  19  21
BRANCH  19  39
ATOM     39  C15 BJW d   1      -3.254  23.884   4.886  0.00  0.00     0.241 C 
ATOM     40  O1  BJW d   1      -3.569  23.938   3.755  0.00  0.00    -0.271 OA
ATOM     41  N4  BJW d   1      -3.382  24.913   5.710  0.00  0.00    -0.355 N 
ATOM     42  H11 BJW d   1      -3.163  24.750   6.672  0.00  0.00     0.162 HD
BRANCH  41  43
ATOM     43  C16 BJW d   1      -3.818  26.284   5.348  0.00  0.00     0.005 C 
ATOM     44  H12 BJW d   1      -3.883  26.856   6.285  0.00  0.00     0.071 H 
BRANCH  43  45
ATOM     45  C17 BJW d   1      -5.186  26.347   4.719  0.00  0.00    -0.058 C 
ATOM     46  H13 BJW d   1      -5.433  27.392   4.482  0.00  0.00     0.030 H 
ATOM     47  H14 BJW d   1      -5.931  25.945   5.421  0.00  0.00     0.030 H 
ATOM     48  H15 BJW d   1      -5.193  25.750   3.795  0.00  0.00     0.030 H 
ENDBRANCH  43  45
BRANCH  43  49
ATOM     49  C18 BJW d   1      -2.739  26.956   4.482  0.00  0.00    -0.058 C 
ATOM     50  H16 BJW d   1      -3.064  27.972   4.215  0.00  0.00     0.030 H 
ATOM     51  H17 BJW d   1      -2.585  26.367   3.566  0.00  0.00     0.030 H 
ATOM     52  H18 BJW d   1      -1.796  27.009   5.046  0.00  0.00     0.030 H 
ENDBRANCH  43  49
ENDBRANCH  41  43
ENDBRANCH  19  39
ENDBRANCH  16  19
ENDBRANCH  13  15
BRANCH  13  53
ATOM     53  N6  BJW d   1      -2.744  17.911   5.011  0.00  0.00    -0.324 N 
ATOM     54  C21 BJW d   1      -1.536  17.957   4.493  0.00  0.00     0.361 C 
ATOM     55  O3  BJW d   1      -1.174  18.920   3.816  0.00  0.00    -0.238 OA
ATOM     56  H21 BJW d   1      -3.022  17.064   5.464  0.00  0.00     0.165 HD
BRANCH  54  57
ATOM     57  O4  BJW d   1      -0.734  16.905   4.726  0.00  0.00    -0.299 OA
BRANCH  57  58
ATOM     58  C22 BJW d   1       0.678  17.008   4.362  0.00  0.00     0.054 C 
ATOM     59  H22 BJW d   1       0.953  18.070   4.285  0.00  0.00     0.082 H 
ATOM     60  H23 BJW d   1       0.835  16.517   3.390  0.00  0.00     0.082 H 
BRANCH  58  61
ATOM     61  C23 BJW d   1       1.490  16.395   5.320  0.00  0.00    -0.034 A 
ATOM     62  C24 BJW d   1       1.160  16.390   6.707  0.00  0.00    -0.075 A 
ATOM     63  C25 BJW d   1       1.996  15.776   7.653  0.00  0.00    -0.082 A 
ATOM     64  H24 BJW d   1       0.246  16.870   7.037  0.00  0.00     0.084 H 
ATOM     65  C26 BJW d   1       3.187  15.191   7.194  0.00  0.00    -0.083 A 
ATOM     66  H25 BJW d   1       1.731  15.754   8.704  0.00  0.00     0.083 H 
ATOM     67  C27 BJW d   1       3.555  15.213   5.828  0.00  0.00    -0.082 A 
ATOM     68  H26 BJW d   1       3.844  14.708   7.908  0.00  0.00     0.083 H 
ATOM     69  C28 BJW d   1       2.708  15.843   4.881  0.00  0.00    -0.075 A 
ATOM     70  H27 BJW d   1       4.481  14.750   5.506  0.00  0.00     0.083 H 
ATOM     71  H28 BJW d   1       2.994  15.899   3.837  0.00  0.00     0.084 H 
ENDBRANCH  58  61
ENDBRANCH  57  58
ENDBRANCH  54  57
ENDBRANCH  13  53
ENDBRANCH  10  13
ENDBRANCH   7  10
ENDBRANCH   4   7
ENDBRANCH   1   4
BRANCH   1  72
ATOM     72  N7  BJW d   1      -9.469  19.769   7.292  0.00  0.00    -0.033 N 
ATOM     73  H37 BJW d   1      -8.965  19.643   8.156  0.00  0.00     0.281 HD
ATOM     74  H38 BJW d   1      -9.825  18.880   6.978  0.00  0.00     0.281 HD
BRANCH  72  75
ATOM     75  C33 BJW d   1     -10.637  20.594   7.611  0.00  0.00     0.279 C 
ATOM     76  O7  BJW d   1     -11.385  20.494   6.337  0.00  0.00    -0.335 OA
ATOM     77  C39 BJW d   1     -12.334  21.570   6.262  0.00  0.00     0.103 C 
ATOM     78  C38 BJW d   1     -11.601  22.874   6.643  0.00  0.00     0.115 C 
ATOM     79  C40 BJW d   1     -12.748  21.881   4.822  0.00  0.00     0.090 C 
ATOM     80  H46 BJW d   1     -13.203  21.364   6.904  0.00  0.00     0.092 H 
ATOM     81  S1  BJW d   1     -10.331  22.392   7.785  0.00  0.00    -0.067 SA
ATOM     82  O8  BJW d   1     -11.182  23.502   5.390  0.00  0.00    -0.363 OA
ATOM     83  H45 BJW d   1     -12.285  23.564   7.159  0.00  0.00     0.105 H 
ATOM     84  C41 BJW d   1     -11.541  22.727   4.293  0.00  0.00     0.088 C 
ATOM     85  H49 BJW d   1     -10.722  22.051   4.005  0.00  0.00     0.090 H 
ATOM     86  H47 BJW d   1     -13.688  22.451   4.781  0.00  0.00     0.091 H 
BRANCH  75  87
ATOM     87  C34 BJW d   1     -11.402  19.914   8.763  0.00  0.00    -0.001 C 
ATOM     88  H39 BJW d   1     -12.216  20.569   9.108  0.00  0.00     0.041 H 
ATOM     89  H40 BJW d   1     -10.715  19.712   9.598  0.00  0.00     0.041 H 
BRANCH  87  90
ATOM     90  C35 BJW d   1     -12.014  18.525   8.209  0.00  0.00    -0.051 C 
ATOM     91  H41 BJW d   1     -11.184  17.837   7.992  0.00  0.00     0.034 H 
ATOM     92  H42 BJW d   1     -12.571  18.731   7.283  0.00  0.00     0.034 H 
BRANCH  90  93
ATOM     93  C36 BJW d   1     -12.963  17.850   9.214  0.00  0.00     0.016 C 
ATOM     94  H43 BJW d   1     -12.423  17.664  10.154  0.00  0.00     0.049 H 
ATOM     95  H44 BJW d   1     -13.313  16.894   8.797  0.00  0.00     0.049 H 
BRANCH  93  96
ATOM     96  C37 BJW d   1     -14.172  18.751   9.496  0.00  0.00     0.172 C 
ATOM     97  O5  BJW d   1     -14.881  19.116   8.510  0.00  0.00    -0.648 OA
ATOM     98  O6  BJW d   1     -14.172  19.212  10.654  0.00  0.00    -0.648 OA
ENDBRANCH  93  96
ENDBRANCH  90  93
ENDBRANCH  87  90
ENDBRANCH  75  87
BRANCH  84  99
ATOM     99  C42 BJW d   1     -11.832  23.653   3.122  0.00  0.00     0.058 C 
ATOM    100  H50 BJW d   1     -12.016  23.067   2.209  0.00  0.00     0.079 H 
ATOM    101  H51 BJW d   1     -10.985  24.335   2.955  0.00  0.00     0.079 H 
BRANCH  99 102
ATOM    102  O10 BJW d   1     -13.002  24.394   3.480  0.00  0.00    -0.287 OA
BRANCH 102 103
ATOM    103  P1  BJW d   1     -14.022  24.866   2.392  0.00  0.00     0.417 P 
ATOM    104  O11 BJW d   1     -14.896  23.608   2.083  0.00  0.00    -0.624 OA
ATOM    105  O12 BJW d   1     -13.360  25.423   1.186  0.00  0.00    -0.624 OA
BRANCH 103 106
ATOM    106  O13 BJW d   1     -15.037  25.817   3.133  0.00  0.00    -0.180 OA
BRANCH 106 107
ATOM    107  P2  BJW d   1     -14.681  27.367   3.281  0.00  0.00     0.417 P 
ATOM    108  O14 BJW d   1     -15.599  27.601   4.542  0.00  0.00    -0.624 OA
ATOM    109  O15 BJW d   1     -13.279  27.798   3.577  0.00  0.00    -0.624 OA
BRANCH 107 110
ATOM    110  O16 BJW d   1     -15.309  28.108   2.037  0.00  0.00    -0.287 OA
BRANCH 110 111
ATOM    111  C43 BJW d   1     -16.653  27.952   1.653  0.00  0.00     0.058 C 
ATOM    112  H52 BJW d   1     -17.323  28.483   2.346  0.00  0.00     0.079 H 
ATOM    113  H53 BJW d   1     -16.930  26.888   1.619  0.00  0.00     0.079 H 
BRANCH 111 114
ATOM    114  C44 BJW d   1     -16.709  28.582   0.240  0.00  0.00     0.089 C 
ATOM    115  O17 BJW d   1     -18.042  28.520  -0.207  0.00  0.00    -0.353 OA
ATOM    116  C47 BJW d   1     -18.440  29.810  -0.821  0.00  0.00     0.139 C 
ATOM    117  C46 BJW d   1     -17.649  30.847  -0.029  0.00  0.00     0.105 C 
ATOM    118  H59 BJW d   1     -18.179  29.886  -1.887  0.00  0.00     0.122 H 
ATOM    119  C45 BJW d   1     -16.296  30.121   0.125  0.00  0.00     0.091 C 
ATOM    120  H57 BJW d   1     -18.095  31.087   0.947  0.00  0.00     0.093 H 
ATOM    121  H55 BJW d   1     -15.740  30.480   1.004  0.00  0.00     0.091 H 
ATOM    122  H54 BJW d   1     -16.056  27.994  -0.422  0.00  0.00     0.090 H 
BRANCH 116 123
ATOM    123  N8  BJW d   1     -19.917  29.738  -0.662  0.00  0.00    -0.294 N 
ATOM    124  C1  BJW d   1     -20.765  29.352  -1.590  0.00  0.00     0.167 A 
ATOM    125  C2  BJW d   1     -22.006  29.326  -1.092  0.00  0.00     0.149 A 
ATOM    126  N2  BJW d   1     -20.555  29.042  -2.883  0.00  0.00    -0.222 NA
ATOM    127  C3  BJW d   1     -23.082  28.981  -1.856  0.00  0.00     0.155 A 
ATOM    128  N9  BJW d   1     -21.881  29.699   0.175  0.00  0.00    -0.236 NA
ATOM    129  N1  BJW d   1     -22.912  28.615  -3.123  0.00  0.00    -0.222 NA
ATOM    130  C48 BJW d   1     -21.607  28.649  -3.684  0.00  0.00     0.091 A 
ATOM    131  H60 BJW d   1     -21.442  28.372  -4.719  0.00  0.00     0.146 H 
ATOM    132  C4  BJW d   1     -20.609  29.978   0.418  0.00  0.00     0.071 A 
ATOM    133  H1  BJW d   1     -20.208  30.346   1.361  0.00  0.00     0.144 H 
BRANCH 127 134
ATOM    134  N10 BJW d   1     -24.318  28.935  -1.318  0.00  0.00    -0.382 N 
ATOM    135  H61 BJW d   1     -25.125  28.673  -1.903  0.00  0.00     0.157 HD
ATOM    136  H62 BJW d   1     -24.455  29.161  -0.323  0.00  0.00     0.157 HD
ENDBRANCH 127 134
ENDBRANCH 116 123
BRANCH 117 137
ATOM    137  O19 BJW d   1     -17.595  31.995  -0.850  0.00  0.00    -0.388 OA
ATOM    138  H58 BJW d   1     -17.309  31.747  -1.721  0.00  0.00     0.210 HD
ENDBRANCH 117 137
BRANCH 119 139
ATOM    139  O18 BJW d   1     -15.511  30.230  -1.063  0.00  0.00    -0.390 OA
ATOM    140  H56 BJW d   1     -15.238  31.132  -1.179  0.00  0.00     0.210 HD
ENDBRANCH 119 139
ENDBRANCH 111 114
ENDBRANCH 110 111
ENDBRANCH 107 110
ENDBRANCH 106 107
ENDBRANCH 103 106
ENDBRANCH 102 103
ENDBRANCH  99 102
ENDBRANCH  84  99
BRANCH  79 141
ATOM    141  O9  BJW d   1     -12.876  20.712   4.123  0.00  0.00    -0.390 OA
ATOM    142  H48 BJW d   1     -12.045  20.252   4.122  0.00  0.00     0.210 HD
ENDBRANCH  79 141
ENDBRANCH  72  75
ENDBRANCH   1  72
TORSDOF 35
