REMARK WARNING: 32 MAX_TORS EXCEEDED!!!
REMARK  35 active torsions:
REMARK  status: ('A' for Active; 'I' for Inactive)
REMARK    1  A    between atoms: C3_3  and  N11_80 
REMARK    2  A    between atoms: C13_16  and  C12_15 
REMARK    3  A    between atoms: C14_17  and  C13_16 
REMARK    4  A    between atoms: C14_17  and  C15_18 
REMARK    5  A    between atoms: N5_24  and  C14_17 
REMARK       I    between atoms: C15_18  and  N4_20 
REMARK    6  A    between atoms: N4_20  and  C16_21 
REMARK    7  A    between atoms: C16_21  and  C17_22 
REMARK    8  A    between atoms: C16_21  and  C18_23 
REMARK       I    between atoms: C19_25  and  N5_24 
REMARK    9  A    between atoms: C20_27  and  C19_25 
REMARK   10  A    between atoms: C20_27  and  N6_28 
REMARK   11  A    between atoms: C29_39  and  C20_27 
REMARK       I    between atoms: N6_28  and  C21_29 
REMARK   12  A    between atoms: C21_29  and  O4_31 
REMARK   13  A    between atoms: O4_31  and  C22_32 
REMARK   14  A    between atoms: C22_32  and  C23_33 
REMARK   15  A    between atoms: C30_40  and  C29_39 
REMARK   16  A    between atoms: C31_41  and  C30_40 
REMARK   17  A    between atoms: C32_42  and  C31_41 
REMARK   18  A    between atoms: N7_43  and  C32_42 
REMARK   19  A    between atoms: C33_44  and  N7_43 
REMARK   20  A    between atoms: C33_44  and  N8_45 
REMARK   21  A    between atoms: N8_45  and  C34_46 
REMARK   22  A    between atoms: C34_46  and  C35_47 
REMARK   23  A    between atoms: C35_47  and  C36_48 
REMARK   24  A    between atoms: C39_56  and  O9_57 
REMARK   25  A    between atoms: C41_59  and  C40_58 
REMARK   26  A    between atoms: O10_60  and  C41_59 
REMARK   27  A    between atoms: P1_61  and  O10_60 
REMARK   28  A    between atoms: O13_64  and  P1_61 
REMARK   29  A    between atoms: P2_65  and  O13_64 
REMARK   30  A    between atoms: O16_68  and  P2_65 
REMARK   31  A    between atoms: C42_69  and  O16_68 
REMARK   32  A    between atoms: C43_70  and  C42_69 
REMARK   33  A    between atoms: C44_72  and  O18_73 
REMARK   34  A    between atoms: C45_74  and  O19_75 
REMARK   35  A    between atoms: C46_76  and  N9_77 
ROOT
ATOM      1  C32 BVT d   1      40.569  43.191  40.821  0.00  0.00     0.088 C 
ATOM      2  H35 BVT d   1      40.658  42.154  41.178  0.00  0.00     0.075 H 
ATOM      3  H36 BVT d   1      40.147  43.819  41.619  0.00  0.00     0.075 H 
ENDROOT
BRANCH   1   4
ATOM      4  C31 BVT d   1      39.701  43.250  39.591  0.00  0.00    -0.042 C 
ATOM      5  H33 BVT d   1      39.674  44.276  39.196  0.00  0.00     0.035 H 
ATOM      6  H34 BVT d   1      40.091  42.570  38.820  0.00  0.00     0.035 H 
BRANCH   4   7
ATOM      7  C30 BVT d   1      38.309  42.817  40.014  0.00  0.00    -0.061 C 
ATOM      8  H31 BVT d   1      38.306  41.798  40.428  0.00  0.00     0.033 H 
ATOM      9  H32 BVT d   1      37.870  43.511  40.746  0.00  0.00     0.033 H 
BRANCH   7  10
ATOM     10  C29 BVT d   1      37.598  42.883  38.680  0.00  0.00    -0.038 C 
ATOM     11  H29 BVT d   1      37.741  43.881  38.240  0.00  0.00     0.036 H 
ATOM     12  H30 BVT d   1      38.017  42.121  38.006  0.00  0.00     0.036 H 
BRANCH  10  13
ATOM     13  C20 BVT d   1      36.115  42.625  38.872  0.00  0.00     0.091 C 
ATOM     14  H20 BVT d   1      35.918  41.545  38.935  0.00  0.00     0.087 H 
BRANCH  13  15
ATOM     15  C19 BVT d   1      35.572  43.318  40.122  0.00  0.00     0.241 C 
ATOM     16  N5  BVT d   1      34.697  42.596  40.843  0.00  0.00    -0.346 N 
ATOM     17  H19 BVT d   1      34.428  41.688  40.523  0.00  0.00     0.163 HD
ATOM     18  O2  BVT d   1      35.912  44.467  40.408  0.00  0.00    -0.271 OA
BRANCH  16  19
ATOM     19  C14 BVT d   1      34.128  43.120  42.097  0.00  0.00     0.093 C 
ATOM     20  H10 BVT d   1      34.084  44.218  42.052  0.00  0.00     0.088 H 
BRANCH  19  21
ATOM     21  C13 BVT d   1      32.751  42.551  42.401  0.00  0.00    -0.012 C 
ATOM     22  H8  BVT d   1      32.209  42.337  41.468  0.00  0.00     0.044 H 
ATOM     23  H9  BVT d   1      32.839  41.629  42.994  0.00  0.00     0.044 H 
BRANCH  21  24
ATOM     24  C12 BVT d   1      32.034  43.627  43.197  0.00  0.00    -0.028 A 
ATOM     25  C9  BVT d   1      32.210  44.947  43.129  0.00  0.00    -0.002 A 
ATOM     26  C8  BVT d   1      32.991  45.710  42.369  0.00  0.00    -0.070 A 
ATOM     27  C10 BVT d   1      31.381  45.494  44.028  0.00  0.00     0.042 A 
ATOM     28  C7  BVT d   1      32.963  47.091  42.499  0.00  0.00    -0.082 A 
ATOM     29  H5  BVT d   1      33.653  45.250  41.644  0.00  0.00     0.084 H 
ATOM     30  C6  BVT d   1      32.108  47.654  43.428  0.00  0.00    -0.081 A 
ATOM     31  H4  BVT d   1      33.599  47.717  41.884  0.00  0.00     0.083 H 
ATOM     32  C5  BVT d   1      31.313  46.812  44.190  0.00  0.00    -0.056 A 
ATOM     33  H3  BVT d   1      32.060  48.729  43.558  0.00  0.00     0.083 H 
ATOM     34  H2  BVT d   1      30.632  47.230  44.922  0.00  0.00     0.086 H 
ATOM     35  N3  BVT d   1      30.725  44.510  44.641  0.00  0.00    -0.365 N 
ATOM     36  C11 BVT d   1      31.135  43.351  44.137  0.00  0.00    -0.015 A 
ATOM     37  H6  BVT d   1      30.019  44.628  45.381  0.00  0.00     0.165 HD
ATOM     38  H7  BVT d   1      30.798  42.360  44.438  0.00  0.00     0.112 H 
ENDBRANCH  21  24
ENDBRANCH  19  21
BRANCH  19  39
ATOM     39  C15 BVT d   1      35.007  42.652  43.242  0.00  0.00     0.241 C 
ATOM     40  O1  BVT d   1      36.214  42.481  43.090  0.00  0.00    -0.271 OA
ATOM     41  N4  BVT d   1      34.326  42.405  44.367  0.00  0.00    -0.355 N 
ATOM     42  H11 BVT d   1      33.337  42.556  44.370  0.00  0.00     0.162 HD
BRANCH  41  43
ATOM     43  C16 BVT d   1      34.964  41.922  45.597  0.00  0.00     0.005 C 
ATOM     44  H12 BVT d   1      35.263  40.871  45.471  0.00  0.00     0.071 H 
BRANCH  43  45
ATOM     45  C17 BVT d   1      33.970  42.044  46.754  0.00  0.00    -0.058 C 
ATOM     46  H13 BVT d   1      34.440  41.684  47.681  0.00  0.00     0.030 H 
ATOM     47  H14 BVT d   1      33.078  41.439  46.536  0.00  0.00     0.030 H 
ATOM     48  H15 BVT d   1      33.678  43.097  46.877  0.00  0.00     0.030 H 
ENDBRANCH  43  45
BRANCH  43  49
ATOM     49  C18 BVT d   1      36.184  42.767  45.910  0.00  0.00    -0.058 C 
ATOM     50  H16 BVT d   1      36.657  42.400  46.833  0.00  0.00     0.030 H 
ATOM     51  H17 BVT d   1      35.879  43.815  46.046  0.00  0.00     0.030 H 
ATOM     52  H18 BVT d   1      36.901  42.699  45.078  0.00  0.00     0.030 H 
ENDBRANCH  43  49
ENDBRANCH  41  43
ENDBRANCH  19  39
ENDBRANCH  16  19
ENDBRANCH  13  15
BRANCH  13  53
ATOM     53  N6  BVT d   1      35.484  43.204  37.689  0.00  0.00    -0.324 N 
ATOM     54  C21 BVT d   1      34.245  42.918  37.296  0.00  0.00     0.361 C 
ATOM     55  O3  BVT d   1      33.558  42.137  37.944  0.00  0.00    -0.238 OA
ATOM     56  H21 BVT d   1      36.014  43.853  37.143  0.00  0.00     0.165 HD
BRANCH  54  57
ATOM     57  O4  BVT d   1      33.755  43.512  36.170  0.00  0.00    -0.299 OA
BRANCH  57  58
ATOM     58  C22 BVT d   1      32.359  43.269  36.070  0.00  0.00     0.054 C 
ATOM     59  H22 BVT d   1      31.938  43.144  37.078  0.00  0.00     0.082 H 
ATOM     60  H23 BVT d   1      32.189  42.353  35.485  0.00  0.00     0.082 H 
BRANCH  58  61
ATOM     61  C23 BVT d   1      31.737  44.339  35.441  0.00  0.00    -0.034 A 
ATOM     62  C24 BVT d   1      30.658  44.105  34.604  0.00  0.00    -0.075 A 
ATOM     63  C25 BVT d   1      30.012  45.150  33.956  0.00  0.00    -0.082 A 
ATOM     64  H24 BVT d   1      30.312  43.089  34.452  0.00  0.00     0.084 H 
ATOM     65  C26 BVT d   1      30.455  46.447  34.160  0.00  0.00    -0.083 A 
ATOM     66  H25 BVT d   1      29.172  44.953  33.299  0.00  0.00     0.083 H 
ATOM     67  C27 BVT d   1      31.542  46.691  34.990  0.00  0.00    -0.082 A 
ATOM     68  H26 BVT d   1      29.952  47.273  33.671  0.00  0.00     0.083 H 
ATOM     69  C28 BVT d   1      32.184  45.636  35.633  0.00  0.00    -0.075 A 
ATOM     70  H27 BVT d   1      31.892  47.706  35.138  0.00  0.00     0.083 H 
ATOM     71  H28 BVT d   1      33.031  45.829  36.282  0.00  0.00     0.084 H 
ENDBRANCH  58  61
ENDBRANCH  57  58
ENDBRANCH  54  57
ENDBRANCH  13  53
ENDBRANCH  10  13
ENDBRANCH   7  10
ENDBRANCH   4   7
ENDBRANCH   1   4
BRANCH   1  72
ATOM     72  N7  BVT d   1      41.893  43.708  40.403  0.00  0.00    -0.006 N 
ATOM     73  H37 BVT d   1      41.808  44.675  40.130  0.00  0.00     0.284 HD
ATOM     74  H38 BVT d   1      42.237  43.168  39.625  0.00  0.00     0.284 HD
BRANCH  72  75
ATOM     75  C33 BVT d   1      42.835  43.594  41.544  0.00  0.00     0.448 C 
ATOM     76  O7  BVT d   1      43.913  42.570  41.701  0.00  0.00    -0.313 OA
ATOM     77  C38 BVT d   1      44.136  42.536  43.174  0.00  0.00     0.105 C 
ATOM     78  C37 BVT d   1      42.824  42.123  43.791  0.00  0.00     0.117 C 
ATOM     79  C39 BVT d   1      45.033  41.387  43.623  0.00  0.00     0.091 C 
ATOM     80  H46 BVT d   1      44.502  43.508  43.536  0.00  0.00     0.093 H 
ATOM     81  S1  BVT d   1      41.693  42.897  42.685  0.00  0.00    -0.037 SA
ATOM     82  O8  BVT d   1      42.849  40.676  43.703  0.00  0.00    -0.363 OA
ATOM     83  H45 BVT d   1      42.684  42.461  44.828  0.00  0.00     0.105 H 
ATOM     84  C40 BVT d   1      44.074  40.437  44.356  0.00  0.00     0.088 C 
ATOM     85  H49 BVT d   1      44.403  39.389  44.299  0.00  0.00     0.090 H 
ATOM     86  H47 BVT d   1      45.834  41.738  44.291  0.00  0.00     0.091 H 
BRANCH  75  87
ATOM     87  N8  BVT d   1      43.423  44.937  41.620  0.00  0.00    -0.006 N 
ATOM     88  H39 BVT d   1      43.445  45.273  42.570  0.00  0.00     0.284 HD
ATOM     89  H40 BVT d   1      42.916  45.591  41.044  0.00  0.00     0.284 HD
BRANCH  87  90
ATOM     90  C34 BVT d   1      44.769  44.717  41.107  0.00  0.00     0.097 C 
ATOM     91  H41 BVT d   1      44.779  43.869  40.407  0.00  0.00     0.076 H 
ATOM     92  H42 BVT d   1      45.468  44.519  41.933  0.00  0.00     0.076 H 
BRANCH  90  93
ATOM     93  C35 BVT d   1      45.142  45.990  40.397  0.00  0.00     0.038 C 
ATOM     94  H43 BVT d   1      44.253  46.519  40.022  0.00  0.00     0.051 H 
ATOM     95  H44 BVT d   1      45.834  45.800  39.563  0.00  0.00     0.051 H 
BRANCH  93  96
ATOM     96  C36 BVT d   1      45.819  46.762  41.519  0.00  0.00     0.174 C 
ATOM     97  O5  BVT d   1      45.326  47.855  41.841  0.00  0.00    -0.648 OA
ATOM     98  O6  BVT d   1      46.794  46.217  42.073  0.00  0.00    -0.648 OA
ENDBRANCH  93  96
ENDBRANCH  90  93
ENDBRANCH  87  90
ENDBRANCH  75  87
BRANCH  84  99
ATOM     99  C41 BVT d   1      43.855  40.883  45.804  0.00  0.00     0.058 C 
ATOM    100  H50 BVT d   1      42.822  40.650  46.100  0.00  0.00     0.079 H 
ATOM    101  H51 BVT d   1      44.021  41.968  45.876  0.00  0.00     0.079 H 
BRANCH  99 102
ATOM    102  O10 BVT d   1      44.757  40.212  46.687  0.00  0.00    -0.287 OA
BRANCH 102 103
ATOM    103  P1  BVT d   1      44.791  38.581  46.812  0.00  0.00     0.417 P 
ATOM    104  O11 BVT d   1      46.360  38.241  46.759  0.00  0.00    -0.624 OA
ATOM    105  O12 BVT d   1      43.989  37.903  45.758  0.00  0.00    -0.624 OA
BRANCH 103 106
ATOM    106  O13 BVT d   1      44.359  38.247  48.289  0.00  0.00    -0.180 OA
BRANCH 106 107
ATOM    107  P2  BVT d   1      45.200  38.855  49.527  0.00  0.00     0.417 P 
ATOM    108  O14 BVT d   1      44.120  39.890  50.102  0.00  0.00    -0.624 OA
ATOM    109  O15 BVT d   1      46.503  39.426  49.129  0.00  0.00    -0.624 OA
BRANCH 107 110
ATOM    110  O16 BVT d   1      45.385  37.611  50.522  0.00  0.00    -0.287 OA
BRANCH 110 111
ATOM    111  C42 BVT d   1      46.688  37.038  50.611  0.00  0.00     0.058 C 
ATOM    112  H52 BVT d   1      47.243  37.523  51.428  0.00  0.00     0.079 H 
ATOM    113  H53 BVT d   1      47.220  37.197  49.661  0.00  0.00     0.079 H 
BRANCH 111 114
ATOM    114  C43 BVT d   1      46.589  35.537  50.889  0.00  0.00     0.089 C 
ATOM    115  O17 BVT d   1      47.952  34.990  50.827  0.00  0.00    -0.353 OA
ATOM    116  C46 BVT d   1      48.219  34.357  52.108  0.00  0.00     0.139 C 
ATOM    117  C45 BVT d   1      47.345  35.069  53.116  0.00  0.00     0.105 C 
ATOM    118  H59 BVT d   1      47.947  33.292  52.067  0.00  0.00     0.122 H 
ATOM    119  C44 BVT d   1      46.075  35.273  52.315  0.00  0.00     0.091 C 
ATOM    120  H57 BVT d   1      47.780  36.025  53.444  0.00  0.00     0.093 H 
ATOM    121  H55 BVT d   1      45.488  36.122  52.696  0.00  0.00     0.091 H 
ATOM    122  H54 BVT d   1      45.933  35.055  50.149  0.00  0.00     0.090 H 
BRANCH 116 123
ATOM    123  N9  BVT d   1      49.638  34.471  52.439  0.00  0.00    -0.294 N 
ATOM    124  C1  BVT d   1      50.467  33.513  52.089  0.00  0.00     0.167 A 
ATOM    125  C2  BVT d   1      51.685  33.840  52.498  0.00  0.00     0.149 A 
ATOM    126  N2  BVT d   1      50.234  32.379  51.431  0.00  0.00    -0.222 NA
ATOM    127  C3  BVT d   1      52.720  33.037  52.253  0.00  0.00     0.155 A 
ATOM    128  N10 BVT d   1      51.594  35.020  53.114  0.00  0.00    -0.236 NA
ATOM    129  N1  BVT d   1      52.570  31.883  51.597  0.00  0.00    -0.222 NA
ATOM    130  C47 BVT d   1      51.293  31.527  51.163  0.00  0.00     0.091 A 
ATOM    131  H60 BVT d   1      51.132  30.600  50.625  0.00  0.00     0.146 H 
ATOM    132  C4  BVT d   1      50.320  35.406  53.079  0.00  0.00     0.071 A 
ATOM    133  H1  BVT d   1      49.914  36.324  53.501  0.00  0.00     0.144 H 
BRANCH 127 134
ATOM    134  N11 BVT d   1      53.917  33.437  52.690  0.00  0.00    -0.382 N 
ATOM    135  H61 BVT d   1      54.748  32.851  52.525  0.00  0.00     0.157 HD
ATOM    136  H62 BVT d   1      54.009  34.332  53.192  0.00  0.00     0.157 HD
ENDBRANCH 127 134
ENDBRANCH 116 123
BRANCH 117 137
ATOM    137  O19 BVT d   1      47.125  34.212  54.244  0.00  0.00    -0.388 OA
ATOM    138  H58 BVT d   1      46.821  33.364  53.942  0.00  0.00     0.210 HD
ENDBRANCH 117 137
BRANCH 119 139
ATOM    139  O18 BVT d   1      45.294  34.081  52.342  0.00  0.00    -0.390 OA
ATOM    140  H56 BVT d   1      45.828  33.347  52.062  0.00  0.00     0.210 HD
ENDBRANCH 119 139
ENDBRANCH 111 114
ENDBRANCH 110 111
ENDBRANCH 107 110
ENDBRANCH 106 107
ENDBRANCH 103 106
ENDBRANCH 102 103
ENDBRANCH  99 102
ENDBRANCH  84  99
BRANCH  79 141
ATOM    141  O9  BVT d   1      45.593  40.749  42.478  0.00  0.00    -0.390 OA
ATOM    142  H48 BVT d   1      46.106  41.379  41.985  0.00  0.00     0.210 HD
ENDBRANCH  79 141
ENDBRANCH  72  75
ENDBRANCH   1  72
TORSDOF 35
