REMARK  20 active torsions:
REMARK  status: ('A' for Active; 'I' for Inactive)
REMARK    1  A    between atoms: C7_6  and  C6_4 
REMARK    2  A    between atoms: C21_8  and  C22_9 
REMARK       I    between atoms: N20_18  and  C21_8 
REMARK    3  A    between atoms: N25_12  and  C26_13 
REMARK    4  A    between atoms: C26_13  and  C28_14 
REMARK    5  A    between atoms: C26_13  and  C27_15 
REMARK    6  A    between atoms: C19_19  and  N20_18 
REMARK    7  A    between atoms: O13_21  and  C14_20 
REMARK    8  A    between atoms: C12_22  and  O13_21 
REMARK    9  A    between atoms: C11_23  and  C12_22 
REMARK   10  A    between atoms: C18_28  and  O32_32 
REMARK   11  A    between atoms: O32_32  and  C33_33 
REMARK   12  A    between atoms: C33_33  and  C34_34 
REMARK   13  A    between atoms: C34_34  and  C35_35 
REMARK   14  A    between atoms: C35_35  and  O36_36 
REMARK   15  A    between atoms: O36_36  and  C37_37 
REMARK   16  A    between atoms: C46_38  and  O47_39 
REMARK   17  A    between atoms: C44_40  and  O45_41 
REMARK   18  A    between atoms: C42_42  and  O42_43 
REMARK   19  A    between atoms: C39_44  and  C40_46 
REMARK   20  A    between atoms: C40_46  and  O41_47 
ROOT
ATOM      1  C19 2FN d   1      13.143  19.684  13.276  0.00  0.00     0.102 A 
ATOM      2  C14 2FN d   1      13.800  19.982  14.458  0.00  0.00     0.098 A 
ATOM      3  C18 2FN d   1      13.375  18.494  12.604  0.00  0.00     0.098 A 
ATOM      4  C17 2FN d   1      14.285  17.579  13.122  0.00  0.00    -0.048 A 
ATOM      5  C16 2FN d   1      14.948  17.877  14.312  0.00  0.00    -0.078 A 
ATOM      6  C15 2FN d   1      14.712  19.075  14.986  0.00  0.00    -0.048 A 
ATOM      7  H24 2FN d   1      14.477  16.645  12.607  0.00  0.00     0.087 H 
ATOM      8  H25 2FN d   1      15.658  17.166  14.720  0.00  0.00     0.083 H 
ATOM      9  H26 2FN d   1      15.233  19.296  15.910  0.00  0.00     0.087 H 
ENDROOT
BRANCH   3  10
ATOM     10  O32 2FN d   1      12.685  18.286  11.451  0.00  0.00    -0.349 OA
BRANCH  10  11
ATOM     11  C33 2FN d   1      12.021  17.021  11.515  0.00  0.00     0.028 C 
ATOM     12  H27 2FN d   1      11.353  17.001  12.389  0.00  0.00     0.075 H 
ATOM     13  H28 2FN d   1      12.768  16.219  11.606  0.00  0.00     0.075 H 
BRANCH  11  14
ATOM     14  C34 2FN d   1      11.200  16.811  10.241  0.00  0.00    -0.025 C 
ATOM     15  H29 2FN d   1      11.412  17.623   9.530  0.00  0.00     0.039 H 
ATOM     16  H30 2FN d   1      10.129  16.813  10.491  0.00  0.00     0.039 H 
BRANCH  14  17
ATOM     17  C35 2FN d   1      11.574  15.469   9.608  0.00  0.00     0.025 C 
ATOM     18  H31 2FN d   1      10.947  15.295   8.721  0.00  0.00     0.074 H 
ATOM     19  H32 2FN d   1      11.411  14.662  10.337  0.00  0.00     0.074 H 
BRANCH  17  20
ATOM     20  O36 2FN d   1      12.950  15.491   9.222  0.00  0.00    -0.358 OA
BRANCH  20  21
ATOM     21  C37 2FN d   1      13.086  14.954   7.898  0.00  0.00     0.158 C 
ATOM     22  C46 2FN d   1      12.772  16.037   6.878  0.00  0.00     0.110 C 
ATOM     23  C44 2FN d   1      12.925  15.472   5.475  0.00  0.00     0.092 C 
ATOM     24  H34 2FN d   1      13.467  16.879   7.012  0.00  0.00     0.094 H 
ATOM     25  C42 2FN d   1      14.307  14.858   5.323  0.00  0.00     0.090 C 
ATOM     26  H36 2FN d   1      12.160  14.700   5.306  0.00  0.00     0.091 H 
ATOM     27  C39 2FN d   1      14.533  13.840   6.429  0.00  0.00     0.089 C 
ATOM     28  H38 2FN d   1      15.069  15.649   5.391  0.00  0.00     0.091 H 
ATOM     29  O38 2FN d   1      14.429  14.489   7.705  0.00  0.00    -0.348 OA
ATOM     30  H40 2FN d   1      13.774  13.047   6.358  0.00  0.00     0.090 H 
ATOM     31  H33 2FN d   1      12.386  14.115   7.769  0.00  0.00     0.133 H 
BRANCH  22  32
ATOM     32  O47 2FN d   1      11.425  16.495   7.065  0.00  0.00    -0.388 OA
ATOM     33  H35 2FN d   1      11.230  17.172   6.427  0.00  0.00     0.210 HD
ENDBRANCH  22  32
BRANCH  23  34
ATOM     34  O45 2FN d   1      12.761  16.526   4.514  0.00  0.00    -0.390 OA
ATOM     35  H37 2FN d   1      12.857  16.172   3.638  0.00  0.00     0.210 HD
ENDBRANCH  23  34
BRANCH  25  36
ATOM     36  O42 2FN d   1      14.405  14.208   4.047  0.00  0.00    -0.390 OA
ATOM     37  H39 2FN d   1      15.269  13.825   3.954  0.00  0.00     0.210 HD
ENDBRANCH  25  36
BRANCH  27  38
ATOM     38  C40 2FN d   1      15.927  13.226   6.280  0.00  0.00     0.043 C 
ATOM     39  H41 2FN d   1      16.225  12.758   7.230  0.00  0.00     0.078 H 
ATOM     40  H42 2FN d   1      16.648  14.014   6.016  0.00  0.00     0.078 H 
BRANCH  38  41
ATOM     41  O41 2FN d   1      15.904  12.236   5.248  0.00  0.00    -0.398 OA
ATOM     42  H43 2FN d   1      15.646  12.641   4.428  0.00  0.00     0.209 HD
ENDBRANCH  38  41
ENDBRANCH  27  38
ENDBRANCH  20  21
ENDBRANCH  17  20
ENDBRANCH  14  17
ENDBRANCH  11  14
ENDBRANCH  10  11
ENDBRANCH   3  10
BRANCH   1  43
ATOM     43  N20 2FN d   1      12.271  20.555  12.776  0.00  0.00    -0.322 N 
ATOM     44  C21 2FN d   1      10.972  20.236  12.859  0.00  0.00     0.226 C 
ATOM     45  O31 2FN d   1      10.550  19.197  13.364  0.00  0.00    -0.273 OA
ATOM     46  H20 2FN d   1      12.572  21.411  12.356  0.00  0.00     0.169 HD
BRANCH  44  47
ATOM     47  C22 2FN d   1      10.013  21.272  12.270  0.00  0.00     0.027 C 
ATOM     48  C30 2FN d   1       9.879  21.047  10.773  0.00  0.00    -0.031 C 
ATOM     49  C29 2FN d   1       8.866  22.026  10.202  0.00  0.00     0.085 C 
ATOM     50  H4  2FN d   1       9.540  20.017  10.586  0.00  0.00     0.036 H 
ATOM     51  H5  2FN d   1      10.854  21.205  10.290  0.00  0.00     0.036 H 
ATOM     52  N25 2FN d   1       7.553  21.860  10.843  0.00  0.00    -0.068 N 
ATOM     53  H6  2FN d   1       8.764  21.848   9.121  0.00  0.00     0.076 H 
ATOM     54  H7  2FN d   1       9.222  23.053  10.373  0.00  0.00     0.076 H 
ATOM     55  C24 2FN d   1       7.676  22.110  12.286  0.00  0.00     0.085 C 
ATOM     56  H8  2FN d   1       7.223  20.920  10.693  0.00  0.00     0.280 HD
ATOM     57  C23 2FN d   1       8.650  21.134  12.928  0.00  0.00    -0.031 C 
ATOM     58  H16 2FN d   1       6.689  21.994  12.757  0.00  0.00     0.076 H 
ATOM     59  H17 2FN d   1       8.039  23.136  12.444  0.00  0.00     0.076 H 
ATOM     60  H18 2FN d   1       8.737  21.356  14.002  0.00  0.00     0.036 H 
ATOM     61  H19 2FN d   1       8.281  20.107  12.795  0.00  0.00     0.036 H 
ATOM     62  H3  2FN d   1      10.408  22.282  12.454  0.00  0.00     0.054 H 
BRANCH  52  63
ATOM     63  C26 2FN d   1       6.598  22.813  10.260  0.00  0.00     0.097 C 
ATOM     64  H9  2FN d   1       6.723  23.780  10.768  0.00  0.00     0.083 H 
BRANCH  63  65
ATOM     65  C28 2FN d   1       6.864  23.010   8.766  0.00  0.00    -0.050 C 
ATOM     66  H10 2FN d   1       6.137  23.726   8.355  0.00  0.00     0.030 H 
ATOM     67  H11 2FN d   1       6.763  22.046   8.245  0.00  0.00     0.030 H 
ATOM     68  H12 2FN d   1       7.883  23.399   8.623  0.00  0.00     0.030 H 
ENDBRANCH  63  65
BRANCH  63  69
ATOM     69  C27 2FN d   1       5.158  22.340  10.464  0.00  0.00    -0.050 C 
ATOM     70  H13 2FN d   1       4.466  23.070  10.019  0.00  0.00     0.030 H 
ATOM     71  H14 2FN d   1       4.951  22.248  11.540  0.00  0.00     0.030 H 
ATOM     72  H15 2FN d   1       5.021  21.362   9.979  0.00  0.00     0.030 H 
ENDBRANCH  63  69
ENDBRANCH  52  63
ENDBRANCH  44  47
ENDBRANCH   1  43
BRANCH   2  73
ATOM     73  O13 2FN d   1      13.509  21.173  15.048  0.00  0.00    -0.343 OA
BRANCH  73  74
ATOM     74  C12 2FN d   1      14.717  21.787  15.505  0.00  0.00     0.068 C 
ATOM     75  H21 2FN d   1      15.578  21.313  15.012  0.00  0.00     0.085 H 
ATOM     76  H22 2FN d   1      14.803  21.661  16.594  0.00  0.00     0.085 H 
BRANCH  74  77
ATOM     77  C11 2FN d   1      14.692  23.279  15.165  0.00  0.00     0.089 A 
ATOM     78  N9  2FN d   1      14.178  24.221  15.953  0.00  0.00    -0.130 NA
ATOM     79  O8  2FN d   1      14.356  25.438  15.275  0.00  0.00    -0.212 OA
ATOM     80  C7  2FN d   1      14.974  25.115  14.116  0.00  0.00     0.120 A 
ATOM     81  C10 2FN d   1      15.181  23.804  14.044  0.00  0.00    -0.019 A 
ATOM     82  H23 2FN d   1      15.658  23.265  13.227  0.00  0.00     0.091 H 
BRANCH  80  83
ATOM     83  C6  2FN d   1      15.325  25.994  13.181  0.00  0.00     0.042 A 
ATOM     84  C5  2FN d   1      16.348  25.847  12.333  0.00  0.00    -0.061 A 
ATOM     85  C4  2FN d   1      16.483  26.886  11.486  0.00  0.00    -0.054 A 
ATOM     86  H2  2FN d   1      17.004  24.978  12.327  0.00  0.00     0.085 H 
ATOM     87  C2  2FN d   1      15.566  27.839  11.677  0.00  0.00     0.075 A 
ATOM     88  H1  2FN d   1      17.259  26.943  10.724  0.00  0.00     0.086 H 
ATOM     89  S3  2FN d   1      14.572  27.412  12.897  0.00  0.00    -0.075 SA
ATOM     90 CL1  2FN d   1      15.450  29.306  10.768  0.00  0.00    -0.076 Cl
ENDBRANCH  80  83
ENDBRANCH  74  77
ENDBRANCH  73  74
ENDBRANCH   2  73
TORSDOF 20
