REMARK  27 active torsions:
REMARK  status: ('A' for Active; 'I' for Inactive)
REMARK    1  A    between atoms: C11_11  and  C12_12 
REMARK    2  A    between atoms: C12_12  and  O13_13 
REMARK    3  A    between atoms: O13_13  and  C14_14 
REMARK    4  A    between atoms: C19_18  and  N20_19 
REMARK       I    between atoms: N20_19  and  C21_20 
REMARK    5  A    between atoms: C21_20  and  C22_21 
REMARK    6  A    between atoms: N25_24  and  C26_25 
REMARK    7  A    between atoms: C26_25  and  C27_26 
REMARK    8  A    between atoms: C26_25  and  C28_27 
REMARK    9  A    between atoms: C18_31  and  O32_32 
REMARK   10  A    between atoms: O32_32  and  C33_33 
REMARK   11  A    between atoms: C33_33  and  C34_34 
REMARK   12  A    between atoms: C34_34  and  C35_35 
REMARK   13  A    between atoms: C35_35  and  O36_36 
REMARK   14  A    between atoms: O36_36  and  C37_37 
REMARK   15  A    between atoms: C46_39  and  O47_40 
REMARK   16  A    between atoms: O47_40  and  C85_41 
REMARK   17  A    between atoms: C85_41  and  C87_43 
REMARK   18  A    between atoms: C44_44  and  O45_45 
REMARK   19  A    between atoms: O45_45  and  C88_46 
REMARK   20  A    between atoms: C88_46  and  C89_47 
REMARK   21  A    between atoms: C42_49  and  O42_50 
REMARK   22  A    between atoms: O42_50  and  C91_51 
REMARK   23  A    between atoms: C91_51  and  C92_52 
REMARK   24  A    between atoms: C39_54  and  C40_55 
REMARK   25  A    between atoms: C40_55  and  O41_56 
REMARK   26  A    between atoms: O41_56  and  C94_57 
REMARK   27  A    between atoms: C94_57  and  C95_59 
ROOT
ATOM      1  C14 2OJ d   1      13.756 -15.893  14.555  0.00  0.00     0.098 A 
ATOM      2  C15 2OJ d   1      14.683 -16.831  14.971  0.00  0.00    -0.048 A 
ATOM      3  C16 2OJ d   1      14.780 -18.068  14.330  0.00  0.00    -0.078 A 
ATOM      4  C17 2OJ d   1      13.935 -18.414  13.275  0.00  0.00    -0.048 A 
ATOM      5  C19 2OJ d   1      12.937 -16.257  13.482  0.00  0.00     0.102 A 
ATOM      6  C18 2OJ d   1      13.013 -17.485  12.818  0.00  0.00     0.098 A 
ATOM      7  H6  2OJ d   1      15.341 -16.604  15.802  0.00  0.00     0.087 H 
ATOM      8  H7  2OJ d   1      15.530 -18.777  14.660  0.00  0.00     0.083 H 
ATOM      9  H8  2OJ d   1      13.998 -19.395  12.819  0.00  0.00     0.087 H 
ENDROOT
BRANCH   6  10
ATOM     10  O32 2OJ d   1      12.108 -17.733  11.798  0.00  0.00    -0.349 OA
BRANCH  10  11
ATOM     11  C33 2OJ d   1      12.441 -18.255  10.532  0.00  0.00     0.028 C 
ATOM     12  H27 2OJ d   1      13.388 -18.809  10.611  0.00  0.00     0.075 H 
ATOM     13  H28 2OJ d   1      12.560 -17.424   9.822  0.00  0.00     0.075 H 
BRANCH  11  14
ATOM     14  C34 2OJ d   1      11.343 -19.208  10.012  0.00  0.00    -0.025 C 
ATOM     15  H29 2OJ d   1      11.572 -20.227  10.358  0.00  0.00     0.039 H 
ATOM     16  H30 2OJ d   1      11.351 -19.183   8.912  0.00  0.00     0.039 H 
BRANCH  14  17
ATOM     17  C35 2OJ d   1       9.932 -18.831  10.500  0.00  0.00     0.025 C 
ATOM     18  H31 2OJ d   1       9.584 -17.949   9.942  0.00  0.00     0.074 H 
ATOM     19  H32 2OJ d   1       9.976 -18.592  11.573  0.00  0.00     0.074 H 
BRANCH  17  20
ATOM     20  O36 2OJ d   1       9.005 -19.907  10.299  0.00  0.00    -0.358 OA
BRANCH  20  21
ATOM     21  C37 2OJ d   1       7.952 -19.785   9.268  0.00  0.00     0.159 C 
ATOM     22  O38 2OJ d   1       7.016 -18.616   9.216  0.00  0.00    -0.348 OA
ATOM     23  C39 2OJ d   1       5.926 -18.727   8.182  0.00  0.00     0.090 C 
ATOM     24  C42 2OJ d   1       5.212 -20.053   8.167  0.00  0.00     0.103 C 
ATOM     25  H46 2OJ d   1       6.413 -18.587   7.206  0.00  0.00     0.090 H 
ATOM     26  C44 2OJ d   1       6.238 -21.165   8.124  0.00  0.00     0.106 C 
ATOM     27  H42 2OJ d   1       4.642 -20.160   9.102  0.00  0.00     0.092 H 
ATOM     28  C46 2OJ d   1       7.152 -21.076   9.328  0.00  0.00     0.123 C 
ATOM     29  H38 2OJ d   1       6.821 -21.095   7.194  0.00  0.00     0.092 H 
ATOM     30  H34 2OJ d   1       6.549 -21.083  10.248  0.00  0.00     0.096 H 
ATOM     31  H33 2OJ d   1       8.486 -19.760   8.306  0.00  0.00     0.133 H 
BRANCH  23  32
ATOM     32  C40 2OJ d   1       4.795 -17.678   8.310  0.00  0.00     0.055 C 
ATOM     33  H47 2OJ d   1       4.874 -17.169   9.282  0.00  0.00     0.079 H 
ATOM     34  H48 2OJ d   1       3.819 -18.179   8.237  0.00  0.00     0.079 H 
BRANCH  32  35
ATOM     35  O41 2OJ d   1       4.918 -16.733   7.271  0.00  0.00    -0.319 OA
BRANCH  35  36
ATOM     36  C94 2OJ d   1       3.663 -16.225   6.942  0.00  0.00     0.254 C 
ATOM     37  O96 2OJ d   1       2.622 -16.369   7.594  0.00  0.00    -0.266 OA
BRANCH  36  38
ATOM     38  C95 2OJ d   1       3.635 -15.409   5.655  0.00  0.00     0.004 C 
ATOM     39  H49 2OJ d   1       2.612 -15.048   5.472  0.00  0.00     0.041 H 
ATOM     40  H50 2OJ d   1       3.958 -16.040   4.814  0.00  0.00     0.041 H 
ATOM     41  H51 2OJ d   1       4.315 -14.550   5.751  0.00  0.00     0.041 H 
ENDBRANCH  36  38
ENDBRANCH  35  36
ENDBRANCH  32  35
ENDBRANCH  23  32
BRANCH  24  42
ATOM     42  O42 2OJ d   1       4.231 -20.066   7.029  0.00  0.00    -0.311 OA
BRANCH  42  43
ATOM     43  C91 2OJ d   1       2.972 -19.677   7.405  0.00  0.00     0.255 C 
ATOM     44  O93 2OJ d   1       2.231 -18.952   6.740  0.00  0.00    -0.266 OA
BRANCH  43  45
ATOM     45  C92 2OJ d   1       2.515 -20.219   8.753  0.00  0.00     0.004 C 
ATOM     46  H43 2OJ d   1       1.499 -19.856   8.969  0.00  0.00     0.041 H 
ATOM     47  H44 2OJ d   1       3.203 -19.874   9.539  0.00  0.00     0.041 H 
ATOM     48  H45 2OJ d   1       2.513 -21.319   8.725  0.00  0.00     0.041 H 
ENDBRANCH  43  45
ENDBRANCH  42  43
ENDBRANCH  24  42
BRANCH  26  49
ATOM     49  O45 2OJ d   1       5.578 -22.445   8.210  0.00  0.00    -0.311 OA
BRANCH  49  50
ATOM     50  C88 2OJ d   1       5.420 -22.796   6.924  0.00  0.00     0.255 C 
ATOM     51  O90 2OJ d   1       4.443 -22.485   6.265  0.00  0.00    -0.266 OA
BRANCH  50  52
ATOM     52  C89 2OJ d   1       6.606 -23.543   6.323  0.00  0.00     0.004 C 
ATOM     53  H39 2OJ d   1       6.390 -23.789   5.273  0.00  0.00     0.041 H 
ATOM     54  H40 2OJ d   1       6.780 -24.470   6.889  0.00  0.00     0.041 H 
ATOM     55  H41 2OJ d   1       7.503 -22.908   6.374  0.00  0.00     0.041 H 
ENDBRANCH  50  52
ENDBRANCH  49  50
ENDBRANCH  26  49
BRANCH  28  56
ATOM     56  O47 2OJ d   1       8.046 -22.244   9.325  0.00  0.00    -0.308 OA
BRANCH  56  57
ATOM     57  C85 2OJ d   1       8.071 -22.785  10.569  0.00  0.00     0.255 C 
ATOM     58  O86 2OJ d   1       8.906 -22.505  11.424  0.00  0.00    -0.266 OA
BRANCH  57  59
ATOM     59  C87 2OJ d   1       6.960 -23.816  10.867  0.00  0.00     0.004 C 
ATOM     60  H35 2OJ d   1       7.072 -24.189  11.896  0.00  0.00     0.041 H 
ATOM     61  H36 2OJ d   1       7.040 -24.656  10.161  0.00  0.00     0.041 H 
ATOM     62  H37 2OJ d   1       5.976 -23.337  10.756  0.00  0.00     0.041 H 
ENDBRANCH  57  59
ENDBRANCH  56  57
ENDBRANCH  28  56
ENDBRANCH  20  21
ENDBRANCH  17  20
ENDBRANCH  14  17
ENDBRANCH  11  14
ENDBRANCH  10  11
ENDBRANCH   6  10
BRANCH   5  63
ATOM     63  N20 2OJ d   1      12.050 -15.419  13.028  0.00  0.00    -0.322 N 
ATOM     64  C21 2OJ d   1      10.786 -15.766  13.098  0.00  0.00     0.226 C 
ATOM     65  O31 2OJ d   1      10.369 -16.763  13.680  0.00  0.00    -0.273 OA
ATOM     66  H9  2OJ d   1      12.323 -14.539  12.639  0.00  0.00     0.169 HD
BRANCH  64  67
ATOM     67  C22 2OJ d   1       9.852 -14.765  12.405  0.00  0.00     0.027 C 
ATOM     68  C23 2OJ d   1       8.556 -14.784  13.045  0.00  0.00    -0.031 C 
ATOM     69  C24 2OJ d   1       7.770 -13.719  12.421  0.00  0.00     0.085 C 
ATOM     70  H11 2OJ d   1       8.662 -14.596  14.124  0.00  0.00     0.036 H 
ATOM     71  H12 2OJ d   1       8.069 -15.758  12.888  0.00  0.00     0.036 H 
ATOM     72  N25 2OJ d   1       7.474 -13.995  11.013  0.00  0.00    -0.068 N 
ATOM     73  H13 2OJ d   1       8.336 -12.778  12.485  0.00  0.00     0.076 H 
ATOM     74  H14 2OJ d   1       6.821 -13.614  12.967  0.00  0.00     0.076 H 
ATOM     75  C29 2OJ d   1       8.695 -14.238  10.260  0.00  0.00     0.085 C 
ATOM     76  H15 2OJ d   1       6.864 -14.794  10.933  0.00  0.00     0.280 HD
ATOM     77  C30 2OJ d   1       9.648 -15.174  10.984  0.00  0.00    -0.031 C 
ATOM     78  H23 2OJ d   1       9.204 -13.277  10.093  0.00  0.00     0.076 H 
ATOM     79  H24 2OJ d   1       8.429 -14.686   9.291  0.00  0.00     0.076 H 
ATOM     80  H25 2OJ d   1       9.232 -16.192  10.963  0.00  0.00     0.036 H 
ATOM     81  H26 2OJ d   1      10.619 -15.163  10.467  0.00  0.00     0.036 H 
ATOM     82  H10 2OJ d   1      10.286 -13.755  12.453  0.00  0.00     0.054 H 
BRANCH  72  83
ATOM     83  C26 2OJ d   1       6.815 -12.791  10.507  0.00  0.00     0.097 C 
ATOM     84  H16 2OJ d   1       7.113 -11.949  11.149  0.00  0.00     0.083 H 
BRANCH  83  85
ATOM     85  C27 2OJ d   1       5.324 -12.956  10.560  0.00  0.00    -0.050 C 
ATOM     86  H17 2OJ d   1       4.840 -12.045  10.177  0.00  0.00     0.030 H 
ATOM     87  H18 2OJ d   1       5.011 -13.128  11.600  0.00  0.00     0.030 H 
ATOM     88  H19 2OJ d   1       5.028 -13.816   9.941  0.00  0.00     0.030 H 
ENDBRANCH  83  85
BRANCH  83  89
ATOM     89  C28 2OJ d   1       7.149 -12.451   9.091  0.00  0.00    -0.050 C 
ATOM     90  H20 2OJ d   1       6.612 -11.537   8.797  0.00  0.00     0.030 H 
ATOM     91  H21 2OJ d   1       6.848 -13.280   8.434  0.00  0.00     0.030 H 
ATOM     92  H22 2OJ d   1       8.232 -12.285   8.999  0.00  0.00     0.030 H 
ENDBRANCH  83  89
ENDBRANCH  72  83
ENDBRANCH  64  67
ENDBRANCH   5  63
BRANCH   1  93
ATOM     93  O13 2OJ d   1      13.589 -14.638  15.124  0.00  0.00    -0.343 OA
BRANCH  93  94
ATOM     94  C12 2OJ d   1      14.697 -13.912  15.729  0.00  0.00     0.068 C 
ATOM     95  H4  2OJ d   1      14.600 -13.956  16.824  0.00  0.00     0.085 H 
ATOM     96  H5  2OJ d   1      15.644 -14.383  15.426  0.00  0.00     0.085 H 
BRANCH  94  97
ATOM     97  C11 2OJ d   1      14.703 -12.422  15.278  0.00  0.00     0.089 A 
ATOM     98  N9  2OJ d   1      14.159 -11.370  15.876  0.00  0.00    -0.130 NA
ATOM     99  O8  2OJ d   1      14.387 -10.346  15.133  0.00  0.00    -0.212 OA
ATOM    100  C7  2OJ d   1      15.016 -10.655  14.187  0.00  0.00     0.120 A 
ATOM    101  C6  2OJ d   1      15.351  -9.853  13.226  0.00  0.00     0.042 A 
ATOM    102  C10 2OJ d   1      15.241 -11.963  14.172  0.00  0.00    -0.019 A 
ATOM    103  S3  2OJ d   1      14.598  -8.475  12.928  0.00  0.00    -0.075 SA
ATOM    104  C5  2OJ d   1      16.276 -10.092  12.291  0.00  0.00    -0.061 A 
ATOM    105  C2  2OJ d   1      15.489  -8.098  11.609  0.00  0.00     0.075 A 
ATOM    106 CL1  2OJ d   1      15.255  -6.596  10.642  0.00  0.00    -0.076 Cl
ATOM    107  C4  2OJ d   1      16.369  -9.096  11.384  0.00  0.00    -0.054 A 
ATOM    108  H1  2OJ d   1      17.079  -9.098  10.558  0.00  0.00     0.086 H 
ATOM    109  H2  2OJ d   1      16.888 -10.992  12.264  0.00  0.00     0.085 H 
ATOM    110  H3  2OJ d   1      15.762 -12.534  13.405  0.00  0.00     0.091 H 
ENDBRANCH  94  97
ENDBRANCH  93  94
ENDBRANCH   1  93
TORSDOF 27
