REMARK  10 active torsions:
REMARK  status: ('A' for Active; 'I' for Inactive)
REMARK    1  A    between atoms: C1_1  and  C23_15 
REMARK    2  A    between atoms: N7_19  and  C5_5 
REMARK    3  A    between atoms: C6_6  and  C8_7 
REMARK       I    between atoms: C9_8  and  N7_19 
REMARK    4  A    between atoms: C10_20  and  C9_8 
REMARK    5  A    between atoms: C14_23  and  N17_24 
REMARK    6  A    between atoms: N25_25  and  C30_30 
REMARK    7  A    between atoms: C27_27  and  N31_31 
REMARK    8  A    between atoms: N31_31  and  C32_32 
REMARK    9  A    between atoms: C35_35  and  C38_38 
REMARK       I    between atoms: C38_38  and  N39_39 
REMARK   10  A    between atoms: N43_43  and  C46_46 
ROOT
ATOM      1  C23 BNB d   1      24.198   5.863   2.555  0.00  0.00     0.085 A 
ATOM      2  C24 BNB d   1      23.035   5.682   3.260  0.00  0.00     0.011 A 
ATOM      3  N25 BNB d   1      21.872   5.323   2.635  0.00  0.00    -0.324 N 
ATOM      4  C26 BNB d   1      21.882   5.124   1.286  0.00  0.00     0.293 A 
ATOM      5  C27 BNB d   1      23.138   5.311   0.547  0.00  0.00     0.198 A 
ATOM      6  N28 BNB d   1      24.222   5.671   1.216  0.00  0.00    -0.224 NA
ATOM      7  O29 BNB d   1      20.877   4.799   0.667  0.00  0.00    -0.264 OA
ATOM      8  H20 BNB d   1      23.038   5.827   4.339  0.00  0.00     0.115 H 
ENDROOT
BRANCH   1   9
ATOM      9  C1  BNB d   1      25.467   6.250   3.254  0.00  0.00     0.002 A 
ATOM     10  C2  BNB d   1      26.655   5.649   2.811  0.00  0.00    -0.070 A 
ATOM     11  C3  BNB d   1      27.872   5.948   3.400  0.00  0.00    -0.080 A 
ATOM     12  H1  BNB d   1      26.619   4.938   1.993  0.00  0.00     0.084 H 
ATOM     13  C4  BNB d   1      27.945   6.851   4.452  0.00  0.00    -0.057 A 
ATOM     14  H2  BNB d   1      28.776   5.473   3.036  0.00  0.00     0.083 H 
ATOM     15  C5  BNB d   1      26.779   7.457   4.921  0.00  0.00     0.041 A 
ATOM     16  H3  BNB d   1      28.901   7.084   4.906  0.00  0.00     0.086 H 
ATOM     17  C6  BNB d   1      25.539   7.172   4.324  0.00  0.00    -0.023 A 
BRANCH  15  18
ATOM     18  N7  BNB d   1      26.820   8.382   5.976  0.00  0.00    -0.322 N 
ATOM     19  C9  BNB d   1      26.521   8.078   7.270  0.00  0.00     0.256 C 
ATOM     20  O11 BNB d   1      26.212   6.941   7.597  0.00  0.00    -0.267 OA
ATOM     21  H21 BNB d   1      27.085   9.323   5.765  0.00  0.00     0.169 HD
BRANCH  19  22
ATOM     22  C10 BNB d   1      26.532   9.151   8.293  0.00  0.00     0.032 A 
ATOM     23  C12 BNB d   1      26.531   8.848   9.662  0.00  0.00    -0.066 A 
ATOM     24  C13 BNB d   1      26.517   9.871  10.591  0.00  0.00    -0.061 A 
ATOM     25  H7  BNB d   1      26.541   7.815   9.991  0.00  0.00     0.085 H 
ATOM     26  C14 BNB d   1      26.489  11.221  10.197  0.00  0.00     0.010 A 
ATOM     27  H22 BNB d   1      26.528   9.628  11.647  0.00  0.00     0.086 H 
ATOM     28  C15 BNB d   1      26.492  11.513   8.827  0.00  0.00    -0.061 A 
ATOM     29  C16 BNB d   1      26.502  10.498   7.888  0.00  0.00    -0.066 A 
ATOM     30  H19 BNB d   1      26.486  12.546   8.499  0.00  0.00     0.086 H 
ATOM     31  H18 BNB d   1      26.487  10.742   6.832  0.00  0.00     0.085 H 
BRANCH  26  32
ATOM     32  N17 BNB d   1      26.492  12.264  11.150  0.00  0.00    -0.283 NA
ATOM     33  C18 BNB d   1      26.042  11.856  12.504  0.00  0.00    -0.016 C 
ATOM     34  C19 BNB d   1      24.519  11.908  12.710  0.00  0.00    -0.054 C 
ATOM     35  H10 BNB d   1      26.378  10.824  12.682  0.00  0.00     0.056 H 
ATOM     36  H11 BNB d   1      26.512  12.526  13.239  0.00  0.00     0.056 H 
ATOM     37  C20 BNB d   1      23.937  13.257  12.259  0.00  0.00    -0.063 C 
ATOM     38  H8  BNB d   1      24.297  11.762  13.777  0.00  0.00     0.034 H 
ATOM     39  H9  BNB d   1      24.051  11.103  12.124  0.00  0.00     0.034 H 
ATOM     40  C21 BNB d   1      24.316  13.493  10.793  0.00  0.00    -0.054 C 
ATOM     41  H12 BNB d   1      24.349  14.064  12.882  0.00  0.00     0.033 H 
ATOM     42  H13 BNB d   1      22.842  13.239  12.359  0.00  0.00     0.033 H 
ATOM     43  C22 BNB d   1      25.850  13.514  10.681  0.00  0.00    -0.016 C 
ATOM     44  H14 BNB d   1      23.906  14.456  10.455  0.00  0.00     0.034 H 
ATOM     45  H15 BNB d   1      23.910  12.682  10.170  0.00  0.00     0.034 H 
ATOM     46  H16 BNB d   1      26.232  14.350  11.285  0.00  0.00     0.056 H 
ATOM     47  H17 BNB d   1      26.120  13.670   9.626  0.00  0.00     0.056 H 
ENDBRANCH  26  32
ENDBRANCH  19  22
ENDBRANCH  15  18
BRANCH  17  48
ATOM     48  C8  BNB d   1      24.296   7.864   4.849  0.00  0.00    -0.048 C 
ATOM     49  H4  BNB d   1      23.420   7.529   4.274  0.00  0.00     0.033 H 
ATOM     50  H5  BNB d   1      24.410   8.953   4.743  0.00  0.00     0.033 H 
ATOM     51  H6  BNB d   1      24.156   7.612   5.910  0.00  0.00     0.033 H 
ENDBRANCH  17  48
ENDBRANCH   1   9
BRANCH   3  52
ATOM     52  C30 BNB d   1      20.636   5.155   3.411  0.00  0.00    -0.011 C 
ATOM     53  H23 BNB d   1      20.839   5.360   4.473  0.00  0.00     0.057 H 
ATOM     54  H24 BNB d   1      20.271   4.123   3.300  0.00  0.00     0.057 H 
ATOM     55  H25 BNB d   1      19.873   5.856   3.042  0.00  0.00     0.057 H 
ENDBRANCH   3  52
BRANCH   5  56
ATOM     56  N31 BNB d   1      23.093   5.088  -0.834  0.00  0.00    -0.336 N 
ATOM     57  H26 BNB d   1      22.180   4.790  -1.206  0.00  0.00     0.168 HD
BRANCH  56  58
ATOM     58  C32 BNB d   1      24.113   5.214  -1.776  0.00  0.00     0.033 A 
ATOM     59  C33 BNB d   1      25.399   5.664  -1.461  0.00  0.00    -0.056 A 
ATOM     60  C34 BNB d   1      26.362   5.772  -2.448  0.00  0.00    -0.066 A 
ATOM     61  H27 BNB d   1      25.642   5.929  -0.439  0.00  0.00     0.086 H 
ATOM     62  C35 BNB d   1      26.056   5.436  -3.776  0.00  0.00     0.032 A 
ATOM     63  H28 BNB d   1      27.358   6.118  -2.195  0.00  0.00     0.085 H 
ATOM     64  C36 BNB d   1      24.766   4.972  -4.087  0.00  0.00    -0.066 A 
ATOM     65  C37 BNB d   1      23.810   4.871  -3.097  0.00  0.00    -0.056 A 
ATOM     66  H29 BNB d   1      24.522   4.693  -5.106  0.00  0.00     0.085 H 
ATOM     67  H30 BNB d   1      22.814   4.522  -3.346  0.00  0.00     0.086 H 
BRANCH  62  68
ATOM     68  C38 BNB d   1      27.094   5.541  -4.835  0.00  0.00     0.253 C 
ATOM     69  N39 BNB d   1      26.990   6.381  -5.901  0.00  0.00    -0.345 N 
ATOM     70  C41 BNB d   1      28.054   6.442  -6.935  0.00  0.00     0.021 C 
ATOM     71  C45 BNB d   1      25.837   7.283  -6.125  0.00  0.00     0.021 C 
ATOM     72  C42 BNB d   1      27.415   6.199  -8.315  0.00  0.00     0.098 C 
ATOM     73  H31 BNB d   1      28.809   5.668  -6.735  0.00  0.00     0.067 H 
ATOM     74  H32 BNB d   1      28.531   7.433  -6.917  0.00  0.00     0.067 H 
ATOM     75  N43 BNB d   1      26.325   7.167  -8.551  0.00  0.00    -0.072 N 
ATOM     76  H33 BNB d   1      27.008   5.178  -8.352  0.00  0.00     0.078 H 
ATOM     77  H34 BNB d   1      28.181   6.317  -9.096  0.00  0.00     0.078 H 
ATOM     78  C44 BNB d   1      25.277   7.005  -7.525  0.00  0.00     0.098 C 
ATOM     79  H35 BNB d   1      26.676   8.112  -8.567  0.00  0.00     0.279 HD
ATOM     80  H36 BNB d   1      24.893   5.975  -7.561  0.00  0.00     0.078 H 
ATOM     81  H37 BNB d   1      24.458   7.709  -7.732  0.00  0.00     0.078 H 
ATOM     82  H38 BNB d   1      26.165   8.331  -6.056  0.00  0.00     0.067 H 
ATOM     83  H39 BNB d   1      25.061   7.091  -5.369  0.00  0.00     0.067 H 
ATOM     84  O40 BNB d   1      28.082   4.835  -4.739  0.00  0.00    -0.267 OA
BRANCH  75  85
ATOM     85  C46 BNB d   1      25.703   6.791  -9.831  0.00  0.00     0.066 C 
ATOM     86  H40 BNB d   1      26.441   6.892 -10.641  0.00  0.00     0.068 H 
ATOM     87  H41 BNB d   1      24.847   7.452 -10.031  0.00  0.00     0.068 H 
ATOM     88  H42 BNB d   1      25.357   5.748  -9.778  0.00  0.00     0.068 H 
ENDBRANCH  75  85
ENDBRANCH  62  68
ENDBRANCH  56  58
ENDBRANCH   5  56
TORSDOF 10
