REMARK  1 active torsions:
REMARK  status: ('A' for Active; 'I' for Inactive)
REMARK    1  A    between atoms: C06_7  and  C10_1 
ROOT
ATOM      1  C01 BSW d   1     -14.673  12.187 -23.039  0.00  0.00    -0.054 A 
ATOM      2  C02 BSW d   1     -13.628  12.841 -23.732  0.00  0.00    -0.020 A 
ATOM      3  C04 BSW d   1     -12.648  11.646 -22.068  0.00  0.00     0.138 A 
ATOM      4  C05 BSW d   1     -14.043  11.413 -21.966  0.00  0.00     0.022 A 
ATOM      5  C06 BSW d   1     -14.518  10.544 -20.937  0.00  0.00    -0.007 A 
ATOM      6  C07 BSW d   1     -13.582   9.967 -20.050  0.00  0.00    -0.054 A 
ATOM      7  C08 BSW d   1     -12.207  10.262 -20.240  0.00  0.00     0.005 A 
ATOM      8  N03 BSW d   1     -12.412  12.520 -23.115  0.00  0.00    -0.350 N 
ATOM      9  N09 BSW d   1     -11.760  11.078 -21.208  0.00  0.00    -0.242 NA
ATOM     10  H1  BSW d   1     -15.738  12.247 -23.260  0.00  0.00     0.087 H 
ATOM     11  H2  BSW d   1     -13.748  13.487 -24.601  0.00  0.00     0.111 H 
ATOM     12  H3  BSW d   1     -13.905   9.316 -19.246  0.00  0.00     0.087 H 
ATOM     13  H4  BSW d   1     -11.484   9.807 -19.573  0.00  0.00     0.114 H 
ATOM     14  H8  BSW d   1     -11.488  12.878 -23.396  0.00  0.00     0.166 HD
ENDROOT
BRANCH   5  15
ATOM     15  C10 BSW d   1     -15.936  10.269 -20.739  0.00  0.00     0.017 A 
ATOM     16  C15 BSW d   1     -16.864  11.297 -20.550  0.00  0.00     0.144 A 
ATOM     17  C14 BSW d   1     -18.226  11.062 -20.333  0.00  0.00     0.040 A 
ATOM     18  F16 BSW d   1     -16.425  12.633 -20.567  0.00  0.00    -0.204 F 
ATOM     19  N13 BSW d   1     -18.669   9.780 -20.296  0.00  0.00    -0.270 NA
ATOM     20  H7  BSW d   1     -18.914  11.888 -20.197  0.00  0.00     0.119 H 
ATOM     21  C12 BSW d   1     -17.819   8.724 -20.469  0.00  0.00     0.003 A 
ATOM     22  C11 BSW d   1     -16.435   8.944 -20.680  0.00  0.00    -0.052 A 
ATOM     23  H6  BSW d   1     -18.206   7.712 -20.445  0.00  0.00     0.114 H 
ATOM     24  H5  BSW d   1     -15.761   8.103 -20.796  0.00  0.00     0.087 H 
ENDBRANCH   5  15
TORSDOF 1
