REMARK  2 active torsions:
REMARK  status: ('A' for Active; 'I' for Inactive)
REMARK    1  A    between atoms: N12_1  and  C10_2 
REMARK    2  A    between atoms: C9_7  and  N11_12 
ROOT
ATOM      1  C10 EV2 d   1     -12.708  12.092 -21.616  0.00  0.00     0.168 A 
ATOM      2  N8  EV2 d   1     -11.678  11.749 -20.810  0.00  0.00    -0.226 NA
ATOM      3  C6  EV2 d   1     -11.913  11.473 -19.457  0.00  0.00     0.088 A 
ATOM      4  C4  EV2 d   1     -10.812  11.106 -18.573  0.00  0.00    -0.053 A 
ATOM      5  C2  EV2 d   1     -11.035  10.841 -17.222  0.00  0.00    -0.081 A 
ATOM      6  C9  EV2 d   1     -14.098  12.196 -21.081  0.00  0.00     0.172 A 
ATOM      7  N7  EV2 d   1     -14.275  11.927 -19.787  0.00  0.00    -0.225 NA
ATOM      8  C5  EV2 d   1     -13.204  11.563 -18.933  0.00  0.00     0.088 A 
ATOM      9  C3  EV2 d   1     -13.422  11.278 -17.514  0.00  0.00    -0.053 A 
ATOM     10  C1  EV2 d   1     -12.357  10.924 -16.688  0.00  0.00    -0.081 A 
ATOM     11  H3  EV2 d   1      -9.806  11.038 -18.972  0.00  0.00     0.087 H 
ATOM     12  H4  EV2 d   1     -10.206  10.572 -16.578  0.00  0.00     0.083 H 
ATOM     13  H5  EV2 d   1     -14.422  11.343 -17.101  0.00  0.00     0.087 H 
ATOM     14  H6  EV2 d   1     -12.532  10.711 -15.639  0.00  0.00     0.083 H 
ENDROOT
BRANCH   6  15
ATOM     15  N11 EV2 d   1     -15.160  12.564 -22.039  0.00  0.00    -0.363 N 
ATOM     16  C16 EV2 d   1     -15.374  11.844 -23.309  0.00  0.00    -0.003 C 
ATOM     17  C14 EV2 d   1     -16.913  11.546 -23.427  0.00  0.00    -0.049 C 
ATOM     18  H7  EV2 d   1     -14.808  10.901 -23.307  0.00  0.00     0.064 H 
ATOM     19  H8  EV2 d   1     -15.046  12.467 -24.154  0.00  0.00     0.064 H 
ATOM     20  C13 EV2 d   1     -17.580  12.647 -22.687  0.00  0.00    -0.049 C 
ATOM     21  H9  EV2 d   1     -17.154  10.574 -22.972  0.00  0.00     0.035 H 
ATOM     22  H10 EV2 d   1     -17.226  11.545 -24.482  0.00  0.00     0.035 H 
ATOM     23  C15 EV2 d   1     -16.551  13.112 -21.630  0.00  0.00    -0.003 C 
ATOM     24  H11 EV2 d   1     -18.496  12.283 -22.199  0.00  0.00     0.035 H 
ATOM     25  H12 EV2 d   1     -17.831  13.473 -23.369  0.00  0.00     0.035 H 
ATOM     26  H13 EV2 d   1     -16.523  14.211 -21.595  0.00  0.00     0.064 H 
ATOM     27  H14 EV2 d   1     -16.830  12.720 -20.641  0.00  0.00     0.064 H 
ENDBRANCH   6  15
BRANCH   1  28
ATOM     28  N12 EV2 d   1     -12.431  12.360 -22.970  0.00  0.00    -0.381 N 
ATOM     29  H1  EV2 d   1     -13.194  12.624 -23.609  0.00  0.00     0.157 HD
ATOM     30  H2  EV2 d   1     -11.465  12.292 -23.321  0.00  0.00     0.157 HD
ENDBRANCH   1  28
TORSDOF 2
