REMARK WARNING: 32 MAX_TORS EXCEEDED!!!
REMARK  38 active torsions:
REMARK  status: ('A' for Active; 'I' for Inactive)
REMARK    1  A    between atoms: N_1  and  CA_2 
REMARK    2  A    between atoms: CA_2  and  C_3 
REMARK    3  A    between atoms: CA_2  and  CB_5 
REMARK       I    between atoms: C_3  and  N_6 
REMARK    4  A    between atoms: N_6  and  CA_7 
REMARK    5  A    between atoms: CA_7  and  C_8 
REMARK    6  A    between atoms: CA_7  and  CB_10 
REMARK       I    between atoms: C_8  and  N_11 
REMARK    7  A    between atoms: N_11  and  CA_12 
REMARK    8  A    between atoms: CA_12  and  C_13 
REMARK       I    between atoms: C_13  and  N_15 
REMARK    9  A    between atoms: N_15  and  CA_16 
REMARK   10  A    between atoms: CA_16  and  C_17 
REMARK   11  A    between atoms: CA_16  and  CB_19 
REMARK       I    between atoms: C_17  and  N_23 
REMARK   12  A    between atoms: CB_19  and  CG1_20 
REMARK   13  A    between atoms: CB_19  and  CG2_21 
REMARK   14  A    between atoms: CG1_20  and  CD1_22 
REMARK   15  A    between atoms: N_23  and  CA_24 
REMARK   16  A    between atoms: CA_24  and  C_25 
REMARK       I    between atoms: C_25  and  N_27 
REMARK   17  A    between atoms: N_27  and  CA_28 
REMARK   18  A    between atoms: CA_28  and  C_29 
REMARK   19  A    between atoms: CA_28  and  CB_31 
REMARK       I    between atoms: C_29  and  N_35 
REMARK   20  A    between atoms: CB_31  and  CG1_32 
REMARK   21  A    between atoms: CB_31  and  CG2_33 
REMARK   22  A    between atoms: CG1_32  and  CD1_34 
REMARK   23  A    between atoms: N_35  and  CA_36 
REMARK   24  A    between atoms: CA_36  and  C_37 
REMARK   25  A    between atoms: CA_36  and  CB_39 
REMARK       I    between atoms: C_37  and  N_43 
REMARK   26  A    between atoms: CB_39  and  CG_40 
REMARK   27  A    between atoms: CG_40  and  CD1_41 
REMARK   28  A    between atoms: CG_40  and  CD2_42 
REMARK   29  A    between atoms: N_43  and  CA_44 
REMARK   30  A    between atoms: CA_44  and  C_45 
REMARK   31  A    between atoms: CA_44  and  CB_47 
REMARK       I    between atoms: C_45  and  N_50 
REMARK   32  A    between atoms: CB_47  and  OG1_48 
REMARK   33  A    between atoms: CB_47  and  CG2_49 
REMARK   34  A    between atoms: N_50  and  CA_51 
REMARK   35  A    between atoms: CA_51  and  C_52 
REMARK   36  A    between atoms: CA_51  and  CB_54 
REMARK   37  A    between atoms: CB_54  and  CG1_55 
REMARK   38  A    between atoms: CB_54  and  CG2_56 
ROOT
ATOM      1  CA  ALA d   1      51.659  -0.730  28.352  0.00  0.00     0.092 C 
ATOM      2  H31 ALA d   1      52.749  -0.802  28.226  0.00  0.00     0.088 H 
ENDROOT
BRANCH   1   3
ATOM      3  N   ALA d   1      51.358  -0.775  29.767  0.00  0.00    -0.346 N 
ATOM      4  C   ALA d   1      52.322  -0.608  30.660  0.00  0.00     0.236 C 
ATOM      5  O   ALA d   1      53.488  -0.406  30.321  0.00  0.00    -0.272 OA
ATOM      6  H30 ALA d   1      50.419  -0.933  30.072  0.00  0.00     0.163 HD
BRANCH   4   7
ATOM      7  CA  ALA d   1      51.921  -0.667  32.136  0.00  0.00     0.069 C 
ATOM      8  H28 ALA d   1      52.511  -1.460  32.618  0.00  0.00     0.078 H 
ATOM      9  H29 ALA d   1      52.165   0.302  32.595  0.00  0.00     0.078 H 
BRANCH   7  10
ATOM     10  N   ALA d   1      50.503  -0.942  32.383  0.00  0.00    -0.351 N 
ATOM     11  C   ALA d   1      50.035  -2.180  32.389  0.00  0.00     0.241 C 
ATOM     12  O   ALA d   1      50.745  -3.144  32.165  0.00  0.00    -0.271 OA
ATOM     13  H27 ALA d   1      49.877  -0.180  32.550  0.00  0.00     0.163 HD
BRANCH  11  14
ATOM     14  CA  ALA d   1      48.551  -2.363  32.681  0.00  0.00     0.092 C 
ATOM     15  H17 ALA d   1      47.981  -1.777  31.945  0.00  0.00     0.088 H 
BRANCH  14  16
ATOM     16  N   ALA d   1      48.126  -3.764  32.549  0.00  0.00    -0.346 N 
ATOM     17  C   ALA d   1      47.153  -4.117  31.710  0.00  0.00     0.236 C 
ATOM     18  O   ALA d   1      46.458  -3.299  31.146  0.00  0.00    -0.272 OA
ATOM     19  H16 ALA d   1      48.576  -4.466  33.100  0.00  0.00     0.163 HD
BRANCH  17  20
ATOM     20  CA  ALA d   1      46.904  -5.595  31.493  0.00  0.00     0.069 C 
ATOM     21  H14 ALA d   1      46.283  -5.968  32.321  0.00  0.00     0.078 H 
ATOM     22  H15 ALA d   1      46.364  -5.721  30.543  0.00  0.00     0.078 H 
BRANCH  20  23
ATOM     23  N   ALA d   1      48.121  -6.386  31.438  0.00  0.00    -0.351 N 
ATOM     24  C   ALA d   1      48.709  -6.695  30.285  0.00  0.00     0.240 C 
ATOM     25  O   ALA d   1      48.204  -6.452  29.196  0.00  0.00    -0.271 OA
ATOM     26  H13 ALA d   1      48.529  -6.708  32.292  0.00  0.00     0.163 HD
BRANCH  24  27
ATOM     27  CA  ALA d   1      50.062  -7.407  30.370  0.00  0.00     0.086 C 
ATOM     28  H9  ALA d   1      50.061  -8.032  31.275  0.00  0.00     0.086 H 
BRANCH  27  29
ATOM     29  N   ALA d   1      50.253  -8.279  29.218  0.00  0.00    -0.346 N 
ATOM     30  C   ALA d   1      49.533  -9.394  29.104  0.00  0.00     0.248 C 
ATOM     31  O   ALA d   1      48.619  -9.670  29.880  0.00  0.00    -0.271 OA
ATOM     32  H8  ALA d   1      50.923  -8.041  28.515  0.00  0.00     0.163 HD
BRANCH  30  33
ATOM     33  CA  ALA d   1      49.882 -10.363  27.987  0.00  0.00     0.172 C 
ATOM     34  H4  ALA d   1      50.724  -9.965  27.402  0.00  0.00     0.098 H 
BRANCH  33  35
ATOM     35  N   ALA d   1      50.275 -11.654  28.619  0.00  0.00    -0.067 N 
ATOM     36  H1  ALA d   1      50.513 -12.320  27.901  0.00  0.00     0.275 HD
ATOM     37  H2  ALA d   1      49.505 -12.009  29.165  0.00  0.00     0.275 HD
ATOM     38  H3  ALA d   1      51.072 -11.506  29.218  0.00  0.00     0.275 HD
ENDBRANCH  33  35
BRANCH  33  39
ATOM     39  CB  ALA d   1      48.698 -10.567  27.072  0.00  0.00    -0.042 C 
ATOM     40  H5  ALA d   1      48.419  -9.607  26.613  0.00  0.00     0.030 H 
ATOM     41  H6  ALA d   1      47.849 -10.956  27.653  0.00  0.00     0.030 H 
ATOM     42  H7  ALA d   1      48.964 -11.287  26.284  0.00  0.00     0.030 H 
ENDBRANCH  33  39
ENDBRANCH  30  33
ENDBRANCH  27  29
BRANCH  27  43
ATOM     43  CB  ALA d   1      51.209  -6.406  30.492  0.00  0.00    -0.049 C 
ATOM     44  H10 ALA d   1      51.041  -5.761  31.367  0.00  0.00     0.030 H 
ATOM     45  H11 ALA d   1      51.254  -5.787  29.584  0.00  0.00     0.030 H 
ATOM     46  H12 ALA d   1      52.158  -6.949  30.613  0.00  0.00     0.030 H 
ENDBRANCH  27  43
ENDBRANCH  24  27
ENDBRANCH  20  23
ENDBRANCH  17  20
ENDBRANCH  14  16
BRANCH  14  47
ATOM     47  CB  ALA d   1      48.263  -1.789  34.072  0.00  0.00    -0.030 C 
ATOM     48  H18 ALA d   1      48.605  -0.744  34.092  0.00  0.00     0.043 H 
BRANCH  47  49
ATOM     49  CG1 ALA d   1      49.012  -2.557  35.149  0.00  0.00    -0.063 C 
ATOM     50  H19 ALA d   1      50.070  -2.637  34.858  0.00  0.00     0.033 H 
ATOM     51  H20 ALA d   1      48.578  -3.564  35.235  0.00  0.00     0.033 H 
BRANCH  49  52
ATOM     52  CD1 ALA d   1      48.926  -1.879  36.479  0.00  0.00    -0.076 C 
ATOM     53  H24 ALA d   1      49.480  -2.466  37.226  0.00  0.00     0.027 H 
ATOM     54  H25 ALA d   1      47.872  -1.800  36.783  0.00  0.00     0.027 H 
ATOM     55  H26 ALA d   1      49.364  -0.872  36.406  0.00  0.00     0.027 H 
ENDBRANCH  49  52
ENDBRANCH  47  49
BRANCH  47  56
ATOM     56  CG2 ALA d   1      46.784  -1.813  34.347  0.00  0.00    -0.071 C 
ATOM     57  H21 ALA d   1      46.256  -1.254  33.560  0.00  0.00     0.028 H 
ATOM     58  H22 ALA d   1      46.585  -1.348  35.324  0.00  0.00     0.028 H 
ATOM     59  H23 ALA d   1      46.430  -2.854  34.358  0.00  0.00     0.028 H 
ENDBRANCH  47  56
ENDBRANCH  14  47
ENDBRANCH  11  14
ENDBRANCH   7  10
ENDBRANCH   4   7
ENDBRANCH   1   3
BRANCH   1  60
ATOM     60  C   ALA d   1      51.188   0.588  27.737  0.00  0.00     0.241 C 
ATOM     61  O   ALA d   1      50.074   0.664  27.234  0.00  0.00    -0.271 OA
ATOM     62  N   ALA d   1      52.032   1.623  27.780  0.00  0.00    -0.346 N 
ATOM     63  H41 ALA d   1      52.934   1.501  28.194  0.00  0.00     0.163 HD
BRANCH  62  64
ATOM     64  CA  ALA d   1      51.660   2.951  27.227  0.00  0.00     0.089 C 
ATOM     65  H42 ALA d   1      50.573   2.984  27.063  0.00  0.00     0.087 H 
BRANCH  64  66
ATOM     66  C   ALA d   1      52.369   3.143  25.929  0.00  0.00     0.241 C 
ATOM     67  O   ALA d   1      53.178   2.314  25.586  0.00  0.00    -0.271 OA
ATOM     68  N   ALA d   1      52.074   4.210  25.194  0.00  0.00    -0.344 N 
ATOM     69  H52 ALA d   1      51.363   4.838  25.511  0.00  0.00     0.163 HD
BRANCH  68  70
ATOM     70  CA  ALA d   1      52.764   4.492  23.930  0.00  0.00     0.113 C 
ATOM     71  H53 ALA d   1      52.859   3.564  23.347  0.00  0.00     0.091 H 
BRANCH  70  72
ATOM     72  C   ALA d   1      54.133   5.044  24.276  0.00  0.00     0.243 C 
ATOM     73  O   ALA d   1      54.527   5.008  25.433  0.00  0.00    -0.271 OA
ATOM     74  N   ALA d   1      54.845   5.583  23.293  0.00  0.00    -0.344 N 
ATOM     75  H59 ALA d   1      54.417   5.694  22.396  0.00  0.00     0.163 HD
BRANCH  74  76
ATOM     76  CA  ALA d   1      56.236   6.023  23.469  0.00  0.00     0.099 C 
ATOM     77  H60 ALA d   1      56.555   5.765  24.490  0.00  0.00     0.090 H 
BRANCH  76  78
ATOM     78  C   ALA d   1      56.399   7.563  23.291  0.00  0.00     0.197 C 
ATOM     79  O   ALA d   1      57.427   8.196  23.599  0.00  0.00    -0.646 OA
ATOM     80  OXT ALA d   1      55.486   8.255  22.811  0.00  0.00    -0.646 OA
ENDBRANCH  76  78
BRANCH  76  81
ATOM     81  CB  ALA d   1      57.127   5.248  22.458  0.00  0.00    -0.032 C 
ATOM     82  H61 ALA d   1      56.772   5.473  21.442  0.00  0.00     0.042 H 
BRANCH  81  83
ATOM     83  CG1 ALA d   1      58.547   5.666  22.565  0.00  0.00    -0.071 C 
ATOM     84  H62 ALA d   1      59.151   5.102  21.839  0.00  0.00     0.028 H 
ATOM     85  H63 ALA d   1      58.913   5.464  23.582  0.00  0.00     0.028 H 
ATOM     86  H64 ALA d   1      58.630   6.742  22.353  0.00  0.00     0.028 H 
ENDBRANCH  81  83
BRANCH  81  87
ATOM     87  CG2 ALA d   1      57.020   3.745  22.689  0.00  0.00    -0.071 C 
ATOM     88  H65 ALA d   1      55.967   3.436  22.610  0.00  0.00     0.028 H 
ATOM     89  H66 ALA d   1      57.399   3.500  23.692  0.00  0.00     0.028 H 
ATOM     90  H67 ALA d   1      57.616   3.214  21.932  0.00  0.00     0.028 H 
ENDBRANCH  81  87
ENDBRANCH  76  81
ENDBRANCH  74  76
ENDBRANCH  70  72
BRANCH  70  91
ATOM     91  CB  ALA d   1      52.034   5.546  23.098  0.00  0.00     0.060 C 
ATOM     92  H54 ALA d   1      52.583   5.702  22.158  0.00  0.00     0.086 H 
BRANCH  91  93
ATOM     93  OG1 ALA d   1      51.985   6.768  23.827  0.00  0.00    -0.393 OA
ATOM     94  H55 ALA d   1      51.532   7.425  23.312  0.00  0.00     0.210 HD
ENDBRANCH  91  93
BRANCH  91  95
ATOM     95  CG2 ALA d   1      50.641   5.118  22.782  0.00  0.00    -0.050 C 
ATOM     96  H56 ALA d   1      50.145   5.897  22.184  0.00  0.00     0.031 H 
ATOM     97  H57 ALA d   1      50.084   4.963  23.718  0.00  0.00     0.031 H 
ATOM     98  H58 ALA d   1      50.667   4.178  22.211  0.00  0.00     0.031 H 
ENDBRANCH  91  95
ENDBRANCH  70  91
ENDBRANCH  68  70
ENDBRANCH  64  66
BRANCH  64  99
ATOM     99  CB  ALA d   1      52.062   4.087  28.192  0.00  0.00    -0.035 C 
ATOM    100  H43 ALA d   1      51.998   5.037  27.641  0.00  0.00     0.037 H 
ATOM    101  H44 ALA d   1      53.103   3.914  28.504  0.00  0.00     0.037 H 
BRANCH  99 102
ATOM    102  CG  ALA d   1      51.201   4.218  29.466  0.00  0.00    -0.059 C 
ATOM    103  H45 ALA d   1      51.662   4.974  30.119  0.00  0.00     0.038 H 
BRANCH 102 104
ATOM    104  CD1 ALA d   1      49.764   4.679  29.112  0.00  0.00    -0.073 C 
ATOM    105  H46 ALA d   1      49.169   4.765  30.033  0.00  0.00     0.028 H 
ATOM    106  H47 ALA d   1      49.297   3.942  28.442  0.00  0.00     0.028 H 
ATOM    107  H48 ALA d   1      49.806   5.657  28.610  0.00  0.00     0.028 H 
ENDBRANCH 102 104
BRANCH 102 108
ATOM    108  CD2 ALA d   1      51.140   2.875  30.235  0.00  0.00    -0.073 C 
ATOM    109  H49 ALA d   1      52.160   2.549  30.485  0.00  0.00     0.028 H 
ATOM    110  H50 ALA d   1      50.656   2.114  29.605  0.00  0.00     0.028 H 
ATOM    111  H51 ALA d   1      50.560   3.008  31.160  0.00  0.00     0.028 H 
ENDBRANCH 102 108
ENDBRANCH  99 102
ENDBRANCH  64  99
ENDBRANCH  62  64
ENDBRANCH   1  60
BRANCH   1 112
ATOM    112  CB  ALA d   1      51.005  -1.919  27.634  0.00  0.00    -0.030 C 
ATOM    113  H32 ALA d   1      49.922  -1.895  27.825  0.00  0.00     0.043 H 
BRANCH 112 114
ATOM    114  CG1 ALA d   1      51.573  -3.233  28.169  0.00  0.00    -0.063 C 
ATOM    115  H33 ALA d   1      50.886  -4.047  27.895  0.00  0.00     0.033 H 
ATOM    116  H34 ALA d   1      51.640  -3.163  29.265  0.00  0.00     0.033 H 
BRANCH 114 117
ATOM    117  CD1 ALA d   1      52.955  -3.562  27.621  0.00  0.00    -0.076 C 
ATOM    118  H38 ALA d   1      53.300  -4.516  28.046  0.00  0.00     0.027 H 
ATOM    119  H39 ALA d   1      53.658  -2.762  27.896  0.00  0.00     0.027 H 
ATOM    120  H40 ALA d   1      52.905  -3.646  26.525  0.00  0.00     0.027 H 
ENDBRANCH 114 117
ENDBRANCH 112 114
BRANCH 112 121
ATOM    121  CG2 ALA d   1      51.242  -1.829  26.125  0.00  0.00    -0.071 C 
ATOM    122  H35 ALA d   1      50.831  -0.882  25.745  0.00  0.00     0.028 H 
ATOM    123  H36 ALA d   1      50.743  -2.672  25.625  0.00  0.00     0.028 H 
ATOM    124  H37 ALA d   1      52.322  -1.869  25.920  0.00  0.00     0.028 H 
ENDBRANCH 112 121
ENDBRANCH   1 112
TORSDOF 38
