REMARK  7 active torsions:
REMARK  status: ('A' for Active; 'I' for Inactive)
REMARK    1  A    between atoms: C1_1  and  N24_25 
REMARK    2  A    between atoms: C11_4  and  C15_7 
REMARK    3  A    between atoms: C11_4  and  C31_31 
REMARK    4  A    between atoms: C8_19  and  C14_6 
REMARK    5  A    between atoms: C18_9  and  C26_14 
REMARK    6  A    between atoms: C23_13  and  C21_12 
REMARK       I    between atoms: N24_25  and  C23_13 
REMARK    7  A    between atoms: C5_16  and  C8_19 
ROOT
ATOM      1  C1  BUH d   1      28.883  77.173  20.927  0.00  0.00     0.131 A 
ATOM      2  C2  BUH d   1      29.810  77.775  21.807  0.00  0.00    -0.036 A 
ATOM      3  C3  BUH d   1      30.600  76.938  22.590  0.00  0.00    -0.040 A 
ATOM      4  C4  BUH d   1      30.442  75.565  22.486  0.00  0.00     0.143 A 
ATOM      5  C5  BUH d   1      29.440  75.004  21.647  0.00  0.00     0.105 A 
ATOM      6  N6  BUH d   1      28.709  75.858  20.915  0.00  0.00    -0.230 NA
ATOM      7  F7  BUH d   1      31.181  74.767  23.238  0.00  0.00    -0.204 F 
ATOM      8  H1  BUH d   1      29.903  78.853  21.870  0.00  0.00     0.089 H 
ATOM      9  H2  BUH d   1      31.331  77.355  23.273  0.00  0.00     0.088 H 
ENDROOT
BRANCH   5  10
ATOM     10  C8  BUH d   1      29.163  73.501  21.515  0.00  0.00     0.097 C 
ATOM     11  C13 BUH d   1      30.405  72.818  20.902  0.00  0.00     0.050 C 
ATOM     12  O12 BUH d   1      30.521  73.359  19.569  0.00  0.00    -0.361 OA
ATOM     13  H3  BUH d   1      30.265  71.728  20.864  0.00  0.00     0.078 H 
ATOM     14  H4  BUH d   1      31.303  73.052  21.492  0.00  0.00     0.078 H 
ATOM     15  C11 BUH d   1      29.436  73.180  18.651  0.00  0.00     0.212 C 
ATOM     16  C10 BUH d   1      28.093  73.133  19.407  0.00  0.00     0.116 C 
ATOM     17  N9  BUH d   1      27.980  73.295  20.674  0.00  0.00    -0.361 N 
ATOM     18  N16 BUH d   1      26.976  72.933  18.727  0.00  0.00    -0.386 N 
ATOM     19  H13 BUH d   1      27.045  73.280  21.107  0.00  0.00     0.162 HD
ATOM     20  H14 BUH d   1      26.072  72.899  19.220  0.00  0.00     0.157 HD
ATOM     21  H15 BUH d   1      27.010  72.811  17.705  0.00  0.00     0.157 HD
BRANCH  15  22
ATOM     22  C15 BUH d   1      29.505  74.379  17.650  0.00  0.00    -0.032 C 
ATOM     23  H8  BUH d   1      30.477  74.372  17.136  0.00  0.00     0.032 H 
ATOM     24  H9  BUH d   1      29.389  75.324  18.201  0.00  0.00     0.032 H 
ATOM     25  H10 BUH d   1      28.698  74.285  16.909  0.00  0.00     0.032 H 
ENDBRANCH  15  22
BRANCH  15  26
ATOM     26  C31 BUH d   1      29.733  71.833  17.970  0.00  0.00     0.425 C 
ATOM     27  F32 BUH d   1      28.919  71.728  16.899  0.00  0.00    -0.167 F 
ATOM     28  F33 BUH d   1      31.019  71.863  17.520  0.00  0.00    -0.167 F 
ATOM     29  F34 BUH d   1      29.511  70.806  18.826  0.00  0.00    -0.167 F 
ENDBRANCH  15  26
BRANCH  10  30
ATOM     30  C14 BUH d   1      28.825  72.929  22.925  0.00  0.00    -0.045 C 
ATOM     31  H5  BUH d   1      27.937  73.441  23.325  0.00  0.00     0.031 H 
ATOM     32  H6  BUH d   1      29.677  73.092  23.601  0.00  0.00     0.031 H 
ATOM     33  H7  BUH d   1      28.622  71.851  22.844  0.00  0.00     0.031 H 
ENDBRANCH  10  30
ENDBRANCH   5  10
BRANCH   1  34
ATOM     34  N24 BUH d   1      28.065  77.909  20.062  0.00  0.00    -0.306 N 
ATOM     35  C23 BUH d   1      28.064  79.229  19.860  0.00  0.00     0.277 C 
ATOM     36  O25 BUH d   1      28.723  80.045  20.499  0.00  0.00    -0.266 OA
ATOM     37  H16 BUH d   1      27.401  77.383  19.531  0.00  0.00     0.170 HD
BRANCH  35  38
ATOM     38  C21 BUH d   1      27.134  79.738  18.824  0.00  0.00     0.146 A 
ATOM     39  C20 BUH d   1      27.451  80.776  17.933  0.00  0.00     0.069 A 
ATOM     40  C19 BUH d   1      26.519  81.176  16.992  0.00  0.00    -0.043 A 
ATOM     41 CL   BUH d   1      29.031  81.550  17.940  0.00  0.00    -0.082 Cl
ATOM     42  C18 BUH d   1      25.279  80.531  16.996  0.00  0.00     0.067 A 
ATOM     43  H12 BUH d   1      26.742  81.961  16.278  0.00  0.00     0.087 H 
ATOM     44  C17 BUH d   1      25.014  79.520  17.901  0.00  0.00     0.018 A 
ATOM     45  N22 BUH d   1      25.926  79.143  18.799  0.00  0.00    -0.253 NA
ATOM     46  H11 BUH d   1      24.050  79.025  17.881  0.00  0.00     0.116 H 
BRANCH  42  47
ATOM     47  C26 BUH d   1      24.216  80.928  16.020  0.00  0.00     0.418 C 
ATOM     48  F28 BUH d   1      23.024  80.950  16.618  0.00  0.00    -0.166 F 
ATOM     49  F29 BUH d   1      24.477  82.116  15.450  0.00  0.00    -0.166 F 
ATOM     50  F30 BUH d   1      24.139  79.964  15.088  0.00  0.00    -0.166 F 
ENDBRANCH  42  47
ENDBRANCH  35  38
ENDBRANCH   1  34
TORSDOF 7
