REMARK WARNING: 32 MAX_TORS EXCEEDED!!!
REMARK  37 active torsions:
REMARK  status: ('A' for Active; 'I' for Inactive)
REMARK       I    between atoms: N4_27  and  C1_1 
REMARK    1  A    between atoms: C1_1  and  O4_29 
REMARK    2  A    between atoms: C2_2  and  C4_4 
REMARK    3  A    between atoms: N6_41  and  C2_2 
REMARK    4  A    between atoms: O4_29  and  C3_3 
REMARK    5  A    between atoms: C3_3  and  C22_30 
REMARK    6  A    between atoms: C4_4  and  C32_42 
REMARK    7  A    between atoms: N5_40  and  C5_5 
REMARK    8  A    between atoms: C5_5  and  S1_45 
REMARK    9  A    between atoms: C14_15  and  C13_14 
REMARK   10  A    between atoms: C15_16  and  C14_15 
REMARK   11  A    between atoms: C15_16  and  C16_17 
REMARK   12  A    between atoms: N3_23  and  C15_16 
REMARK       I    between atoms: C16_17  and  N2_19 
REMARK   13  A    between atoms: N2_19  and  C17_20 
REMARK   14  A    between atoms: C17_20  and  C18_21 
REMARK   15  A    between atoms: C17_20  and  C19_22 
REMARK       I    between atoms: C20_24  and  N3_23 
REMARK   16  A    between atoms: C21_26  and  C20_24 
REMARK   17  A    between atoms: C21_26  and  N4_27 
REMARK   18  A    between atoms: C28_36  and  C21_26 
REMARK   19  A    between atoms: C29_37  and  C28_36 
REMARK   20  A    between atoms: C30_38  and  C29_37 
REMARK   21  A    between atoms: C31_39  and  C30_38 
REMARK   22  A    between atoms: C31_39  and  N5_40 
REMARK   23  A    between atoms: S1_45  and  C33_46 
REMARK   24  A    between atoms: C34_48  and  O8_49 
REMARK   25  A    between atoms: C35_50  and  O9_51 
REMARK   26  A    between atoms: C36_52  and  C37_53 
REMARK   27  A    between atoms: C37_53  and  O10_54 
REMARK   28  A    between atoms: O10_54  and  P1_55 
REMARK   29  A    between atoms: P1_55  and  O13_58 
REMARK   30  A    between atoms: O13_58  and  P2_59 
REMARK   31  A    between atoms: P2_59  and  O16_62 
REMARK   32  A    between atoms: O16_62  and  C38_63 
REMARK   33  A    between atoms: C38_63  and  C39_64 
REMARK   34  A    between atoms: C40_66  and  O18_67 
REMARK   35  A    between atoms: C41_68  and  O19_69 
REMARK   36  A    between atoms: C42_70  and  N7_71 
REMARK   37  A    between atoms: C47_79  and  N11_80 
ROOT
ATOM      1  C31 BV8 d   1       8.328   9.108  -2.565  0.00  0.00     0.018 C 
ATOM      2  H38 BV8 d   1       7.492   9.769  -2.295  0.00  0.00     0.067 H 
ATOM      3  H39 BV8 d   1       8.173   8.117  -2.113  0.00  0.00     0.067 H 
ENDROOT
BRANCH   1   4
ATOM      4  C30 BV8 d   1       9.615   9.699  -2.017  0.00  0.00    -0.048 C 
ATOM      5  H36 BV8 d   1      10.420   8.958  -2.128  0.00  0.00     0.035 H 
ATOM      6  H37 BV8 d   1       9.865  10.601  -2.595  0.00  0.00     0.035 H 
BRANCH   4   7
ATOM      7  C29 BV8 d   1       9.497  10.065  -0.589  0.00  0.00    -0.061 C 
ATOM      8  H34 BV8 d   1      10.272  10.803  -0.334  0.00  0.00     0.033 H 
ATOM      9  H35 BV8 d   1       8.503  10.498  -0.403  0.00  0.00     0.033 H 
BRANCH   7  10
ATOM     10  C28 BV8 d   1       9.678   8.822   0.270  0.00  0.00    -0.038 C 
ATOM     11  H32 BV8 d   1       8.848   8.129   0.068  0.00  0.00     0.036 H 
ATOM     12  H33 BV8 d   1      10.631   8.342   0.001  0.00  0.00     0.036 H 
BRANCH  10  13
ATOM     13  C21 BV8 d   1       9.696   9.163   1.844  0.00  0.00     0.091 C 
ATOM     14  H25 BV8 d   1      10.444   9.944   2.045  0.00  0.00     0.087 H 
BRANCH  13  15
ATOM     15  C20 BV8 d   1       8.331   9.613   2.307  0.00  0.00     0.241 C 
ATOM     16  N3  BV8 d   1       8.149  10.895   2.600  0.00  0.00    -0.346 N 
ATOM     17  H24 BV8 d   1       8.886  11.544   2.411  0.00  0.00     0.163 HD
ATOM     18  O2  BV8 d   1       7.375   8.868   2.282  0.00  0.00    -0.271 OA
BRANCH  16  19
ATOM     19  C15 BV8 d   1       6.903  11.388   3.192  0.00  0.00     0.093 C 
ATOM     20  H15 BV8 d   1       6.068  10.758   2.852  0.00  0.00     0.088 H 
BRANCH  19  21
ATOM     21  C14 BV8 d   1       7.002  11.334   4.774  0.00  0.00    -0.012 C 
ATOM     22  H13 BV8 d   1       6.970  10.279   5.084  0.00  0.00     0.044 H 
ATOM     23  H14 BV8 d   1       7.965  11.775   5.072  0.00  0.00     0.044 H 
BRANCH  21  24
ATOM     24  C13 BV8 d   1       5.870  12.092   5.520  0.00  0.00    -0.028 A 
ATOM     25  C10 BV8 d   1       5.771  13.401   5.923  0.00  0.00    -0.002 A 
ATOM     26  C9  BV8 d   1       6.579  14.477   5.806  0.00  0.00    -0.070 A 
ATOM     27  C11 BV8 d   1       4.516  13.490   6.561  0.00  0.00     0.042 A 
ATOM     28  C8  BV8 d   1       6.147  15.729   6.395  0.00  0.00    -0.082 A 
ATOM     29  H10 BV8 d   1       7.527  14.406   5.285  0.00  0.00     0.084 H 
ATOM     30  C7  BV8 d   1       4.885  15.774   7.020  0.00  0.00    -0.081 A 
ATOM     31  H9  BV8 d   1       6.779  16.609   6.356  0.00  0.00     0.083 H 
ATOM     32  C6  BV8 d   1       4.100  14.653   7.101  0.00  0.00    -0.056 A 
ATOM     33  H8  BV8 d   1       4.530  16.707   7.442  0.00  0.00     0.083 H 
ATOM     34  H7  BV8 d   1       3.140  14.702   7.602  0.00  0.00     0.086 H 
ATOM     35  N1  BV8 d   1       3.936  12.240   6.498  0.00  0.00    -0.365 N 
ATOM     36  C12 BV8 d   1       4.769  11.422   5.877  0.00  0.00    -0.015 A 
ATOM     37  H11 BV8 d   1       3.010  11.986   6.872  0.00  0.00     0.165 HD
ATOM     38  H12 BV8 d   1       4.587  10.366   5.686  0.00  0.00     0.112 H 
ENDBRANCH  21  24
ENDBRANCH  19  21
BRANCH  19  39
ATOM     39  C16 BV8 d   1       6.650  12.833   2.779  0.00  0.00     0.241 C 
ATOM     40  O1  BV8 d   1       7.568  13.650   2.708  0.00  0.00    -0.271 OA
ATOM     41  N2  BV8 d   1       5.384  13.140   2.583  0.00  0.00    -0.355 N 
ATOM     42  H16 BV8 d   1       4.684  12.438   2.716  0.00  0.00     0.162 HD
BRANCH  41  43
ATOM     43  C17 BV8 d   1       4.983  14.481   2.177  0.00  0.00     0.005 C 
ATOM     44  H17 BV8 d   1       5.831  14.964   1.669  0.00  0.00     0.071 H 
BRANCH  43  45
ATOM     45  C18 BV8 d   1       4.506  15.434   3.308  0.00  0.00    -0.058 C 
ATOM     46  H18 BV8 d   1       4.233  16.408   2.876  0.00  0.00     0.030 H 
ATOM     47  H19 BV8 d   1       5.317  15.571   4.038  0.00  0.00     0.030 H 
ATOM     48  H20 BV8 d   1       3.630  14.998   3.810  0.00  0.00     0.030 H 
ENDBRANCH  43  45
BRANCH  43  49
ATOM     49  C19 BV8 d   1       3.848  14.247   1.193  0.00  0.00    -0.058 C 
ATOM     50  H21 BV8 d   1       3.475  15.215   0.827  0.00  0.00     0.030 H 
ATOM     51  H22 BV8 d   1       3.033  13.706   1.696  0.00  0.00     0.030 H 
ATOM     52  H23 BV8 d   1       4.215  13.651   0.345  0.00  0.00     0.030 H 
ENDBRANCH  43  49
ENDBRANCH  41  43
ENDBRANCH  19  39
ENDBRANCH  16  19
ENDBRANCH  13  15
BRANCH  13  53
ATOM     53  N4  BV8 d   1      10.000   7.970   2.590  0.00  0.00    -0.324 N 
ATOM     54  C1  BV8 d   1       9.880   7.809   3.926  0.00  0.00     0.361 C 
ATOM     55  O3  BV8 d   1       9.455   8.728   4.634  0.00  0.00    -0.238 OA
ATOM     56  H26 BV8 d   1      10.332   7.184   2.069  0.00  0.00     0.165 HD
BRANCH  54  57
ATOM     57  O4  BV8 d   1      10.185   6.609   4.378  0.00  0.00    -0.299 OA
BRANCH  57  58
ATOM     58  C3  BV8 d   1      10.284   6.540   5.837  0.00  0.00     0.054 C 
ATOM     59  H3  BV8 d   1       9.295   6.308   6.258  0.00  0.00     0.082 H 
ATOM     60  H4  BV8 d   1      10.629   7.510   6.225  0.00  0.00     0.082 H 
BRANCH  58  61
ATOM     61  C22 BV8 d   1      11.221   5.511   6.221  0.00  0.00    -0.034 A 
ATOM     62  C23 BV8 d   1      12.466   5.876   6.623  0.00  0.00    -0.075 A 
ATOM     63  C24 BV8 d   1      13.421   4.958   7.036  0.00  0.00    -0.082 A 
ATOM     64  H27 BV8 d   1      12.724   6.929   6.621  0.00  0.00     0.084 H 
ATOM     65  C25 BV8 d   1      13.123   3.610   7.012  0.00  0.00    -0.083 A 
ATOM     66  H28 BV8 d   1      14.393   5.296   7.375  0.00  0.00     0.083 H 
ATOM     67  C26 BV8 d   1      11.857   3.212   6.552  0.00  0.00    -0.082 A 
ATOM     68  H29 BV8 d   1      13.850   2.876   7.341  0.00  0.00     0.083 H 
ATOM     69  C27 BV8 d   1      10.917   4.157   6.154  0.00  0.00    -0.075 A 
ATOM     70  H30 BV8 d   1      11.610   2.158   6.507  0.00  0.00     0.083 H 
ATOM     71  H31 BV8 d   1       9.947   3.837   5.791  0.00  0.00     0.084 H 
ENDBRANCH  58  61
ENDBRANCH  57  58
ENDBRANCH  54  57
ENDBRANCH  13  53
ENDBRANCH  10  13
ENDBRANCH   7  10
ENDBRANCH   4   7
ENDBRANCH   1   4
BRANCH   1  72
ATOM     72  N5  BV8 d   1       8.361   8.960  -4.034  0.00  0.00    -0.267 NA
BRANCH  72  73
ATOM     73  C5  BV8 d   1       8.156   9.938  -4.872  0.00  0.00     0.159 C 
ATOM     74  N6  BV8 d   1       8.325   9.738  -6.174  0.00  0.00    -0.369 N 
ATOM     75  H40 BV8 d   1       8.266  10.555  -6.799  0.00  0.00     0.161 HD
BRANCH  74  76
ATOM     76  C2  BV8 d   1       8.588   8.439  -6.774  0.00  0.00     0.003 C 
ATOM     77  H1  BV8 d   1       9.073   8.609  -7.747  0.00  0.00     0.064 H 
ATOM     78  H2  BV8 d   1       9.276   7.894  -6.111  0.00  0.00     0.064 H 
BRANCH  76  79
ATOM     79  C4  BV8 d   1       7.377   7.563  -7.006  0.00  0.00     0.030 C 
ATOM     80  H5  BV8 d   1       6.775   7.565  -6.086  0.00  0.00     0.051 H 
ATOM     81  H6  BV8 d   1       7.731   6.542  -7.210  0.00  0.00     0.051 H 
BRANCH  79  82
ATOM     82  C32 BV8 d   1       6.451   8.000  -8.191  0.00  0.00     0.174 C 
ATOM     83  O5  BV8 d   1       6.642   9.123  -8.726  0.00  0.00    -0.648 OA
ATOM     84  O6  BV8 d   1       5.527   7.175  -8.470  0.00  0.00    -0.648 OA
ENDBRANCH  79  82
ENDBRANCH  76  79
ENDBRANCH  74  76
BRANCH  73  85
ATOM     85  S1  BV8 d   1       7.988  11.505  -4.255  0.00  0.00    -0.058 SA
BRANCH  85  86
ATOM     86  C33 BV8 d   1       7.353  12.422  -5.618  0.00  0.00     0.117 C 
ATOM     87  O7  BV8 d   1       6.551  13.492  -5.061  0.00  0.00    -0.362 OA
ATOM     88  C36 BV8 d   1       7.303  14.740  -5.047  0.00  0.00     0.088 C 
ATOM     89  C35 BV8 d   1       8.676  14.406  -5.657  0.00  0.00     0.090 C 
ATOM     90  H46 BV8 d   1       7.427  15.102  -4.016  0.00  0.00     0.090 H 
ATOM     91  C34 BV8 d   1       8.323  13.206  -6.504  0.00  0.00     0.097 C 
ATOM     92  H44 BV8 d   1       9.046  15.240  -6.271  0.00  0.00     0.091 H 
ATOM     93  H42 BV8 d   1       7.829  13.530  -7.432  0.00  0.00     0.092 H 
ATOM     94  H41 BV8 d   1       6.756  11.743  -6.244  0.00  0.00     0.105 H 
BRANCH  88  95
ATOM     95  C37 BV8 d   1       6.559  15.803  -5.869  0.00  0.00     0.058 C 
ATOM     96  H47 BV8 d   1       5.511  15.883  -5.543  0.00  0.00     0.079 H 
ATOM     97  H48 BV8 d   1       6.592  15.559  -6.941  0.00  0.00     0.079 H 
BRANCH  95  98
ATOM     98  O10 BV8 d   1       7.247  16.987  -5.612  0.00  0.00    -0.287 OA
BRANCH  98  99
ATOM     99  P1  BV8 d   1       7.729  17.934  -6.809  0.00  0.00     0.417 P 
ATOM    100  O11 BV8 d   1       8.600  17.144  -7.717  0.00  0.00    -0.624 OA
ATOM    101  O12 BV8 d   1       8.326  19.067  -6.188  0.00  0.00    -0.624 OA
BRANCH  99 102
ATOM    102  O13 BV8 d   1       6.387  18.193  -7.658  0.00  0.00    -0.180 OA
BRANCH 102 103
ATOM    103  P2  BV8 d   1       5.045  19.035  -7.262  0.00  0.00     0.417 P 
ATOM    104  O14 BV8 d   1       4.113  18.690  -8.306  0.00  0.00    -0.624 OA
ATOM    105  O15 BV8 d   1       4.784  18.878  -5.820  0.00  0.00    -0.624 OA
BRANCH 103 106
ATOM    106  O16 BV8 d   1       5.470  20.578  -7.369  0.00  0.00    -0.287 OA
BRANCH 106 107
ATOM    107  C38 BV8 d   1       5.850  21.076  -8.676  0.00  0.00     0.058 C 
ATOM    108  H49 BV8 d   1       4.970  21.147  -9.332  0.00  0.00     0.079 H 
ATOM    109  H50 BV8 d   1       6.598  20.414  -9.137  0.00  0.00     0.079 H 
BRANCH 107 110
ATOM    110  C39 BV8 d   1       6.452  22.482  -8.424  0.00  0.00     0.089 C 
ATOM    111  O17 BV8 d   1       6.864  23.050  -9.717  0.00  0.00    -0.353 OA
ATOM    112  C42 BV8 d   1       6.349  24.510  -9.728  0.00  0.00     0.139 C 
ATOM    113  C41 BV8 d   1       5.144  24.443  -8.919  0.00  0.00     0.105 C 
ATOM    114  H56 BV8 d   1       7.059  25.220  -9.279  0.00  0.00     0.122 H 
ATOM    115  C40 BV8 d   1       5.494  23.519  -7.724  0.00  0.00     0.091 C 
ATOM    116  H54 BV8 d   1       4.310  24.020  -9.498  0.00  0.00     0.093 H 
ATOM    117  H52 BV8 d   1       4.596  23.043  -7.303  0.00  0.00     0.091 H 
ATOM    118  H51 BV8 d   1       7.338  22.357  -7.784  0.00  0.00     0.090 H 
BRANCH 112 119
ATOM    119  N7  BV8 d   1       6.204  24.793 -11.184  0.00  0.00    -0.294 N 
ATOM    120  C43 BV8 d   1       5.234  24.400 -12.024  0.00  0.00     0.071 A 
ATOM    121  N8  BV8 d   1       5.500  24.690 -13.283  0.00  0.00    -0.236 NA
ATOM    122  H57 BV8 d   1       4.325  23.896 -11.701  0.00  0.00     0.144 H 
ATOM    123  C44 BV8 d   1       6.732  25.275 -13.251  0.00  0.00     0.149 A 
ATOM    124  C45 BV8 d   1       7.128  25.320 -11.940  0.00  0.00     0.167 A 
ATOM    125  C47 BV8 d   1       7.556  25.827 -14.219  0.00  0.00     0.155 A 
ATOM    126  N9  BV8 d   1       8.289  25.804 -11.545  0.00  0.00    -0.222 NA
ATOM    127  C46 BV8 d   1       9.149  26.313 -12.509  0.00  0.00     0.091 A 
ATOM    128  N10 BV8 d   1       8.751  26.260 -13.843  0.00  0.00    -0.222 NA
ATOM    129  H58 BV8 d   1      10.105  26.741 -12.231  0.00  0.00     0.146 H 
BRANCH 125 130
ATOM    130  N11 BV8 d   1       7.208  25.849 -15.549  0.00  0.00    -0.382 N 
ATOM    131  H59 BV8 d   1       7.845  26.268 -16.241  0.00  0.00     0.157 HD
ATOM    132  H60 BV8 d   1       6.310  25.447 -15.853  0.00  0.00     0.157 HD
ENDBRANCH 125 130
ENDBRANCH 112 119
BRANCH 113 133
ATOM    133  O19 BV8 d   1       4.811  25.716  -8.486  0.00  0.00    -0.388 OA
ATOM    134  H55 BV8 d   1       5.546  26.092  -8.016  0.00  0.00     0.210 HD
ENDBRANCH 113 133
BRANCH 115 135
ATOM    135  O18 BV8 d   1       6.224  24.207  -6.683  0.00  0.00    -0.390 OA
ATOM    136  H53 BV8 d   1       5.651  24.834  -6.257  0.00  0.00     0.210 HD
ENDBRANCH 115 135
ENDBRANCH 107 110
ENDBRANCH 106 107
ENDBRANCH 103 106
ENDBRANCH 102 103
ENDBRANCH  99 102
ENDBRANCH  98  99
ENDBRANCH  95  98
ENDBRANCH  88  95
BRANCH  89 137
ATOM    137  O9  BV8 d   1       9.660  14.067  -4.700  0.00  0.00    -0.390 OA
ATOM    138  H45 BV8 d   1       9.869  14.832  -4.178  0.00  0.00     0.210 HD
ENDBRANCH  89 137
BRANCH  91 139
ATOM    139  O8  BV8 d   1       9.459  12.394  -6.844  0.00  0.00    -0.389 OA
ATOM    140  H43 BV8 d   1       9.908  12.131  -6.049  0.00  0.00     0.210 HD
ENDBRANCH  91 139
ENDBRANCH  85  86
ENDBRANCH  73  85
ENDBRANCH  72  73
ENDBRANCH   1  72
TORSDOF 37
