REMARK  17 active torsions:
REMARK  status: ('A' for Active; 'I' for Inactive)
REMARK    1  A    between atoms: C2_2  and  C1_1 
REMARK    2  A    between atoms: O2_15  and  C2_2 
REMARK    3  A    between atoms: C4_4  and  O4_16 
REMARK    4  A    between atoms: C5_5  and  N5_12 
REMARK    5  A    between atoms: C6_6  and  C7_7 
REMARK    6  A    between atoms: C7_7  and  C8_8 
REMARK    7  A    between atoms: C7_7  and  O7_18 
REMARK    8  A    between atoms: C8_8  and  C9_9 
REMARK    9  A    between atoms: C8_8  and  O8_19 
REMARK   10  A    between atoms: C9_9  and  O9_20 
REMARK   11  A    between atoms: C10_10  and  C11_11 
REMARK       I    between atoms: N5_12  and  C10_10 
REMARK   12  A    between atoms: C3_24  and  O2_15 
REMARK   13  A    between atoms: C1_22  and  O1_28 
REMARK   14  A    between atoms: C2_23  and  O2_29 
REMARK   15  A    between atoms: C4_25  and  O4_30 
REMARK   16  A    between atoms: C5_26  and  C6_27 
REMARK   17  A    between atoms: C6_27  and  O6_32 
ROOT
ATOM      1  C2  SIA d   1      56.787   8.269  30.089  0.00  0.00     0.259 C 
ATOM      2  C3  SIA d   1      56.586   9.787  30.140  0.00  0.00     0.024 C 
ATOM      3  C4  SIA d   1      55.297  10.242  29.438  0.00  0.00     0.063 C 
ATOM      4  C5  SIA d   1      54.084   9.440  29.896  0.00  0.00     0.064 C 
ATOM      5  C6  SIA d   1      54.414   7.951  29.783  0.00  0.00     0.091 C 
ATOM      6  O6  SIA d   1      55.595   7.637  30.553  0.00  0.00    -0.336 OA
ATOM      7  H1  SIA d   1      57.443  10.271  29.649  0.00  0.00     0.045 H 
ATOM      8  H2  SIA d   1      56.541  10.100  31.194  0.00  0.00     0.045 H 
ATOM      9  H3  SIA d   1      55.423  10.116  28.353  0.00  0.00     0.086 H 
ATOM     10  H4  SIA d   1      53.870   9.677  30.949  0.00  0.00     0.080 H 
ATOM     11  H5  SIA d   1      54.620   7.735  28.724  0.00  0.00     0.090 H 
ENDROOT
BRANCH   1  12
ATOM     12  C1  SIA d   1      57.172   7.828  28.694  0.00  0.00     0.239 C 
ATOM     13  O1A SIA d   1      58.002   8.532  28.069  0.00  0.00    -0.644 OA
ATOM     14  O1B SIA d   1      56.695   6.748  28.226  0.00  0.00    -0.644 OA
ENDBRANCH   1  12
BRANCH   1  15
ATOM     15  O2  SIA d   1      57.854   7.929  30.999  0.00  0.00    -0.336 OA
BRANCH  15  16
ATOM     16  C3  GAL d   1      58.384   6.699  31.167  0.00  0.00     0.099 C 
ATOM     17  C2  GAL d   1      59.046   6.729  32.553  0.00  0.00     0.110 C 
ATOM     18  C1  GAL d   1      59.752   5.407  32.881  0.00  0.00     0.156 C 
ATOM     19  H19 SIA d   1      59.779   7.548  32.590  0.00  0.00     0.094 H 
ATOM     20  O5  GAL d   1      60.609   5.027  31.819  0.00  0.00    -0.349 OA
ATOM     21  H18 SIA d   1      58.997   4.623  33.041  0.00  0.00     0.133 H 
ATOM     22  C5  GAL d   1      59.944   4.777  30.600  0.00  0.00     0.089 C 
ATOM     23  C4  GAL d   1      59.305   6.072  30.128  0.00  0.00     0.090 C 
ATOM     24  H22 SIA d   1      59.174   4.005  30.745  0.00  0.00     0.090 H 
ATOM     25  H21 SIA d   1      58.719   5.857  29.222  0.00  0.00     0.091 H 
ATOM     26  H20 SIA d   1      57.526   6.013  31.221  0.00  0.00     0.091 H 
BRANCH  17  27
ATOM     27  O2  GAL d   1      58.024   6.950  33.507  0.00  0.00    -0.388 OA
ATOM     28  H26 SIA d   1      57.596   7.778  33.325  0.00  0.00     0.210 HD
ENDBRANCH  17  27
BRANCH  18  29
ATOM     29  O1  GAL d   1      60.532   5.561  34.053  0.00  0.00    -0.369 OA
ATOM     30  H25 SIA d   1      59.970   5.816  34.775  0.00  0.00     0.212 HD
ENDBRANCH  18  29
BRANCH  22  31
ATOM     31  C6  GAL d   1      60.945   4.319  29.545  0.00  0.00     0.043 C 
ATOM     32  H23 SIA d   1      61.859   4.926  29.625  0.00  0.00     0.078 H 
ATOM     33  H24 SIA d   1      60.504   4.450  28.546  0.00  0.00     0.078 H 
BRANCH  31  34
ATOM     34  O6  GAL d   1      61.271   2.966  29.733  0.00  0.00    -0.398 OA
ATOM     35  H28 SIA d   1      61.895   2.696  29.069  0.00  0.00     0.209 HD
ENDBRANCH  31  34
ENDBRANCH  22  31
BRANCH  23  36
ATOM     36  O4  GAL d   1      60.304   7.013  29.824  0.00  0.00    -0.390 OA
ATOM     37  H27 SIA d   1      60.863   6.669  29.137  0.00  0.00     0.210 HD
ENDBRANCH  23  36
ENDBRANCH  15  16
ENDBRANCH   1  15
BRANCH   3  38
ATOM     38  O4  SIA d   1      55.047  11.620  29.734  0.00  0.00    -0.393 OA
ATOM     39  H14 SIA d   1      54.268  11.906  29.271  0.00  0.00     0.210 HD
ENDBRANCH   3  38
BRANCH   5  40
ATOM     40  C7  SIA d   1      53.271   7.042  30.235  0.00  0.00     0.089 C 
ATOM     41  H6  SIA d   1      52.380   7.257  29.627  0.00  0.00     0.091 H 
BRANCH  40  42
ATOM     42  C8  SIA d   1      53.648   5.571  30.077  0.00  0.00     0.083 C 
ATOM     43  H7  SIA d   1      54.254   5.276  30.946  0.00  0.00     0.090 H 
BRANCH  42  44
ATOM     44  C9  SIA d   1      52.404   4.715  30.025  0.00  0.00     0.043 C 
ATOM     45  H8  SIA d   1      52.098   4.544  28.982  0.00  0.00     0.078 H 
ATOM     46  H9  SIA d   1      51.582   5.198  30.574  0.00  0.00     0.078 H 
BRANCH  44  47
ATOM     47  O9  SIA d   1      52.762   3.486  30.646  0.00  0.00    -0.398 OA
ATOM     48  H17 SIA d   1      52.013   2.901  30.643  0.00  0.00     0.209 HD
ENDBRANCH  44  47
ENDBRANCH  42  44
BRANCH  42  49
ATOM     49  O8  SIA d   1      54.399   5.321  28.887  0.00  0.00    -0.391 OA
ATOM     50  H16 SIA d   1      55.189   5.849  28.895  0.00  0.00     0.210 HD
ENDBRANCH  42  49
ENDBRANCH  40  42
BRANCH  40  51
ATOM     51  O7  SIA d   1      52.980   7.279  31.609  0.00  0.00    -0.390 OA
ATOM     52  H15 SIA d   1      53.747   7.079  32.133  0.00  0.00     0.210 HD
ENDBRANCH  40  51
ENDBRANCH   5  40
BRANCH   4  53
ATOM     53  N5  SIA d   1      52.920   9.801  29.093  0.00  0.00    -0.352 N 
ATOM     54  C10 SIA d   1      51.771  10.207  29.626  0.00  0.00     0.214 C 
ATOM     55  O10 SIA d   1      51.514  10.201  30.821  0.00  0.00    -0.274 OA
ATOM     56  H13 SIA d   1      52.989   9.740  28.097  0.00  0.00     0.163 HD
BRANCH  54  57
ATOM     57  C11 SIA d   1      50.754  10.730  28.654  0.00  0.00    -0.003 C 
ATOM     58  H10 SIA d   1      49.849  11.036  29.199  0.00  0.00     0.040 H 
ATOM     59  H11 SIA d   1      50.498   9.941  27.931  0.00  0.00     0.040 H 
ATOM     60  H12 SIA d   1      51.170  11.597  28.119  0.00  0.00     0.040 H 
ENDBRANCH  54  57
ENDBRANCH   4  53
TORSDOF 17
