REMARK  23 active torsions:
REMARK  status: ('A' for Active; 'I' for Inactive)
REMARK    1  A    between atoms: C2_2  and  C1_1 
REMARK    2  A    between atoms: O2_15  and  C2_2 
REMARK    3  A    between atoms: C4_4  and  O4_16 
REMARK    4  A    between atoms: C5_5  and  N5_12 
REMARK    5  A    between atoms: C6_6  and  C7_7 
REMARK    6  A    between atoms: C7_7  and  C8_8 
REMARK    7  A    between atoms: C7_7  and  O7_18 
REMARK    8  A    between atoms: C8_8  and  C9_9 
REMARK    9  A    between atoms: C8_8  and  O8_19 
REMARK   10  A    between atoms: C9_9  and  O9_20 
REMARK   11  A    between atoms: C10_10  and  C11_11 
REMARK       I    between atoms: N5_12  and  C10_10 
REMARK   12  A    between atoms: C6_27  and  O2_15 
REMARK   13  A    between atoms: O1_28  and  C1_22 
REMARK   14  A    between atoms: C2_23  and  O2_29 
REMARK   15  A    between atoms: C3_24  and  O3_30 
REMARK   16  A    between atoms: C4_25  and  O4_31 
REMARK   17  A    between atoms: C5_26  and  C6_27 
REMARK   18  A    between atoms: C4_35  and  O1_28 
REMARK   19  A    between atoms: C2_33  and  O2_40 
REMARK   20  A    between atoms: C3_34  and  O3_41 
REMARK   21  A    between atoms: C5_36  and  C6_37 
REMARK   22  A    between atoms: C6_37  and  O6_43 
REMARK   23  A    between atoms: C1_38  and  O1_39 
ROOT
ATOM      1  H23 SIA d   1      57.772   5.647  30.226  0.00  0.00     0.078 H 
ATOM      2  H24 SIA d   1      58.360   5.904  31.904  0.00  0.00     0.078 H 
ATOM      3  C6  GAL d   1      58.465   6.223  30.856  0.00  0.00     0.050 C 
ENDROOT
BRANCH   3   4
ATOM      4  O2  SIA d   1      58.154   7.625  30.750  0.00  0.00    -0.344 OA
BRANCH   4   5
ATOM      5  C2  SIA d   1      57.189   8.013  29.785  0.00  0.00     0.258 C 
ATOM      6  C3  SIA d   1      57.000   9.535  29.908  0.00  0.00     0.024 C 
ATOM      7  C4  SIA d   1      55.757   9.987  29.159  0.00  0.00     0.063 C 
ATOM      8  H1  SIA d   1      57.880  10.043  29.486  0.00  0.00     0.045 H 
ATOM      9  H2  SIA d   1      56.897   9.801  30.970  0.00  0.00     0.045 H 
ATOM     10  C5  SIA d   1      54.516   9.203  29.612  0.00  0.00     0.064 C 
ATOM     11  H3  SIA d   1      55.897   9.858  28.076  0.00  0.00     0.086 H 
ATOM     12  C6  SIA d   1      54.817   7.712  29.395  0.00  0.00     0.091 C 
ATOM     13  H4  SIA d   1      54.327   9.387  30.680  0.00  0.00     0.080 H 
ATOM     14  O6  SIA d   1      55.979   7.360  30.179  0.00  0.00    -0.336 OA
ATOM     15  H5  SIA d   1      55.024   7.560  28.325  0.00  0.00     0.090 H 
BRANCH   5  16
ATOM     16  C1  SIA d   1      57.640   7.554  28.409  0.00  0.00     0.239 C 
ATOM     17  O1A SIA d   1      58.457   8.256  27.757  0.00  0.00    -0.644 OA
ATOM     18  O1B SIA d   1      57.214   6.455  27.971  0.00  0.00    -0.644 OA
ENDBRANCH   5  16
BRANCH   7  19
ATOM     19  O4  SIA d   1      55.598  11.368  29.485  0.00  0.00    -0.393 OA
ATOM     20  H14 SIA d   1      54.830  11.710  29.043  0.00  0.00     0.210 HD
ENDBRANCH   7  19
BRANCH  10  21
ATOM     21  N5  SIA d   1      53.348   9.638  28.839  0.00  0.00    -0.352 N 
ATOM     22  C10 SIA d   1      52.190   9.861  29.382  0.00  0.00     0.214 C 
ATOM     23  O10 SIA d   1      51.950   9.542  30.556  0.00  0.00    -0.274 OA
ATOM     24  H13 SIA d   1      53.448   9.768  27.852  0.00  0.00     0.163 HD
BRANCH  22  25
ATOM     25  C11 SIA d   1      51.152  10.464  28.491  0.00  0.00    -0.003 C 
ATOM     26  H10 SIA d   1      50.220  10.606  29.058  0.00  0.00     0.040 H 
ATOM     27  H11 SIA d   1      50.965   9.793  27.640  0.00  0.00     0.040 H 
ATOM     28  H12 SIA d   1      51.507  11.437  28.120  0.00  0.00     0.040 H 
ENDBRANCH  22  25
ENDBRANCH  10  21
BRANCH  12  29
ATOM     29  C7  SIA d   1      53.722   6.737  29.818  0.00  0.00     0.089 C 
ATOM     30  H6  SIA d   1      52.861   6.873  29.146  0.00  0.00     0.091 H 
BRANCH  29  31
ATOM     31  C8  SIA d   1      54.192   5.292  29.712  0.00  0.00     0.083 C 
ATOM     32  H7  SIA d   1      54.877   5.087  30.548  0.00  0.00     0.090 H 
BRANCH  31  33
ATOM     33  C9  SIA d   1      53.001   4.363  29.815  0.00  0.00     0.043 C 
ATOM     34  H8  SIA d   1      52.414   4.419  28.886  0.00  0.00     0.078 H 
ATOM     35  H9  SIA d   1      52.373   4.669  30.664  0.00  0.00     0.078 H 
BRANCH  33  36
ATOM     36  O9  SIA d   1      53.442   3.024  30.014  0.00  0.00    -0.398 OA
ATOM     37  H17 SIA d   1      53.948   2.974  30.817  0.00  0.00     0.209 HD
ENDBRANCH  33  36
ENDBRANCH  31  33
BRANCH  31  38
ATOM     38  O8  SIA d   1      54.895   5.043  28.474  0.00  0.00    -0.391 OA
ATOM     39  H16 SIA d   1      55.642   5.627  28.412  0.00  0.00     0.210 HD
ENDBRANCH  31  38
ENDBRANCH  29  31
BRANCH  29  40
ATOM     40  O7  SIA d   1      53.304   7.003  31.152  0.00  0.00    -0.390 OA
ATOM     41  H15 SIA d   1      53.011   7.904  31.217  0.00  0.00     0.210 HD
ENDBRANCH  29  40
ENDBRANCH  12  29
ENDBRANCH   4   5
ENDBRANCH   3   4
BRANCH   3  42
ATOM     42  C5  GAL d   1      59.881   5.976  30.397  0.00  0.00     0.089 C 
ATOM     43  C4  GAL d   1      60.200   4.483  30.433  0.00  0.00     0.090 C 
ATOM     44  C3  GAL d   1      61.645   4.262  30.011  0.00  0.00     0.092 C 
ATOM     45  H21 SIA d   1      59.532   3.935  29.752  0.00  0.00     0.091 H 
ATOM     46  C2  GAL d   1      62.563   5.135  30.859  0.00  0.00     0.110 C 
ATOM     47  H20 SIA d   1      61.755   4.552  28.956  0.00  0.00     0.091 H 
ATOM     48  C1  GAL d   1      62.105   6.590  30.787  0.00  0.00     0.159 C 
ATOM     49  H19 SIA d   1      62.547   4.792  31.904  0.00  0.00     0.094 H 
ATOM     50  O5  GAL d   1      60.786   6.709  31.255  0.00  0.00    -0.348 OA
ATOM     51  H18 SIA d   1      62.178   6.964  29.755  0.00  0.00     0.133 H 
ATOM     52  H22 SIA d   1      59.993   6.337  29.364  0.00  0.00     0.090 H 
BRANCH  43  53
ATOM     53  O4  GAL d   1      59.989   4.044  31.780  0.00  0.00    -0.390 OA
ATOM     54  H27 SIA d   1      60.565   4.526  32.363  0.00  0.00     0.210 HD
ENDBRANCH  43  53
BRANCH  44  55
ATOM     55  O3  GAL d   1      61.997   2.896  30.145  0.00  0.00    -0.390 OA
ATOM     56  H26 SIA d   1      61.896   2.631  31.052  0.00  0.00     0.210 HD
ENDBRANCH  44  55
BRANCH  46  57
ATOM     57  O2  GAL d   1      63.884   5.034  30.332  0.00  0.00    -0.388 OA
ATOM     58  H25 SIA d   1      64.472   5.572  30.849  0.00  0.00     0.210 HD
ENDBRANCH  46  57
BRANCH  48  59
ATOM     59  O1  GAL d   1      62.938   7.335  31.653  0.00  0.00    -0.348 OA
BRANCH  59  60
ATOM     60  C4  BGC d   1      62.851   8.751  31.456  0.00  0.00     0.096 C 
ATOM     61  C3  BGC d   1      62.839   9.361  32.855  0.00  0.00     0.092 C 
ATOM     62  C2  BGC d   1      62.918  10.882  32.706  0.00  0.00     0.110 C 
ATOM     63  H29 SIA d   1      63.714   8.997  33.413  0.00  0.00     0.091 H 
ATOM     64  C1  BGC d   1      64.162  11.268  31.914  0.00  0.00     0.156 C 
ATOM     65  H28 SIA d   1      62.023  11.261  32.191  0.00  0.00     0.094 H 
ATOM     66  O5  BGC d   1      63.990  10.676  30.625  0.00  0.00    -0.349 OA
ATOM     67  H34 SIA d   1      65.081  10.926  32.412  0.00  0.00     0.133 H 
ATOM     68  C5  BGC d   1      64.100   9.256  30.722  0.00  0.00     0.089 C 
ATOM     69  H31 SIA d   1      64.999   8.973  31.289  0.00  0.00     0.090 H 
ATOM     70  H30 SIA d   1      61.942   9.016  30.896  0.00  0.00     0.091 H 
BRANCH  61  71
ATOM     71  O3  BGC d   1      61.653   9.026  33.585  0.00  0.00    -0.390 OA
ATOM     72  H37 SIA d   1      61.689   9.426  34.446  0.00  0.00     0.210 HD
ENDBRANCH  61  71
BRANCH  62  73
ATOM     73  O2  BGC d   1      62.992  11.424  34.042  0.00  0.00    -0.388 OA
ATOM     74  H36 SIA d   1      63.761  11.079  34.480  0.00  0.00     0.210 HD
ENDBRANCH  62  73
BRANCH  64  75
ATOM     75  O1  BGC d   1      64.177  12.678  31.701  0.00  0.00    -0.369 OA
ATOM     76  H35 SIA d   1      63.355  12.946  31.307  0.00  0.00     0.212 HD
ENDBRANCH  64  75
BRANCH  68  77
ATOM     77  C6  BGC d   1      64.204   8.716  29.285  0.00  0.00     0.043 C 
ATOM     78  H32 SIA d   1      64.462   7.647  29.324  0.00  0.00     0.078 H 
ATOM     79  H33 SIA d   1      64.996   9.265  28.755  0.00  0.00     0.078 H 
BRANCH  77  80
ATOM     80  O6  BGC d   1      62.966   8.870  28.563  0.00  0.00    -0.398 OA
ATOM     81  H38 SIA d   1      62.738   9.791  28.520  0.00  0.00     0.209 HD
ENDBRANCH  77  80
ENDBRANCH  68  77
ENDBRANCH  59  60
ENDBRANCH  48  59
ENDBRANCH   3  42
TORSDOF 23
