REMARK  7 active torsions:
REMARK  status: ('A' for Active; 'I' for Inactive)
REMARK    1  A    between atoms: S02_6  and  C04_8 
REMARK    2  A    between atoms: S02_6  and  N14_15 
REMARK    3  A    between atoms: N18_18  and  C19_19 
REMARK    4  A    between atoms: C19_19  and  C20_20 
REMARK    5  A    between atoms: C25_25  and  B26_26 
REMARK    6  A    between atoms: B26_26  and  O27_27 
REMARK    7  A    between atoms: B26_26  and  O28_28 
ROOT
ATOM      1  C15 BVZ d   1       5.880  13.163   7.642  0.00  0.00     0.007 C 
ATOM      2  N14 BVZ d   1       6.931  12.393   8.342  0.00  0.00    -0.305 N 
ATOM      3  C16 BVZ d   1       4.513  13.232   8.296  0.00  0.00    -0.027 C 
ATOM      4  C17 BVZ d   1       4.527  13.593   9.765  0.00  0.00     0.085 C 
ATOM      5  N18 BVZ d   1       4.964  12.495  10.645  0.00  0.00    -0.066 N 
ATOM      6  C30 BVZ d   1       6.507  12.458  10.813  0.00  0.00     0.099 C 
ATOM      7  C31 BVZ d   1       7.378  12.848   9.671  0.00  0.00     0.028 C 
ATOM      8  H3  BVZ d   1       5.748  12.712   6.647  0.00  0.00     0.065 H 
ATOM      9  H4  BVZ d   1       6.245  14.195   7.531  0.00  0.00     0.065 H 
ATOM     10  H9  BVZ d   1       4.034  12.248   8.191  0.00  0.00     0.037 H 
ATOM     11  H10 BVZ d   1       3.917  13.989   7.764  0.00  0.00     0.037 H 
ATOM     12  H11 BVZ d   1       3.509  13.888  10.059  0.00  0.00     0.076 H 
ATOM     13  H12 BVZ d   1       5.211  14.443   9.906  0.00  0.00     0.076 H 
ATOM     14  H13 BVZ d   1       4.647  11.623  10.251  0.00  0.00     0.280 HD
ATOM     15  H25 BVZ d   1       6.775  11.425  11.082  0.00  0.00     0.078 H 
ATOM     16  H26 BVZ d   1       6.754  13.130  11.648  0.00  0.00     0.078 H 
ATOM     17  H27 BVZ d   1       7.436  13.946   9.650  0.00  0.00     0.067 H 
ATOM     18  H28 BVZ d   1       8.380  12.431   9.852  0.00  0.00     0.067 H 
ENDROOT
BRANCH   5  19
ATOM     19  C19 BVZ d   1       4.415  12.659  11.999  0.00  0.00     0.107 C 
ATOM     20  H14 BVZ d   1       4.476  13.725  12.265  0.00  0.00     0.083 H 
ATOM     21  H15 BVZ d   1       5.035  12.072  12.692  0.00  0.00     0.083 H 
BRANCH  19  22
ATOM     22  C20 BVZ d   1       2.982  12.217  12.165  0.00  0.00    -0.039 A 
ATOM     23  C21 BVZ d   1       2.091  13.127  12.730  0.00  0.00    -0.076 A 
ATOM     24  C22 BVZ d   1       0.794  12.748  13.020  0.00  0.00    -0.082 A 
ATOM     25  H16 BVZ d   1       2.417  14.139  12.943  0.00  0.00     0.084 H 
ATOM     26  C23 BVZ d   1       0.373  11.469  12.727  0.00  0.00    -0.083 A 
ATOM     27  H17 BVZ d   1       0.110  13.454  13.476  0.00  0.00     0.083 H 
ATOM     28  C24 BVZ d   1       1.249  10.561  12.145  0.00  0.00    -0.088 A 
ATOM     29  H18 BVZ d   1      -0.645  11.170  12.951  0.00  0.00     0.083 H 
ATOM     30  C25 BVZ d   1       2.575  10.900  11.853  0.00  0.00    -0.111 A 
ATOM     31  H19 BVZ d   1       0.896   9.563  11.911  0.00  0.00     0.082 H 
BRANCH  30  32
ATOM     32  B26 BVZ d   1       3.534   9.798  11.193  0.00  0.00     0.134 B 
BRANCH  32  33
ATOM     33  O27 BVZ d   1       2.911   8.404  11.154  0.00  0.00     0.000 OA
ATOM     34  H21 BVZ d   1       2.638   8.156  12.029  0.00  0.00     0.000 HD
ATOM     35  H22 BVZ d   1       2.638   8.156  12.029  0.00  0.00     0.000 HD
ENDBRANCH  32  33
BRANCH  32  36
ATOM     36  O28 BVZ d   1       3.941  10.130   9.800  0.00  0.00     0.000 OA
ATOM     37  H23 BVZ d   1       4.571   9.488   9.494  0.00  0.00     0.000 HD
ATOM     38  H24 BVZ d   1       4.571   9.488   9.494  0.00  0.00     0.000 HD
ENDBRANCH  32  36
ENDBRANCH  30  32
ENDBRANCH  19  22
ENDBRANCH   5  19
BRANCH   2  39
ATOM     39  S02 BVZ d   1       7.824  11.219   7.635  0.00  0.00     0.261 S 
ATOM     40  O01 BVZ d   1       7.086  10.814   6.476  0.00  0.00    -0.200 OA
ATOM     41  O03 BVZ d   1       8.125  10.281   8.656  0.00  0.00    -0.200 OA
BRANCH  39  42
ATOM     42  C04 BVZ d   1       9.358  11.982   7.178  0.00  0.00     0.090 A 
ATOM     43  C13 BVZ d   1      10.582  11.242   7.047  0.00  0.00     0.000 A 
ATOM     44  C12 BVZ d   1      10.685   9.830   7.079  0.00  0.00    -0.054 A 
ATOM     45  C08 BVZ d   1      11.779  11.979   6.848  0.00  0.00    -0.007 A 
ATOM     46  C11 BVZ d   1      11.912   9.244   6.949  0.00  0.00     0.003 A 
ATOM     47  H2  BVZ d   1       9.798   9.220   7.205  0.00  0.00     0.087 H 
ATOM     48  N10 BVZ d   1      13.060   9.921   6.792  0.00  0.00    -0.272 NA
ATOM     49  H1  BVZ d   1      11.962   8.161   6.974  0.00  0.00     0.114 H 
ATOM     50  C09 BVZ d   1      12.987  11.243   6.744  0.00  0.00     0.013 A 
ATOM     51  H8  BVZ d   1      13.910  11.798   6.617  0.00  0.00     0.116 H 
ATOM     52  C07 BVZ d   1      11.715  13.393   6.758  0.00  0.00    -0.071 A 
ATOM     53  C06 BVZ d   1      10.517  14.047   6.848  0.00  0.00    -0.081 A 
ATOM     54  H7  BVZ d   1      12.627  13.962   6.616  0.00  0.00     0.084 H 
ATOM     55  C05 BVZ d   1       9.340  13.346   7.062  0.00  0.00    -0.059 A 
ATOM     56  H6  BVZ d   1      10.487  15.126   6.751  0.00  0.00     0.083 H 
ATOM     57  H5  BVZ d   1       8.400  13.881   7.138  0.00  0.00     0.085 H 
ENDBRANCH  39  42
ENDBRANCH   2  39
TORSDOF 7
