REMARK WARNING: 32 MAX_TORS EXCEEDED!!!
REMARK  75 active torsions:
REMARK  status: ('A' for Active; 'I' for Inactive)
REMARK    1  A    between atoms: N_1  and  CA_2 
REMARK    2  A    between atoms: CA_2  and  C_3 
REMARK    3  A    between atoms: CA_2  and  CB_5 
REMARK       I    between atoms: C_3  and  N_8 
REMARK    4  A    between atoms: CB_5  and  OG1_6 
REMARK    5  A    between atoms: CB_5  and  CG2_7 
REMARK    6  A    between atoms: N_8  and  CA_9 
REMARK    7  A    between atoms: CA_9  and  C_10 
REMARK    8  A    between atoms: CA_9  and  CB_12 
REMARK       I    between atoms: C_10  and  N_15 
REMARK    9  A    between atoms: CB_12  and  OG1_13 
REMARK   10  A    between atoms: CB_12  and  CG2_14 
REMARK   11  A    between atoms: N_15  and  CA_16 
REMARK   12  A    between atoms: CA_16  and  C_17 
REMARK   13  A    between atoms: CA_16  and  CB_19 
REMARK       I    between atoms: C_17  and  N_27 
REMARK   14  A    between atoms: CB_19  and  CG_20 
REMARK   15  A    between atoms: CZ_25  and  OH_26 
REMARK   16  A    between atoms: N_27  and  CA_28 
REMARK   17  A    between atoms: CA_28  and  C_29 
REMARK   18  A    between atoms: CA_28  and  CB_31 
REMARK       I    between atoms: C_29  and  N_32 
REMARK   19  A    between atoms: N_32  and  CA_33 
REMARK   20  A    between atoms: CA_33  and  C_34 
REMARK   21  A    between atoms: CA_33  and  CB_36 
REMARK       I    between atoms: C_34  and  N_40 
REMARK   22  A    between atoms: CB_36  and  CG_37 
REMARK   23  A    between atoms: N_40  and  CA_41 
REMARK   24  A    between atoms: CA_41  and  C_42 
REMARK   25  A    between atoms: CA_41  and  CB_44 
REMARK       I    between atoms: C_42  and  N_51 
REMARK   26  A    between atoms: CB_44  and  CG_45 
REMARK   27  A    between atoms: N_51  and  CA_52 
REMARK   28  A    between atoms: CA_52  and  C_53 
REMARK   29  A    between atoms: CA_52  and  CB_55 
REMARK       I    between atoms: C_53  and  N_58 
REMARK   30  A    between atoms: CB_55  and  CG1_56 
REMARK   31  A    between atoms: CB_55  and  CG2_57 
REMARK   32  A    between atoms: N_58  and  CA_59 
REMARK   33  A    between atoms: CA_59  and  C_60 
REMARK   34  A    between atoms: CA_59  and  CB_62 
REMARK       I    between atoms: C_60  and  N_63 
REMARK   35  A    between atoms: N_63  and  CA_64 
REMARK   36  A    between atoms: CA_64  and  C_65 
REMARK   37  A    between atoms: CA_64  and  CB_67 
REMARK       I    between atoms: C_65  and  N_69 
REMARK   38  A    between atoms: CB_67  and  OG_68 
REMARK   39  A    between atoms: N_69  and  CA_70 
REMARK   40  A    between atoms: CA_70  and  C_71 
REMARK       I    between atoms: C_71  and  N_73 
REMARK   41  A    between atoms: N_73  and  CA_74 
REMARK   42  A    between atoms: CA_74  and  C_75 
REMARK   43  A    between atoms: CA_74  and  CB_77 
REMARK       I    between atoms: C_75  and  N_84 
REMARK   44  A    between atoms: CB_77  and  CG_78 
REMARK   45  A    between atoms: CG_78  and  CD_79 
REMARK   46  A    between atoms: CD_79  and  NE_80 
REMARK       I    between atoms: NE_80  and  CZ_81 
REMARK       I    between atoms: CZ_81  and  NH1_82 
REMARK       I    between atoms: CZ_81  and  NH2_83 
REMARK   47  A    between atoms: N_84  and  CA_85 
REMARK   48  A    between atoms: CA_85  and  C_86 
REMARK   49  A    between atoms: CA_85  and  CB_88 
REMARK       I    between atoms: C_86  and  N_91 
REMARK   50  A    between atoms: CB_88  and  OG1_89 
REMARK   51  A    between atoms: CB_88  and  CG2_90 
REMARK   52  A    between atoms: N_91  and  CA_92 
REMARK   53  A    between atoms: CA_92  and  C_93 
REMARK       I    between atoms: C_93  and  N_95 
REMARK   54  A    between atoms: N_95  and  CA_96 
REMARK   55  A    between atoms: CA_96  and  C_97 
REMARK   56  A    between atoms: CA_96  and  CB_99 
REMARK       I    between atoms: C_97  and  N_106 
REMARK   57  A    between atoms: CB_99  and  CG_100 
REMARK   58  A    between atoms: CG_100  and  CD_101 
REMARK   59  A    between atoms: CD_101  and  NE_102 
REMARK       I    between atoms: NE_102  and  CZ_103 
REMARK       I    between atoms: CZ_103  and  NH1_104 
REMARK       I    between atoms: CZ_103  and  NH2_105 
REMARK   60  A    between atoms: N_106  and  CA_107 
REMARK   61  A    between atoms: CA_107  and  C_108 
REMARK   62  A    between atoms: CA_107  and  CB_110 
REMARK       I    between atoms: C_108  and  N_117 
REMARK   63  A    between atoms: CB_110  and  CG_111 
REMARK   64  A    between atoms: CG_111  and  CD_112 
REMARK   65  A    between atoms: CD_112  and  NE_113 
REMARK       I    between atoms: NE_113  and  CZ_114 
REMARK       I    between atoms: CZ_114  and  NH1_115 
REMARK   66  A    between atoms: N_117  and  CA_118 
REMARK   67  A    between atoms: CA_118  and  C_119 
REMARK   68  A    between atoms: CA_118  and  CB_121 
REMARK       I    between atoms: C_119  and  N_123 
REMARK   69  A    between atoms: CB_121  and  OG_122 
REMARK   70  A    between atoms: N_123  and  CA_124 
REMARK   71  A    between atoms: CA_124  and  C_125 
REMARK   72  A    between atoms: CA_124  and  CB_127 
REMARK       I    between atoms: C_125  and  N_128 
REMARK   73  A    between atoms: N_128  and  CA_129 
REMARK   74  A    between atoms: CA_129  and  C_130 
REMARK   75  A    between atoms: CA_129  and  CB_132 
ROOT
ATOM      1  C   THR d   1       9.509 -29.055  33.594  0.00  0.00     0.242 C 
ATOM      2  O   THR d   1       9.318 -28.018  34.238  0.00  0.00    -0.271 OA
ATOM      3  N   THR d   1       8.700 -30.107  33.681  0.00  0.00    -0.350 N 
ATOM      4  H63 THR d   1       8.946 -30.962  33.224  0.00  0.00     0.163 HD
ENDROOT
BRANCH   3   5
ATOM      5  CA  THR d   1       7.464 -30.024  34.434  0.00  0.00     0.069 C 
ATOM      6  H64 THR d   1       7.692 -29.587  35.417  0.00  0.00     0.078 H 
ATOM      7  H65 THR d   1       7.077 -31.045  34.568  0.00  0.00     0.078 H 
BRANCH   5   8
ATOM      8  C   THR d   1       6.376 -29.190  33.790  0.00  0.00     0.236 C 
ATOM      9  O   THR d   1       5.348 -28.940  34.430  0.00  0.00    -0.272 OA
ATOM     10  N   THR d   1       6.563 -28.736  32.548  0.00  0.00    -0.346 N 
ATOM     11  H66 THR d   1       7.390 -28.998  32.051  0.00  0.00     0.163 HD
BRANCH  10  12
ATOM     12  CA  THR d   1       5.586 -27.865  31.899  0.00  0.00     0.089 C 
ATOM     13  H67 THR d   1       4.778 -27.672  32.620  0.00  0.00     0.087 H 
BRANCH  12  14
ATOM     14  C   THR d   1       4.959 -28.542  30.674  0.00  0.00     0.241 C 
ATOM     15  O   THR d   1       4.692 -27.904  29.643  0.00  0.00    -0.271 OA
ATOM     16  N   THR d   1       4.727 -29.861  30.780  0.00  0.00    -0.344 N 
ATOM     17  H79 THR d   1       5.024 -30.332  31.611  0.00  0.00     0.163 HD
BRANCH  16  18
ATOM     18  CA  THR d   1       4.062 -30.638  29.740  0.00  0.00     0.113 C 
ATOM     19  H80 THR d   1       4.349 -30.207  28.770  0.00  0.00     0.091 H 
BRANCH  18  20
ATOM     20  C   THR d   1       2.545 -30.591  29.846  0.00  0.00     0.243 C 
ATOM     21  O   THR d   1       1.866 -30.952  28.881  0.00  0.00    -0.271 OA
ATOM     22  N   THR d   1       1.999 -30.154  30.985  0.00  0.00    -0.350 N 
ATOM     23  H86 THR d   1       2.599 -29.892  31.741  0.00  0.00     0.163 HD
BRANCH  22  24
ATOM     24  CA  THR d   1       0.562 -30.048  31.157  0.00  0.00     0.069 C 
ATOM     25  H87 THR d   1       0.332 -30.095  32.232  0.00  0.00     0.078 H 
ATOM     26  H88 THR d   1       0.083 -30.893  30.642  0.00  0.00     0.078 H 
BRANCH  24  27
ATOM     27  C   THR d   1      -0.006 -28.743  30.591  0.00  0.00     0.236 C 
ATOM     28  O   THR d   1       0.691 -27.940  29.972  0.00  0.00    -0.272 OA
ATOM     29  N   THR d   1      -1.311 -28.559  30.794  0.00  0.00    -0.346 N 
ATOM     30  H89 THR d   1      -1.846 -29.269  31.252  0.00  0.00     0.163 HD
BRANCH  29  31
ATOM     31  CA  THR d   1      -1.964 -27.336  30.356  0.00  0.00     0.089 C 
ATOM     32  H90 THR d   1      -1.776 -27.204  29.280  0.00  0.00     0.087 H 
BRANCH  31  33
ATOM     33  C   THR d   1      -1.382 -26.137  31.102  0.00  0.00     0.241 C 
ATOM     34  O   THR d   1      -1.197 -26.179  32.323  0.00  0.00    -0.271 OA
ATOM     35  N   THR d   1      -1.093 -25.067  30.360  0.00  0.00    -0.346 N 
ATOM     36 2H10 THR d   1      -1.391 -25.057  29.406  0.00  0.00     0.163 HD
BRANCH  35  37
ATOM     37  CA  THR d   1      -0.364 -23.910  30.869  0.00  0.00     0.089 C 
ATOM     38 3H10 THR d   1       0.113 -24.184  31.822  0.00  0.00     0.087 H 
BRANCH  37  39
ATOM     39  C   THR d   1      -1.330 -22.759  31.120  0.00  0.00     0.241 C 
ATOM     40  O   THR d   1      -2.155 -22.439  30.256  0.00  0.00    -0.271 OA
ATOM     41  N   THR d   1      -1.242 -22.154  32.305  0.00  0.00    -0.344 N 
ATOM     42 5H11 THR d   1      -0.573 -22.483  32.972  0.00  0.00     0.163 HD
BRANCH  41  43
ATOM     43  CA  THR d   1      -2.096 -21.024  32.654  0.00  0.00     0.109 C 
ATOM     44 6H11 THR d   1      -3.091 -21.192  32.216  0.00  0.00     0.090 H 
BRANCH  43  45
ATOM     45  C   THR d   1      -1.529 -19.717  32.100  0.00  0.00     0.243 C 
ATOM     46  O   THR d   1      -0.317 -19.568  31.920  0.00  0.00    -0.271 OA
ATOM     47  N   THR d   1      -2.428 -18.771  31.840  0.00  0.00    -0.346 N 
ATOM     48 0H12 THR d   1      -3.398 -19.001  31.913  0.00  0.00     0.163 HD
BRANCH  47  49
ATOM     49  CA  THR d   1      -2.060 -17.412  31.453  0.00  0.00     0.086 C 
ATOM     50 1H12 THR d   1      -1.320 -17.474  30.642  0.00  0.00     0.086 H 
BRANCH  49  51
ATOM     51  C   THR d   1      -1.443 -16.635  32.619  0.00  0.00     0.240 C 
ATOM     52  O   THR d   1      -1.334 -17.116  33.754  0.00  0.00    -0.271 OA
ATOM     53  N   THR d   1      -1.092 -15.386  32.300  0.00  0.00    -0.345 N 
ATOM     54 5H12 THR d   1      -1.256 -15.119  31.350  0.00  0.00     0.163 HD
BRANCH  53  55
ATOM     55  CA  THR d   1      -0.496 -14.350  33.160  0.00  0.00     0.093 C 
ATOM     56 6H12 THR d   1      -0.630 -13.376  32.667  0.00  0.00     0.089 H 
BRANCH  55  57
ATOM     57  C   THR d   1       0.990 -14.645  33.239  0.00  0.00     0.196 C 
ATOM     58  O   THR d   1       1.825 -13.804  32.914  0.00  0.00    -0.646 OA
ATOM     59  OXT THR d   1       1.396 -15.749  33.570  0.00  0.00    -0.646 OA
ENDBRANCH  55  57
BRANCH  55  60
ATOM     60  CB  THR d   1      -1.157 -14.248  34.550  0.00  0.00    -0.048 C 
ATOM     61 7H12 THR d   1      -0.663 -13.458  35.134  0.00  0.00     0.030 H 
ATOM     62 8H12 THR d   1      -1.057 -15.209  35.075  0.00  0.00     0.030 H 
ATOM     63 9H12 THR d   1      -2.223 -14.004  34.432  0.00  0.00     0.030 H 
ENDBRANCH  55  60
ENDBRANCH  53  55
ENDBRANCH  49  51
BRANCH  49  64
ATOM     64  CB  THR d   1      -3.282 -16.650  30.949  0.00  0.00    -0.049 C 
ATOM     65 2H12 THR d   1      -2.986 -15.630  30.663  0.00  0.00     0.030 H 
ATOM     66 3H12 THR d   1      -4.038 -16.602  31.746  0.00  0.00     0.030 H 
ATOM     67 4H12 THR d   1      -3.703 -17.169  30.075  0.00  0.00     0.030 H 
ENDBRANCH  49  64
ENDBRANCH  47  49
ENDBRANCH  43  45
BRANCH  43  68
ATOM     68  CB  THR d   1      -2.241 -20.898  34.174  0.00  0.00     0.044 C 
ATOM     69 7H11 THR d   1      -2.583 -19.881  34.417  0.00  0.00     0.077 H 
ATOM     70 8H11 THR d   1      -1.262 -21.077  34.642  0.00  0.00     0.077 H 
BRANCH  68  71
ATOM     71  OG  THR d   1      -3.175 -21.833  34.687  0.00  0.00    -0.398 OA
ATOM     72 9H11 THR d   1      -3.241 -21.729  35.629  0.00  0.00     0.209 HD
ENDBRANCH  68  71
ENDBRANCH  43  68
ENDBRANCH  41  43
ENDBRANCH  37  39
BRANCH  37  73
ATOM     73  CB  THR d   1       0.729 -23.487  29.879  0.00  0.00    -0.036 C 
ATOM     74 4H10 THR d   1       1.137 -22.519  30.206  0.00  0.00     0.036 H 
ATOM     75 5H10 THR d   1       0.272 -23.375  28.885  0.00  0.00     0.036 H 
BRANCH  73  76
ATOM     76  CG  THR d   1       1.882 -24.484  29.769  0.00  0.00    -0.048 C 
ATOM     77 6H10 THR d   1       1.492 -25.494  29.964  0.00  0.00     0.035 H 
ATOM     78 7H10 THR d   1       2.638 -24.230  30.526  0.00  0.00     0.035 H 
BRANCH  76  79
ATOM     79  CD  THR d   1       2.556 -24.477  28.379  0.00  0.00     0.009 C 
ATOM     80 8H10 THR d   1       3.374 -25.212  28.388  0.00  0.00     0.064 H 
ATOM     81 9H10 THR d   1       2.968 -23.473  28.200  0.00  0.00     0.064 H 
BRANCH  79  82
ATOM     82  NE  THR d   1       1.645 -24.810  27.267  0.00  0.00    -0.227 N 
ATOM     83  CZ  THR d   1       2.056 -25.199  26.061  0.00  0.00     0.665 C 
ATOM     84  NH1 THR d   1       3.354 -25.311  25.794  0.00  0.00    -0.235 N 
ATOM     85  NH2 THR d   1       1.167 -25.475  25.115  0.00  0.00    -0.235 N 
ATOM     86 1H11 THR d   1       3.663 -25.612  24.859  0.00  0.00     0.174 HD
ATOM     87 2H11 THR d   1       4.050 -25.096  26.522  0.00  0.00     0.174 HD
ATOM     88 3H11 THR d   1       0.160 -25.391  25.314  0.00  0.00     0.174 HD
ATOM     89 4H11 THR d   1       1.484 -25.774  24.182  0.00  0.00     0.174 HD
ATOM     90 0H11 THR d   1       0.631 -24.737  27.433  0.00  0.00     0.177 HD
ENDBRANCH  79  82
ENDBRANCH  76  79
ENDBRANCH  73  76
ENDBRANCH  37  73
ENDBRANCH  35  37
ENDBRANCH  31  33
BRANCH  31  91
ATOM     91  CB  THR d   1      -3.476 -27.428  30.576  0.00  0.00    -0.036 C 
ATOM     92  H91 THR d   1      -3.918 -26.443  30.366  0.00  0.00     0.036 H 
ATOM     93  H92 THR d   1      -3.658 -27.695  31.627  0.00  0.00     0.036 H 
BRANCH  91  94
ATOM     94  CG  THR d   1      -4.166 -28.467  29.687  0.00  0.00    -0.048 C 
ATOM     95  H93 THR d   1      -3.760 -29.460  29.928  0.00  0.00     0.035 H 
ATOM     96  H94 THR d   1      -3.950 -28.228  28.635  0.00  0.00     0.035 H 
BRANCH  94  97
ATOM     97  CD  THR d   1      -5.695 -28.500  29.880  0.00  0.00     0.009 C 
ATOM     98  H95 THR d   1      -5.915 -28.446  30.956  0.00  0.00     0.064 H 
ATOM     99  H96 THR d   1      -6.080 -29.447  29.474  0.00  0.00     0.064 H 
BRANCH  97 100
ATOM    100  NE  THR d   1      -6.374 -27.392  29.208  0.00  0.00    -0.227 N 
ATOM    101  CZ  THR d   1      -6.838 -26.303  29.824  0.00  0.00     0.665 C 
ATOM    102  NH1 THR d   1      -6.709 -26.172  31.141  0.00  0.00    -0.235 N 
ATOM    103  NH2 THR d   1      -7.443 -25.345  29.125  0.00  0.00    -0.235 N 
ATOM    104  H98 THR d   1      -7.069 -25.330  31.612  0.00  0.00     0.174 HD
ATOM    105  H99 THR d   1      -6.250 -26.913  31.690  0.00  0.00     0.174 HD
ATOM    106 0H10 THR d   1      -7.547 -25.439  28.105  0.00  0.00     0.174 HD
ATOM    107 1H10 THR d   1      -7.807 -24.509  29.605  0.00  0.00     0.174 HD
ATOM    108  H97 THR d   1      -6.503 -27.457  28.188  0.00  0.00     0.177 HD
ENDBRANCH  97 100
ENDBRANCH  94  97
ENDBRANCH  91  94
ENDBRANCH  31  91
ENDBRANCH  29  31
ENDBRANCH  24  27
ENDBRANCH  22  24
ENDBRANCH  18  20
BRANCH  18 109
ATOM    109  CB  THR d   1       4.515 -32.110  29.769  0.00  0.00     0.060 C 
ATOM    110  H81 THR d   1       4.099 -32.618  28.887  0.00  0.00     0.086 H 
BRANCH 109 111
ATOM    111  OG1 THR d   1       4.024 -32.758  30.947  0.00  0.00    -0.393 OA
ATOM    112  H82 THR d   1       4.311 -33.664  30.952  0.00  0.00     0.210 HD
ENDBRANCH 109 111
BRANCH 109 113
ATOM    113  CG2 THR d   1       6.019 -32.224  29.723  0.00  0.00    -0.050 C 
ATOM    114  H83 THR d   1       6.307 -33.285  29.745  0.00  0.00     0.031 H 
ATOM    115  H84 THR d   1       6.453 -31.708  30.592  0.00  0.00     0.031 H 
ATOM    116  H85 THR d   1       6.394 -31.762  28.798  0.00  0.00     0.031 H 
ENDBRANCH 109 113
ENDBRANCH  18 109
ENDBRANCH  16  18
ENDBRANCH  12  14
BRANCH  12 117
ATOM    117  CB  THR d   1       6.222 -26.515  31.542  0.00  0.00    -0.036 C 
ATOM    118  H68 THR d   1       5.500 -25.935  30.948  0.00  0.00     0.036 H 
ATOM    119  H69 THR d   1       7.125 -26.702  30.942  0.00  0.00     0.036 H 
BRANCH 117 120
ATOM    120  CG  THR d   1       6.624 -25.675  32.791  0.00  0.00    -0.048 C 
ATOM    121  H70 THR d   1       7.421 -26.205  33.333  0.00  0.00     0.035 H 
ATOM    122  H71 THR d   1       5.745 -25.568  33.444  0.00  0.00     0.035 H 
BRANCH 120 123
ATOM    123  CD  THR d   1       7.134 -24.266  32.408  0.00  0.00     0.009 C 
ATOM    124  H72 THR d   1       7.950 -24.379  31.680  0.00  0.00     0.064 H 
ATOM    125  H73 THR d   1       7.518 -23.778  33.316  0.00  0.00     0.064 H 
BRANCH 123 126
ATOM    126  NE  THR d   1       6.105 -23.400  31.818  0.00  0.00    -0.227 N 
ATOM    127  CZ  THR d   1       5.169 -22.743  32.506  0.00  0.00     0.665 C 
ATOM    128  NH1 THR d   1       5.102 -22.848  33.811  0.00  0.00    -0.235 N 
ATOM    129  NH2 THR d   1       4.278 -21.978  31.883  0.00  0.00    -0.235 N 
ATOM    130  H75 THR d   1       4.376 -22.337  34.332  0.00  0.00     0.174 HD
ATOM    131  H76 THR d   1       5.776 -23.442  34.315  0.00  0.00     0.174 HD
ATOM    132  H77 THR d   1       4.310 -21.880  30.858  0.00  0.00     0.174 HD
ATOM    133  H78 THR d   1       3.555 -21.483  32.425  0.00  0.00     0.174 HD
ATOM    134  H74 THR d   1       6.106 -23.291  30.794  0.00  0.00     0.177 HD
ENDBRANCH 123 126
ENDBRANCH 120 123
ENDBRANCH 117 120
ENDBRANCH  12 117
ENDBRANCH  10  12
ENDBRANCH   5   8
ENDBRANCH   3   5
BRANCH   1 135
ATOM    135  CA  THR d   1      10.685 -29.126  32.636  0.00  0.00     0.109 C 
ATOM    136  H59 THR d   1      11.557 -28.671  33.128  0.00  0.00     0.090 H 
BRANCH 135 137
ATOM    137  N   THR d   1      11.037 -30.496  32.283  0.00  0.00    -0.344 N 
ATOM    138  C   THR d   1      11.619 -31.295  33.190  0.00  0.00     0.240 C 
ATOM    139  O   THR d   1      11.809 -30.937  34.359  0.00  0.00    -0.271 OA
ATOM    140  H58 THR d   1      10.845 -30.840  31.364  0.00  0.00     0.163 HD
BRANCH 138 141
ATOM    141  CA  THR d   1      12.076 -32.679  32.750  0.00  0.00     0.086 C 
ATOM    142  H54 THR d   1      11.781 -33.398  33.528  0.00  0.00     0.086 H 
BRANCH 141 143
ATOM    143  N   THR d   1      11.463 -33.105  31.492  0.00  0.00    -0.346 N 
ATOM    144  C   THR d   1      10.134 -33.246  31.400  0.00  0.00     0.241 C 
ATOM    145  O   THR d   1       9.389 -32.972  32.342  0.00  0.00    -0.271 OA
ATOM    146  H53 THR d   1      12.039 -33.292  30.696  0.00  0.00     0.163 HD
BRANCH 144 147
ATOM    147  CA  THR d   1       9.570 -33.706  30.056  0.00  0.00     0.092 C 
ATOM    148  H45 THR d   1       8.483 -33.536  30.066  0.00  0.00     0.088 H 
BRANCH 147 149
ATOM    149  N   THR d   1      10.149 -32.919  28.968  0.00  0.00    -0.346 N 
ATOM    150  C   THR d   1      10.077 -31.585  28.992  0.00  0.00     0.241 C 
ATOM    151  O   THR d   1       9.444 -30.970  29.861  0.00  0.00    -0.271 OA
ATOM    152  H44 THR d   1      10.600 -33.380  28.204  0.00  0.00     0.163 HD
BRANCH 150 153
ATOM    153  CA  THR d   1      10.786 -30.844  27.871  0.00  0.00     0.093 C 
ATOM    154  H36 THR d   1      10.777 -29.769  28.103  0.00  0.00     0.088 H 
BRANCH 153 155
ATOM    155  N   THR d   1      12.175 -31.289  27.757  0.00  0.00    -0.346 N 
ATOM    156  C   THR d   1      13.017 -31.209  28.789  0.00  0.00     0.241 C 
ATOM    157  O   THR d   1      12.704 -30.674  29.859  0.00  0.00    -0.271 OA
ATOM    158  H35 THR d   1      12.500 -31.661  26.887  0.00  0.00     0.163 HD
BRANCH 156 159
ATOM    159  CA  THR d   1      14.400 -31.811  28.600  0.00  0.00     0.098 C 
ATOM    160  H32 THR d   1      14.835 -31.991  29.594  0.00  0.00     0.088 H 
BRANCH 159 161
ATOM    161  N   THR d   1      14.329 -33.089  27.893  0.00  0.00    -0.346 N 
ATOM    162  C   THR d   1      13.645 -34.116  28.419  0.00  0.00     0.240 C 
ATOM    163  O   THR d   1      13.058 -34.032  29.505  0.00  0.00    -0.271 OA
ATOM    164  H31 THR d   1      14.792 -33.198  27.014  0.00  0.00     0.163 HD
BRANCH 162 165
ATOM    165  CA  THR d   1      13.577 -35.399  27.605  0.00  0.00     0.086 C 
ATOM    166  H27 THR d   1      12.724 -35.992  27.968  0.00  0.00     0.086 H 
BRANCH 165 167
ATOM    167  N   THR d   1      13.366 -35.113  26.186  0.00  0.00    -0.346 N 
ATOM    168  C   THR d   1      12.310 -34.394  25.796  0.00  0.00     0.241 C 
ATOM    169  O   THR d   1      11.449 -34.008  26.596  0.00  0.00    -0.271 OA
ATOM    170  H26 THR d   1      14.014 -35.457  25.506  0.00  0.00     0.163 HD
BRANCH 168 171
ATOM    171  CA  THR d   1      12.210 -34.047  24.312  0.00  0.00     0.093 C 
ATOM    172  H18 THR d   1      11.431 -33.280  24.194  0.00  0.00     0.088 H 
BRANCH 171 173
ATOM    173  N   THR d   1      13.467 -33.499  23.811  0.00  0.00    -0.346 N 
ATOM    174  C   THR d   1      14.004 -32.405  24.365  0.00  0.00     0.243 C 
ATOM    175  O   THR d   1      13.476 -31.820  25.320  0.00  0.00    -0.271 OA
ATOM    176  H17 THR d   1      13.932 -33.945  23.046  0.00  0.00     0.163 HD
BRANCH 174 177
ATOM    177  CA  THR d   1      15.322 -31.903  23.782  0.00  0.00     0.113 C 
ATOM    178  H11 THR d   1      15.781 -31.216  24.509  0.00  0.00     0.091 H 
BRANCH 177 179
ATOM    179  N   THR d   1      16.241 -33.008  23.548  0.00  0.00    -0.344 N 
ATOM    180  C   THR d   1      16.624 -33.762  24.577  0.00  0.00     0.251 C 
ATOM    181  O   THR d   1      16.311 -33.503  25.747  0.00  0.00    -0.271 OA
ATOM    182  H10 THR d   1      16.580 -33.198  22.627  0.00  0.00     0.163 HD
BRANCH 180 183
ATOM    183  CA  THR d   1      17.453 -34.989  24.222  0.00  0.00     0.199 C 
ATOM    184  H4  THR d   1      18.185 -34.700  23.454  0.00  0.00     0.103 H 
BRANCH 183 185
ATOM    185  N   THR d   1      18.193 -35.525  25.360  0.00  0.00    -0.064 N 
ATOM    186  H1  THR d   1      18.803 -34.813  25.730  0.00  0.00     0.275 HD
ATOM    187  H2  THR d   1      18.742 -36.316  25.061  0.00  0.00     0.275 HD
ATOM    188  H3  THR d   1      17.545 -35.816  26.075  0.00  0.00     0.275 HD
ENDBRANCH 183 185
BRANCH 183 189
ATOM    189  CB  THR d   1      16.507 -36.048  23.627  0.00  0.00     0.068 C 
ATOM    190  H5  THR d   1      16.164 -35.713  22.637  0.00  0.00     0.086 H 
BRANCH 189 191
ATOM    191  OG1 THR d   1      15.375 -36.218  24.492  0.00  0.00    -0.393 OA
ATOM    192  H6  THR d   1      14.792 -36.871  24.124  0.00  0.00     0.210 HD
ENDBRANCH 189 191
BRANCH 189 193
ATOM    193  CG2 THR d   1      17.236 -37.380  23.483  0.00  0.00    -0.050 C 
ATOM    194  H7  THR d   1      16.551 -38.129  23.057  0.00  0.00     0.031 H 
ATOM    195  H8  THR d   1      17.581 -37.718  24.471  0.00  0.00     0.031 H 
ATOM    196  H9  THR d   1      18.102 -37.254  22.816  0.00  0.00     0.031 H 
ENDBRANCH 189 193
ENDBRANCH 183 189
ENDBRANCH 180 183
ENDBRANCH 177 179
BRANCH 177 197
ATOM    197  CB  THR d   1      15.086 -31.141  22.479  0.00  0.00     0.060 C 
ATOM    198  H12 THR d   1      14.544 -31.787  21.773  0.00  0.00     0.086 H 
BRANCH 197 199
ATOM    199  OG1 THR d   1      16.357 -30.783  21.917  0.00  0.00    -0.393 OA
ATOM    200  H13 THR d   1      16.221 -30.308  21.105  0.00  0.00     0.210 HD
ENDBRANCH 197 199
BRANCH 197 201
ATOM    201  CG2 THR d   1      14.253 -29.879  22.744  0.00  0.00    -0.050 C 
ATOM    202  H14 THR d   1      14.091 -29.341  21.798  0.00  0.00     0.031 H 
ATOM    203  H15 THR d   1      14.789 -29.227  23.449  0.00  0.00     0.031 H 
ATOM    204  H16 THR d   1      13.282 -30.164  23.174  0.00  0.00     0.031 H 
ENDBRANCH 197 201
ENDBRANCH 177 197
ENDBRANCH 174 177
ENDBRANCH 171 173
BRANCH 171 205
ATOM    205  CB  THR d   1      11.801 -35.274  23.493  0.00  0.00    -0.014 C 
ATOM    206  H19 THR d   1      12.607 -36.020  23.549  0.00  0.00     0.043 H 
ATOM    207  H20 THR d   1      11.657 -34.967  22.447  0.00  0.00     0.043 H 
BRANCH 205 208
ATOM    208  CG  THR d   1      10.513 -35.909  23.997  0.00  0.00    -0.056 A 
ATOM    209  CD1 THR d   1      10.483 -37.231  24.445  0.00  0.00    -0.074 A 
ATOM    210  CE1 THR d   1       9.293 -37.803  24.913  0.00  0.00    -0.051 A 
ATOM    211  H21 THR d   1      11.392 -37.822  24.430  0.00  0.00     0.084 H 
ATOM    212  CZ  THR d   1       8.138 -37.033  24.943  0.00  0.00     0.065 A 
ATOM    213  H23 THR d   1       9.274 -38.834  25.248  0.00  0.00     0.087 H 
ATOM    214  CE2 THR d   1       8.158 -35.715  24.514  0.00  0.00    -0.051 A 
ATOM    215  CD2 THR d   1       9.334 -35.167  24.056  0.00  0.00    -0.074 A 
ATOM    216  H24 THR d   1       7.253 -35.120  24.539  0.00  0.00     0.087 H 
ATOM    217  H22 THR d   1       9.344 -34.132  23.733  0.00  0.00     0.084 H 
BRANCH 212 218
ATOM    218  OH  THR d   1       6.955 -37.556  25.404  0.00  0.00    -0.361 OA
ATOM    219  H25 THR d   1       7.089 -38.460  25.662  0.00  0.00     0.217 HD
ENDBRANCH 212 218
ENDBRANCH 205 208
ENDBRANCH 171 205
ENDBRANCH 168 171
ENDBRANCH 165 167
BRANCH 165 220
ATOM    220  CB  THR d   1      14.850 -36.220  27.794  0.00  0.00    -0.049 C 
ATOM    221  H28 THR d   1      14.997 -36.428  28.864  0.00  0.00     0.030 H 
ATOM    222  H29 THR d   1      15.711 -35.655  27.409  0.00  0.00     0.030 H 
ATOM    223  H30 THR d   1      14.759 -37.169  27.245  0.00  0.00     0.030 H 
ENDBRANCH 165 220
ENDBRANCH 162 165
ENDBRANCH 159 161
BRANCH 159 224
ATOM    224  CB  THR d   1      15.309 -30.838  27.843  0.00  0.00     0.043 C 
ATOM    225  H33 THR d   1      15.184 -29.832  28.271  0.00  0.00     0.052 H 
ATOM    226  H34 THR d   1      15.009 -30.826  26.785  0.00  0.00     0.052 H 
BRANCH 224 227
ATOM    227  CG  THR d   1      16.776 -31.227  27.930  0.00  0.00     0.175 C 
ATOM    228  OD1 THR d   1      17.117 -32.012  28.842  0.00  0.00    -0.648 OA
ATOM    229  OD2 THR d   1      17.581 -30.751  27.096  0.00  0.00    -0.648 OA
ENDBRANCH 224 227
ENDBRANCH 159 224
ENDBRANCH 156 159
ENDBRANCH 153 155
BRANCH 153 230
ATOM    230  CB  THR d   1      10.068 -31.066  26.532  0.00  0.00    -0.014 C 
ATOM    231  H37 THR d   1      10.146 -32.132  26.274  0.00  0.00     0.043 H 
ATOM    232  H38 THR d   1      10.579 -30.465  25.765  0.00  0.00     0.043 H 
BRANCH 230 233
ATOM    233  CG  THR d   1       8.607 -30.688  26.530  0.00  0.00    -0.056 A 
ATOM    234  CD1 THR d   1       7.660 -31.561  26.027  0.00  0.00    -0.077 A 
ATOM    235  CE1 THR d   1       6.301 -31.204  25.984  0.00  0.00    -0.082 A 
ATOM    236  H39 THR d   1       7.970 -32.533  25.661  0.00  0.00     0.084 H 
ATOM    237  CZ  THR d   1       5.901 -29.979  26.464  0.00  0.00    -0.083 A 
ATOM    238  H41 THR d   1       5.571 -31.892  25.574  0.00  0.00     0.083 H 
ATOM    239  CE2 THR d   1       6.846 -29.099  26.958  0.00  0.00    -0.082 A 
ATOM    240  H43 THR d   1       4.852 -29.705  26.455  0.00  0.00     0.083 H 
ATOM    241  CD2 THR d   1       8.187 -29.448  26.980  0.00  0.00    -0.077 A 
ATOM    242  H42 THR d   1       6.536 -28.129  27.331  0.00  0.00     0.083 H 
ATOM    243  H40 THR d   1       8.917 -28.740  27.355  0.00  0.00     0.084 H 
ENDBRANCH 230 233
ENDBRANCH 153 230
ENDBRANCH 150 153
ENDBRANCH 147 149
BRANCH 147 244
ATOM    244  CB  THR d   1       9.817 -35.208  29.821  0.00  0.00    -0.033 C 
ATOM    245  H46 THR d   1      10.897 -35.371  29.688  0.00  0.00     0.042 H 
BRANCH 244 246
ATOM    246  CG1 THR d   1       9.101 -35.685  28.552  0.00  0.00    -0.071 C 
ATOM    247  H47 THR d   1       9.291 -36.758  28.405  0.00  0.00     0.028 H 
ATOM    248  H48 THR d   1       9.479 -35.123  27.685  0.00  0.00     0.028 H 
ATOM    249  H49 THR d   1       8.019 -35.516  28.656  0.00  0.00     0.028 H 
ENDBRANCH 244 246
BRANCH 244 250
ATOM    250  CG2 THR d   1       9.361 -35.981  31.041  0.00  0.00    -0.071 C 
ATOM    251  H50 THR d   1       9.895 -35.612  31.929  0.00  0.00     0.028 H 
ATOM    252  H51 THR d   1       9.579 -37.050  30.900  0.00  0.00     0.028 H 
ATOM    253  H52 THR d   1       8.279 -35.842  31.180  0.00  0.00     0.028 H 
ENDBRANCH 244 250
ENDBRANCH 147 244
ENDBRANCH 144 147
ENDBRANCH 141 143
BRANCH 141 254
ATOM    254  CB  THR d   1      13.603 -32.692  32.631  0.00  0.00    -0.049 C 
ATOM    255  H55 THR d   1      14.048 -32.370  33.584  0.00  0.00     0.030 H 
ATOM    256  H56 THR d   1      13.914 -32.005  31.830  0.00  0.00     0.030 H 
ATOM    257  H57 THR d   1      13.944 -33.711  32.393  0.00  0.00     0.030 H 
ENDBRANCH 141 254
ENDBRANCH 138 141
ENDBRANCH 135 137
BRANCH 135 258
ATOM    258  CB  THR d   1      10.349 -28.307  31.379  0.00  0.00     0.044 C 
ATOM    259  H60 THR d   1      11.099 -28.518  30.602  0.00  0.00     0.077 H 
ATOM    260  H61 THR d   1      10.373 -27.236  31.631  0.00  0.00     0.077 H 
BRANCH 258 261
ATOM    261  OG  THR d   1       9.055 -28.638  30.879  0.00  0.00    -0.398 OA
ATOM    262  H62 THR d   1       9.030 -29.561  30.656  0.00  0.00     0.209 HD
ENDBRANCH 258 261
ENDBRANCH 135 258
ENDBRANCH   1 135
TORSDOF 75
