REMARK WARNING: 32 MAX_TORS EXCEEDED!!!
REMARK  79 active torsions:
REMARK  status: ('A' for Active; 'I' for Inactive)
REMARK    1  A    between atoms: N_1  and  CA_2 
REMARK    2  A    between atoms: CA_2  and  C_3 
REMARK    3  A    between atoms: CA_2  and  CB_5 
REMARK       I    between atoms: C_3  and  N_8 
REMARK    4  A    between atoms: CB_5  and  OG1_6 
REMARK    5  A    between atoms: CB_5  and  CG2_7 
REMARK    6  A    between atoms: N_8  and  CA_9 
REMARK    7  A    between atoms: CA_9  and  C_10 
REMARK    8  A    between atoms: CA_9  and  CB_12 
REMARK       I    between atoms: C_10  and  N_15 
REMARK    9  A    between atoms: CB_12  and  OG1_13 
REMARK   10  A    between atoms: CB_12  and  CG2_14 
REMARK   11  A    between atoms: N_15  and  CA_16 
REMARK   12  A    between atoms: CA_16  and  C_17 
REMARK   13  A    between atoms: CA_16  and  CB_19 
REMARK       I    between atoms: C_17  and  N_27 
REMARK   14  A    between atoms: CB_19  and  CG_20 
REMARK   15  A    between atoms: CZ_25  and  OH_26 
REMARK   16  A    between atoms: N_27  and  CA_28 
REMARK   17  A    between atoms: CA_28  and  C_29 
REMARK   18  A    between atoms: CA_28  and  CB_31 
REMARK       I    between atoms: C_29  and  N_32 
REMARK   19  A    between atoms: N_32  and  CA_33 
REMARK   20  A    between atoms: CA_33  and  C_34 
REMARK   21  A    between atoms: CA_33  and  CB_36 
REMARK       I    between atoms: C_34  and  N_40 
REMARK   22  A    between atoms: CB_36  and  CG_37 
REMARK   23  A    between atoms: N_40  and  CA_41 
REMARK   24  A    between atoms: CA_41  and  C_42 
REMARK   25  A    between atoms: CA_41  and  CB_44 
REMARK       I    between atoms: C_42  and  N_51 
REMARK   26  A    between atoms: CB_44  and  CG_45 
REMARK   27  A    between atoms: N_51  and  CA_52 
REMARK   28  A    between atoms: CA_52  and  C_53 
REMARK   29  A    between atoms: CA_52  and  CB_55 
REMARK       I    between atoms: C_53  and  N_59 
REMARK   30  A    between atoms: CB_55  and  CG1_56 
REMARK   31  A    between atoms: CB_55  and  CG2_57 
REMARK   32  A    between atoms: CG1_56  and  CD1_58 
REMARK   33  A    between atoms: N_59  and  CA_60 
REMARK   34  A    between atoms: CA_60  and  C_61 
REMARK   35  A    between atoms: CA_60  and  CB_63 
REMARK       I    between atoms: C_61  and  N_64 
REMARK   36  A    between atoms: N_64  and  CA_65 
REMARK   37  A    between atoms: CA_65  and  C_66 
REMARK   38  A    between atoms: CA_65  and  CB_68 
REMARK       I    between atoms: C_66  and  N_70 
REMARK   39  A    between atoms: CB_68  and  OG_69 
REMARK   40  A    between atoms: N_70  and  CA_71 
REMARK   41  A    between atoms: CA_71  and  C_72 
REMARK       I    between atoms: C_72  and  N_74 
REMARK   42  A    between atoms: N_74  and  CA_75 
REMARK   43  A    between atoms: CA_75  and  C_76 
REMARK   44  A    between atoms: CA_75  and  CB_78 
REMARK       I    between atoms: C_76  and  N_85 
REMARK   45  A    between atoms: CB_78  and  CG_79 
REMARK   46  A    between atoms: CG_79  and  CD_80 
REMARK   47  A    between atoms: CD_80  and  NE_81 
REMARK       I    between atoms: NE_81  and  CZ_82 
REMARK       I    between atoms: CZ_82  and  NH1_83 
REMARK       I    between atoms: CZ_82  and  NH2_84 
REMARK   48  A    between atoms: N_85  and  CA_86 
REMARK   49  A    between atoms: CA_86  and  C_87 
REMARK   50  A    between atoms: CA_86  and  CB_89 
REMARK       I    between atoms: C_87  and  N_92 
REMARK   51  A    between atoms: CB_89  and  OG1_90 
REMARK   52  A    between atoms: CB_89  and  CG2_91 
REMARK   53  A    between atoms: N_92  and  CA_93 
REMARK   54  A    between atoms: CA_93  and  C_94 
REMARK       I    between atoms: C_94  and  N_96 
REMARK   55  A    between atoms: N_96  and  CA_97 
REMARK   56  A    between atoms: CA_97  and  C_98 
REMARK   57  A    between atoms: CA_97  and  CB_100 
REMARK       I    between atoms: C_98  and  N_107 
REMARK   58  A    between atoms: CB_100  and  CG_101 
REMARK   59  A    between atoms: CG_101  and  CD_102 
REMARK   60  A    between atoms: CD_102  and  NE_103 
REMARK       I    between atoms: NE_103  and  CZ_104 
REMARK       I    between atoms: CZ_104  and  NH1_105 
REMARK       I    between atoms: CZ_104  and  NH2_106 
REMARK   61  A    between atoms: N_107  and  CA_108 
REMARK   62  A    between atoms: CA_108  and  C_109 
REMARK   63  A    between atoms: CA_108  and  CB_111 
REMARK       I    between atoms: C_109  and  N_118 
REMARK   64  A    between atoms: CB_111  and  CG_112 
REMARK   65  A    between atoms: CG_112  and  CD_113 
REMARK   66  A    between atoms: CD_113  and  NE_114 
REMARK       I    between atoms: NE_114  and  CZ_115 
REMARK       I    between atoms: CZ_115  and  NH1_116 
REMARK       I    between atoms: CZ_115  and  NH2_117 
REMARK   67  A    between atoms: N_118  and  CA_119 
REMARK   68  A    between atoms: CA_119  and  C_120 
REMARK   69  A    between atoms: CA_119  and  CB_122 
REMARK       I    between atoms: C_120  and  N_126 
REMARK   70  A    between atoms: CB_122  and  CG_123 
REMARK       I    between atoms: CG_123  and  ND2_125 
REMARK   71  A    between atoms: N_126  and  CA_127 
REMARK   72  A    between atoms: CA_127  and  C_128 
REMARK   73  A    between atoms: CA_127  and  CB_130 
REMARK       I    between atoms: C_128  and  N_131 
REMARK   74  A    between atoms: N_131  and  CA_132 
REMARK   75  A    between atoms: CA_132  and  C_133 
REMARK   76  A    between atoms: CA_132  and  CB_135 
REMARK   77  A    between atoms: CB_135  and  CG1_136 
REMARK   78  A    between atoms: CB_135  and  CG2_137 
REMARK   79  A    between atoms: CG1_136  and  CD1_138 
ROOT
ATOM      1  C   THR d   1       6.431 -28.997  33.961  0.00  0.00     0.236 C 
ATOM      2  O   THR d   1       5.381 -28.775  34.569  0.00  0.00    -0.272 OA
ATOM      3  N   THR d   1       6.642 -28.541  32.721  0.00  0.00    -0.346 N 
ATOM      4  H68 THR d   1       7.492 -28.788  32.257  0.00  0.00     0.163 HD
ENDROOT
BRANCH   1   5
ATOM      5  CA  THR d   1       7.520 -29.808  34.648  0.00  0.00     0.069 C 
ATOM      6  H66 THR d   1       7.753 -29.325  35.608  0.00  0.00     0.078 H 
ATOM      7  H67 THR d   1       7.129 -30.820  34.832  0.00  0.00     0.078 H 
BRANCH   5   8
ATOM      8  N   THR d   1       8.752 -29.930  33.894  0.00  0.00    -0.350 N 
ATOM      9  C   THR d   1       9.548 -28.879  33.748  0.00  0.00     0.242 C 
ATOM     10  O   THR d   1       9.376 -27.837  34.371  0.00  0.00    -0.271 OA
ATOM     11  H65 THR d   1       9.002 -30.807  33.484  0.00  0.00     0.163 HD
BRANCH   9  12
ATOM     12  CA  THR d   1      10.712 -28.970  32.777  0.00  0.00     0.109 C 
ATOM     13  H61 THR d   1      11.591 -28.506  33.248  0.00  0.00     0.090 H 
BRANCH  12  14
ATOM     14  N   THR d   1      11.061 -30.344  32.450  0.00  0.00    -0.344 N 
ATOM     15  C   THR d   1      11.617 -31.129  33.381  0.00  0.00     0.240 C 
ATOM     16  O   THR d   1      11.816 -30.745  34.537  0.00  0.00    -0.271 OA
ATOM     17  H60 THR d   1      10.886 -30.701  31.532  0.00  0.00     0.163 HD
BRANCH  15  18
ATOM     18  CA  THR d   1      12.042 -32.532  32.976  0.00  0.00     0.086 C 
ATOM     19  H56 THR d   1      11.678 -33.233  33.742  0.00  0.00     0.086 H 
BRANCH  18  20
ATOM     20  N   THR d   1      11.467 -32.926  31.697  0.00  0.00    -0.346 N 
ATOM     21  C   THR d   1      10.140 -33.081  31.594  0.00  0.00     0.241 C 
ATOM     22  O   THR d   1       9.384 -32.833  32.535  0.00  0.00    -0.271 OA
ATOM     23  H55 THR d   1      12.056 -33.079  30.904  0.00  0.00     0.163 HD
BRANCH  21  24
ATOM     24  CA  THR d   1       9.594 -33.547  30.253  0.00  0.00     0.092 C 
ATOM     25  H45 THR d   1       8.507 -33.380  30.247  0.00  0.00     0.088 H 
BRANCH  24  26
ATOM     26  N   THR d   1      10.190 -32.774  29.166  0.00  0.00    -0.346 N 
ATOM     27  C   THR d   1      10.109 -31.449  29.135  0.00  0.00     0.241 C 
ATOM     28  O   THR d   1       9.468 -30.808  29.972  0.00  0.00    -0.271 OA
ATOM     29  H44 THR d   1      10.669 -33.253  28.430  0.00  0.00     0.163 HD
BRANCH  27  30
ATOM     30  CA  THR d   1      10.837 -30.750  27.995  0.00  0.00     0.093 C 
ATOM     31  H36 THR d   1      10.873 -29.672  28.213  0.00  0.00     0.088 H 
BRANCH  30  32
ATOM     32  N   THR d   1      12.201 -31.253  27.877  0.00  0.00    -0.346 N 
ATOM     33  C   THR d   1      13.044 -31.076  28.881  0.00  0.00     0.241 C 
ATOM     34  O   THR d   1      12.705 -30.502  29.921  0.00  0.00    -0.271 OA
ATOM     35  H35 THR d   1      12.495 -31.726  27.047  0.00  0.00     0.163 HD
BRANCH  33  36
ATOM     36  CA  THR d   1      14.456 -31.627  28.709  0.00  0.00     0.098 C 
ATOM     37  H32 THR d   1      14.893 -31.791  29.705  0.00  0.00     0.088 H 
BRANCH  36  38
ATOM     38  N   THR d   1      14.431 -32.905  27.999  0.00  0.00    -0.346 N 
ATOM     39  C   THR d   1      13.804 -33.967  28.528  0.00  0.00     0.240 C 
ATOM     40  O   THR d   1      13.264 -33.938  29.639  0.00  0.00    -0.271 OA
ATOM     41  H31 THR d   1      14.885 -32.988  27.112  0.00  0.00     0.163 HD
BRANCH  39  42
ATOM     42  CA  THR d   1      13.753 -35.225  27.684  0.00  0.00     0.086 C 
ATOM     43  H27 THR d   1      12.908 -35.841  28.025  0.00  0.00     0.086 H 
BRANCH  42  44
ATOM     44  N   THR d   1      13.536 -34.884  26.275  0.00  0.00    -0.346 N 
ATOM     45  C   THR d   1      12.416 -34.247  25.904  0.00  0.00     0.241 C 
ATOM     46  O   THR d   1      11.490 -34.018  26.700  0.00  0.00    -0.271 OA
ATOM     47  H26 THR d   1      14.223 -35.127  25.590  0.00  0.00     0.163 HD
BRANCH  45  48
ATOM     48  CA  THR d   1      12.285 -33.861  24.432  0.00  0.00     0.093 C 
ATOM     49  H18 THR d   1      11.486 -33.110  24.345  0.00  0.00     0.088 H 
BRANCH  48  50
ATOM     50  N   THR d   1      13.524 -33.274  23.904  0.00  0.00    -0.346 N 
ATOM     51  C   THR d   1      14.054 -32.187  24.476  0.00  0.00     0.243 C 
ATOM     52  O   THR d   1      13.518 -31.625  25.439  0.00  0.00    -0.271 OA
ATOM     53  H17 THR d   1      13.973 -33.689  23.113  0.00  0.00     0.163 HD
BRANCH  51  54
ATOM     54  CA  THR d   1      15.371 -31.665  23.904  0.00  0.00     0.113 C 
ATOM     55  H11 THR d   1      15.804 -30.955  24.624  0.00  0.00     0.091 H 
BRANCH  54  56
ATOM     56  N   THR d   1      16.326 -32.753  23.693  0.00  0.00    -0.344 N 
ATOM     57  C   THR d   1      16.728 -33.516  24.709  0.00  0.00     0.251 C 
ATOM     58  O   THR d   1      16.335 -33.363  25.873  0.00  0.00    -0.271 OA
ATOM     59  H10 THR d   1      16.682 -32.926  22.775  0.00  0.00     0.163 HD
BRANCH  57  60
ATOM     60  CA  THR d   1      17.697 -34.632  24.348  0.00  0.00     0.199 C 
ATOM     61  H4  THR d   1      18.408 -34.252  23.600  0.00  0.00     0.103 H 
BRANCH  60  62
ATOM     62  N   THR d   1      18.466 -35.088  25.508  0.00  0.00    -0.064 N 
ATOM     63  H1  THR d   1      18.984 -34.314  25.893  0.00  0.00     0.275 HD
ATOM     64  H2  THR d   1      19.107 -35.812  25.223  0.00  0.00     0.275 HD
ATOM     65  H3  THR d   1      17.837 -35.452  26.206  0.00  0.00     0.275 HD
ENDBRANCH  60  62
BRANCH  60  66
ATOM     66  CB  THR d   1      16.887 -35.774  23.720  0.00  0.00     0.068 C 
ATOM     67  H5  THR d   1      16.550 -35.475  22.716  0.00  0.00     0.086 H 
BRANCH  66  68
ATOM     68  OG1 THR d   1      15.760 -36.044  24.543  0.00  0.00    -0.393 OA
ATOM     69  H6  THR d   1      15.221 -35.264  24.606  0.00  0.00     0.210 HD
ENDBRANCH  66  68
BRANCH  66  70
ATOM     70  CG2 THR d   1      17.737 -37.031  23.614  0.00  0.00    -0.050 C 
ATOM     71  H7  THR d   1      17.142 -37.839  23.163  0.00  0.00     0.031 H 
ATOM     72  H8  THR d   1      18.067 -37.336  24.618  0.00  0.00     0.031 H 
ATOM     73  H9  THR d   1      18.616 -36.827  22.985  0.00  0.00     0.031 H 
ENDBRANCH  66  70
ENDBRANCH  60  66
ENDBRANCH  57  60
ENDBRANCH  54  56
BRANCH  54  74
ATOM     74  CB  THR d   1      15.126 -30.939  22.593  0.00  0.00     0.060 C 
ATOM     75  H12 THR d   1      14.595 -31.607  21.899  0.00  0.00     0.086 H 
BRANCH  74  76
ATOM     76  OG1 THR d   1      16.393 -30.579  22.030  0.00  0.00    -0.393 OA
ATOM     77  H13 THR d   1      16.255 -30.123  21.208  0.00  0.00     0.210 HD
ENDBRANCH  74  76
BRANCH  74  78
ATOM     78  CG2 THR d   1      14.267 -29.678  22.833  0.00  0.00    -0.050 C 
ATOM     79  H14 THR d   1      14.097 -29.162  21.876  0.00  0.00     0.031 H 
ATOM     80  H15 THR d   1      14.792 -29.003  23.525  0.00  0.00     0.031 H 
ATOM     81  H16 THR d   1      13.300 -29.970  23.268  0.00  0.00     0.031 H 
ENDBRANCH  74  78
ENDBRANCH  54  74
ENDBRANCH  51  54
ENDBRANCH  48  50
BRANCH  48  82
ATOM     82  CB  THR d   1      11.894 -35.083  23.605  0.00  0.00    -0.014 C 
ATOM     83  H19 THR d   1      12.743 -35.782  23.599  0.00  0.00     0.043 H 
ATOM     84  H20 THR d   1      11.685 -34.752  22.577  0.00  0.00     0.043 H 
BRANCH  82  85
ATOM     85  CG  THR d   1      10.677 -35.817  24.125  0.00  0.00    -0.056 A 
ATOM     86  CD1 THR d   1      10.792 -37.040  24.772  0.00  0.00    -0.074 A 
ATOM     87  CE1 THR d   1       9.654 -37.707  25.230  0.00  0.00    -0.051 A 
ATOM     88  H21 THR d   1      11.771 -37.480  24.922  0.00  0.00     0.084 H 
ATOM     89  CZ  THR d   1       8.404 -37.118  25.046  0.00  0.00     0.065 A 
ATOM     90  H23 THR d   1       9.741 -38.669  25.722  0.00  0.00     0.087 H 
ATOM     91  CE2 THR d   1       8.298 -35.908  24.413  0.00  0.00    -0.051 A 
ATOM     92  CD2 THR d   1       9.407 -35.275  23.969  0.00  0.00    -0.074 A 
ATOM     93  H24 THR d   1       7.323 -35.457  24.268  0.00  0.00     0.087 H 
ATOM     94  H22 THR d   1       9.302 -34.315  23.476  0.00  0.00     0.084 H 
BRANCH  89  95
ATOM     95  OH  THR d   1       7.245 -37.724  25.486  0.00  0.00    -0.361 OA
ATOM     96  H25 THR d   1       6.671 -37.882  24.746  0.00  0.00     0.217 HD
ENDBRANCH  89  95
ENDBRANCH  82  85
ENDBRANCH  48  82
ENDBRANCH  45  48
ENDBRANCH  42  44
BRANCH  42  97
ATOM     97  CB  THR d   1      15.039 -36.031  27.864  0.00  0.00    -0.049 C 
ATOM     98  H28 THR d   1      15.175 -36.272  28.929  0.00  0.00     0.030 H 
ATOM     99  H29 THR d   1      15.896 -35.439  27.510  0.00  0.00     0.030 H 
ATOM    100  H30 THR d   1      14.972 -36.963  27.283  0.00  0.00     0.030 H 
ENDBRANCH  42  97
ENDBRANCH  39  42
ENDBRANCH  36  38
BRANCH  36 101
ATOM    101  CB  THR d   1      15.316 -30.610  27.960  0.00  0.00     0.043 C 
ATOM    102  H33 THR d   1      15.221 -29.636  28.462  0.00  0.00     0.052 H 
ATOM    103  H34 THR d   1      14.942 -30.529  26.929  0.00  0.00     0.052 H 
BRANCH 101 104
ATOM    104  CG  THR d   1      16.804 -30.989  27.910  0.00  0.00     0.175 C 
ATOM    105  OD1 THR d   1      17.257 -31.827  28.725  0.00  0.00    -0.648 OA
ATOM    106  OD2 THR d   1      17.518 -30.428  27.043  0.00  0.00    -0.648 OA
ENDBRANCH 101 104
ENDBRANCH  36 101
ENDBRANCH  33  36
ENDBRANCH  30  32
BRANCH  30 107
ATOM    107  CB  THR d   1      10.111 -30.958  26.672  0.00  0.00    -0.014 C 
ATOM    108  H37 THR d   1      10.155 -32.028  26.419  0.00  0.00     0.043 H 
ATOM    109  H38 THR d   1      10.633 -30.377  25.898  0.00  0.00     0.043 H 
BRANCH 107 110
ATOM    110  CG  THR d   1       8.671 -30.538  26.683  0.00  0.00    -0.056 A 
ATOM    111  CD1 THR d   1       7.689 -31.400  26.235  0.00  0.00    -0.077 A 
ATOM    112  CE1 THR d   1       6.339 -31.001  26.208  0.00  0.00    -0.082 A 
ATOM    113  H39 THR d   1       7.961 -32.395  25.901  0.00  0.00     0.084 H 
ATOM    114  CZ  THR d   1       5.989 -29.735  26.633  0.00  0.00    -0.083 A 
ATOM    115  H41 THR d   1       5.577 -31.686  25.855  0.00  0.00     0.083 H 
ATOM    116  CE2 THR d   1       6.973 -28.870  27.068  0.00  0.00    -0.082 A 
ATOM    117  H43 THR d   1       4.951 -29.423  26.625  0.00  0.00     0.083 H 
ATOM    118  CD2 THR d   1       8.303 -29.266  27.078  0.00  0.00    -0.077 A 
ATOM    119  H42 THR d   1       6.705 -27.875  27.404  0.00  0.00     0.083 H 
ATOM    120  H40 THR d   1       9.065 -28.566  27.401  0.00  0.00     0.084 H 
ENDBRANCH 107 110
ENDBRANCH  30 107
ENDBRANCH  27  30
ENDBRANCH  24  26
BRANCH  24 121
ATOM    121  CB  THR d   1       9.856 -35.044  30.030  0.00  0.00    -0.030 C 
ATOM    122  H46 THR d   1      10.943 -35.199  29.970  0.00  0.00     0.043 H 
BRANCH 121 123
ATOM    123  CG1 THR d   1       9.224 -35.511  28.727  0.00  0.00    -0.063 C 
ATOM    124  H47 THR d   1       9.638 -34.931  27.889  0.00  0.00     0.033 H 
ATOM    125  H48 THR d   1       8.135 -35.362  28.773  0.00  0.00     0.033 H 
BRANCH 123 126
ATOM    126  CD1 THR d   1       9.522 -36.965  28.524  0.00  0.00    -0.076 C 
ATOM    127  H52 THR d   1       9.066 -37.305  27.582  0.00  0.00     0.027 H 
ATOM    128  H53 THR d   1       9.108 -37.545  29.362  0.00  0.00     0.027 H 
ATOM    129  H54 THR d   1      10.611 -37.113  28.478  0.00  0.00     0.027 H 
ENDBRANCH 123 126
ENDBRANCH 121 123
BRANCH 121 130
ATOM    130  CG2 THR d   1       9.309 -35.883  31.184  0.00  0.00    -0.071 C 
ATOM    131  H49 THR d   1       9.764 -35.548  32.128  0.00  0.00     0.028 H 
ATOM    132  H50 THR d   1       9.553 -36.942  31.015  0.00  0.00     0.028 H 
ATOM    133  H51 THR d   1       8.217 -35.762  31.240  0.00  0.00     0.028 H 
ENDBRANCH 121 130
ENDBRANCH  24 121
ENDBRANCH  21  24
ENDBRANCH  18  20
BRANCH  18 134
ATOM    134  CB  THR d   1      13.570 -32.624  32.926  0.00  0.00    -0.049 C 
ATOM    135  H57 THR d   1      13.987 -32.324  33.898  0.00  0.00     0.030 H 
ATOM    136  H58 THR d   1      13.952 -31.955  32.141  0.00  0.00     0.030 H 
ATOM    137  H59 THR d   1      13.868 -33.659  32.703  0.00  0.00     0.030 H 
ENDBRANCH  18 134
ENDBRANCH  15  18
ENDBRANCH  12  14
BRANCH  12 138
ATOM    138  CB  THR d   1      10.356 -28.171  31.524  0.00  0.00     0.044 C 
ATOM    139  H62 THR d   1      11.058 -28.434  30.719  0.00  0.00     0.077 H 
ATOM    140  H63 THR d   1      10.441 -27.097  31.747  0.00  0.00     0.077 H 
BRANCH 138 141
ATOM    141  OG  THR d   1       9.035 -28.451  31.095  0.00  0.00    -0.398 OA
ATOM    142  H64 THR d   1       8.957 -29.377  30.897  0.00  0.00     0.209 HD
ENDBRANCH 138 141
ENDBRANCH  12 138
ENDBRANCH   9  12
ENDBRANCH   5   8
ENDBRANCH   1   5
BRANCH   3 143
ATOM    143  CA  THR d   1       5.676 -27.693  32.016  0.00  0.00     0.089 C 
ATOM    144  H69 THR d   1       4.850 -27.484  32.712  0.00  0.00     0.087 H 
BRANCH 143 145
ATOM    145  C   THR d   1       5.079 -28.387  30.790  0.00  0.00     0.241 C 
ATOM    146  O   THR d   1       4.880 -27.775  29.738  0.00  0.00    -0.271 OA
ATOM    147  N   THR d   1       4.783 -29.677  30.923  0.00  0.00    -0.344 N 
ATOM    148  H81 THR d   1       5.016 -30.139  31.779  0.00  0.00     0.163 HD
BRANCH 147 149
ATOM    149  CA  THR d   1       4.133 -30.439  29.871  0.00  0.00     0.113 C 
ATOM    150  H82 THR d   1       4.406 -29.981  28.909  0.00  0.00     0.091 H 
BRANCH 149 151
ATOM    151  C   THR d   1       2.610 -30.426  29.980  0.00  0.00     0.243 C 
ATOM    152  O   THR d   1       1.942 -30.807  29.010  0.00  0.00    -0.271 OA
ATOM    153  N   THR d   1       2.052 -29.994  31.130  0.00  0.00    -0.350 N 
ATOM    154  H88 THR d   1       2.650 -29.730  31.887  0.00  0.00     0.163 HD
BRANCH 153 155
ATOM    155  CA  THR d   1       0.613 -29.898  31.308  0.00  0.00     0.069 C 
ATOM    156  H89 THR d   1       0.388 -29.976  32.382  0.00  0.00     0.078 H 
ATOM    157  H90 THR d   1       0.138 -30.733  30.773  0.00  0.00     0.078 H 
BRANCH 155 158
ATOM    158  C   THR d   1       0.026 -28.590  30.783  0.00  0.00     0.236 C 
ATOM    159  O   THR d   1       0.718 -27.726  30.234  0.00  0.00    -0.272 OA
ATOM    160  N   THR d   1      -1.288 -28.462  30.939  0.00  0.00    -0.346 N 
ATOM    161  H91 THR d   1      -1.819 -29.208  31.341  0.00  0.00     0.163 HD
BRANCH 160 162
ATOM    162  CA  THR d   1      -1.957 -27.232  30.523  0.00  0.00     0.089 C 
ATOM    163  H92 THR d   1      -1.823 -27.106  29.439  0.00  0.00     0.087 H 
BRANCH 162 164
ATOM    164  C   THR d   1      -1.325 -26.054  31.236  0.00  0.00     0.241 C 
ATOM    165  O   THR d   1      -1.049 -26.124  32.441  0.00  0.00    -0.271 OA
ATOM    166  N   THR d   1      -1.048 -24.984  30.481  0.00  0.00    -0.346 N 
ATOM    167 4H10 THR d   1      -1.351 -24.974  29.528  0.00  0.00     0.163 HD
BRANCH 166 168
ATOM    168  CA  THR d   1      -0.323 -23.837  30.997  0.00  0.00     0.089 C 
ATOM    169 5H10 THR d   1       0.155 -24.123  31.946  0.00  0.00     0.087 H 
BRANCH 168 170
ATOM    170  C   THR d   1      -1.290 -22.688  31.260  0.00  0.00     0.241 C 
ATOM    171  O   THR d   1      -2.108 -22.347  30.394  0.00  0.00    -0.271 OA
ATOM    172  N   THR d   1      -1.172 -22.090  32.438  0.00  0.00    -0.346 N 
ATOM    173 7H11 THR d   1      -0.514 -22.456  33.096  0.00  0.00     0.163 HD
BRANCH 172 174
ATOM    174  CA  THR d   1      -1.959 -20.922  32.816  0.00  0.00     0.097 C 
ATOM    175 8H11 THR d   1      -2.988 -21.054  32.450  0.00  0.00     0.088 H 
BRANCH 174 176
ATOM    176  C   THR d   1      -1.371 -19.659  32.209  0.00  0.00     0.241 C 
ATOM    177  O   THR d   1      -0.152 -19.543  32.057  0.00  0.00    -0.271 OA
ATOM    178  N   THR d   1      -2.246 -18.710  31.868  0.00  0.00    -0.346 N 
ATOM    179 3H12 THR d   1      -3.220 -18.927  31.797  0.00  0.00     0.163 HD
BRANCH 178 180
ATOM    180  CA  THR d   1      -1.778 -17.360  31.600  0.00  0.00     0.086 C 
ATOM    181 4H12 THR d   1      -0.987 -17.407  30.837  0.00  0.00     0.086 H 
BRANCH 180 182
ATOM    182  C   THR d   1      -1.198 -16.755  32.879  0.00  0.00     0.240 C 
ATOM    183  O   THR d   1      -1.506 -17.187  34.000  0.00  0.00    -0.271 OA
ATOM    184  N   THR d   1      -0.330 -15.760  32.699  0.00  0.00    -0.344 N 
ATOM    185 8H12 THR d   1      -0.122 -15.461  31.768  0.00  0.00     0.163 HD
BRANCH 184 186
ATOM    186  CA  THR d   1       0.324 -15.095  33.816  0.00  0.00     0.099 C 
ATOM    187 9H12 THR d   1       0.620 -15.857  34.553  0.00  0.00     0.090 H 
BRANCH 186 188
ATOM    188  C   THR d   1      -0.668 -14.147  34.453  0.00  0.00     0.197 C 
ATOM    189  O   THR d   1      -0.427 -13.646  35.546  0.00  0.00    -0.646 OA
ATOM    190  OXT THR d   1      -1.713 -13.837  33.882  0.00  0.00    -0.646 OA
ENDBRANCH 186 188
BRANCH 186 191
ATOM    191  CB  THR d   1       1.590 -14.316  33.389  0.00  0.00    -0.029 C 
ATOM    192 0H13 THR d   1       2.019 -13.838  34.282  0.00  0.00     0.043 H 
BRANCH 191 193
ATOM    193  CG1 THR d   1       1.224 -13.237  32.383  0.00  0.00    -0.063 C 
ATOM    194 1H13 THR d   1       0.530 -12.533  32.865  0.00  0.00     0.033 H 
ATOM    195 2H13 THR d   1       0.726 -13.714  31.526  0.00  0.00     0.033 H 
BRANCH 193 196
ATOM    196  CD1 THR d   1       2.419 -12.458  31.871  0.00  0.00    -0.076 C 
ATOM    197 6H13 THR d   1       2.080 -11.698  31.151  0.00  0.00     0.027 H 
ATOM    198 7H13 THR d   1       3.120 -13.146  31.376  0.00  0.00     0.027 H 
ATOM    199 8H13 THR d   1       2.924 -11.964  32.715  0.00  0.00     0.027 H 
ENDBRANCH 193 196
ENDBRANCH 191 193
BRANCH 191 200
ATOM    200  CG2 THR d   1       2.630 -15.225  32.787  0.00  0.00    -0.070 C 
ATOM    201 3H13 THR d   1       2.897 -16.007  33.513  0.00  0.00     0.028 H 
ATOM    202 4H13 THR d   1       3.526 -14.639  32.532  0.00  0.00     0.028 H 
ATOM    203 5H13 THR d   1       2.226 -15.692  31.877  0.00  0.00     0.028 H 
ENDBRANCH 191 200
ENDBRANCH 186 191
ENDBRANCH 184 186
ENDBRANCH 180 182
BRANCH 180 204
ATOM    204  CB  THR d   1      -2.915 -16.477  31.071  0.00  0.00    -0.049 C 
ATOM    205 5H12 THR d   1      -2.533 -15.464  30.878  0.00  0.00     0.030 H 
ATOM    206 6H12 THR d   1      -3.720 -16.428  31.819  0.00  0.00     0.030 H 
ATOM    207 7H12 THR d   1      -3.308 -16.905  30.137  0.00  0.00     0.030 H 
ENDBRANCH 180 204
ENDBRANCH 178 180
ENDBRANCH 174 176
BRANCH 174 208
ATOM    208  CB  THR d   1      -1.982 -20.763  34.340  0.00  0.00     0.036 C 
ATOM    209 9H11 THR d   1      -2.432 -19.791  34.590  0.00  0.00     0.051 H 
ATOM    210 0H12 THR d   1      -0.949 -20.797  34.717  0.00  0.00     0.051 H 
BRANCH 208 211
ATOM    211  CG  THR d   1      -2.775 -21.848  35.000  0.00  0.00     0.217 C 
ATOM    212  OD1 THR d   1      -3.684 -22.376  34.392  0.00  0.00    -0.274 OA
ATOM    213  ND2 THR d   1      -2.416 -22.216  36.225  0.00  0.00    -0.370 N 
ATOM    214 1H12 THR d   1      -2.921 -22.937  36.699  0.00  0.00     0.159 HD
ATOM    215 2H12 THR d   1      -1.640 -21.772  36.673  0.00  0.00     0.159 HD
ENDBRANCH 208 211
ENDBRANCH 174 208
ENDBRANCH 172 174
ENDBRANCH 168 170
BRANCH 168 216
ATOM    216  CB  THR d   1       0.770 -23.383  30.017  0.00  0.00    -0.036 C 
ATOM    217 6H10 THR d   1       1.194 -22.433  30.374  0.00  0.00     0.036 H 
ATOM    218 7H10 THR d   1       0.318 -23.233  29.026  0.00  0.00     0.036 H 
BRANCH 216 219
ATOM    219  CG  THR d   1       1.897 -24.411  29.895  0.00  0.00    -0.048 C 
ATOM    220 8H10 THR d   1       1.479 -25.416  30.055  0.00  0.00     0.035 H 
ATOM    221 9H10 THR d   1       2.652 -24.201  30.667  0.00  0.00     0.035 H 
BRANCH 219 222
ATOM    222  CD  THR d   1       2.570 -24.371  28.525  0.00  0.00     0.009 C 
ATOM    223 0H11 THR d   1       3.400 -25.093  28.524  0.00  0.00     0.064 H 
ATOM    224 1H11 THR d   1       2.965 -23.358  28.360  0.00  0.00     0.064 H 
BRANCH 222 225
ATOM    225  NE  THR d   1       1.655 -24.706  27.407  0.00  0.00    -0.227 N 
ATOM    226  CZ  THR d   1       2.055 -25.076  26.185  0.00  0.00     0.665 C 
ATOM    227  NH1 THR d   1       3.367 -25.205  25.899  0.00  0.00    -0.235 N 
ATOM    228  NH2 THR d   1       1.142 -25.334  25.236  0.00  0.00    -0.235 N 
ATOM    229 3H11 THR d   1       3.663 -25.491  24.954  0.00  0.00     0.174 HD
ATOM    230 4H11 THR d   1       4.073 -25.018  26.625  0.00  0.00     0.174 HD
ATOM    231 5H11 THR d   1       0.139 -25.238  25.447  0.00  0.00     0.174 HD
ATOM    232 6H11 THR d   1       1.445 -25.628  24.297  0.00  0.00     0.174 HD
ATOM    233 2H11 THR d   1       0.642 -24.650  27.583  0.00  0.00     0.177 HD
ENDBRANCH 222 225
ENDBRANCH 219 222
ENDBRANCH 216 219
ENDBRANCH 168 216
ENDBRANCH 166 168
ENDBRANCH 162 164
BRANCH 162 234
ATOM    234  CB  THR d   1      -3.466 -27.294  30.827  0.00  0.00    -0.036 C 
ATOM    235  H93 THR d   1      -3.903 -26.299  30.655  0.00  0.00     0.036 H 
ATOM    236  H94 THR d   1      -3.604 -27.578  31.881  0.00  0.00     0.036 H 
BRANCH 234 237
ATOM    237  CG  THR d   1      -4.204 -28.327  29.930  0.00  0.00    -0.048 C 
ATOM    238  H95 THR d   1      -3.828 -29.331  30.176  0.00  0.00     0.035 H 
ATOM    239  H96 THR d   1      -3.977 -28.098  28.878  0.00  0.00     0.035 H 
BRANCH 237 240
ATOM    240  CD  THR d   1      -5.739 -28.325  30.108  0.00  0.00     0.009 C 
ATOM    241  H97 THR d   1      -5.976 -28.229  31.178  0.00  0.00     0.064 H 
ATOM    242  H98 THR d   1      -6.146 -29.273  29.726  0.00  0.00     0.064 H 
BRANCH 240 243
ATOM    243  NE  THR d   1      -6.356 -27.212  29.380  0.00  0.00    -0.227 N 
ATOM    244  CZ  THR d   1      -6.760 -26.082  29.952  0.00  0.00     0.665 C 
ATOM    245  NH1 THR d   1      -6.628 -25.922  31.262  0.00  0.00    -0.235 N 
ATOM    246  NH2 THR d   1      -7.313 -25.115  29.228  0.00  0.00    -0.235 N 
ATOM    247 0H10 THR d   1      -6.940 -25.048  31.708  0.00  0.00     0.174 HD
ATOM    248 1H10 THR d   1      -6.213 -26.672  31.833  0.00  0.00     0.174 HD
ATOM    249 2H10 THR d   1      -7.420 -25.230  28.210  0.00  0.00     0.174 HD
ATOM    250 3H10 THR d   1      -7.635 -24.250  29.685  0.00  0.00     0.174 HD
ATOM    251  H99 THR d   1      -6.484 -27.312  28.363  0.00  0.00     0.177 HD
ENDBRANCH 240 243
ENDBRANCH 237 240
ENDBRANCH 234 237
ENDBRANCH 162 234
ENDBRANCH 160 162
ENDBRANCH 155 158
ENDBRANCH 153 155
ENDBRANCH 149 151
BRANCH 149 252
ATOM    252  CB  THR d   1       4.634 -31.892  29.875  0.00  0.00     0.060 C 
ATOM    253  H83 THR d   1       4.335 -32.385  28.938  0.00  0.00     0.086 H 
BRANCH 252 254
ATOM    254  OG1 THR d   1       4.068 -32.587  30.984  0.00  0.00    -0.393 OA
ATOM    255  H84 THR d   1       4.329 -32.159  31.791  0.00  0.00     0.210 HD
ENDBRANCH 252 254
BRANCH 252 256
ATOM    256  CG2 THR d   1       6.156 -31.916  30.002  0.00  0.00    -0.050 C 
ATOM    257  H85 THR d   1       6.507 -32.958  30.004  0.00  0.00     0.031 H 
ATOM    258  H86 THR d   1       6.453 -31.427  30.941  0.00  0.00     0.031 H 
ATOM    259  H87 THR d   1       6.603 -31.380  29.152  0.00  0.00     0.031 H 
ENDBRANCH 252 256
ENDBRANCH 149 252
ENDBRANCH 147 149
ENDBRANCH 143 145
BRANCH 143 260
ATOM    260  CB  THR d   1       6.311 -26.357  31.629  0.00  0.00    -0.036 C 
ATOM    261  H70 THR d   1       5.588 -25.775  31.038  0.00  0.00     0.036 H 
ATOM    262  H71 THR d   1       7.209 -26.550  31.024  0.00  0.00     0.036 H 
BRANCH 260 263
ATOM    263  CG  THR d   1       6.720 -25.525  32.900  0.00  0.00    -0.048 C 
ATOM    264  H72 THR d   1       7.537 -26.057  33.410  0.00  0.00     0.035 H 
ATOM    265  H73 THR d   1       5.847 -25.466  33.567  0.00  0.00     0.035 H 
BRANCH 263 266
ATOM    266  CD  THR d   1       7.191 -24.099  32.603  0.00  0.00     0.009 C 
ATOM    267  H74 THR d   1       8.062 -24.158  31.934  0.00  0.00     0.064 H 
ATOM    268  H75 THR d   1       7.489 -23.631  33.553  0.00  0.00     0.064 H 
BRANCH 266 269
ATOM    269  NE  THR d   1       6.183 -23.241  31.967  0.00  0.00    -0.227 N 
ATOM    270  CZ  THR d   1       5.211 -22.597  32.610  0.00  0.00     0.665 C 
ATOM    271  NH1 THR d   1       5.075 -22.703  33.910  0.00  0.00    -0.235 N 
ATOM    272  NH2 THR d   1       4.372 -21.821  31.941  0.00  0.00    -0.235 N 
ATOM    273  H77 THR d   1       4.317 -22.198  34.391  0.00  0.00     0.174 HD
ATOM    274  H78 THR d   1       5.726 -23.291  34.450  0.00  0.00     0.174 HD
ATOM    275  H79 THR d   1       4.463 -21.725  30.919  0.00  0.00     0.174 HD
ATOM    276  H80 THR d   1       3.629 -21.314  32.442  0.00  0.00     0.174 HD
ATOM    277  H76 THR d   1       6.232 -23.129  30.944  0.00  0.00     0.177 HD
ENDBRANCH 266 269
ENDBRANCH 263 266
ENDBRANCH 260 263
ENDBRANCH 143 260
ENDBRANCH   3 143
TORSDOF 79
