REMARK WARNING: 32 MAX_TORS EXCEEDED!!!
REMARK  79 active torsions:
REMARK  status: ('A' for Active; 'I' for Inactive)
REMARK    1  A    between atoms: N_1  and  CA_2 
REMARK    2  A    between atoms: CA_2  and  C_3 
REMARK    3  A    between atoms: CA_2  and  CB_5 
REMARK       I    between atoms: C_3  and  N_8 
REMARK    4  A    between atoms: CB_5  and  OG1_6 
REMARK    5  A    between atoms: CB_5  and  CG2_7 
REMARK    6  A    between atoms: N_8  and  CA_9 
REMARK    7  A    between atoms: CA_9  and  C_10 
REMARK    8  A    between atoms: CA_9  and  CB_12 
REMARK       I    between atoms: C_10  and  N_15 
REMARK    9  A    between atoms: CB_12  and  OG1_13 
REMARK   10  A    between atoms: CB_12  and  CG2_14 
REMARK   11  A    between atoms: N_15  and  CA_16 
REMARK   12  A    between atoms: CA_16  and  C_17 
REMARK   13  A    between atoms: CA_16  and  CB_19 
REMARK       I    between atoms: C_17  and  N_27 
REMARK   14  A    between atoms: CB_19  and  CG_20 
REMARK   15  A    between atoms: CZ_25  and  OH_26 
REMARK   16  A    between atoms: N_27  and  CA_28 
REMARK   17  A    between atoms: CA_28  and  C_29 
REMARK   18  A    between atoms: CA_28  and  CB_31 
REMARK       I    between atoms: C_29  and  N_32 
REMARK   19  A    between atoms: N_32  and  CA_33 
REMARK   20  A    between atoms: CA_33  and  C_34 
REMARK   21  A    between atoms: CA_33  and  CB_36 
REMARK       I    between atoms: C_34  and  N_40 
REMARK   22  A    between atoms: CB_36  and  CG_37 
REMARK   23  A    between atoms: N_40  and  CA_41 
REMARK   24  A    between atoms: CA_41  and  C_42 
REMARK   25  A    between atoms: CA_41  and  CB_44 
REMARK       I    between atoms: C_42  and  N_51 
REMARK   26  A    between atoms: CB_44  and  CG_45 
REMARK   27  A    between atoms: N_51  and  CA_52 
REMARK   28  A    between atoms: CA_52  and  C_53 
REMARK   29  A    between atoms: CA_52  and  CB_55 
REMARK       I    between atoms: C_53  and  N_59 
REMARK   30  A    between atoms: CB_55  and  CG1_56 
REMARK   31  A    between atoms: CB_55  and  CG2_57 
REMARK   32  A    between atoms: CG1_56  and  CD1_58 
REMARK   33  A    between atoms: N_59  and  CA_60 
REMARK   34  A    between atoms: CA_60  and  C_61 
REMARK   35  A    between atoms: CA_60  and  CB_63 
REMARK       I    between atoms: C_61  and  N_64 
REMARK   36  A    between atoms: N_64  and  CA_65 
REMARK   37  A    between atoms: CA_65  and  C_66 
REMARK   38  A    between atoms: CA_65  and  CB_68 
REMARK       I    between atoms: C_66  and  N_70 
REMARK   39  A    between atoms: CB_68  and  OG_69 
REMARK   40  A    between atoms: N_70  and  CA_71 
REMARK   41  A    between atoms: CA_71  and  C_72 
REMARK       I    between atoms: C_72  and  N_74 
REMARK   42  A    between atoms: N_74  and  CA_75 
REMARK   43  A    between atoms: CA_75  and  C_76 
REMARK   44  A    between atoms: CA_75  and  CB_78 
REMARK       I    between atoms: C_76  and  N_85 
REMARK   45  A    between atoms: CB_78  and  CG_79 
REMARK   46  A    between atoms: CG_79  and  CD_80 
REMARK   47  A    between atoms: CD_80  and  NE_81 
REMARK       I    between atoms: NE_81  and  CZ_82 
REMARK       I    between atoms: CZ_82  and  NH1_83 
REMARK       I    between atoms: CZ_82  and  NH2_84 
REMARK   48  A    between atoms: N_85  and  CA_86 
REMARK   49  A    between atoms: CA_86  and  C_87 
REMARK   50  A    between atoms: CA_86  and  CB_89 
REMARK       I    between atoms: C_87  and  N_92 
REMARK   51  A    between atoms: CB_89  and  OG1_90 
REMARK   52  A    between atoms: CB_89  and  CG2_91 
REMARK   53  A    between atoms: N_92  and  CA_93 
REMARK   54  A    between atoms: CA_93  and  C_94 
REMARK       I    between atoms: C_94  and  N_96 
REMARK   55  A    between atoms: N_96  and  CA_97 
REMARK   56  A    between atoms: CA_97  and  C_98 
REMARK   57  A    between atoms: CA_97  and  CB_100 
REMARK       I    between atoms: C_98  and  N_107 
REMARK   58  A    between atoms: CB_100  and  CG_101 
REMARK   59  A    between atoms: CG_101  and  CD_102 
REMARK   60  A    between atoms: CD_102  and  NE_103 
REMARK       I    between atoms: NE_103  and  CZ_104 
REMARK       I    between atoms: CZ_104  and  NH1_105 
REMARK       I    between atoms: CZ_104  and  NH2_106 
REMARK   61  A    between atoms: N_107  and  CA_108 
REMARK   62  A    between atoms: CA_108  and  C_109 
REMARK   63  A    between atoms: CA_108  and  CB_111 
REMARK       I    between atoms: C_109  and  N_118 
REMARK   64  A    between atoms: CB_111  and  CG_112 
REMARK   65  A    between atoms: CG_112  and  CD_113 
REMARK   66  A    between atoms: CD_113  and  NE_114 
REMARK       I    between atoms: NE_114  and  CZ_115 
REMARK       I    between atoms: CZ_115  and  NH1_116 
REMARK       I    between atoms: CZ_115  and  NH2_117 
REMARK   67  A    between atoms: N_118  and  CA_119 
REMARK   68  A    between atoms: CA_119  and  C_120 
REMARK   69  A    between atoms: CA_119  and  CB_122 
REMARK       I    between atoms: C_120  and  N_126 
REMARK   70  A    between atoms: CB_122  and  CG_123 
REMARK       I    between atoms: CG_123  and  ND2_125 
REMARK   71  A    between atoms: N_126  and  CA_127 
REMARK   72  A    between atoms: CA_127  and  C_128 
REMARK   73  A    between atoms: CA_127  and  CB_130 
REMARK       I    between atoms: C_128  and  N_131 
REMARK   74  A    between atoms: N_131  and  CA_132 
REMARK   75  A    between atoms: CA_132  and  C_133 
REMARK   76  A    between atoms: CA_132  and  CB_135 
REMARK   77  A    between atoms: CB_135  and  CG1_136 
REMARK   78  A    between atoms: CB_135  and  CG2_137 
REMARK   79  A    between atoms: CG1_136  and  CD1_138 
ROOT
ATOM      1  C   THR d   1      -6.476 -26.779 -34.560  0.00  0.00     0.236 C 
ATOM      2  O   THR d   1      -5.388 -26.642 -35.125  0.00  0.00    -0.272 OA
ATOM      3  N   THR d   1      -6.715 -26.243 -33.368  0.00  0.00    -0.346 N 
ATOM      4  H68 THR d   1      -7.610 -26.380 -32.943  0.00  0.00     0.163 HD
ENDROOT
BRANCH   1   5
ATOM      5  CA  THR d   1      -7.570 -27.572 -35.250  0.00  0.00     0.069 C 
ATOM      6  H66 THR d   1      -7.751 -27.113 -36.233  0.00  0.00     0.078 H 
ATOM      7  H67 THR d   1      -7.206 -28.601 -35.387  0.00  0.00     0.078 H 
BRANCH   5   8
ATOM      8  N   THR d   1      -8.834 -27.637 -34.551  0.00  0.00    -0.350 N 
ATOM      9  C   THR d   1      -9.648 -26.588 -34.520  0.00  0.00     0.242 C 
ATOM     10  O   THR d   1      -9.403 -25.547 -35.134  0.00  0.00    -0.271 OA
ATOM     11  H65 THR d   1      -9.098 -28.482 -34.086  0.00  0.00     0.163 HD
BRANCH   9  12
ATOM     12  CA  THR d   1     -10.894 -26.664 -33.649  0.00  0.00     0.109 C 
ATOM     13  H61 THR d   1     -11.727 -26.195 -34.194  0.00  0.00     0.090 H 
BRANCH  12  14
ATOM     14  N   THR d   1     -11.279 -28.034 -33.332  0.00  0.00    -0.344 N 
ATOM     15  C   THR d   1     -11.736 -28.854 -34.281  0.00  0.00     0.240 C 
ATOM     16  O   THR d   1     -11.812 -28.517 -35.467  0.00  0.00    -0.271 OA
ATOM     17  H60 THR d   1     -11.200 -28.364 -32.391  0.00  0.00     0.163 HD
BRANCH  15  18
ATOM     18  CA  THR d   1     -12.167 -30.258 -33.879  0.00  0.00     0.086 C 
ATOM     19  H56 THR d   1     -11.817 -30.954 -34.655  0.00  0.00     0.086 H 
BRANCH  18  20
ATOM     20  N   THR d   1     -11.591 -30.683 -32.608  0.00  0.00    -0.346 N 
ATOM     21  C   THR d   1     -10.279 -30.911 -32.496  0.00  0.00     0.241 C 
ATOM     22  O   THR d   1      -9.497 -30.700 -33.429  0.00  0.00    -0.271 OA
ATOM     23  H55 THR d   1     -12.184 -30.805 -31.812  0.00  0.00     0.163 HD
BRANCH  21  24
ATOM     24  CA  THR d   1      -9.778 -31.410 -31.146  0.00  0.00     0.092 C 
ATOM     25  H45 THR d   1      -8.686 -31.278 -31.117  0.00  0.00     0.088 H 
BRANCH  24  26
ATOM     26  N   THR d   1     -10.365 -30.619 -30.065  0.00  0.00    -0.346 N 
ATOM     27  C   THR d   1     -10.225 -29.295 -30.045  0.00  0.00     0.241 C 
ATOM     28  O   THR d   1      -9.545 -28.696 -30.889  0.00  0.00    -0.271 OA
ATOM     29  H44 THR d   1     -10.875 -31.076 -29.336  0.00  0.00     0.163 HD
BRANCH  27  30
ATOM     30  CA  THR d   1     -10.964 -28.532 -28.948  0.00  0.00     0.093 C 
ATOM     31  H36 THR d   1     -10.943 -27.463 -29.205  0.00  0.00     0.088 H 
BRANCH  30  32
ATOM     32  N   THR d   1     -12.363 -28.961 -28.860  0.00  0.00    -0.346 N 
ATOM     33  C   THR d   1     -13.183 -28.824 -29.906  0.00  0.00     0.241 C 
ATOM     34  O   THR d   1     -12.824 -28.275 -30.956  0.00  0.00    -0.271 OA
ATOM     35  H35 THR d   1     -12.707 -29.360 -28.010  0.00  0.00     0.163 HD
BRANCH  33  36
ATOM     36  CA  THR d   1     -14.601 -29.367 -29.759  0.00  0.00     0.098 C 
ATOM     37  H32 THR d   1     -15.018 -29.528 -30.764  0.00  0.00     0.088 H 
BRANCH  36  38
ATOM     38  N   THR d   1     -14.602 -30.647 -29.052  0.00  0.00    -0.346 N 
ATOM     39  C   THR d   1     -13.916 -31.692 -29.534  0.00  0.00     0.240 C 
ATOM     40  O   THR d   1     -13.342 -31.659 -30.631  0.00  0.00    -0.271 OA
ATOM     41  H31 THR d   1     -15.119 -30.743 -28.201  0.00  0.00     0.163 HD
BRANCH  39  42
ATOM     42  CA  THR d   1     -13.861 -32.950 -28.675  0.00  0.00     0.086 C 
ATOM     43  H27 THR d   1     -13.009 -33.558 -29.012  0.00  0.00     0.086 H 
BRANCH  42  44
ATOM     44  N   THR d   1     -13.661 -32.624 -27.269  0.00  0.00    -0.346 N 
ATOM     45  C   THR d   1     -12.585 -31.927 -26.884  0.00  0.00     0.241 C 
ATOM     46  O   THR d   1     -11.709 -31.575 -27.683  0.00  0.00    -0.271 OA
ATOM     47  H26 THR d   1     -14.331 -32.922 -26.589  0.00  0.00     0.163 HD
BRANCH  45  48
ATOM     48  CA  THR d   1     -12.466 -31.596 -25.403  0.00  0.00     0.093 C 
ATOM     49  H18 THR d   1     -11.685 -30.831 -25.284  0.00  0.00     0.088 H 
BRANCH  48  50
ATOM     50  N   THR d   1     -13.717 -31.060 -24.878  0.00  0.00    -0.346 N 
ATOM     51  C   THR d   1     -14.242 -29.937 -25.377  0.00  0.00     0.243 C 
ATOM     52  O   THR d   1     -13.693 -29.296 -26.281  0.00  0.00    -0.271 OA
ATOM     53  H17 THR d   1     -14.187 -31.538 -24.136  0.00  0.00     0.163 HD
BRANCH  51  54
ATOM     54  CA  THR d   1     -15.566 -29.465 -24.791  0.00  0.00     0.113 C 
ATOM     55  H11 THR d   1     -16.037 -28.778 -25.510  0.00  0.00     0.091 H 
BRANCH  54  56
ATOM     56  N   THR d   1     -16.474 -30.585 -24.569  0.00  0.00    -0.344 N 
ATOM     57  C   THR d   1     -16.873 -31.335 -25.603  0.00  0.00     0.251 C 
ATOM     58  O   THR d   1     -16.542 -31.107 -26.772  0.00  0.00    -0.271 OA
ATOM     59  H10 THR d   1     -16.798 -30.792 -23.646  0.00  0.00     0.163 HD
BRANCH  57  60
ATOM     60  CA  THR d   1     -17.779 -32.514 -25.268  0.00  0.00     0.199 C 
ATOM     61  H4  THR d   1     -18.565 -32.166 -24.582  0.00  0.00     0.103 H 
BRANCH  60  62
ATOM     62  N   THR d   1     -18.433 -33.061 -26.455  0.00  0.00    -0.064 N 
ATOM     63  H1  THR d   1     -18.978 -32.340 -26.901  0.00  0.00     0.275 HD
ATOM     64  H2  THR d   1     -19.038 -33.821 -26.185  0.00  0.00     0.275 HD
ATOM     65  H3  THR d   1     -17.734 -33.400 -27.098  0.00  0.00     0.275 HD
ENDBRANCH  60  62
BRANCH  60  66
ATOM     66  CB  THR d   1     -16.931 -33.572 -24.545  0.00  0.00     0.068 C 
ATOM     67  H5  THR d   1     -16.587 -33.166 -23.582  0.00  0.00     0.086 H 
BRANCH  66  68
ATOM     68  OG1 THR d   1     -15.804 -33.908 -25.355  0.00  0.00    -0.393 OA
ATOM     69  H6  THR d   1     -15.279 -34.562 -24.909  0.00  0.00     0.210 HD
ENDBRANCH  66  68
BRANCH  66  70
ATOM     70  CG2 THR d   1     -17.744 -34.826 -24.302  0.00  0.00    -0.050 C 
ATOM     71  H7  THR d   1     -17.122 -35.571 -23.784  0.00  0.00     0.031 H 
ATOM     72  H8  THR d   1     -18.082 -35.236 -25.265  0.00  0.00     0.031 H 
ATOM     73  H9  THR d   1     -18.618 -34.582 -23.680  0.00  0.00     0.031 H 
ENDBRANCH  66  70
ENDBRANCH  60  66
ENDBRANCH  57  60
ENDBRANCH  54  56
BRANCH  54  74
ATOM     74  CB  THR d   1     -15.318 -28.706 -23.490  0.00  0.00     0.060 C 
ATOM     75  H12 THR d   1     -14.805 -29.366 -22.775  0.00  0.00     0.086 H 
BRANCH  74  76
ATOM     76  OG1 THR d   1     -16.568 -28.290 -22.937  0.00  0.00    -0.393 OA
ATOM     77  H13 THR d   1     -17.105 -29.054 -22.762  0.00  0.00     0.210 HD
ENDBRANCH  74  76
BRANCH  74  78
ATOM     78  CG2 THR d   1     -14.441 -27.480 -23.766  0.00  0.00    -0.050 C 
ATOM     79  H14 THR d   1     -14.265 -26.936 -22.826  0.00  0.00     0.031 H 
ATOM     80  H15 THR d   1     -14.950 -26.819 -24.482  0.00  0.00     0.031 H 
ATOM     81  H16 THR d   1     -13.478 -27.805 -24.187  0.00  0.00     0.031 H 
ENDBRANCH  74  78
ENDBRANCH  54  74
ENDBRANCH  51  54
ENDBRANCH  48  50
BRANCH  48  82
ATOM     82  CB  THR d   1     -12.055 -32.835 -24.609  0.00  0.00    -0.014 C 
ATOM     83  H19 THR d   1     -12.853 -33.587 -24.698  0.00  0.00     0.043 H 
ATOM     84  H20 THR d   1     -11.936 -32.549 -23.553  0.00  0.00     0.043 H 
BRANCH  82  85
ATOM     85  CG  THR d   1     -10.763 -33.450 -25.087  0.00  0.00    -0.056 A 
ATOM     86  CD1 THR d   1     -10.747 -34.708 -25.696  0.00  0.00    -0.074 A 
ATOM     87  CE1 THR d   1      -9.553 -35.276 -26.134  0.00  0.00    -0.051 A 
ATOM     88  H21 THR d   1     -11.677 -35.249 -25.829  0.00  0.00     0.084 H 
ATOM     89  CZ  THR d   1      -8.368 -34.582 -25.972  0.00  0.00     0.065 A 
ATOM     90  H23 THR d   1      -9.553 -36.255 -26.599  0.00  0.00     0.087 H 
ATOM     91  CE2 THR d   1      -8.360 -33.330 -25.373  0.00  0.00    -0.051 A 
ATOM     92  CD2 THR d   1      -9.555 -32.776 -24.943  0.00  0.00    -0.074 A 
ATOM     93  H24 THR d   1      -7.428 -32.791 -25.243  0.00  0.00     0.087 H 
ATOM     94  H22 THR d   1      -9.548 -31.794 -24.484  0.00  0.00     0.084 H 
BRANCH  89  95
ATOM     95  OH  THR d   1      -7.189 -35.137 -26.408  0.00  0.00    -0.361 OA
ATOM     96  H25 THR d   1      -7.364 -35.989 -26.791  0.00  0.00     0.217 HD
ENDBRANCH  89  95
ENDBRANCH  82  85
ENDBRANCH  48  82
ENDBRANCH  45  48
ENDBRANCH  42  44
BRANCH  42  97
ATOM     97  CB  THR d   1     -15.136 -33.773 -28.843  0.00  0.00    -0.049 C 
ATOM     98  H28 THR d   1     -15.279 -34.014 -29.907  0.00  0.00     0.030 H 
ATOM     99  H29 THR d   1     -15.997 -33.193 -28.480  0.00  0.00     0.030 H 
ATOM    100  H30 THR d   1     -15.050 -34.704 -28.264  0.00  0.00     0.030 H 
ENDBRANCH  42  97
ENDBRANCH  39  42
ENDBRANCH  36  38
BRANCH  36 101
ATOM    101  CB  THR d   1     -15.479 -28.344 -29.026  0.00  0.00     0.043 C 
ATOM    102  H33 THR d   1     -15.371 -27.369 -29.525  0.00  0.00     0.052 H 
ATOM    103  H34 THR d   1     -15.129 -28.264 -27.986  0.00  0.00     0.052 H 
BRANCH 101 104
ATOM    104  CG  THR d   1     -16.957 -28.721 -29.013  0.00  0.00     0.175 C 
ATOM    105  OD1 THR d   1     -17.406 -29.473 -29.903  0.00  0.00    -0.648 OA
ATOM    106  OD2 THR d   1     -17.672 -28.245 -28.104  0.00  0.00    -0.648 OA
ENDBRANCH 101 104
ENDBRANCH  36 101
ENDBRANCH  33  36
ENDBRANCH  30  32
BRANCH  30 107
ATOM    107  CB  THR d   1     -10.298 -28.711 -27.584  0.00  0.00    -0.014 C 
ATOM    108  H37 THR d   1     -10.433 -29.758 -27.273  0.00  0.00     0.043 H 
ATOM    109  H38 THR d   1     -10.805 -28.047 -26.868  0.00  0.00     0.043 H 
BRANCH 107 110
ATOM    110  CG  THR d   1      -8.821 -28.399 -27.547  0.00  0.00    -0.056 A 
ATOM    111  CD1 THR d   1      -8.352 -27.109 -27.748  0.00  0.00    -0.077 A 
ATOM    112  CE1 THR d   1      -6.983 -26.826 -27.677  0.00  0.00    -0.082 A 
ATOM    113  H39 THR d   1      -9.054 -26.311 -27.962  0.00  0.00     0.084 H 
ATOM    114  CZ  THR d   1      -6.080 -27.831 -27.370  0.00  0.00    -0.083 A 
ATOM    115  H41 THR d   1      -6.629 -25.819 -27.863  0.00  0.00     0.083 H 
ATOM    116  CE2 THR d   1      -6.540 -29.118 -27.152  0.00  0.00    -0.082 A 
ATOM    117  H43 THR d   1      -5.021 -27.611 -27.301  0.00  0.00     0.083 H 
ATOM    118  CD2 THR d   1      -7.908 -29.393 -27.223  0.00  0.00    -0.077 A 
ATOM    119  H42 THR d   1      -5.839 -29.913 -26.926  0.00  0.00     0.083 H 
ATOM    120  H40 THR d   1      -8.262 -30.398 -27.022  0.00  0.00     0.084 H 
ENDBRANCH 107 110
ENDBRANCH  30 107
ENDBRANCH  27  30
ENDBRANCH  24  26
BRANCH  24 121
ATOM    121  CB  THR d   1     -10.082 -32.905 -30.948  0.00  0.00    -0.030 C 
ATOM    122  H46 THR d   1     -11.171 -33.048 -31.001  0.00  0.00     0.043 H 
BRANCH 121 123
ATOM    123  CG1 THR d   1      -9.602 -33.371 -29.570  0.00  0.00    -0.063 C 
ATOM    124  H47 THR d   1      -9.717 -34.464 -29.515  0.00  0.00     0.033 H 
ATOM    125  H48 THR d   1     -10.234 -32.897 -28.805  0.00  0.00     0.033 H 
BRANCH 123 126
ATOM    126  CD1 THR d   1      -8.156 -33.029 -29.272  0.00  0.00    -0.076 C 
ATOM    127  H52 THR d   1      -7.892 -33.396 -28.269  0.00  0.00     0.027 H 
ATOM    128  H53 THR d   1      -8.022 -31.938 -29.310  0.00  0.00     0.027 H 
ATOM    129  H54 THR d   1      -7.505 -33.505 -30.020  0.00  0.00     0.027 H 
ENDBRANCH 123 126
ENDBRANCH 121 123
BRANCH 121 130
ATOM    130  CG2 THR d   1      -9.443 -33.720 -32.045  0.00  0.00    -0.071 C 
ATOM    131  H49 THR d   1      -9.803 -33.366 -33.022  0.00  0.00     0.028 H 
ATOM    132  H50 THR d   1      -9.710 -34.779 -31.918  0.00  0.00     0.028 H 
ATOM    133  H51 THR d   1      -8.350 -33.609 -31.995  0.00  0.00     0.028 H 
ENDBRANCH 121 130
ENDBRANCH  24 121
ENDBRANCH  21  24
ENDBRANCH  18  20
BRANCH  18 134
ATOM    134  CB  THR d   1     -13.693 -30.330 -33.820  0.00  0.00    -0.049 C 
ATOM    135  H57 THR d   1     -14.113 -30.007 -34.784  0.00  0.00     0.030 H 
ATOM    136  H58 THR d   1     -14.061 -29.670 -33.020  0.00  0.00     0.030 H 
ATOM    137  H59 THR d   1     -14.004 -31.365 -33.613  0.00  0.00     0.030 H 
ENDBRANCH  18 134
ENDBRANCH  15  18
ENDBRANCH  12  14
BRANCH  12 138
ATOM    138  CB  THR d   1     -10.634 -25.871 -32.367  0.00  0.00     0.044 C 
ATOM    139  H62 THR d   1     -11.368 -26.166 -31.602  0.00  0.00     0.077 H 
ATOM    140  H63 THR d   1     -10.736 -24.796 -32.578  0.00  0.00     0.077 H 
BRANCH 138 141
ATOM    141  OG  THR d   1      -9.323 -26.133 -31.885  0.00  0.00    -0.398 OA
ATOM    142  H64 THR d   1      -9.234 -27.061 -31.701  0.00  0.00     0.209 HD
ENDBRANCH 138 141
ENDBRANCH  12 138
ENDBRANCH   9  12
ENDBRANCH   5   8
ENDBRANCH   1   5
BRANCH   3 143
ATOM    143  CA  THR d   1      -5.704 -25.458 -32.662  0.00  0.00     0.089 C 
ATOM    144  H69 THR d   1      -4.884 -25.256 -33.367  0.00  0.00     0.087 H 
BRANCH 143 145
ATOM    145  C   THR d   1      -5.120 -26.235 -31.485  0.00  0.00     0.241 C 
ATOM    146  O   THR d   1      -4.923 -25.698 -30.388  0.00  0.00    -0.271 OA
ATOM    147  N   THR d   1      -4.823 -27.509 -31.724  0.00  0.00    -0.344 N 
ATOM    148  H81 THR d   1      -5.001 -27.874 -32.638  0.00  0.00     0.163 HD
BRANCH 147 149
ATOM    149  CA  THR d   1      -4.251 -28.400 -30.722  0.00  0.00     0.113 C 
ATOM    150  H82 THR d   1      -4.543 -28.026 -29.730  0.00  0.00     0.091 H 
BRANCH 149 151
ATOM    151  C   THR d   1      -2.722 -28.465 -30.768  0.00  0.00     0.243 C 
ATOM    152  O   THR d   1      -2.109 -28.967 -29.814  0.00  0.00    -0.271 OA
ATOM    153  N   THR d   1      -2.100 -27.993 -31.851  0.00  0.00    -0.350 N 
ATOM    154  H88 THR d   1      -2.653 -27.658 -32.614  0.00  0.00     0.163 HD
BRANCH 153 155
ATOM    155  CA  THR d   1      -0.656 -27.946 -31.967  0.00  0.00     0.069 C 
ATOM    156  H89 THR d   1      -0.380 -28.049 -33.027  0.00  0.00     0.078 H 
ATOM    157  H90 THR d   1      -0.225 -28.780 -31.393  0.00  0.00     0.078 H 
BRANCH 155 158
ATOM    158  C   THR d   1      -0.090 -26.641 -31.437  0.00  0.00     0.236 C 
ATOM    159  O   THR d   1      -0.762 -25.870 -30.750  0.00  0.00    -0.272 OA
ATOM    160  N   THR d   1       1.177 -26.388 -31.772  0.00  0.00    -0.346 N 
ATOM    161  H91 THR d   1       1.675 -27.020 -32.366  0.00  0.00     0.163 HD
BRANCH 160 162
ATOM    162  CA  THR d   1       1.834 -25.186 -31.269  0.00  0.00     0.089 C 
ATOM    163  H92 THR d   1       1.699 -25.147 -30.178  0.00  0.00     0.087 H 
BRANCH 162 164
ATOM    164  C   THR d   1       1.207 -23.947 -31.879  0.00  0.00     0.241 C 
ATOM    165  O   THR d   1       0.920 -23.901 -33.078  0.00  0.00    -0.271 OA
ATOM    166  N   THR d   1       0.991 -22.935 -31.049  0.00  0.00    -0.346 N 
ATOM    167 4H10 THR d   1       1.347 -22.986 -30.116  0.00  0.00     0.163 HD
BRANCH 166 168
ATOM    168  CA  THR d   1       0.250 -21.754 -31.462  0.00  0.00     0.089 C 
ATOM    169 5H10 THR d   1      -0.280 -21.981 -32.399  0.00  0.00     0.087 H 
BRANCH 168 170
ATOM    170  C   THR d   1       1.207 -20.601 -31.710  0.00  0.00     0.241 C 
ATOM    171  O   THR d   1       2.078 -20.323 -30.882  0.00  0.00    -0.271 OA
ATOM    172  N   THR d   1       1.033 -19.925 -32.836  0.00  0.00    -0.346 N 
ATOM    173 7H11 THR d   1       0.308 -20.195 -33.470  0.00  0.00     0.163 HD
BRANCH 172 174
ATOM    174  CA  THR d   1       1.887 -18.794 -33.157  0.00  0.00     0.097 C 
ATOM    175 8H11 THR d   1       2.879 -18.972 -32.716  0.00  0.00     0.088 H 
BRANCH 174 176
ATOM    176  C   THR d   1       1.315 -17.514 -32.564  0.00  0.00     0.241 C 
ATOM    177  O   THR d   1       0.098 -17.374 -32.394  0.00  0.00    -0.271 OA
ATOM    178  N   THR d   1       2.213 -16.590 -32.221  0.00  0.00    -0.346 N 
ATOM    179 3H12 THR d   1       3.184 -16.829 -32.200  0.00  0.00     0.163 HD
BRANCH 178 180
ATOM    180  CA  THR d   1       1.799 -15.241 -31.877  0.00  0.00     0.086 C 
ATOM    181 4H12 THR d   1       1.068 -15.294 -31.057  0.00  0.00     0.086 H 
BRANCH 180 182
ATOM    182  C   THR d   1       1.142 -14.580 -33.083  0.00  0.00     0.240 C 
ATOM    183  O   THR d   1       1.335 -14.992 -34.233  0.00  0.00    -0.271 OA
ATOM    184  N   THR d   1       0.358 -13.540 -32.814  0.00  0.00    -0.344 N 
ATOM    185 8H12 THR d   1       0.257 -13.235 -31.867  0.00  0.00     0.163 HD
BRANCH 184 186
ATOM    186  CA  THR d   1      -0.360 -12.833 -33.877  0.00  0.00     0.099 C 
ATOM    187 9H12 THR d   1      -0.758 -13.584 -34.575  0.00  0.00     0.090 H 
BRANCH 186 188
ATOM    188  C   THR d   1       0.574 -11.917 -34.646  0.00  0.00     0.197 C 
ATOM    189  O   THR d   1       1.657 -11.593 -34.162  0.00  0.00    -0.646 OA
ATOM    190  OXT THR d   1       0.259 -11.478 -35.756  0.00  0.00    -0.646 OA
ENDBRANCH 186 188
BRANCH 186 191
ATOM    191  CB  THR d   1      -1.537 -12.026 -33.321  0.00  0.00    -0.029 C 
ATOM    192 0H13 THR d   1      -2.043 -11.521 -34.157  0.00  0.00     0.043 H 
BRANCH 191 193
ATOM    193  CG1 THR d   1      -1.031 -10.961 -32.347  0.00  0.00    -0.063 C 
ATOM    194 1H13 THR d   1      -0.427 -10.235 -32.910  0.00  0.00     0.033 H 
ATOM    195 2H13 THR d   1      -0.402 -11.453 -31.591  0.00  0.00     0.033 H 
BRANCH 193 196
ATOM    196  CD1 THR d   1      -2.138 -10.210 -31.632  0.00  0.00    -0.076 C 
ATOM    197 6H13 THR d   1      -1.697  -9.466 -30.953  0.00  0.00     0.027 H 
ATOM    198 7H13 THR d   1      -2.747 -10.919 -31.053  0.00  0.00     0.027 H 
ATOM    199 8H13 THR d   1      -2.773  -9.700 -32.372  0.00  0.00     0.027 H 
ENDBRANCH 193 196
ENDBRANCH 191 193
BRANCH 191 200
ATOM    200  CG2 THR d   1      -2.530 -12.949 -32.645  0.00  0.00    -0.070 C 
ATOM    201 3H13 THR d   1      -2.878 -13.704 -33.365  0.00  0.00     0.028 H 
ATOM    202 4H13 THR d   1      -3.389 -12.363 -32.285  0.00  0.00     0.028 H 
ATOM    203 5H13 THR d   1      -2.045 -13.450 -31.794  0.00  0.00     0.028 H 
ENDBRANCH 191 200
ENDBRANCH 186 191
ENDBRANCH 184 186
ENDBRANCH 180 182
BRANCH 180 204
ATOM    204  CB  THR d   1       2.993 -14.408 -31.416  0.00  0.00    -0.049 C 
ATOM    205 5H12 THR d   1       2.655 -13.393 -31.162  0.00  0.00     0.030 H 
ATOM    206 6H12 THR d   1       3.737 -14.355 -32.224  0.00  0.00     0.030 H 
ATOM    207 7H12 THR d   1       3.447 -14.876 -30.530  0.00  0.00     0.030 H 
ENDBRANCH 180 204
ENDBRANCH 178 180
ENDBRANCH 174 176
BRANCH 174 208
ATOM    208  CB  THR d   1       2.050 -18.644 -34.670  0.00  0.00     0.036 C 
ATOM    209 9H11 THR d   1       2.522 -17.673 -34.879  0.00  0.00     0.051 H 
ATOM    210 0H12 THR d   1       1.055 -18.676 -35.137  0.00  0.00     0.051 H 
BRANCH 208 211
ATOM    211  CG  THR d   1       2.905 -19.739 -35.273  0.00  0.00     0.217 C 
ATOM    212  OD1 THR d   1       2.655 -20.195 -36.387  0.00  0.00    -0.274 OA
ATOM    213  ND2 THR d   1       3.925 -20.163 -34.539  0.00  0.00    -0.370 N 
ATOM    214 1H12 THR d   1       4.524 -20.884 -34.886  0.00  0.00     0.159 HD
ATOM    215 2H12 THR d   1       4.095 -19.761 -33.639  0.00  0.00     0.159 HD
ENDBRANCH 208 211
ENDBRANCH 174 208
ENDBRANCH 172 174
ENDBRANCH 168 170
BRANCH 168 216
ATOM    216  CB  THR d   1      -0.776 -21.369 -30.403  0.00  0.00    -0.036 C 
ATOM    217 6H10 THR d   1      -1.185 -20.379 -30.654  0.00  0.00     0.036 H 
ATOM    218 7H10 THR d   1      -0.271 -21.320 -29.427  0.00  0.00     0.036 H 
BRANCH 216 219
ATOM    219  CG  THR d   1      -1.910 -22.342 -30.305  0.00  0.00    -0.048 C 
ATOM    220 8H10 THR d   1      -1.527 -23.362 -30.457  0.00  0.00     0.035 H 
ATOM    221 9H10 THR d   1      -2.655 -22.110 -31.081  0.00  0.00     0.035 H 
BRANCH 219 222
ATOM    222  CD  THR d   1      -2.563 -22.252 -28.943  0.00  0.00     0.009 C 
ATOM    223 0H11 THR d   1      -3.493 -22.840 -28.950  0.00  0.00     0.064 H 
ATOM    224 1H11 THR d   1      -2.796 -21.199 -28.724  0.00  0.00     0.064 H 
BRANCH 222 225
ATOM    225  NE  THR d   1      -1.673 -22.774 -27.898  0.00  0.00    -0.227 N 
ATOM    226  CZ  THR d   1      -2.097 -23.293 -26.751  0.00  0.00     0.665 C 
ATOM    227  NH1 THR d   1      -3.402 -23.365 -26.497  0.00  0.00    -0.235 N 
ATOM    228  NH2 THR d   1      -1.226 -23.744 -25.859  0.00  0.00    -0.235 N 
ATOM    229 3H11 THR d   1      -3.732 -23.767 -25.608  0.00  0.00     0.174 HD
ATOM    230 4H11 THR d   1      -4.081 -23.018 -27.189  0.00  0.00     0.174 HD
ATOM    231 5H11 THR d   1      -0.216 -23.690 -26.052  0.00  0.00     0.174 HD
ATOM    232 6H11 THR d   1      -1.560 -24.149 -24.973  0.00  0.00     0.174 HD
ATOM    233 2H11 THR d   1      -0.657 -22.735 -28.065  0.00  0.00     0.177 HD
ENDBRANCH 222 225
ENDBRANCH 219 222
ENDBRANCH 216 219
ENDBRANCH 168 216
ENDBRANCH 166 168
ENDBRANCH 162 164
BRANCH 162 234
ATOM    234  CB  THR d   1       3.333 -25.215 -31.572  0.00  0.00    -0.036 C 
ATOM    235  H93 THR d   1       3.773 -24.261 -31.245  0.00  0.00     0.036 H 
ATOM    236  H94 THR d   1       3.466 -25.327 -32.658  0.00  0.00     0.036 H 
BRANCH 234 237
ATOM    237  CG  THR d   1       4.073 -26.350 -30.876  0.00  0.00    -0.048 C 
ATOM    238  H95 THR d   1       3.874 -27.287 -31.417  0.00  0.00     0.035 H 
ATOM    239  H96 THR d   1       3.700 -26.436 -29.845  0.00  0.00     0.035 H 
BRANCH 237 240
ATOM    240  CD  THR d   1       5.574 -26.118 -30.835  0.00  0.00     0.009 C 
ATOM    241  H97 THR d   1       5.773 -25.074 -30.553  0.00  0.00     0.064 H 
ATOM    242  H98 THR d   1       6.000 -26.317 -31.829  0.00  0.00     0.064 H 
BRANCH 240 243
ATOM    243  NE  THR d   1       6.189 -27.005 -29.861  0.00  0.00    -0.227 N 
ATOM    244  CZ  THR d   1       6.516 -28.268 -30.105  0.00  0.00     0.665 C 
ATOM    245  NH1 THR d   1       6.292 -28.789 -31.303  0.00  0.00    -0.235 N 
ATOM    246  NH2 THR d   1       7.064 -29.010 -29.150  0.00  0.00    -0.235 N 
ATOM    247 0H10 THR d   1       6.545 -29.769 -31.494  0.00  0.00     0.174 HD
ATOM    248 1H10 THR d   1       5.865 -28.214 -32.043  0.00  0.00     0.174 HD
ATOM    249 2H10 THR d   1       7.238 -28.605 -28.219  0.00  0.00     0.174 HD
ATOM    250 3H10 THR d   1       7.315 -29.991 -29.340  0.00  0.00     0.174 HD
ATOM    251  H99 THR d   1       6.383 -26.629 -28.922  0.00  0.00     0.177 HD
ENDBRANCH 240 243
ENDBRANCH 237 240
ENDBRANCH 234 237
ENDBRANCH 162 234
ENDBRANCH 160 162
ENDBRANCH 155 158
ENDBRANCH 153 155
ENDBRANCH 149 151
BRANCH 149 252
ATOM    252  CB  THR d   1      -4.833 -29.807 -30.907  0.00  0.00     0.060 C 
ATOM    253  H83 THR d   1      -4.345 -30.496 -30.202  0.00  0.00     0.086 H 
BRANCH 252 254
ATOM    254  OG1 THR d   1      -4.602 -30.250 -32.251  0.00  0.00    -0.393 OA
ATOM    255  H84 THR d   1      -4.963 -31.121 -32.362  0.00  0.00     0.210 HD
ENDBRANCH 252 254
BRANCH 252 256
ATOM    256  CG2 THR d   1      -6.328 -29.800 -30.652  0.00  0.00    -0.050 C 
ATOM    257  H85 THR d   1      -6.728 -30.816 -30.789  0.00  0.00     0.031 H 
ATOM    258  H86 THR d   1      -6.817 -29.115 -31.360  0.00  0.00     0.031 H 
ATOM    259  H87 THR d   1      -6.523 -29.465 -29.623  0.00  0.00     0.031 H 
ENDBRANCH 252 256
ENDBRANCH 149 252
ENDBRANCH 147 149
ENDBRANCH 143 145
BRANCH 143 260
ATOM    260  CB  THR d   1      -6.277 -24.112 -32.217  0.00  0.00    -0.036 C 
ATOM    261  H70 THR d   1      -5.542 -23.604 -31.575  0.00  0.00     0.036 H 
ATOM    262  H71 THR d   1      -7.202 -24.287 -31.648  0.00  0.00     0.036 H 
BRANCH 260 263
ATOM    263  CG  THR d   1      -6.594 -23.213 -33.423  0.00  0.00    -0.048 C 
ATOM    264  H72 THR d   1      -7.373 -23.697 -34.030  0.00  0.00     0.035 H 
ATOM    265  H73 THR d   1      -5.681 -23.093 -34.025  0.00  0.00     0.035 H 
BRANCH 263 266
ATOM    266  CD  THR d   1      -7.083 -21.847 -33.006  0.00  0.00     0.009 C 
ATOM    267  H74 THR d   1      -7.919 -21.977 -32.303  0.00  0.00     0.064 H 
ATOM    268  H75 THR d   1      -7.436 -21.316 -33.902  0.00  0.00     0.064 H 
BRANCH 266 269
ATOM    269  NE  THR d   1      -6.057 -21.027 -32.357  0.00  0.00    -0.227 N 
ATOM    270  CZ  THR d   1      -5.170 -20.283 -33.012  0.00  0.00     0.665 C 
ATOM    271  NH1 THR d   1      -5.158 -20.276 -34.348  0.00  0.00    -0.235 N 
ATOM    272  NH2 THR d   1      -4.287 -19.558 -32.334  0.00  0.00    -0.235 N 
ATOM    273  H77 THR d   1      -4.471 -19.699 -34.854  0.00  0.00     0.174 HD
ATOM    274  H78 THR d   1      -5.836 -20.847 -34.872  0.00  0.00     0.174 HD
ATOM    275  H79 THR d   1      -4.298 -19.564 -31.304  0.00  0.00     0.174 HD
ATOM    276  H80 THR d   1      -3.592 -18.989 -32.838  0.00  0.00     0.174 HD
ATOM    277  H76 THR d   1      -6.020 -21.027 -31.328  0.00  0.00     0.177 HD
ENDBRANCH 266 269
ENDBRANCH 263 266
ENDBRANCH 260 263
ENDBRANCH 143 260
ENDBRANCH   3 143
TORSDOF 79
