REMARK  9 active torsions:
REMARK  status: ('A' for Active; 'I' for Inactive)
REMARK    1  A    between atoms: N18_27  and  C14_1 
REMARK       I    between atoms: C19_3  and  N18_27 
REMARK       I    between atoms: N20_28  and  C19_3 
REMARK    2  A    between atoms: S28_34  and  C24_4 
REMARK    3  A    between atoms: N02_25  and  C01_8 
REMARK    4  A    between atoms: C04_10  and  C03_9 
REMARK       I    between atoms: C03_9  and  N02_25 
REMARK    5  A    between atoms: O10_29  and  C06_12 
REMARK    6  A    between atoms: C11_15  and  O10_29 
REMARK    7  A    between atoms: C21_19  and  N20_28 
REMARK    8  A    between atoms: C29_21  and  C30_22 
REMARK    9  A    between atoms: C29_21  and  S28_34 
ROOT
ATOM      1  C14 BW8 d   1       7.503   0.909  -0.659  0.00  0.00     0.075 A 
ATOM      2  C16 BW8 d   1       7.326   3.293  -0.815  0.00  0.00    -0.011 A 
ATOM      3  C11 BW8 d   1       8.401   3.316  -1.687  0.00  0.00     0.079 A 
ATOM      4  C12 BW8 d   1       9.015   2.128  -2.064  0.00  0.00    -0.048 A 
ATOM      5  C13 BW8 d   1       8.571   0.920  -1.545  0.00  0.00    -0.051 A 
ATOM      6  C15 BW8 d   1       6.885   2.087  -0.296  0.00  0.00     0.145 A 
ATOM      7  F17 BW8 d   1       5.834   2.041   0.578  0.00  0.00    -0.204 F 
ATOM      8  H1  BW8 d   1       6.830   4.217  -0.539  0.00  0.00     0.092 H 
ATOM      9  H10 BW8 d   1       9.842   2.145  -2.765  0.00  0.00     0.087 H 
ATOM     10  H11 BW8 d   1       9.055  -0.008  -1.829  0.00  0.00     0.087 H 
ENDROOT
BRANCH   1  11
ATOM     11  N18 BW8 d   1       6.969  -0.301  -0.068  0.00  0.00    -0.306 N 
ATOM     12  C19 BW8 d   1       7.741  -1.472   0.291  0.00  0.00     0.325 C 
ATOM     13  N20 BW8 d   1       6.971  -2.558   0.875  0.00  0.00    -0.309 N 
ATOM     14  O33 BW8 d   1       8.911  -1.526   0.109  0.00  0.00    -0.247 OA
ATOM     15  H17 BW8 d   1       5.986  -2.412   0.965  0.00  0.00     0.170 HD
ATOM     16  H16 BW8 d   1       5.985  -0.330   0.107  0.00  0.00     0.171 HD
BRANCH  13  17
ATOM     17  C21 BW8 d   1       7.486  -3.834   1.342  0.00  0.00     0.039 A 
ATOM     18  C26 BW8 d   1       8.843  -4.071   1.491  0.00  0.00    -0.018 A 
ATOM     19  C25 BW8 d   1       9.288  -5.297   1.955  0.00  0.00     0.135 A 
ATOM     20  H3  BW8 d   1       9.558  -3.295   1.244  0.00  0.00     0.091 H 
ATOM     21  C24 BW8 d   1       8.368  -6.278   2.282  0.00  0.00     0.039 A 
ATOM     22  F27 BW8 d   1      10.628  -5.529   2.090  0.00  0.00    -0.205 F 
ATOM     23  C23 BW8 d   1       7.012  -6.041   2.142  0.00  0.00    -0.062 A 
ATOM     24  C22 BW8 d   1       6.572  -4.817   1.679  0.00  0.00    -0.056 A 
ATOM     25  H2  BW8 d   1       6.296  -6.815   2.395  0.00  0.00     0.085 H 
ATOM     26  H12 BW8 d   1       5.510  -4.626   1.579  0.00  0.00     0.087 H 
BRANCH  21  27
ATOM     27  S28 BW8 d   1       8.926  -7.896   2.891  0.00  0.00    -0.116 SA
BRANCH  27  28
ATOM     28  C29 BW8 d   1       9.841  -8.700   1.543  0.00  0.00     0.061 C 
ATOM     29  H13 BW8 d   1      10.817  -8.209   1.416  0.00  0.00     0.065 H 
ATOM     30  H14 BW8 d   1       9.994  -9.762   1.784  0.00  0.00     0.065 H 
BRANCH  28  31
ATOM     31  C30 BW8 d   1       9.035  -8.579   0.249  0.00  0.00     0.182 C 
ATOM     32  O31 BW8 d   1       9.544  -8.027  -0.763  0.00  0.00    -0.647 OA
ATOM     33  O32 BW8 d   1       7.861  -9.029   0.191  0.00  0.00    -0.647 OA
ENDBRANCH  28  31
ENDBRANCH  27  28
ENDBRANCH  21  27
ENDBRANCH  13  17
ENDBRANCH   1  11
BRANCH   3  34
ATOM     34  O10 BW8 d   1       8.803   4.547  -2.219  0.00  0.00    -0.311 OA
BRANCH  34  35
ATOM     35  C06 BW8 d   1      10.049   5.059  -1.831  0.00  0.00     0.079 A 
ATOM     36  C05 BW8 d   1      10.754   5.837  -2.730  0.00  0.00    -0.017 A 
ATOM     37  C04 BW8 d   1      11.980   6.379  -2.392  0.00  0.00     0.126 A 
ATOM     38  H7  BW8 d   1      10.340   6.025  -3.714  0.00  0.00     0.091 H 
ATOM     39  N09 BW8 d   1      12.499   6.175  -1.194  0.00  0.00    -0.255 NA
ATOM     40  C08 BW8 d   1      11.852   5.445  -0.300  0.00  0.00     0.006 A 
ATOM     41  C07 BW8 d   1      10.619   4.873  -0.581  0.00  0.00    -0.033 A 
ATOM     42  H9  BW8 d   1      12.296   5.290   0.677  0.00  0.00     0.114 H 
ATOM     43  H8  BW8 d   1      10.105   4.285   0.171  0.00  0.00     0.090 H 
BRANCH  37  44
ATOM     44  C03 BW8 d   1      12.710   7.216  -3.439  0.00  0.00     0.269 C 
ATOM     45  N02 BW8 d   1      13.989   7.839  -3.154  0.00  0.00    -0.360 N 
ATOM     46  H15 BW8 d   1      14.420   7.731  -2.258  0.00  0.00     0.162 HD
ATOM     47  O34 BW8 d   1      12.218   7.355  -4.506  0.00  0.00    -0.266 OA
BRANCH  45  48
ATOM     48  C01 BW8 d   1      14.631   8.623  -4.195  0.00  0.00    -0.018 C 
ATOM     49  H4  BW8 d   1      15.584   9.022  -3.818  0.00  0.00     0.056 H 
ATOM     50  H5  BW8 d   1      13.974   9.456  -4.485  0.00  0.00     0.056 H 
ATOM     51  H6  BW8 d   1      14.821   7.984  -5.070  0.00  0.00     0.056 H 
ENDBRANCH  45  48
ENDBRANCH  37  44
ENDBRANCH  34  35
ENDBRANCH   3  34
TORSDOF 9
