REMARK WARNING: 32 MAX_TORS EXCEEDED!!!
REMARK  82 active torsions:
REMARK  status: ('A' for Active; 'I' for Inactive)
REMARK    1  A    between atoms: N_1  and  CA_2 
REMARK    2  A    between atoms: CA_2  and  C_3 
REMARK    3  A    between atoms: CA_2  and  CB_5 
REMARK       I    between atoms: C_3  and  N_8 
REMARK    4  A    between atoms: CB_5  and  OG1_6 
REMARK    5  A    between atoms: CB_5  and  CG2_7 
REMARK    6  A    between atoms: N_8  and  CA_9 
REMARK    7  A    between atoms: CA_9  and  C_10 
REMARK    8  A    between atoms: CA_9  and  CB_12 
REMARK       I    between atoms: C_10  and  N_15 
REMARK    9  A    between atoms: CB_12  and  OG1_13 
REMARK   10  A    between atoms: CB_12  and  CG2_14 
REMARK   11  A    between atoms: N_15  and  CA_16 
REMARK   12  A    between atoms: CA_16  and  C_17 
REMARK   13  A    between atoms: CA_16  and  CB_19 
REMARK       I    between atoms: C_17  and  N_27 
REMARK   14  A    between atoms: CB_19  and  CG_20 
REMARK   15  A    between atoms: CZ_25  and  OH_26 
REMARK   16  A    between atoms: N_27  and  CA_28 
REMARK   17  A    between atoms: CA_28  and  C_29 
REMARK   18  A    between atoms: CA_28  and  CB_31 
REMARK       I    between atoms: C_29  and  N_32 
REMARK   19  A    between atoms: N_32  and  CA_33 
REMARK   20  A    between atoms: CA_33  and  C_34 
REMARK   21  A    between atoms: CA_33  and  CB_36 
REMARK       I    between atoms: C_34  and  N_40 
REMARK   22  A    between atoms: CB_36  and  CG_37 
REMARK   23  A    between atoms: N_40  and  CA_41 
REMARK   24  A    between atoms: CA_41  and  C_42 
REMARK   25  A    between atoms: CA_41  and  CB_44 
REMARK       I    between atoms: C_42  and  N_51 
REMARK   26  A    between atoms: CB_44  and  CG_45 
REMARK   27  A    between atoms: N_51  and  CA_52 
REMARK   28  A    between atoms: CA_52  and  C_53 
REMARK   29  A    between atoms: CA_52  and  CB_55 
REMARK       I    between atoms: C_53  and  N_59 
REMARK   30  A    between atoms: CB_55  and  CG1_56 
REMARK   31  A    between atoms: CB_55  and  CG2_57 
REMARK   32  A    between atoms: CG1_56  and  CD1_58 
REMARK   33  A    between atoms: N_59  and  CA_60 
REMARK   34  A    between atoms: CA_60  and  C_61 
REMARK   35  A    between atoms: CA_60  and  CB_63 
REMARK       I    between atoms: C_61  and  N_64 
REMARK   36  A    between atoms: N_64  and  CA_65 
REMARK   37  A    between atoms: CA_65  and  C_66 
REMARK   38  A    between atoms: CA_65  and  CB_68 
REMARK       I    between atoms: C_66  and  N_70 
REMARK   39  A    between atoms: CB_68  and  OG_69 
REMARK   40  A    between atoms: N_70  and  CA_71 
REMARK   41  A    between atoms: CA_71  and  C_72 
REMARK       I    between atoms: C_72  and  N_74 
REMARK   42  A    between atoms: N_74  and  CA_75 
REMARK   43  A    between atoms: CA_75  and  C_76 
REMARK   44  A    between atoms: CA_75  and  CB_78 
REMARK       I    between atoms: C_76  and  N_85 
REMARK   45  A    between atoms: CB_78  and  CG_79 
REMARK   46  A    between atoms: CG_79  and  CD_80 
REMARK   47  A    between atoms: CD_80  and  NE_81 
REMARK       I    between atoms: NE_81  and  CZ_82 
REMARK       I    between atoms: CZ_82  and  NH1_83 
REMARK       I    between atoms: CZ_82  and  NH2_84 
REMARK   48  A    between atoms: N_85  and  CA_86 
REMARK   49  A    between atoms: CA_86  and  C_87 
REMARK   50  A    between atoms: CA_86  and  CB_89 
REMARK       I    between atoms: C_87  and  N_92 
REMARK   51  A    between atoms: CB_89  and  OG1_90 
REMARK   52  A    between atoms: CB_89  and  CG2_91 
REMARK   53  A    between atoms: N_92  and  CA_93 
REMARK   54  A    between atoms: CA_93  and  C_94 
REMARK       I    between atoms: C_94  and  N_96 
REMARK   55  A    between atoms: N_96  and  CA_97 
REMARK   56  A    between atoms: CA_97  and  C_98 
REMARK   57  A    between atoms: CA_97  and  CB_100 
REMARK       I    between atoms: C_98  and  N_107 
REMARK   58  A    between atoms: CB_100  and  CG_101 
REMARK   59  A    between atoms: CG_101  and  CD_102 
REMARK   60  A    between atoms: CD_102  and  NE_103 
REMARK       I    between atoms: NE_103  and  CZ_104 
REMARK       I    between atoms: CZ_104  and  NH1_105 
REMARK       I    between atoms: CZ_104  and  NH2_106 
REMARK   61  A    between atoms: N_107  and  CA_108 
REMARK   62  A    between atoms: CA_108  and  C_109 
REMARK   63  A    between atoms: CA_108  and  CB_111 
REMARK       I    between atoms: C_109  and  N_118 
REMARK   64  A    between atoms: CB_111  and  CG_112 
REMARK   65  A    between atoms: CG_112  and  CD_113 
REMARK   66  A    between atoms: CD_113  and  NE_114 
REMARK       I    between atoms: NE_114  and  CZ_115 
REMARK       I    between atoms: CZ_115  and  NH1_116 
REMARK   67  A    between atoms: N_118  and  CA_119 
REMARK   68  A    between atoms: CA_119  and  C_120 
REMARK   69  A    between atoms: CA_119  and  CB_122 
REMARK       I    between atoms: C_120  and  N_124 
REMARK   70  A    between atoms: CB_122  and  OG_123 
REMARK   71  A    between atoms: OG_123  and  C1_138 
REMARK   72  A    between atoms: N_124  and  CA_125 
REMARK   73  A    between atoms: CA_125  and  C_126 
REMARK   74  A    between atoms: CA_125  and  CB_128 
REMARK       I    between atoms: C_126  and  N_129 
REMARK   75  A    between atoms: N_129  and  CA_130 
REMARK   76  A    between atoms: CA_130  and  C_131 
REMARK   77  A    between atoms: CA_130  and  CB_133 
REMARK   78  A    between atoms: CB_133  and  CG1_134 
REMARK   79  A    between atoms: CB_133  and  CG2_135 
REMARK   80  A    between atoms: CG1_134  and  CD1_136 
REMARK   81  A    between atoms: C2_139  and  O2_143 
REMARK   82  A    between atoms: C4_141  and  O4_144 
ROOT
ATOM      1  CA  THR d   1       3.853 -33.094  25.863  0.00  0.00     0.089 C 
ATOM      2  H69 THR d   1       3.011 -32.924  26.550  0.00  0.00     0.087 H 
ENDROOT
BRANCH   1   3
ATOM      3  N   THR d   1       4.711 -34.099  26.500  0.00  0.00    -0.346 N 
ATOM      4  C   THR d   1       4.505 -34.516  27.750  0.00  0.00     0.236 C 
ATOM      5  O   THR d   1       3.504 -34.182  28.404  0.00  0.00    -0.272 OA
ATOM      6  H68 THR d   1       5.474 -34.483  25.981  0.00  0.00     0.163 HD
BRANCH   4   7
ATOM      7  CA  THR d   1       5.529 -35.424  28.389  0.00  0.00     0.069 C 
ATOM      8  H66 THR d   1       5.874 -34.939  29.314  0.00  0.00     0.078 H 
ATOM      9  H67 THR d   1       5.027 -36.371  28.636  0.00  0.00     0.078 H 
BRANCH   7  10
ATOM     10  N   THR d   1       6.705 -35.742  27.592  0.00  0.00    -0.350 N 
ATOM     11  C   THR d   1       6.706 -36.738  26.719  0.00  0.00     0.242 C 
ATOM     12  O   THR d   1       5.693 -37.407  26.466  0.00  0.00    -0.271 OA
ATOM     13  H65 THR d   1       7.534 -35.194  27.707  0.00  0.00     0.163 HD
BRANCH  11  14
ATOM     14  CA  THR d   1       8.036 -36.948  25.992  0.00  0.00     0.109 C 
ATOM     15  H61 THR d   1       8.841 -36.977  26.741  0.00  0.00     0.090 H 
BRANCH  14  16
ATOM     16  N   THR d   1       8.051 -38.199  25.257  0.00  0.00    -0.344 N 
ATOM     17  C   THR d   1       8.320 -39.367  25.831  0.00  0.00     0.240 C 
ATOM     18  O   THR d   1       8.533 -39.481  27.046  0.00  0.00    -0.271 OA
ATOM     19  H60 THR d   1       7.851 -38.181  24.277  0.00  0.00     0.163 HD
BRANCH  17  20
ATOM     20  CA  THR d   1       8.322 -40.612  24.963  0.00  0.00     0.086 C 
ATOM     21  H56 THR d   1       7.589 -41.316  25.383  0.00  0.00     0.086 H 
BRANCH  20  22
ATOM     22  N   THR d   1       7.944 -40.354  23.570  0.00  0.00    -0.346 N 
ATOM     23  C   THR d   1       6.673 -40.321  23.122  0.00  0.00     0.241 C 
ATOM     24  O   THR d   1       5.714 -40.579  23.863  0.00  0.00    -0.271 OA
ATOM     25  H55 THR d   1       8.677 -40.192  22.909  0.00  0.00     0.163 HD
BRANCH  23  26
ATOM     26  CA  THR d   1       6.436 -39.954  21.650  0.00  0.00     0.092 C 
ATOM     27  H45 THR d   1       5.484 -39.405  21.599  0.00  0.00     0.088 H 
BRANCH  26  28
ATOM     28  N   THR d   1       7.499 -39.063  21.145  0.00  0.00    -0.346 N 
ATOM     29  C   THR d   1       7.676 -37.824  21.630  0.00  0.00     0.241 C 
ATOM     30  O   THR d   1       7.035 -37.407  22.609  0.00  0.00    -0.271 OA
ATOM     31  H44 THR d   1       8.105 -39.392  20.421  0.00  0.00     0.163 HD
BRANCH  29  32
ATOM     32  CA  THR d   1       8.700 -36.926  20.918  0.00  0.00     0.093 C 
ATOM     33  H36 THR d   1       8.912 -36.073  21.579  0.00  0.00     0.088 H 
BRANCH  32  34
ATOM     34  N   THR d   1       9.966 -37.627  20.681  0.00  0.00    -0.346 N 
ATOM     35  C   THR d   1      10.679 -38.064  21.725  0.00  0.00     0.241 C 
ATOM     36  O   THR d   1      10.337 -37.820  22.887  0.00  0.00    -0.271 OA
ATOM     37  H35 THR d   1      10.293 -37.777  19.748  0.00  0.00     0.163 HD
BRANCH  35  38
ATOM     38  CA  THR d   1      11.928 -38.908  21.450  0.00  0.00     0.098 C 
ATOM     39  H32 THR d   1      12.148 -39.498  22.352  0.00  0.00     0.088 H 
BRANCH  38  40
ATOM     40  N   THR d   1      11.691 -39.830  20.346  0.00  0.00    -0.346 N 
ATOM     41  C   THR d   1      10.826 -40.837  20.483  0.00  0.00     0.240 C 
ATOM     42  O   THR d   1      10.210 -41.031  21.541  0.00  0.00    -0.271 OA
ATOM     43  H31 THR d   1      12.179 -39.707  19.482  0.00  0.00     0.163 HD
BRANCH  41  44
ATOM     44  CA  THR d   1      10.639 -41.757  19.281  0.00  0.00     0.086 C 
ATOM     45  H27 THR d   1       9.654 -42.239  19.367  0.00  0.00     0.086 H 
BRANCH  44  46
ATOM     46  N   THR d   1      10.665 -40.990  18.035  0.00  0.00    -0.346 N 
ATOM     47  C   THR d   1       9.749 -40.032  17.816  0.00  0.00     0.241 C 
ATOM     48  O   THR d   1       8.862 -39.772  18.645  0.00  0.00    -0.271 OA
ATOM     49  H26 THR d   1      11.365 -41.179  17.346  0.00  0.00     0.163 HD
BRANCH  47  50
ATOM     50  CA  THR d   1       9.805 -39.270  16.488  0.00  0.00     0.093 C 
ATOM     51  H18 THR d   1       9.135 -38.401  16.567  0.00  0.00     0.088 H 
BRANCH  50  52
ATOM     52  N   THR d   1      11.156 -38.791  16.197  0.00  0.00    -0.346 N 
ATOM     53  C   THR d   1      11.832 -38.023  17.058  0.00  0.00     0.243 C 
ATOM     54  O   THR d   1      11.323 -37.607  18.115  0.00  0.00    -0.271 OA
ATOM     55  H17 THR d   1      11.586 -39.045  15.331  0.00  0.00     0.163 HD
BRANCH  53  56
ATOM     56  CA  THR d   1      13.283 -37.692  16.707  0.00  0.00     0.113 C 
ATOM     57  H11 THR d   1      13.798 -37.389  17.630  0.00  0.00     0.091 H 
BRANCH  56  58
ATOM     58  N   THR d   1      13.963 -38.857  16.160  0.00  0.00    -0.344 N 
ATOM     59  C   THR d   1      14.122 -39.960  16.898  0.00  0.00     0.251 C 
ATOM     60  O   THR d   1      13.698 -40.041  18.057  0.00  0.00    -0.271 OA
ATOM     61  H10 THR d   1      14.314 -38.832  15.224  0.00  0.00     0.163 HD
BRANCH  59  62
ATOM     62  CA  THR d   1      14.825 -41.140  16.242  0.00  0.00     0.199 C 
ATOM     63  H4  THR d   1      15.628 -40.771  15.587  0.00  0.00     0.103 H 
BRANCH  62  64
ATOM     64  N   THR d   1      15.417 -42.008  17.277  0.00  0.00    -0.064 N 
ATOM     65  H1  THR d   1      16.088 -41.481  17.814  0.00  0.00     0.275 HD
ATOM     66  H2  THR d   1      15.877 -42.789  16.837  0.00  0.00     0.275 HD
ATOM     67  H3  THR d   1      14.690 -42.347  17.888  0.00  0.00     0.275 HD
ENDBRANCH  62  64
BRANCH  62  68
ATOM     68  CB  THR d   1      13.794 -41.896  15.395  0.00  0.00     0.068 C 
ATOM     69  H5  THR d   1      13.468 -41.231  14.582  0.00  0.00     0.086 H 
BRANCH  68  70
ATOM     70  OG1 THR d   1      12.653 -42.219  16.200  0.00  0.00    -0.393 OA
ATOM     71  H6  THR d   1      12.264 -41.418  16.531  0.00  0.00     0.210 HD
ENDBRANCH  68  70
BRANCH  68  72
ATOM     72  CG2 THR d   1      14.381 -43.163  14.761  0.00  0.00    -0.050 C 
ATOM     73  H7  THR d   1      13.606 -43.668  14.166  0.00  0.00     0.031 H 
ATOM     74  H8  THR d   1      14.734 -43.840  15.553  0.00  0.00     0.031 H 
ATOM     75  H9  THR d   1      15.224 -42.890  14.109  0.00  0.00     0.031 H 
ENDBRANCH  68  72
ENDBRANCH  62  68
ENDBRANCH  59  62
ENDBRANCH  56  58
BRANCH  56  76
ATOM     76  CB  THR d   1      13.362 -36.540  15.712  0.00  0.00     0.060 C 
ATOM     77  H12 THR d   1      12.803 -36.815  14.805  0.00  0.00     0.086 H 
BRANCH  76  78
ATOM     78  OG1 THR d   1      14.728 -36.313  15.372  0.00  0.00    -0.393 OA
ATOM     79  H13 THR d   1      15.216 -36.093  16.157  0.00  0.00     0.210 HD
ENDBRANCH  76  78
BRANCH  76  80
ATOM     80  CG2 THR d   1      12.764 -35.262  16.288  0.00  0.00    -0.050 C 
ATOM     81  H14 THR d   1      12.838 -34.455  15.544  0.00  0.00     0.031 H 
ATOM     82  H15 THR d   1      13.315 -34.976  17.196  0.00  0.00     0.031 H 
ATOM     83  H16 THR d   1      11.707 -35.433  16.539  0.00  0.00     0.031 H 
ENDBRANCH  76  80
ENDBRANCH  56  76
ENDBRANCH  53  56
ENDBRANCH  50  52
BRANCH  50  84
ATOM     84  CB  THR d   1       9.334 -40.148  15.309  0.00  0.00    -0.014 C 
ATOM     85  H19 THR d   1      10.156 -40.829  15.044  0.00  0.00     0.043 H 
ATOM     86  H20 THR d   1       9.117 -39.486  14.458  0.00  0.00     0.043 H 
BRANCH  84  87
ATOM     87  CG  THR d   1       8.090 -40.992  15.578  0.00  0.00    -0.056 A 
ATOM     88  CD1 THR d   1       8.168 -42.354  15.896  0.00  0.00    -0.074 A 
ATOM     89  CE1 THR d   1       7.028 -43.088  16.170  0.00  0.00    -0.051 A 
ATOM     90  H21 THR d   1       9.136 -42.840  15.928  0.00  0.00     0.084 H 
ATOM     91  CZ  THR d   1       5.780 -42.486  16.140  0.00  0.00     0.065 A 
ATOM     92  H23 THR d   1       7.111 -44.142  16.410  0.00  0.00     0.087 H 
ATOM     93  CE2 THR d   1       5.678 -41.144  15.839  0.00  0.00    -0.051 A 
ATOM     94  CD2 THR d   1       6.853 -40.406  15.574  0.00  0.00    -0.074 A 
ATOM     95  H24 THR d   1       4.708 -40.661  15.806  0.00  0.00     0.087 H 
ATOM     96  H22 THR d   1       6.773 -39.346  15.362  0.00  0.00     0.084 H 
BRANCH  91  97
ATOM     97  OH  THR d   1       4.647 -43.240  16.446  0.00  0.00    -0.361 OA
ATOM     98  H25 THR d   1       4.221 -42.872  17.211  0.00  0.00     0.217 HD
ENDBRANCH  91  97
ENDBRANCH  84  87
ENDBRANCH  50  84
ENDBRANCH  47  50
ENDBRANCH  44  46
BRANCH  44  99
ATOM     99  CB  THR d   1      11.708 -42.854  19.267  0.00  0.00    -0.049 C 
ATOM    100  H28 THR d   1      11.669 -43.416  20.212  0.00  0.00     0.030 H 
ATOM    101  H29 THR d   1      12.702 -42.396  19.153  0.00  0.00     0.030 H 
ATOM    102  H30 THR d   1      11.521 -43.538  18.426  0.00  0.00     0.030 H 
ENDBRANCH  44  99
ENDBRANCH  41  44
ENDBRANCH  38  40
BRANCH  38 103
ATOM    103  CB  THR d   1      13.150 -38.015  21.150  0.00  0.00     0.043 C 
ATOM    104  H33 THR d   1      13.213 -37.235  21.923  0.00  0.00     0.052 H 
ATOM    105  H34 THR d   1      13.007 -37.545  20.166  0.00  0.00     0.052 H 
BRANCH 103 106
ATOM    106  CG  THR d   1      14.466 -38.790  21.133  0.00  0.00     0.175 C 
ATOM    107  OD1 THR d   1      14.540 -39.862  21.779  0.00  0.00    -0.648 OA
ATOM    108  OD2 THR d   1      15.441 -38.320  20.496  0.00  0.00    -0.648 OA
ENDBRANCH 103 106
ENDBRANCH  38 103
ENDBRANCH  35  38
ENDBRANCH  32  34
BRANCH  32 109
ATOM    109  CB  THR d   1       8.118 -36.371  19.612  0.00  0.00    -0.014 C 
ATOM    110  H37 THR d   1       7.978 -37.206  18.909  0.00  0.00     0.043 H 
ATOM    111  H38 THR d   1       8.834 -35.651  19.188  0.00  0.00     0.043 H 
BRANCH 109 112
ATOM    112  CG  THR d   1       6.795 -35.676  19.800  0.00  0.00    -0.056 A 
ATOM    113  CD1 THR d   1       5.618 -36.193  19.257  0.00  0.00    -0.077 A 
ATOM    114  CE1 THR d   1       4.397 -35.558  19.428  0.00  0.00    -0.082 A 
ATOM    115  H39 THR d   1       5.659 -37.114  18.687  0.00  0.00     0.084 H 
ATOM    116  CZ  THR d   1       4.334 -34.407  20.183  0.00  0.00    -0.083 A 
ATOM    117  H41 THR d   1       3.501 -35.963  18.972  0.00  0.00     0.083 H 
ATOM    118  CE2 THR d   1       5.469 -33.890  20.751  0.00  0.00    -0.082 A 
ATOM    119  H43 THR d   1       3.382 -33.908  20.328  0.00  0.00     0.083 H 
ATOM    120  CD2 THR d   1       6.703 -34.518  20.563  0.00  0.00    -0.077 A 
ATOM    121  H42 THR d   1       5.409 -32.988  21.350  0.00  0.00     0.083 H 
ATOM    122  H40 THR d   1       7.595 -34.099  21.015  0.00  0.00     0.084 H 
ENDBRANCH 109 112
ENDBRANCH  32 109
ENDBRANCH  29  32
ENDBRANCH  26  28
BRANCH  26 123
ATOM    123  CB  THR d   1       6.306 -41.204  20.731  0.00  0.00    -0.030 C 
ATOM    124  H46 THR d   1       7.319 -41.616  20.610  0.00  0.00     0.043 H 
BRANCH 123 125
ATOM    125  CG1 THR d   1       5.796 -40.818  19.336  0.00  0.00    -0.063 C 
ATOM    126  H47 THR d   1       5.787 -41.724  18.712  0.00  0.00     0.033 H 
ATOM    127  H48 THR d   1       6.495 -40.085  18.907  0.00  0.00     0.033 H 
BRANCH 125 128
ATOM    128  CD1 THR d   1       4.424 -40.222  19.311  0.00  0.00    -0.076 C 
ATOM    129  H52 THR d   1       4.148 -39.980  18.274  0.00  0.00     0.027 H 
ATOM    130  H53 THR d   1       4.412 -39.304  19.918  0.00  0.00     0.027 H 
ATOM    131  H54 THR d   1       3.703 -40.944  19.723  0.00  0.00     0.027 H 
ENDBRANCH 125 128
ENDBRANCH 123 125
BRANCH 123 132
ATOM    132  CG2 THR d   1       5.442 -42.315  21.324  0.00  0.00    -0.071 C 
ATOM    133  H49 THR d   1       5.820 -42.580  22.323  0.00  0.00     0.028 H 
ATOM    134  H50 THR d   1       5.482 -43.199  20.671  0.00  0.00     0.028 H 
ATOM    135  H51 THR d   1       4.402 -41.966  21.406  0.00  0.00     0.028 H 
ENDBRANCH 123 132
ENDBRANCH  26 123
ENDBRANCH  23  26
ENDBRANCH  20  22
BRANCH  20 136
ATOM    136  CB  THR d   1       9.707 -41.262  25.018  0.00  0.00    -0.049 C 
ATOM    137  H57 THR d   1       9.982 -41.452  26.066  0.00  0.00     0.030 H 
ATOM    138  H58 THR d   1      10.447 -40.588  24.561  0.00  0.00     0.030 H 
ATOM    139  H59 THR d   1       9.688 -42.213  24.466  0.00  0.00     0.030 H 
ENDBRANCH  20 136
ENDBRANCH  17  20
ENDBRANCH  14  16
BRANCH  14 140
ATOM    140  CB  THR d   1       8.293 -35.775  25.039  0.00  0.00     0.044 C 
ATOM    141  H62 THR d   1       9.024 -36.090  24.280  0.00  0.00     0.077 H 
ATOM    142  H63 THR d   1       8.704 -34.934  25.616  0.00  0.00     0.077 H 
BRANCH 140 143
ATOM    143  OG  THR d   1       7.104 -35.341  24.379  0.00  0.00    -0.398 OA
ATOM    144  H64 THR d   1       6.745 -36.059  23.872  0.00  0.00     0.209 HD
ENDBRANCH 140 143
ENDBRANCH  14 140
ENDBRANCH  11  14
ENDBRANCH   7  10
ENDBRANCH   4   7
ENDBRANCH   1   3
BRANCH   1 145
ATOM    145  C   THR d   1       3.232 -33.592  24.548  0.00  0.00     0.241 C 
ATOM    146  O   THR d   1       3.151 -32.846  23.554  0.00  0.00    -0.271 OA
ATOM    147  N   THR d   1       2.742 -34.850  24.553  0.00  0.00    -0.344 N 
ATOM    148  H81 THR d   1       2.818 -35.395  25.388  0.00  0.00     0.163 HD
BRANCH 147 149
ATOM    149  CA  THR d   1       2.101 -35.446  23.375  0.00  0.00     0.113 C 
ATOM    150  H82 THR d   1       2.446 -34.872  22.503  0.00  0.00     0.091 H 
BRANCH 149 151
ATOM    151  C   THR d   1       0.581 -35.355  23.414  0.00  0.00     0.243 C 
ATOM    152  O   THR d   1      -0.054 -35.659  22.394  0.00  0.00    -0.271 OA
ATOM    153  N   THR d   1      -0.004 -34.947  24.554  0.00  0.00    -0.350 N 
ATOM    154  H88 THR d   1       0.575 -34.764  25.349  0.00  0.00     0.163 HD
BRANCH 153 155
ATOM    155  CA  THR d   1      -1.436 -34.760  24.683  0.00  0.00     0.069 C 
ATOM    156  H89 THR d   1      -1.739 -35.027  25.706  0.00  0.00     0.078 H 
ATOM    157  H90 THR d   1      -1.947 -35.419  23.965  0.00  0.00     0.078 H 
BRANCH 155 158
ATOM    158  C   THR d   1      -1.850 -33.309  24.406  0.00  0.00     0.236 C 
ATOM    159  O   THR d   1      -1.053 -32.450  24.017  0.00  0.00    -0.272 OA
ATOM    160  N   THR d   1      -3.145 -33.038  24.609  0.00  0.00    -0.346 N 
ATOM    161  H91 THR d   1      -3.756 -33.758  24.937  0.00  0.00     0.163 HD
BRANCH 160 162
ATOM    162  CA  THR d   1      -3.675 -31.697  24.355  0.00  0.00     0.089 C 
ATOM    163  H92 THR d   1      -3.522 -31.460  23.292  0.00  0.00     0.087 H 
BRANCH 162 164
ATOM    164  C   THR d   1      -2.932 -30.654  25.192  0.00  0.00     0.241 C 
ATOM    165  O   THR d   1      -2.724 -30.813  26.401  0.00  0.00    -0.271 OA
ATOM    166  N   THR d   1      -2.548 -29.547  24.542  0.00  0.00    -0.346 N 
ATOM    167 4H10 THR d   1      -2.827 -29.439  23.588  0.00  0.00     0.163 HD
BRANCH 166 168
ATOM    168  CA  THR d   1      -1.744 -28.489  25.151  0.00  0.00     0.089 C 
ATOM    169 5H10 THR d   1      -1.309 -28.875  26.085  0.00  0.00     0.087 H 
BRANCH 168 170
ATOM    170  C   THR d   1      -2.604 -27.266  25.482  0.00  0.00     0.241 C 
ATOM    171  O   THR d   1      -3.374 -26.798  24.645  0.00  0.00    -0.271 OA
ATOM    172  N   THR d   1      -2.445 -26.741  26.699  0.00  0.00    -0.344 N 
ATOM    173 7H11 THR d   1      -1.776 -27.160  27.313  0.00  0.00     0.163 HD
BRANCH 172 174
ATOM    174  CA  THR d   1      -3.197 -25.589  27.179  0.00  0.00     0.110 C 
ATOM    175 8H11 THR d   1      -4.167 -25.553  26.662  0.00  0.00     0.090 H 
BRANCH 174 176
ATOM    176  C   THR d   1      -2.448 -24.288  26.929  0.00  0.00     0.243 C 
ATOM    177  O   THR d   1      -1.219 -24.252  26.851  0.00  0.00    -0.271 OA
ATOM    178  N   THR d   1      -3.216 -23.198  26.839  0.00  0.00    -0.346 N 
ATOM    179 1H12 THR d   1      -4.210 -23.305  26.825  0.00  0.00     0.163 HD
BRANCH 178 180
ATOM    180  CA  THR d   1      -2.650 -21.861  26.761  0.00  0.00     0.086 C 
ATOM    181 2H12 THR d   1      -1.906 -21.834  25.951  0.00  0.00     0.086 H 
BRANCH 180 182
ATOM    182  C   THR d   1      -1.981 -21.477  28.074  0.00  0.00     0.240 C 
ATOM    183  O   THR d   1      -2.399 -21.899  29.161  0.00  0.00    -0.271 OA
ATOM    184  N   THR d   1      -0.968 -20.613  27.974  0.00  0.00    -0.344 N 
ATOM    185 6H12 THR d   1      -0.734 -20.241  27.076  0.00  0.00     0.163 HD
BRANCH 184 186
ATOM    186  CA  THR d   1      -0.189 -20.195  29.142  0.00  0.00     0.099 C 
ATOM    187 7H12 THR d   1      -0.042 -21.086  29.770  0.00  0.00     0.090 H 
BRANCH 186 188
ATOM    188  C   THR d   1      -0.972 -19.177  29.960  0.00  0.00     0.197 C 
ATOM    189  O   THR d   1      -0.745 -19.052  31.172  0.00  0.00    -0.646 OA
ATOM    190  OXT THR d   1      -1.834 -18.466  29.436  0.00  0.00    -0.646 OA
ENDBRANCH 186 188
BRANCH 186 191
ATOM    191  CB  THR d   1       1.221 -19.653  28.783  0.00  0.00    -0.029 C 
ATOM    192 8H12 THR d   1       1.748 -19.428  29.722  0.00  0.00     0.043 H 
BRANCH 191 193
ATOM    193  CG1 THR d   1       1.131 -18.361  27.963  0.00  0.00    -0.063 C 
ATOM    194 9H12 THR d   1       0.504 -17.645  28.515  0.00  0.00     0.033 H 
ATOM    195 0H13 THR d   1       0.657 -18.597  26.999  0.00  0.00     0.033 H 
BRANCH 193 196
ATOM    196  CD1 THR d   1       2.457 -17.712  27.689  0.00  0.00    -0.076 C 
ATOM    197 4H13 THR d   1       2.302 -16.797  27.099  0.00  0.00     0.027 H 
ATOM    198 5H13 THR d   1       3.096 -18.408  27.126  0.00  0.00     0.027 H 
ATOM    199 6H13 THR d   1       2.944 -17.456  28.642  0.00  0.00     0.027 H 
ENDBRANCH 193 196
ENDBRANCH 191 193
BRANCH 191 200
ATOM    200  CG2 THR d   1       2.028 -20.694  28.021  0.00  0.00    -0.070 C 
ATOM    201 1H13 THR d   1       2.088 -21.618  28.615  0.00  0.00     0.028 H 
ATOM    202 2H13 THR d   1       3.042 -20.309  27.837  0.00  0.00     0.028 H 
ATOM    203 3H13 THR d   1       1.537 -20.907  27.060  0.00  0.00     0.028 H 
ENDBRANCH 191 200
ENDBRANCH 186 191
ENDBRANCH 184 186
ENDBRANCH 180 182
BRANCH 180 204
ATOM    204  CB  THR d   1      -3.751 -20.844  26.475  0.00  0.00    -0.049 C 
ATOM    205 3H12 THR d   1      -3.313 -19.836  26.418  0.00  0.00     0.030 H 
ATOM    206 4H12 THR d   1      -4.497 -20.875  27.283  0.00  0.00     0.030 H 
ATOM    207 5H12 THR d   1      -4.236 -21.088  25.518  0.00  0.00     0.030 H 
ENDBRANCH 180 204
ENDBRANCH 178 180
ENDBRANCH 174 176
BRANCH 174 208
ATOM    208  CB  THR d   1      -3.420 -25.727  28.681  0.00  0.00     0.050 C 
ATOM    209 9H11 THR d   1      -4.056 -24.904  29.038  0.00  0.00     0.078 H 
ATOM    210 0H12 THR d   1      -2.452 -25.695  29.203  0.00  0.00     0.078 H 
BRANCH 208 211
ATOM    211  OG  THR d   1      -4.053 -26.957  28.934  0.00  0.00    -0.356 OA
BRANCH 211 212
ATOM    212  C1  THR d   1      -5.333 -27.231  28.514  0.00  0.00     0.155 C 
ATOM    213  C2  THR d   1      -5.562 -28.730  28.712  0.00  0.00     0.085 C 
ATOM    214  C3  THR d   1      -5.449 -29.090  30.185  0.00  0.00    -0.011 C 
ATOM    215 8H13 THR d   1      -4.806 -29.289  28.141  0.00  0.00     0.090 H 
ATOM    216  C4  THR d   1      -6.436 -28.249  30.977  0.00  0.00     0.058 C 
ATOM    217 9H13 THR d   1      -4.427 -28.888  30.537  0.00  0.00     0.041 H 
ATOM    218 0H14 THR d   1      -5.680 -30.157  30.323  0.00  0.00     0.041 H 
ATOM    219  C5  THR d   1      -6.151 -26.780  30.726  0.00  0.00     0.046 C 
ATOM    220 1H14 THR d   1      -6.330 -28.468  32.050  0.00  0.00     0.086 H 
ATOM    221  O5  THR d   1      -6.229 -26.469  29.325  0.00  0.00    -0.356 OA
ATOM    222 2H14 THR d   1      -5.141 -26.543  31.091  0.00  0.00     0.078 H 
ATOM    223 3H14 THR d   1      -6.889 -26.173  31.270  0.00  0.00     0.078 H 
ATOM    224 7H13 THR d   1      -5.463 -26.964  27.455  0.00  0.00     0.133 H 
BRANCH 213 225
ATOM    225  O2  THR d   1      -6.859 -29.085  28.254  0.00  0.00    -0.391 OA
ATOM    226 4H14 THR d   1      -7.511 -28.609  28.754  0.00  0.00     0.210 HD
ENDBRANCH 213 225
BRANCH 216 227
ATOM    227  O4  THR d   1      -7.767 -28.555  30.557  0.00  0.00    -0.393 OA
ATOM    228 5H14 THR d   1      -7.856 -28.369  29.630  0.00  0.00     0.210 HD
ENDBRANCH 216 227
ENDBRANCH 211 212
ENDBRANCH 208 211
ENDBRANCH 174 208
ENDBRANCH 172 174
ENDBRANCH 168 170
BRANCH 168 229
ATOM    229  CB  THR d   1      -0.605 -28.079  24.208  0.00  0.00    -0.036 C 
ATOM    230 6H10 THR d   1      -0.052 -27.245  24.664  0.00  0.00     0.036 H 
ATOM    231 7H10 THR d   1      -1.039 -27.752  23.252  0.00  0.00     0.036 H 
BRANCH 229 232
ATOM    232  CG  THR d   1       0.371 -29.225  23.938  0.00  0.00    -0.048 C 
ATOM    233 8H10 THR d   1      -0.202 -30.163  23.883  0.00  0.00     0.035 H 
ATOM    234 9H10 THR d   1       1.083 -29.279  24.775  0.00  0.00     0.035 H 
BRANCH 232 235
ATOM    235  CD  THR d   1       1.161 -29.068  22.645  0.00  0.00     0.009 C 
ATOM    236 0H11 THR d   1       1.931 -29.852  22.597  0.00  0.00     0.064 H 
ATOM    237 1H11 THR d   1       1.644 -28.080  22.637  0.00  0.00     0.064 H 
BRANCH 235 238
ATOM    238  NE  THR d   1       0.295 -29.182  21.483  0.00  0.00    -0.227 N 
ATOM    239  CZ  THR d   1       0.709 -29.359  20.224  0.00  0.00     0.665 C 
ATOM    240  NH1 THR d   1      -0.191 -29.330  19.242  0.00  0.00    -0.235 N 
ATOM    241  NH2 THR d   1       2.000 -29.522  19.939  0.00  0.00    -0.235 N 
ATOM    242 3H11 THR d   1       0.108 -29.464  18.265  0.00  0.00     0.174 HD
ATOM    243 4H11 THR d   1      -1.185 -29.173  19.459  0.00  0.00     0.174 HD
ATOM    244 5H11 THR d   1       2.696 -29.544  20.698  0.00  0.00     0.174 HD
ATOM    245 6H11 THR d   1       2.302 -29.626  18.960  0.00  0.00     0.174 HD
ATOM    246 2H11 THR d   1      -0.721 -29.122  21.643  0.00  0.00     0.177 HD
ENDBRANCH 235 238
ENDBRANCH 232 235
ENDBRANCH 229 232
ENDBRANCH 168 229
ENDBRANCH 166 168
ENDBRANCH 162 164
BRANCH 162 247
ATOM    247  CB  THR d   1      -5.182 -31.653  24.649  0.00  0.00    -0.036 C 
ATOM    248  H93 THR d   1      -5.517 -30.609  24.557  0.00  0.00     0.036 H 
ATOM    249  H94 THR d   1      -5.338 -31.999  25.681  0.00  0.00     0.036 H 
BRANCH 247 250
ATOM    250  CG  THR d   1      -6.045 -32.510  23.727  0.00  0.00    -0.048 C 
ATOM    251  H95 THR d   1      -5.637 -33.532  23.709  0.00  0.00     0.035 H 
ATOM    252  H96 THR d   1      -6.011 -32.084  22.713  0.00  0.00     0.035 H 
BRANCH 250 253
ATOM    253  CD  THR d   1      -7.506 -32.570  24.189  0.00  0.00     0.009 C 
ATOM    254  H97 THR d   1      -7.525 -32.733  25.277  0.00  0.00     0.064 H 
ATOM    255  H98 THR d   1      -8.001 -33.413  23.683  0.00  0.00     0.064 H 
BRANCH 253 256
ATOM    256  NE  THR d   1      -8.249 -31.337  23.885  0.00  0.00    -0.227 N 
ATOM    257  CZ  THR d   1      -8.579 -30.378  24.757  0.00  0.00     0.665 C 
ATOM    258  NH1 THR d   1      -8.233 -30.460  26.035  0.00  0.00    -0.235 N 
ATOM    259  NH2 THR d   1      -9.294 -29.324  24.350  0.00  0.00    -0.235 N 
ATOM    260 0H10 THR d   1      -8.498 -29.710  26.689  0.00  0.00     0.174 HD
ATOM    261 1H10 THR d   1      -7.700 -31.274  26.373  0.00  0.00     0.174 HD
ATOM    262 2H10 THR d   1      -9.573 -29.241  23.362  0.00  0.00     0.174 HD
ATOM    263 3H10 THR d   1      -9.566 -28.595  25.025  0.00  0.00     0.174 HD
ATOM    264  H99 THR d   1      -8.543 -31.199  22.907  0.00  0.00     0.177 HD
ENDBRANCH 253 256
ENDBRANCH 250 253
ENDBRANCH 247 250
ENDBRANCH 162 247
ENDBRANCH 160 162
ENDBRANCH 155 158
ENDBRANCH 153 155
ENDBRANCH 149 151
BRANCH 149 265
ATOM    265  CB  THR d   1       2.499 -36.925  23.149  0.00  0.00     0.060 C 
ATOM    266  H83 THR d   1       2.111 -37.232  22.166  0.00  0.00     0.086 H 
BRANCH 265 267
ATOM    267  OG1 THR d   1       1.928 -37.783  24.153  0.00  0.00    -0.393 OA
ATOM    268  H84 THR d   1       2.237 -37.515  25.010  0.00  0.00     0.210 HD
ENDBRANCH 265 267
BRANCH 265 269
ATOM    269  CG2 THR d   1       3.985 -37.111  23.149  0.00  0.00    -0.050 C 
ATOM    270  H85 THR d   1       4.222 -38.173  22.986  0.00  0.00     0.031 H 
ATOM    271  H86 THR d   1       4.395 -36.789  24.118  0.00  0.00     0.031 H 
ATOM    272  H87 THR d   1       4.430 -36.508  22.344  0.00  0.00     0.031 H 
ENDBRANCH 265 269
ENDBRANCH 149 265
ENDBRANCH 147 149
ENDBRANCH   1 145
BRANCH   1 273
ATOM    273  CB  THR d   1       4.573 -31.748  25.726  0.00  0.00    -0.036 C 
ATOM    274  H70 THR d   1       3.901 -31.037  25.223  0.00  0.00     0.036 H 
ATOM    275  H71 THR d   1       5.478 -31.891  25.117  0.00  0.00     0.036 H 
BRANCH 273 276
ATOM    276  CG  THR d   1       4.978 -31.168  27.077  0.00  0.00    -0.048 C 
ATOM    277  H72 THR d   1       5.710 -31.840  27.549  0.00  0.00     0.035 H 
ATOM    278  H73 THR d   1       4.085 -31.093  27.715  0.00  0.00     0.035 H 
BRANCH 276 279
ATOM    279  CD  THR d   1       5.602 -29.778  26.930  0.00  0.00     0.009 C 
ATOM    280  H74 THR d   1       6.476 -29.859  26.267  0.00  0.00     0.064 H 
ATOM    281  H75 THR d   1       5.926 -29.437  27.924  0.00  0.00     0.064 H 
BRANCH 279 282
ATOM    282  NE  THR d   1       4.696 -28.781  26.375  0.00  0.00    -0.227 N 
ATOM    283  CZ  THR d   1       3.855 -28.023  27.077  0.00  0.00     0.665 C 
ATOM    284  NH1 THR d   1       3.082 -27.143  26.445  0.00  0.00    -0.235 N 
ATOM    285  NH2 THR d   1       3.781 -28.119  28.396  0.00  0.00    -0.235 N 
ATOM    286  H77 THR d   1       2.429 -26.553  26.980  0.00  0.00     0.174 HD
ATOM    287  H78 THR d   1       3.137 -27.052  25.421  0.00  0.00     0.174 HD
ATOM    288  H79 THR d   1       4.374 -28.796  28.897  0.00  0.00     0.174 HD
ATOM    289  H80 THR d   1       3.131 -27.517  28.921  0.00  0.00     0.174 HD
ATOM    290  H76 THR d   1       4.707 -28.651  25.353  0.00  0.00     0.177 HD
ENDBRANCH 279 282
ENDBRANCH 276 279
ENDBRANCH 273 276
ENDBRANCH   1 273
TORSDOF 82
