REMARK  12 active torsions:
REMARK  status: ('A' for Active; 'I' for Inactive)
REMARK    1  A    between atoms: C20_5  and  N36_21 
REMARK    2  A    between atoms: C22_7  and  C30_15 
REMARK    3  A    between atoms: N23_8  and  C41_23 
REMARK    4  A    between atoms: C27_12  and  N37_22 
REMARK    5  A    between atoms: C41_23  and  C42_24 
REMARK    6  A    between atoms: C42_24  and  C43_25 
REMARK    7  A    between atoms: C43_25  and  N44_26 
REMARK    8  A    between atoms: N44_26  and  C44_27 
REMARK    9  A    between atoms: N44_26  and  C46_29 
REMARK   10  A    between atoms: N44_26  and  C47_30 
REMARK   11  A    between atoms: C44_27  and  C45_28 
REMARK   12  A    between atoms: C47_30  and  C48_31 
ROOT
ATOM      1  C16 PRM d   1       2.944 -13.953 -15.212  0.00  0.00    -0.069 A 
ATOM      2  C17 PRM d   1       2.841 -12.489 -15.112  0.00  0.00    -0.015 A 
ATOM      3  C18 PRM d   1       3.555 -11.811 -14.089  0.00  0.00    -0.018 A 
ATOM      4  C19 PRM d   1       4.368 -12.608 -13.174  0.00  0.00    -0.049 A 
ATOM      5  C20 PRM d   1       4.450 -14.041 -13.294  0.00  0.00     0.026 A 
ATOM      6  C21 PRM d   1       3.736 -14.702 -14.314  0.00  0.00    -0.057 A 
ATOM      7  C22 PRM d   1       3.336 -10.337 -14.137  0.00  0.00     0.064 A 
ATOM      8  N23 PRM d   1       2.577  -9.630 -14.998  0.00  0.00    -0.367 N 
ATOM      9  C24 PRM d   1       1.868 -10.333 -16.017  0.00  0.00     0.044 A 
ATOM     10  C25 PRM d   1       1.993 -11.739 -16.080  0.00  0.00     0.001 A 
ATOM     11  C26 PRM d   1       1.044  -9.634 -16.964  0.00  0.00    -0.031 A 
ATOM     12  C27 PRM d   1       0.352 -10.333 -17.962  0.00  0.00     0.027 A 
ATOM     13  C28 PRM d   1       0.465 -11.727 -18.038  0.00  0.00    -0.057 A 
ATOM     14  C29 PRM d   1       1.275 -12.428 -17.111  0.00  0.00    -0.068 A 
ATOM     15  H1  PRM d   1       2.399 -14.469 -15.994  0.00  0.00     0.085 H 
ATOM     16  H2  PRM d   1       4.922 -12.110 -12.387  0.00  0.00     0.087 H 
ATOM     17  H3  PRM d   1       3.795 -15.780 -14.409  0.00  0.00     0.086 H 
ATOM     18  H4  PRM d   1       4.166 -10.198 -14.845  0.00  0.00     0.088 H 
ATOM     19  H5  PRM d   1       0.957  -8.555 -16.906  0.00  0.00     0.090 H 
ATOM     20  H6  PRM d   1      -0.069 -12.271 -18.809  0.00  0.00     0.086 H 
ATOM     21  H7  PRM d   1       1.353 -13.507 -17.183  0.00  0.00     0.085 H 
ENDROOT
BRANCH   8  22
ATOM     22  C41 PRM d   1       2.513  -8.119 -14.840  0.00  0.00    -0.002 C 
ATOM     23  H17 PRM d   1       2.403  -7.685 -15.845  0.00  0.00     0.064 H 
ATOM     24  H18 PRM d   1       3.467  -7.791 -14.402  0.00  0.00     0.064 H 
BRANCH  22  25
ATOM     25  C42 PRM d   1       1.385  -7.553 -13.967  0.00  0.00    -0.027 C 
ATOM     26  H19 PRM d   1       1.503  -7.974 -12.958  0.00  0.00     0.037 H 
ATOM     27  H20 PRM d   1       0.431  -7.892 -14.397  0.00  0.00     0.037 H 
BRANCH  25  28
ATOM     28  C43 PRM d   1       1.315  -6.043 -13.828  0.00  0.00     0.086 C 
ATOM     29  H21 PRM d   1       0.348  -5.734 -14.251  0.00  0.00     0.076 H 
ATOM     30  H22 PRM d   1       2.131  -5.634 -14.441  0.00  0.00     0.076 H 
BRANCH  28  31
ATOM     31  N44 PRM d   1       1.423  -5.382 -12.469  0.00  0.00    -0.071 N 
BRANCH  31  32
ATOM     32  C44 PRM d   1       2.821  -5.646 -12.011  0.00  0.00     0.082 C 
ATOM     33  H23 PRM d   1       2.875  -6.723 -11.792  0.00  0.00     0.075 H 
ATOM     34  H24 PRM d   1       2.953  -5.075 -11.080  0.00  0.00     0.075 H 
BRANCH  32  35
ATOM     35  C45 PRM d   1       4.085  -5.313 -12.920  0.00  0.00    -0.053 C 
ATOM     36  H25 PRM d   1       5.005  -5.588 -12.384  0.00  0.00     0.029 H 
ATOM     37  H26 PRM d   1       4.101  -4.237 -13.146  0.00  0.00     0.029 H 
ATOM     38  H27 PRM d   1       4.023  -5.884 -13.858  0.00  0.00     0.029 H 
ENDBRANCH  32  35
ENDBRANCH  31  32
BRANCH  31  39
ATOM     39  C46 PRM d   1       0.490  -6.008 -11.565  0.00  0.00     0.068 C 
ATOM     40  H28 PRM d   1      -0.538  -5.812 -11.905  0.00  0.00     0.068 H 
ATOM     41  H29 PRM d   1       0.627  -5.596 -10.554  0.00  0.00     0.068 H 
ATOM     42  H30 PRM d   1       0.669  -7.093 -11.546  0.00  0.00     0.068 H 
ENDBRANCH  31  39
BRANCH  31  43
ATOM     43  C47 PRM d   1       1.222  -3.906 -12.641  0.00  0.00     0.082 C 
ATOM     44  H31 PRM d   1       1.728  -3.635 -13.579  0.00  0.00     0.075 H 
ATOM     45  H32 PRM d   1       1.736  -3.426 -11.795  0.00  0.00     0.075 H 
BRANCH  43  46
ATOM     46  C48 PRM d   1      -0.119  -3.294 -12.707  0.00  0.00    -0.053 C 
ATOM     47  H33 PRM d   1      -0.020  -2.206 -12.835  0.00  0.00     0.029 H 
ATOM     48  H34 PRM d   1      -0.665  -3.505 -11.776  0.00  0.00     0.029 H 
ATOM     49  H35 PRM d   1      -0.672  -3.714 -13.560  0.00  0.00     0.029 H 
ENDBRANCH  43  46
ENDBRANCH  31  43
ENDBRANCH  28  31
ENDBRANCH  25  28
ENDBRANCH  22  25
ENDBRANCH   8  22
BRANCH   7  50
ATOM     50  C30 PRM d   1       4.154  -9.845 -13.005  0.00  0.00    -0.031 A 
ATOM     51  C31 PRM d   1       5.485  -9.447 -13.193  0.00  0.00    -0.074 A 
ATOM     52  C32 PRM d   1       6.244  -8.970 -12.093  0.00  0.00    -0.082 A 
ATOM     53  H8  PRM d   1       5.934  -9.504 -14.178  0.00  0.00     0.084 H 
ATOM     54  C33 PRM d   1       5.664  -8.886 -10.834  0.00  0.00    -0.083 A 
ATOM     55  H9  PRM d   1       7.276  -8.671 -12.235  0.00  0.00     0.083 H 
ATOM     56  C34 PRM d   1       4.327  -9.274 -10.646  0.00  0.00    -0.082 A 
ATOM     57  H10 PRM d   1       6.244  -8.520  -9.995  0.00  0.00     0.083 H 
ATOM     58  C35 PRM d   1       3.575  -9.745 -11.732  0.00  0.00    -0.074 A 
ATOM     59  H11 PRM d   1       3.877  -9.209  -9.662  0.00  0.00     0.083 H 
ATOM     60  H12 PRM d   1       2.540 -10.033 -11.586  0.00  0.00     0.084 H 
ENDBRANCH   7  50
BRANCH  12  61
ATOM     61  N37 PRM d   1      -0.459  -9.627 -18.891  0.00  0.00    -0.399 N 
ATOM     62  H15 PRM d   1      -0.538  -8.602 -18.830  0.00  0.00     0.156 HD
ATOM     63  H16 PRM d   1      -0.968 -10.140 -19.625  0.00  0.00     0.156 HD
ENDBRANCH  12  61
BRANCH   5  64
ATOM     64  N36 PRM d   1       5.253 -14.791 -12.383  0.00  0.00    -0.399 N 
ATOM     65  H13 PRM d   1       5.774 -14.308 -11.638  0.00  0.00     0.156 HD
ATOM     66  H14 PRM d   1       5.311 -15.816 -12.471  0.00  0.00     0.156 HD
ENDBRANCH   5  64
TORSDOF 12
