REMARK  10 active torsions:
REMARK  status: ('A' for Active; 'I' for Inactive)
REMARK    1  A    between atoms: C4_1  and  O14_25 
REMARK    2  A    between atoms: S13_30  and  C10_5 
REMARK    3  A    between atoms: C21_7  and  C22_8 
REMARK    4  A    between atoms: C22_8  and  C23_12 
REMARK    5  A    between atoms: C22_8  and  C26_20 
REMARK    6  A    between atoms: C7_23  and  C1_9 
REMARK    7  A    between atoms: O14_25  and  C15_16 
REMARK    8  A    between atoms: C16_17  and  S13_30 
REMARK    9  A    between atoms: C26_20  and  C27_21 
REMARK   10  A    between atoms: C27_21  and  C28_22 
ROOT
ATOM      1  C8  B9Z d   1       2.354  49.965  21.545  0.00  0.00    -0.071 A 
ATOM      2  C10 B9Z d   1       2.896  50.142  19.218  0.00  0.00     0.005 A 
ATOM      3  C12 B9Z d   1       3.299  48.090  20.391  0.00  0.00    -0.071 A 
ATOM      4  C11 B9Z d   1       3.341  48.831  19.230  0.00  0.00    -0.066 A 
ATOM      5  C7  B9Z d   1       2.804  48.650  21.557  0.00  0.00    -0.026 A 
ATOM      6  C9  B9Z d   1       2.398  50.717  20.384  0.00  0.00    -0.066 A 
ATOM      7  H3  B9Z d   1       1.964  50.407  22.455  0.00  0.00     0.084 H 
ATOM      8  H6  B9Z d   1       3.654  47.066  20.392  0.00  0.00     0.084 H 
ATOM      9  H10 B9Z d   1       3.725  48.385  18.320  0.00  0.00     0.085 H 
ATOM     10  H20 B9Z d   1       2.048  51.743  20.383  0.00  0.00     0.085 H 
ENDROOT
BRANCH   2  11
ATOM     11  S13 B9Z d   1       2.966  51.059  17.655  0.00  0.00    -0.090 SA
BRANCH  11  12
ATOM     12  C16 B9Z d   1       2.846  52.851  17.969  0.00  0.00     0.012 A 
ATOM     13  C21 B9Z d   1       1.782  53.611  17.510  0.00  0.00    -0.027 A 
ATOM     14  C20 B9Z d   1       1.762  54.974  17.786  0.00  0.00    -0.075 A 
ATOM     15  C19 B9Z d   1       2.787  55.569  18.508  0.00  0.00    -0.082 A 
ATOM     16  H4  B9Z d   1       0.935  55.579  17.433  0.00  0.00     0.084 H 
ATOM     17  C18 B9Z d   1       3.846  54.805  18.959  0.00  0.00    -0.082 A 
ATOM     18  H7  B9Z d   1       2.757  56.632  18.718  0.00  0.00     0.083 H 
ATOM     19  C17 B9Z d   1       3.870  53.445  18.689  0.00  0.00    -0.066 A 
ATOM     20  H15 B9Z d   1       4.652  55.265  19.520  0.00  0.00     0.083 H 
ATOM     21  H14 B9Z d   1       4.697  52.841  19.044  0.00  0.00     0.085 H 
BRANCH  13  22
ATOM     22  C22 B9Z d   1       0.633  52.993  16.702  0.00  0.00     0.058 C 
ATOM     23  H5  B9Z d   1       1.050  52.475  15.826  0.00  0.00     0.064 H 
BRANCH  22  24
ATOM     24  C23 B9Z d   1      -0.161  52.018  17.556  0.00  0.00     0.181 C 
ATOM     25  O24 B9Z d   1      -0.532  50.929  17.057  0.00  0.00    -0.647 OA
ATOM     26  O25 B9Z d   1      -0.440  52.326  18.744  0.00  0.00    -0.647 OA
ENDBRANCH  22  24
BRANCH  22  27
ATOM     27  C26 B9Z d   1      -0.369  54.059  16.251  0.00  0.00    -0.040 C 
ATOM     28  H16 B9Z d   1      -0.266  54.927  16.919  0.00  0.00     0.035 H 
ATOM     29  H17 B9Z d   1      -1.381  53.639  16.350  0.00  0.00     0.035 H 
BRANCH  27  30
ATOM     30  C27 B9Z d   1      -0.198  54.546  14.813  0.00  0.00     0.017 C 
ATOM     31  H18 B9Z d   1      -0.312  53.689  14.133  0.00  0.00     0.049 H 
ATOM     32  H19 B9Z d   1       0.810  54.971  14.701  0.00  0.00     0.049 H 
BRANCH  30  33
ATOM     33  C28 B9Z d   1      -1.223  55.611  14.436  0.00  0.00     0.172 C 
ATOM     34  O29 B9Z d   1      -1.009  56.370  13.454  0.00  0.00    -0.648 OA
ATOM     35  O30 B9Z d   1      -2.283  55.721  15.108  0.00  0.00    -0.648 OA
ENDBRANCH  30  33
ENDBRANCH  27  30
ENDBRANCH  22  27
ENDBRANCH  13  22
ENDBRANCH  11  12
ENDBRANCH   2  11
BRANCH   5  36
ATOM     36  C1  B9Z d   1       2.760  47.803  22.820  0.00  0.00    -0.026 A 
ATOM     37  C6  B9Z d   1       3.511  46.633  22.934  0.00  0.00    -0.070 A 
ATOM     38  C5  B9Z d   1       3.462  45.865  24.087  0.00  0.00    -0.050 A 
ATOM     39  H2  B9Z d   1       4.142  46.320  22.110  0.00  0.00     0.085 H 
ATOM     40  C4  B9Z d   1       2.643  46.256  25.139  0.00  0.00     0.068 A 
ATOM     41  H1  B9Z d   1       4.059  44.964  24.167  0.00  0.00     0.087 H 
ATOM     42  C3  B9Z d   1       1.892  47.418  25.016  0.00  0.00    -0.050 A 
ATOM     43  C2  B9Z d   1       1.942  48.184  23.873  0.00  0.00    -0.070 A 
ATOM     44  H8  B9Z d   1       1.254  47.728  25.836  0.00  0.00     0.087 H 
ATOM     45  H9  B9Z d   1       1.343  49.084  23.796  0.00  0.00     0.085 H 
BRANCH  40  46
ATOM     46  O14 B9Z d   1       2.547  45.525  26.327  0.00  0.00    -0.356 OA
BRANCH  46  47
ATOM     47  C15 B9Z d   1       3.314  44.352  26.388  0.00  0.00     0.010 C 
ATOM     48  H11 B9Z d   1       3.160  43.864  27.361  0.00  0.00     0.066 H 
ATOM     49  H12 B9Z d   1       4.378  44.603  26.268  0.00  0.00     0.066 H 
ATOM     50  H13 B9Z d   1       3.005  43.670  25.582  0.00  0.00     0.066 H 
ENDBRANCH  46  47
ENDBRANCH  40  46
ENDBRANCH   5  36
TORSDOF 10
