REMARK  11 active torsions:
REMARK  status: ('A' for Active; 'I' for Inactive)
REMARK    1  A    between atoms: C2_2  and  C1_1 
REMARK    2  A    between atoms: S3_20  and  C2_2 
REMARK    3  A    between atoms: C12_10  and  C9_7 
REMARK    4  A    between atoms: C12_10  and  N13_22 
REMARK    5  A    between atoms: C17_24  and  C12_10 
REMARK    6  A    between atoms: C14_11  and  C16_12 
REMARK       I    between atoms: N13_22  and  C14_11 
REMARK    7  A    between atoms: C20_13  and  N19_26 
REMARK    8  A    between atoms: C25_29  and  C22_15 
REMARK    9  A    between atoms: C31_17  and  O32_34 
REMARK   10  A    between atoms: O32_34  and  C33_18 
REMARK   11  A    between atoms: C6_21  and  S3_20 
REMARK       I    between atoms: N19_26  and  C17_24 
ROOT
ATOM      1  C27 BWE d   1     -29.758   6.631 -18.426  0.00  0.00     0.048 A 
ATOM      2  C31 BWE d   1     -28.523   8.105 -16.425  0.00  0.00     0.117 A 
ATOM      3  C34 BWE d   1     -30.332   5.840 -19.447  0.00  0.00     0.099 C 
ATOM      4  C25 BWE d   1     -28.647   6.725 -16.284  0.00  0.00     0.013 A 
ATOM      5  C26 BWE d   1     -29.277   6.014 -17.289  0.00  0.00    -0.049 A 
ATOM      6  C28 BWE d   1     -29.638   7.994 -18.568  0.00  0.00    -0.023 A 
ATOM      7  C29 BWE d   1     -29.007   8.713 -17.574  0.00  0.00     0.151 A 
ATOM      8  F30 BWE d   1     -28.896  10.032 -17.730  0.00  0.00    -0.203 F 
ATOM      9  N35 BWE d   1     -30.760   5.158 -20.283  0.00  0.00    -0.191 NA
ATOM     10  H21 BWE d   1     -29.396   4.942 -17.181  0.00  0.00     0.087 H 
ATOM     11  H22 BWE d   1     -30.032   8.494 -19.445  0.00  0.00     0.090 H 
ENDROOT
BRANCH   4  12
ATOM     12  C22 BWE d   1     -28.170   5.961 -15.147  0.00  0.00    -0.014 A 
ATOM     13  C21 BWE d   1     -28.679   4.707 -14.701  0.00  0.00    -0.039 A 
ATOM     14  C20 BWE d   1     -28.009   4.180 -13.629  0.00  0.00     0.077 A 
ATOM     15  H14 BWE d   1     -29.527   4.211 -15.171  0.00  0.00     0.089 H 
ATOM     16  S24 BWE d   1     -26.763   5.241 -13.102  0.00  0.00    -0.083 SA
ATOM     17  C23 BWE d   1     -27.127   6.372 -14.340  0.00  0.00    -0.032 A 
ATOM     18  H20 BWE d   1     -26.594   7.312 -14.475  0.00  0.00     0.096 H 
BRANCH  14  19
ATOM     19  N19 BWE d   1     -28.286   2.990 -12.976  0.00  0.00    -0.319 N 
ATOM     20  C17 BWE d   1     -27.377   2.304 -12.218  0.00  0.00     0.250 C 
ATOM     21  O18 BWE d   1     -26.305   2.741 -11.832  0.00  0.00    -0.270 OA
ATOM     22  H19 BWE d   1     -29.206   2.609 -13.064  0.00  0.00     0.169 HD
BRANCH  20  23
ATOM     23  C12 BWE d   1     -27.908   0.927 -11.865  0.00  0.00     0.115 C 
ATOM     24  H10 BWE d   1     -29.002   0.913 -11.980  0.00  0.00     0.095 H 
BRANCH  23  25
ATOM     25  C9  BWE d   1     -27.335  -0.073 -12.824  0.00  0.00    -0.026 A 
ATOM     26  C8  BWE d   1     -26.219  -0.832 -12.507  0.00  0.00    -0.073 A 
ATOM     27  C7  BWE d   1     -25.677  -1.688 -13.437  0.00  0.00    -0.061 A 
ATOM     28  H7  BWE d   1     -25.772  -0.750 -11.523  0.00  0.00     0.084 H 
ATOM     29  C6  BWE d   1     -26.271  -1.784 -14.682  0.00  0.00     0.059 A 
ATOM     30  H6  BWE d   1     -24.799  -2.277 -13.198  0.00  0.00     0.085 H 
ATOM     31  C11 BWE d   1     -27.387  -1.048 -15.015  0.00  0.00    -0.061 A 
ATOM     32  C10 BWE d   1     -27.906  -0.180 -14.080  0.00  0.00    -0.073 A 
ATOM     33  H9  BWE d   1     -27.846  -1.150 -15.992  0.00  0.00     0.085 H 
ATOM     34  H8  BWE d   1     -28.770   0.425 -14.330  0.00  0.00     0.084 H 
BRANCH  29  35
ATOM     35  S3  BWE d   1     -25.583  -2.893 -15.890  0.00  0.00     0.175 S 
ATOM     36  O4  BWE d   1     -26.438  -2.807 -17.055  0.00  0.00    -0.223 OA
ATOM     37  O5  BWE d   1     -25.318  -4.148 -15.233  0.00  0.00    -0.223 OA
BRANCH  35  38
ATOM     38  C2  BWE d   1     -23.997  -2.183 -16.273  0.00  0.00     0.030 C 
ATOM     39  H4  BWE d   1     -23.364  -2.219 -15.374  0.00  0.00     0.056 H 
ATOM     40  H5  BWE d   1     -23.528  -2.771 -17.075  0.00  0.00     0.056 H 
BRANCH  38  41
ATOM     41  C1  BWE d   1     -24.121  -0.738 -16.730  0.00  0.00    -0.064 C 
ATOM     42  H1  BWE d   1     -23.122  -0.338 -16.956  0.00  0.00     0.028 H 
ATOM     43  H2  BWE d   1     -24.584  -0.139 -15.932  0.00  0.00     0.028 H 
ATOM     44  H3  BWE d   1     -24.747  -0.692 -17.633  0.00  0.00     0.028 H 
ENDBRANCH  38  41
ENDBRANCH  35  38
ENDBRANCH  29  35
ENDBRANCH  23  25
BRANCH  23  45
ATOM     45  N13 BWE d   1     -27.595   0.709 -10.454  0.00  0.00    -0.344 N 
ATOM     46  C14 BWE d   1     -28.114   1.513  -9.454  0.00  0.00     0.214 C 
ATOM     47  O15 BWE d   1     -28.719   2.565  -9.632  0.00  0.00    -0.274 OA
ATOM     48  H18 BWE d   1     -26.987  -0.044 -10.203  0.00  0.00     0.163 HD
BRANCH  46  49
ATOM     49  C16 BWE d   1     -27.821   0.988  -8.069  0.00  0.00    -0.003 C 
ATOM     50  H11 BWE d   1     -28.256   1.666  -7.320  0.00  0.00     0.040 H 
ATOM     51  H12 BWE d   1     -26.733   0.930  -7.922  0.00  0.00     0.040 H 
ATOM     52  H13 BWE d   1     -28.261  -0.014  -7.956  0.00  0.00     0.040 H 
ENDBRANCH  46  49
ENDBRANCH  23  45
ENDBRANCH  20  23
ENDBRANCH  14  19
ENDBRANCH   4  12
BRANCH   2  53
ATOM     53  O32 BWE d   1     -27.822   8.847 -15.472  0.00  0.00    -0.352 OA
BRANCH  53  54
ATOM     54  C33 BWE d   1     -28.538   9.921 -14.875  0.00  0.00     0.011 C 
ATOM     55  H15 BWE d   1     -27.892  10.431 -14.145  0.00  0.00     0.067 H 
ATOM     56  H16 BWE d   1     -29.429   9.528 -14.364  0.00  0.00     0.067 H 
ATOM     57  H17 BWE d   1     -28.846  10.634 -15.654  0.00  0.00     0.067 H 
ENDBRANCH  53  54
ENDBRANCH   2  53
TORSDOF 11
