REMARK  6 active torsions:
REMARK  status: ('A' for Active; 'I' for Inactive)
REMARK    1  A    between atoms: N1_1  and  C17_19 
REMARK    2  A    between atoms: C2_3  and  N2_4 
REMARK    3  A    between atoms: N2_4  and  C15_17 
REMARK    4  A    between atoms: N2_4  and  C16_18 
REMARK    5  A    between atoms: C5_7  and  C8_10 
REMARK    6  A    between atoms: C12_14  and  C18_20 
ROOT
ATOM      1  N1  TFX d   1       3.803 -12.237 -10.921  0.00  0.00    -0.344 N 
ATOM      2  S1  TFX d   1       4.192 -14.070 -12.421  0.00  0.00    -0.069 SA
ATOM      3  C8  TFX d   1       3.613 -12.651 -12.259  0.00  0.00     0.087 A 
ATOM      4  C9  TFX d   1       4.518 -13.395 -10.134  0.00  0.00     0.052 A 
ATOM      5  C10 TFX d   1       4.741 -14.473 -11.037  0.00  0.00     0.034 A 
ATOM      6  C11 TFX d   1       5.367 -15.622 -10.570  0.00  0.00    -0.058 A 
ATOM      7  C12 TFX d   1       5.766 -15.707  -9.230  0.00  0.00    -0.061 A 
ATOM      8  C13 TFX d   1       5.541 -14.635  -8.345  0.00  0.00    -0.075 A 
ATOM      9  C14 TFX d   1       4.914 -13.480  -8.808  0.00  0.00    -0.055 A 
ATOM     10  H5  TFX d   1       5.547 -16.453 -11.243  0.00  0.00     0.086 H 
ATOM     11  H6  TFX d   1       5.854 -14.708  -7.310  0.00  0.00     0.084 H 
ATOM     12  H7  TFX d   1       4.736 -12.650  -8.133  0.00  0.00     0.087 H 
ENDROOT
BRANCH   3  13
ATOM     13  C5  TFX d   1       3.151 -12.374 -13.550  0.00  0.00    -0.002 A 
ATOM     14  C4  TFX d   1       2.797 -11.067 -13.841  0.00  0.00    -0.068 A 
ATOM     15  C3  TFX d   1       2.334 -10.707 -15.092  0.00  0.00    -0.057 A 
ATOM     16  H2  TFX d   1       2.885 -10.310 -13.070  0.00  0.00     0.085 H 
ATOM     17  C2  TFX d   1       2.205 -11.666 -16.078  0.00  0.00     0.029 A 
ATOM     18  H1  TFX d   1       2.073  -9.675 -15.299  0.00  0.00     0.086 H 
ATOM     19  C7  TFX d   1       2.546 -12.984 -15.802  0.00  0.00    -0.057 A 
ATOM     20  C6  TFX d   1       3.015 -13.337 -14.543  0.00  0.00    -0.068 A 
ATOM     21  H4  TFX d   1       2.446 -13.740 -16.572  0.00  0.00     0.086 H 
ATOM     22  H3  TFX d   1       3.276 -14.368 -14.334  0.00  0.00     0.085 H 
BRANCH  17  23
ATOM     23  N2  TFX d   1       1.709 -11.273 -17.385  0.00  0.00    -0.390 N 
BRANCH  23  24
ATOM     24  C15 TFX d   1       1.408  -9.878 -17.648  0.00  0.00    -0.019 C 
ATOM     25  H8  TFX d   1       1.047  -9.769 -18.681  0.00  0.00     0.056 H 
ATOM     26  H9  TFX d   1       2.318  -9.275 -17.512  0.00  0.00     0.056 H 
ATOM     27  H10 TFX d   1       0.631  -9.533 -16.950  0.00  0.00     0.056 H 
ENDBRANCH  23  24
BRANCH  23  28
ATOM     28  C16 TFX d   1       1.507 -12.262 -18.427  0.00  0.00    -0.019 C 
ATOM     29  H11 TFX d   1       1.786 -13.256 -18.048  0.00  0.00     0.056 H 
ATOM     30  H12 TFX d   1       2.133 -12.012 -19.296  0.00  0.00     0.056 H 
ATOM     31  H13 TFX d   1       0.449 -12.268 -18.727  0.00  0.00     0.056 H 
ENDBRANCH  23  28
ENDBRANCH  17  23
ENDBRANCH   3  13
BRANCH   1  32
ATOM     32  C17 TFX d   1       3.418 -10.980 -10.317  0.00  0.00    -0.013 C 
ATOM     33  H14 TFX d   1       2.938 -10.342 -11.073  0.00  0.00     0.057 H 
ATOM     34  H15 TFX d   1       4.312 -10.473  -9.924  0.00  0.00     0.057 H 
ATOM     35  H16 TFX d   1       2.712 -11.169  -9.495  0.00  0.00     0.057 H 
ENDBRANCH   1  32
BRANCH   7  36
ATOM     36  C18 TFX d   1       6.450 -16.978  -8.725  0.00  0.00    -0.051 C 
ATOM     37  H17 TFX d   1       6.540 -17.699  -9.551  0.00  0.00     0.033 H 
ATOM     38  H18 TFX d   1       5.851 -17.420  -7.916  0.00  0.00     0.033 H 
ATOM     39  H19 TFX d   1       7.452 -16.729  -8.345  0.00  0.00     0.033 H 
ENDBRANCH   7  36
TORSDOF 6
