REMARK  21 active torsions:
REMARK  status: ('A' for Active; 'I' for Inactive)
REMARK    1  A    between atoms: N_1  and  C10_5 
REMARK       I    between atoms: C9_46  and  N_1 
REMARK    2  A    between atoms: C1_4  and  C_2 
REMARK    3  A    between atoms: C6_43  and  O_3 
REMARK    4  A    between atoms: C1_4  and  C9_46 
REMARK    5  A    between atoms: C13_8  and  C16_11 
REMARK       I    between atoms: C16_11  and  N1_47 
REMARK    6  A    between atoms: C17_12  and  C18_13 
REMARK    7  A    between atoms: C17_12  and  C20_16 
REMARK    8  A    between atoms: N1_47  and  C17_12 
REMARK    9  A    between atoms: C3_26  and  C2_15 
REMARK       I    between atoms: C20_16  and  N3_49 
REMARK   10  A    between atoms: N3_49  and  C21_17 
REMARK   11  A    between atoms: C24_20  and  C27_23 
REMARK       I    between atoms: C27_23  and  N4_50 
REMARK   12  A    between atoms: N4_50  and  C28_24 
REMARK   13  A    between atoms: C29_25  and  O11_54 
REMARK   14  A    between atoms: C30_27  and  O10_53 
REMARK   15  A    between atoms: C31_28  and  C34_31 
REMARK       I    between atoms: C34_31  and  N5_51 
REMARK   16  A    between atoms: N5_51  and  C35_32 
REMARK   17  A    between atoms: C36_33  and  O9_62 
REMARK   18  A    between atoms: C37_34  and  O8_61 
REMARK   19  A    between atoms: C38_35  and  C41_39 
REMARK   20  A    between atoms: O9_62  and  C42_40 
REMARK   21  A    between atoms: O11_54  and  C43_41 
ROOT
ATOM      1  C18 BWH d   1      23.966  71.602  61.792  0.00  0.00     0.042 C 
ATOM      2  C19 BWH d   1      23.047  72.009  62.867  0.00  0.00     0.061 C 
ATOM      3  N2  BWH d   1      22.375  72.319  63.756  0.00  0.00    -0.197 NA
ATOM      4  H11 BWH d   1      23.397  70.960  61.103  0.00  0.00     0.058 H 
ATOM      5  H12 BWH d   1      24.278  72.517  61.267  0.00  0.00     0.058 H 
ENDROOT
BRANCH   1   6
ATOM      6  C17 BWH d   1      25.255  70.832  62.178  0.00  0.00     0.101 C 
ATOM      7  H10 BWH d   1      26.093  71.383  61.726  0.00  0.00     0.089 H 
BRANCH   6   8
ATOM      8  C20 BWH d   1      25.528  70.780  63.686  0.00  0.00     0.245 C 
ATOM      9  N3  BWH d   1      24.665  71.480  64.393  0.00  0.00    -0.325 N 
ATOM     10  H33 BWH d   1      24.027  72.043  63.868  0.00  0.00     0.169 HD
ATOM     11  O3  BWH d   1      26.446  70.134  64.177  0.00  0.00    -0.271 OA
BRANCH   9  12
ATOM     12  C21 BWH d   1      24.527  71.536  65.781  0.00  0.00     0.034 C 
ATOM     13  C22 BWH d   1      24.334  72.764  66.382  0.00  0.00    -0.056 C 
ATOM     14  C23 BWH d   1      24.330  72.865  67.759  0.00  0.00    -0.066 C 
ATOM     15  H14 BWH d   1      24.186  73.648  65.773  0.00  0.00     0.086 H 
ATOM     16  C24 BWH d   1      24.588  71.741  68.539  0.00  0.00     0.032 C 
ATOM     17  H15 BWH d   1      24.126  73.819  68.232  0.00  0.00     0.085 H 
ATOM     18  C25 BWH d   1      24.638  70.494  67.929  0.00  0.00    -0.066 C 
ATOM     19  C26 BWH d   1      24.635  70.391  66.555  0.00  0.00    -0.056 C 
ATOM     20  H16 BWH d   1      24.680  69.597  68.537  0.00  0.00     0.085 H 
ATOM     21  H17 BWH d   1      24.717  69.419  66.082  0.00  0.00     0.086 H 
BRANCH  16  22
ATOM     22  C27 BWH d   1      24.880  71.865  69.986  0.00  0.00     0.256 C 
ATOM     23  N4  BWH d   1      24.020  72.650  70.680  0.00  0.00    -0.320 N 
ATOM     24  H34 BWH d   1      23.314  73.120  70.150  0.00  0.00     0.169 HD
ATOM     25  O4  BWH d   1      25.856  71.303  70.474  0.00  0.00    -0.267 OA
BRANCH  23  26
ATOM     26  C28 BWH d   1      24.018  72.872  72.072  0.00  0.00     0.071 A 
ATOM     27  C29 BWH d   1      22.923  73.578  72.587  0.00  0.00     0.129 A 
ATOM     28  C30 BWH d   1      22.843  73.816  73.952  0.00  0.00     0.117 A 
ATOM     29  C31 BWH d   1      23.865  73.363  74.824  0.00  0.00     0.068 A 
ATOM     30  C32 BWH d   1      24.955  72.676  74.288  0.00  0.00    -0.063 A 
ATOM     31  C33 BWH d   1      25.031  72.435  72.926  0.00  0.00    -0.053 A 
ATOM     32  H18 BWH d   1      25.747  72.329  74.942  0.00  0.00     0.085 H 
ATOM     33  H19 BWH d   1      25.884  71.903  72.521  0.00  0.00     0.087 H 
BRANCH  27  34
ATOM     34  O11 BWH d   1      21.953  74.000  71.696  0.00  0.00    -0.351 OA
BRANCH  34  35
ATOM     35  C43 BWH d   1      22.043  75.386  71.326  0.00  0.00     0.011 C 
ATOM     36  H26 BWH d   1      21.236  75.630  70.619  0.00  0.00     0.067 H 
ATOM     37  H27 BWH d   1      23.017  75.576  70.851  0.00  0.00     0.067 H 
ATOM     38  H28 BWH d   1      21.945  76.013  72.225  0.00  0.00     0.067 H 
ENDBRANCH  34  35
ENDBRANCH  27  34
BRANCH  28  39
ATOM     39  O10 BWH d   1      21.759  74.472  74.430  0.00  0.00    -0.357 OA
ATOM     40  H36 BWH d   1      21.184  74.698  73.709  0.00  0.00     0.217 HD
ENDBRANCH  28  39
BRANCH  29  41
ATOM     41  C34 BWH d   1      23.891  73.602  76.298  0.00  0.00     0.259 C 
ATOM     42  N5  BWH d   1      22.846  74.294  76.798  0.00  0.00    -0.320 N 
ATOM     43  H35 BWH d   1      22.140  74.574  76.147  0.00  0.00     0.169 HD
ATOM     44  O5  BWH d   1      24.829  73.200  76.977  0.00  0.00    -0.267 OA
BRANCH  42  45
ATOM     45  C35 BWH d   1      22.645  74.666  78.153  0.00  0.00     0.071 A 
ATOM     46  C36 BWH d   1      21.476  75.374  78.449  0.00  0.00     0.129 A 
ATOM     47  C37 BWH d   1      21.210  75.744  79.761  0.00  0.00     0.118 A 
ATOM     48  C38 BWH d   1      22.107  75.404  80.796  0.00  0.00     0.076 A 
ATOM     49  C39 BWH d   1      23.265  74.701  80.481  0.00  0.00    -0.061 A 
ATOM     50  C40 BWH d   1      23.534  74.343  79.173  0.00  0.00    -0.053 A 
ATOM     51  H20 BWH d   1      23.962  74.432  81.267  0.00  0.00     0.085 H 
ATOM     52  H22 BWH d   1      24.446  73.806  78.940  0.00  0.00     0.087 H 
BRANCH  46  53
ATOM     53  O9  BWH d   1      20.600  75.669  77.423  0.00  0.00    -0.351 OA
BRANCH  53  54
ATOM     54  C42 BWH d   1      19.604  74.672  77.187  0.00  0.00     0.011 C 
ATOM     55  H23 BWH d   1      18.956  74.991  76.358  0.00  0.00     0.067 H 
ATOM     56  H24 BWH d   1      18.998  74.537  78.095  0.00  0.00     0.067 H 
ATOM     57  H25 BWH d   1      20.092  73.721  76.927  0.00  0.00     0.067 H 
ENDBRANCH  53  54
ENDBRANCH  46  53
BRANCH  47  58
ATOM     58  O8  BWH d   1      20.086  76.458  79.984  0.00  0.00    -0.357 OA
ATOM     59  H37 BWH d   1      19.622  76.580  79.164  0.00  0.00     0.217 HD
ENDBRANCH  47  58
BRANCH  48  60
ATOM     60  C41 BWH d   1      21.824  75.800  82.214  0.00  0.00     0.212 C 
ATOM     61  O6  BWH d   1      22.617  75.535  83.104  0.00  0.00    -0.644 OA
ATOM     62  O7  BWH d   1      20.710  76.441  82.411  0.00  0.00    -0.644 OA
ENDBRANCH  48  60
ENDBRANCH  42  45
ENDBRANCH  29  41
ENDBRANCH  23  26
ENDBRANCH  16  22
ENDBRANCH   9  12
ENDBRANCH   6   8
BRANCH   6  63
ATOM     63  N1  BWH d   1      25.269  69.495  61.614  0.00  0.00    -0.343 N 
ATOM     64  C16 BWH d   1      24.307  68.583  61.840  0.00  0.00     0.252 C 
ATOM     65  O2  BWH d   1      23.316  68.813  62.538  0.00  0.00    -0.268 OA
ATOM     66  H32 BWH d   1      26.035  69.238  61.025  0.00  0.00     0.163 HD
BRANCH  64  67
ATOM     67  C13 BWH d   1      24.475  67.270  61.156  0.00  0.00     0.032 A 
ATOM     68  C12 BWH d   1      25.715  66.698  60.879  0.00  0.00    -0.066 A 
ATOM     69  C11 BWH d   1      25.801  65.427  60.337  0.00  0.00    -0.056 A 
ATOM     70  H7  BWH d   1      26.621  67.254  61.090  0.00  0.00     0.085 H 
ATOM     71  C10 BWH d   1      24.644  64.707  60.066  0.00  0.00     0.035 A 
ATOM     72  H6  BWH d   1      26.771  64.993  60.124  0.00  0.00     0.086 H 
ATOM     73  C15 BWH d   1      23.407  65.284  60.318  0.00  0.00    -0.056 A 
ATOM     74  C14 BWH d   1      23.326  66.552  60.849  0.00  0.00    -0.066 A 
ATOM     75  H9  BWH d   1      22.500  64.734  60.096  0.00  0.00     0.086 H 
ATOM     76  H8  BWH d   1      22.354  66.996  61.030  0.00  0.00     0.085 H 
BRANCH  71  77
ATOM     77  N   BWH d   1      24.579  63.426  59.490  0.00  0.00    -0.323 N 
ATOM     78  C9  BWH d   1      25.552  62.703  58.955  0.00  0.00     0.251 C 
ATOM     79  O1  BWH d   1      26.692  63.115  58.715  0.00  0.00    -0.268 OA
ATOM     80  H1  BWH d   1      23.673  63.002  59.483  0.00  0.00     0.169 HD
BRANCH  78  81
ATOM     81  C1  BWH d   1      25.111  61.344  58.629  0.00  0.00     0.007 C 
ATOM     82  C2  BWH d   1      25.825  60.447  57.948  0.00  0.00    -0.062 C 
ATOM     83  H13 BWH d   1      26.852  60.711  57.699  0.00  0.00     0.085 H 
BRANCH  81  84
ATOM     84  C   BWH d   1      23.717  61.086  59.095  0.00  0.00    -0.046 C 
ATOM     85  H2  BWH d   1      23.427  60.058  58.831  0.00  0.00     0.033 H 
ATOM     86  H3  BWH d   1      23.031  61.797  58.611  0.00  0.00     0.033 H 
ATOM     87  H4  BWH d   1      23.666  61.213  60.187  0.00  0.00     0.033 H 
ENDBRANCH  81  84
BRANCH  82  88
ATOM     88  C3  BWH d   1      25.339  59.129  57.505  0.00  0.00    -0.035 A 
ATOM     89  C4  BWH d   1      26.175  58.026  57.624  0.00  0.00    -0.070 A 
ATOM     90  C5  BWH d   1      25.827  56.799  57.090  0.00  0.00    -0.050 A 
ATOM     91  H21 BWH d   1      27.119  58.129  58.146  0.00  0.00     0.084 H 
ATOM     92  C6  BWH d   1      24.621  56.649  56.424  0.00  0.00     0.065 A 
ATOM     93  H29 BWH d   1      26.498  55.954  57.192  0.00  0.00     0.087 H 
ATOM     94  C7  BWH d   1      23.754  57.725  56.324  0.00  0.00    -0.050 A 
ATOM     95  C8  BWH d   1      24.108  58.948  56.867  0.00  0.00    -0.070 A 
ATOM     96  H30 BWH d   1      22.800  57.609  55.822  0.00  0.00     0.087 H 
ATOM     97  H31 BWH d   1      23.418  59.781  56.796  0.00  0.00     0.084 H 
BRANCH  92  98
ATOM     98  O   BWH d   1      24.308  55.448  55.835  0.00  0.00    -0.361 OA
ATOM     99  H5  BWH d   1      23.454  55.511  55.424  0.00  0.00     0.217 HD
ENDBRANCH  92  98
ENDBRANCH  82  88
ENDBRANCH  78  81
ENDBRANCH  71  77
ENDBRANCH  64  67
ENDBRANCH   6  63
ENDBRANCH   1   6
TORSDOF 21
