REMARK  3 active torsions:
REMARK  status: ('A' for Active; 'I' for Inactive)
REMARK    1  A    between atoms: CAD_5  and  CAF_6 
REMARK    2  A    between atoms: CAG_11  and  CAL_12 
REMARK       I    between atoms: CAL_12  and  NAN_14 
REMARK    3  A    between atoms: NAN_14  and  NAO_15 
ROOT
ATOM      1  CAF BWT d   1      -2.988 -12.814 -17.777  0.00  0.00     0.015 A 
ATOM      2  CAK BWT d   1      -4.208 -12.534 -17.187  0.00  0.00    -0.068 A 
ATOM      3  CAI BWT d   1      -4.691 -11.194 -17.199  0.00  0.00    -0.067 A 
ATOM      4  CAJ BWT d   1      -2.301 -11.730 -18.317  0.00  0.00    -0.068 A 
ATOM      5  CAH BWT d   1      -2.812 -10.429 -18.312  0.00  0.00    -0.067 A 
ATOM      6  CAG BWT d   1      -4.025 -10.118 -17.752  0.00  0.00     0.033 A 
ATOM      7  H2  BWT d   1      -4.788 -13.323 -16.722  0.00  0.00     0.085 H 
ATOM      8  H3  BWT d   1      -5.654 -11.005 -16.739  0.00  0.00     0.085 H 
ATOM      9  H4  BWT d   1      -1.327 -11.903 -18.761  0.00  0.00     0.085 H 
ATOM     10  H5  BWT d   1      -2.228  -9.637 -18.767  0.00  0.00     0.085 H 
ENDROOT
BRANCH   6  11
ATOM     11  CAL BWT d   1      -4.550  -8.788 -17.813  0.00  0.00     0.275 C 
ATOM     12  OAM BWT d   1      -4.444  -8.061 -18.821  0.00  0.00    -0.266 OA
ATOM     13  NAN BWT d   1      -5.237  -8.393 -16.727  0.00  0.00    -0.186 N 
ATOM     14  H6  BWT d   1      -5.308  -8.990 -15.928  0.00  0.00     0.196 HD
BRANCH  13  15
ATOM     15  NAO BWT d   1      -5.840  -7.160 -16.730  0.00  0.00     0.003 N 
ATOM     16  H7  BWT d   1      -6.311  -7.014 -15.851  0.00  0.00     0.303 HD
ATOM     17  H8  BWT d   1      -6.510  -7.116 -17.482  0.00  0.00     0.303 HD
ATOM     18  H9  BWT d   1      -5.142  -6.445 -16.860  0.00  0.00     0.303 HD
ENDBRANCH  13  15
ENDBRANCH   6  11
BRANCH   1  19
ATOM     19  CAD BWT d   1      -2.535 -14.065 -17.879  0.00  0.00     0.197 A 
ATOM     20  NAB BWT d   1      -3.404 -15.086 -18.014  0.00  0.00    -0.139 NA
ATOM     21  NAA BWT d   1      -2.703 -16.218 -18.189  0.00  0.00    -0.200 N 
ATOM     22  NAC BWT d   1      -1.410 -15.880 -18.219  0.00  0.00     0.022 NA
ATOM     23  H1  BWT d   1      -3.089 -17.168 -18.282  0.00  0.00     0.208 HD
ATOM     24  NAE BWT d   1      -1.294 -14.511 -18.087  0.00  0.00    -0.136 NA
ENDBRANCH   1  19
TORSDOF 3
