REMARK  7 active torsions:
REMARK  status: ('A' for Active; 'I' for Inactive)
REMARK    1  A    between atoms: C16_6  and  O4_7 
REMARK    2  A    between atoms: C11_8  and  C7_9 
REMARK    3  A    between atoms: C5_14  and  S_15 
REMARK    4  A    between atoms: S_15  and  N_18 
REMARK    5  A    between atoms: N_18  and  C4_19 
REMARK    6  A    between atoms: C18_23  and  O5_24 
REMARK    7  A    between atoms: C1_25  and  C_26 
ROOT
ATOM      1  C7  BWW d   1      55.352  37.932   3.999  0.00  0.00    -0.022 A 
ATOM      2  C6  BWW d   1      54.292  37.488   3.198  0.00  0.00    -0.050 A 
ATOM      3  C8  BWW d   1      55.398  37.642   5.359  0.00  0.00    -0.072 A 
ATOM      4  C9  BWW d   1      54.364  36.887   5.901  0.00  0.00    -0.081 A 
ATOM      5  C10 BWW d   1      53.303  36.436   5.094  0.00  0.00    -0.060 A 
ATOM      6  C5  BWW d   1      53.243  36.728   3.717  0.00  0.00     0.080 A 
ATOM      7  H5  BWW d   1      54.286  37.742   2.144  0.00  0.00     0.087 H 
ATOM      8  H6  BWW d   1      56.216  37.994   5.978  0.00  0.00     0.084 H 
ATOM      9  H7  BWW d   1      54.375  36.643   6.957  0.00  0.00     0.083 H 
ATOM     10  H8  BWW d   1      52.511  35.848   5.544  0.00  0.00     0.085 H 
ENDROOT
BRANCH   6  11
ATOM     11  S   BWW d   1      52.047  36.229   2.727  0.00  0.00     0.263 S 
ATOM     12  O2  BWW d   1      52.648  35.556   1.606  0.00  0.00    -0.200 OA
ATOM     13  O3  BWW d   1      51.177  35.339   3.471  0.00  0.00    -0.200 OA
BRANCH  11  14
ATOM     14  N   BWW d   1      51.169  37.463   2.184  0.00  0.00    -0.281 N 
ATOM     15  H9  BWW d   1      51.243  37.695   1.214  0.00  0.00     0.179 HD
BRANCH  14  16
ATOM     16  C4  BWW d   1      50.336  38.210   2.949  0.00  0.00     0.045 A 
ATOM     17  C3  BWW d   1      49.240  38.771   2.299  0.00  0.00    -0.055 A 
ATOM     18  C2  BWW d   1      48.301  39.590   2.951  0.00  0.00    -0.061 A 
ATOM     19  H10 BWW d   1      49.104  38.567   1.243  0.00  0.00     0.087 H 
ATOM     20  C1  BWW d   1      48.464  39.872   4.304  0.00  0.00     0.073 A 
ATOM     21  H11 BWW d   1      47.458  39.998   2.405  0.00  0.00     0.085 H 
ATOM     22  C18 BWW d   1      49.630  39.297   5.001  0.00  0.00     0.084 A 
ATOM     23  C17 BWW d   1      50.539  38.471   4.313  0.00  0.00    -0.024 A 
ATOM     24  H12 BWW d   1      51.388  38.041   4.832  0.00  0.00     0.091 H 
BRANCH  20  25
ATOM     25  C   BWW d   1      47.526  40.756   5.083  0.00  0.00     0.212 C 
ATOM     26  O1  BWW d   1      47.654  40.892   6.286  0.00  0.00    -0.644 OA
ATOM     27  O   BWW d   1      46.582  41.460   4.472  0.00  0.00    -0.644 OA
ENDBRANCH  20  25
BRANCH  22  28
ATOM     28  O5  BWW d   1      49.737  39.624   6.316  0.00  0.00    -0.360 OA
ATOM     29  H13 BWW d   1      49.014  40.189   6.561  0.00  0.00     0.217 HD
ENDBRANCH  22  28
ENDBRANCH  14  16
ENDBRANCH  11  14
ENDBRANCH   6  11
BRANCH   1  30
ATOM     30  C11 BWW d   1      56.398  38.731   3.322  0.00  0.00     0.010 A 
ATOM     31  C12 BWW d   1      56.039  40.017   2.946  0.00  0.00    -0.032 A 
ATOM     32  C13 BWW d   1      56.952  40.825   2.294  0.00  0.00     0.117 A 
ATOM     33  H1  BWW d   1      55.044  40.388   3.163  0.00  0.00     0.089 H 
ATOM     34  F   BWW d   1      56.578  42.066   1.960  0.00  0.00    -0.206 F 
ATOM     35  C14 BWW d   1      58.234  40.364   2.000  0.00  0.00    -0.043 A 
ATOM     36  C15 BWW d   1      58.647  39.071   2.349  0.00  0.00    -0.047 A 
ATOM     37  H2  BWW d   1      58.928  41.021   1.489  0.00  0.00     0.088 H 
ATOM     38  C16 BWW d   1      57.773  38.195   3.005  0.00  0.00     0.076 A 
ATOM     39  H3  BWW d   1      59.653  38.746   2.109  0.00  0.00     0.087 H 
BRANCH  38  40
ATOM     40  O4  BWW d   1      58.198  36.916   3.334  0.00  0.00    -0.360 OA
ATOM     41  H4  BWW d   1      57.493  36.452   3.771  0.00  0.00     0.217 HD
ENDBRANCH  38  40
ENDBRANCH   1  30
TORSDOF 7
