REMARK  12 active torsions:
REMARK  status: ('A' for Active; 'I' for Inactive)
REMARK    1  A    between atoms: CAO_2  and  CAJ_4 
REMARK    2  A    between atoms: CAJ_4  and  CAK_5 
REMARK    3  A    between atoms: CAK_5  and  CAU_6 
REMARK    4  A    between atoms: CAU_6  and  CAQ_7 
REMARK    5  A    between atoms: CAU_6  and  OAN_10 
REMARK    6  A    between atoms: OAN_10  and  CAR_11 
REMARK       I    between atoms: CAR_11  and  N_13 
REMARK    7  A    between atoms: N_13  and  CA_14 
REMARK    8  A    between atoms: CA_14  and  C_15 
REMARK    9  A    between atoms: CA_14  and  CB_18 
REMARK   10  A    between atoms: CB_18  and  CG_19 
REMARK   11  A    between atoms: CG_19  and  CD2_20 
REMARK   12  A    between atoms: CG_19  and  CD1_21 
ROOT
ATOM      1  CAR BXK d   1      18.022  44.823  42.639  0.00  0.00     0.362 C 
ATOM      2  OAF BXK d   1      18.632  43.846  42.154  0.00  0.00    -0.238 OA
ATOM      3  N   BXK d   1      18.601  45.672  43.504  0.00  0.00    -0.322 N 
ATOM      4  H6  BXK d   1      18.036  46.430  43.829  0.00  0.00     0.165 HD
ENDROOT
BRANCH   3   5
ATOM      5  CA  BXK d   1      19.958  45.610  44.020  0.00  0.00     0.098 C 
ATOM      6  H7  BXK d   1      20.665  45.404  43.203  0.00  0.00     0.089 H 
BRANCH   5   7
ATOM      7  C   BXK d   1      20.274  47.000  44.643  0.00  0.00     0.196 C 
ATOM      8  OXT BXK d   1      21.287  47.579  44.201  0.00  0.00    -0.646 OA
ATOM      9  O   BXK d   1      19.523  47.432  45.545  0.00  0.00    -0.646 OA
ENDBRANCH   5   7
BRANCH   5  10
ATOM     10  CB  BXK d   1      20.045  44.472  45.065  0.00  0.00    -0.034 C 
ATOM     11  H8  BXK d   1      19.870  43.513  44.556  0.00  0.00     0.037 H 
ATOM     12  H9  BXK d   1      19.266  44.631  45.825  0.00  0.00     0.037 H 
BRANCH  10  13
ATOM     13  CG  BXK d   1      21.412  44.415  45.767  0.00  0.00    -0.059 C 
ATOM     14  H10 BXK d   1      21.614  45.385  46.244  0.00  0.00     0.038 H 
BRANCH  13  15
ATOM     15  CD2 BXK d   1      22.545  44.099  44.762  0.00  0.00    -0.073 C 
ATOM     16  H11 BXK d   1      23.508  44.065  45.293  0.00  0.00     0.028 H 
ATOM     17  H12 BXK d   1      22.580  44.882  43.990  0.00  0.00     0.028 H 
ATOM     18  H13 BXK d   1      22.354  43.125  44.288  0.00  0.00     0.028 H 
ENDBRANCH  13  15
BRANCH  13  19
ATOM     19  CD1 BXK d   1      21.370  43.321  46.828  0.00  0.00    -0.073 C 
ATOM     20  H14 BXK d   1      20.566  43.538  47.547  0.00  0.00     0.028 H 
ATOM     21  H15 BXK d   1      22.334  43.285  47.356  0.00  0.00     0.028 H 
ATOM     22  H16 BXK d   1      21.179  42.351  46.347  0.00  0.00     0.028 H 
ENDBRANCH  13  19
ENDBRANCH  10  13
ENDBRANCH   5  10
ENDBRANCH   3   5
BRANCH   1  23
ATOM     23  OAN BXK d   1      16.707  45.062  42.357  0.00  0.00    -0.288 OA
BRANCH  23  24
ATOM     24  CAU BXK d   1      16.190  44.567  41.106  0.00  0.00     0.133 C 
ATOM     25  H5  BXK d   1      16.008  43.487  41.211  0.00  0.00     0.101 H 
BRANCH  24  26
ATOM     26  CAK BXK d   1      14.856  45.266  40.771  0.00  0.00    -0.022 C 
ATOM     27  H3  BXK d   1      14.519  44.965  39.768  0.00  0.00     0.038 H 
ATOM     28  H4  BXK d   1      14.093  44.988  41.513  0.00  0.00     0.038 H 
BRANCH  26  29
ATOM     29  CAJ BXK d   1      15.091  46.796  40.809  0.00  0.00     0.018 C 
ATOM     30  H1  BXK d   1      15.126  47.114  41.861  0.00  0.00     0.049 H 
ATOM     31  H2  BXK d   1      16.058  47.009  40.329  0.00  0.00     0.049 H 
BRANCH  29  32
ATOM     32  CAO BXK d   1      14.005  47.616  40.093  0.00  0.00     0.172 C 
ATOM     33  OAC BXK d   1      13.985  48.857  40.331  0.00  0.00    -0.648 OA
ATOM     34  OAG BXK d   1      13.235  47.023  39.300  0.00  0.00    -0.648 OA
ENDBRANCH  29  32
ENDBRANCH  26  29
ENDBRANCH  24  26
BRANCH  24  35
ATOM     35  CAQ BXK d   1      17.188  44.785  39.936  0.00  0.00     0.203 C 
ATOM     36  OAI BXK d   1      18.043  45.709  39.999  0.00  0.00    -0.646 OA
ATOM     37  OAE BXK d   1      17.094  43.974  38.995  0.00  0.00    -0.646 OA
ENDBRANCH  24  35
ENDBRANCH  23  24
ENDBRANCH   1  23
TORSDOF 12
