REMARK  19 active torsions:
REMARK  status: ('A' for Active; 'I' for Inactive)
REMARK    1  A    between atoms: C1_1  and  O49_27 
REMARK    2  A    between atoms: C2_3  and  O55_28 
REMARK    3  A    between atoms: C8_15  and  O2_4 
REMARK    4  A    between atoms: O7_14  and  C3_5 
REMARK    5  A    between atoms: C5_9  and  O3_6 
REMARK    6  A    between atoms: C4_7  and  C57_29 
REMARK    7  A    between atoms: C7_13  and  O4_8 
REMARK    8  A    between atoms: C6_11  and  O16_19 
REMARK    9  A    between atoms: C11_18  and  O6_12 
REMARK   10  A    between atoms: C10_17  and  O7_14 
REMARK   11  A    between atoms: C9_16  and  C11_18 
REMARK   12  A    between atoms: O16_19  and  C18_20 
REMARK   13  A    between atoms: C18_20  and  C19_21 
REMARK   14  A    between atoms: C19_21  and  C22_22 
REMARK   15  A    between atoms: C22_22  and  C25_23 
REMARK   16  A    between atoms: C25_23  and  C28_24 
REMARK   17  A    between atoms: C28_24  and  C31_25 
REMARK   18  A    between atoms: C31_25  and  C34_26 
REMARK   19  A    between atoms: C57_29  and  O61_30 
ROOT
ATOM      1  C1  ZDM d   1     -15.163 -25.194 -18.817  0.00  0.00     0.110 C 
ATOM      2  C2  ZDM d   1     -15.483 -25.616 -20.268  0.00  0.00     0.092 C 
ATOM      3  C3  ZDM d   1     -14.426 -26.393 -21.110  0.00  0.00     0.096 C 
ATOM      4  C4  ZDM d   1     -13.173 -26.749 -20.295  0.00  0.00     0.089 C 
ATOM      5  O5  ZDM d   1     -12.845 -25.638 -19.484  0.00  0.00    -0.348 OA
ATOM      6  C6  ZDM d   1     -13.664 -25.249 -18.388  0.00  0.00     0.158 C 
ATOM      7  H1  ZDM d   1     -15.397 -24.120 -18.771  0.00  0.00     0.094 H 
ATOM      8  H2  ZDM d   1     -16.374 -26.260 -20.230  0.00  0.00     0.091 H 
ATOM      9  H4  ZDM d   1     -14.894 -27.339 -21.421  0.00  0.00     0.091 H 
ATOM     10  H6  ZDM d   1     -13.384 -27.631 -19.673  0.00  0.00     0.090 H 
ATOM     11  H9  ZDM d   1     -13.431 -24.198 -18.164  0.00  0.00     0.133 H 
ENDROOT
BRANCH   3  12
ATOM     12  O7  ZDM d   1     -14.058 -25.678 -22.311  0.00  0.00    -0.348 OA
BRANCH  12  13
ATOM     13  C10 ZDM d   1     -14.386 -26.337 -23.535  0.00  0.00     0.159 C 
ATOM     14  O1  ZDM d   1     -13.603 -27.484 -23.964  0.00  0.00    -0.348 OA
ATOM     15  C9  ZDM d   1     -14.184 -28.488 -24.804  0.00  0.00     0.089 C 
ATOM     16  C8  ZDM d   1     -15.519 -28.108 -25.470  0.00  0.00     0.090 C 
ATOM     17  H13 ZDM d   1     -14.383 -29.378 -24.190  0.00  0.00     0.090 H 
ATOM     18  C7  ZDM d   1     -16.305 -27.264 -24.494  0.00  0.00     0.092 C 
ATOM     19  H12 ZDM d   1     -15.319 -27.537 -26.388  0.00  0.00     0.091 H 
ATOM     20  C5  ZDM d   1     -15.588 -25.926 -24.362  0.00  0.00     0.110 C 
ATOM     21  H11 ZDM d   1     -16.260 -27.756 -23.511  0.00  0.00     0.091 H 
ATOM     22  H8  ZDM d   1     -15.289 -25.515 -25.338  0.00  0.00     0.094 H 
ATOM     23  H14 ZDM d   1     -13.738 -25.649 -24.098  0.00  0.00     0.133 H 
BRANCH  15  24
ATOM     24  C11 ZDM d   1     -13.084 -28.820 -25.805  0.00  0.00     0.043 C 
ATOM     25  H15 ZDM d   1     -13.473 -29.502 -26.575  0.00  0.00     0.078 H 
ATOM     26  H16 ZDM d   1     -12.721 -27.898 -26.282  0.00  0.00     0.078 H 
BRANCH  24  27
ATOM     27  O6  ZDM d   1     -12.013 -29.453 -25.087  0.00  0.00    -0.398 OA
ATOM     28  H10 ZDM d   1     -11.685 -28.860 -24.421  0.00  0.00     0.209 HD
ENDBRANCH  24  27
ENDBRANCH  15  24
BRANCH  16  29
ATOM     29  O2  ZDM d   1     -16.305 -29.267 -25.793  0.00  0.00    -0.390 OA
ATOM     30  H3  ZDM d   1     -17.126 -28.992 -26.184  0.00  0.00     0.210 HD
ENDBRANCH  16  29
BRANCH  18  31
ATOM     31  O4  ZDM d   1     -17.693 -27.185 -24.841  0.00  0.00    -0.390 OA
ATOM     32  H7  ZDM d   1     -18.054 -28.062 -24.900  0.00  0.00     0.210 HD
ENDBRANCH  18  31
BRANCH  20  33
ATOM     33  O3  ZDM d   1     -16.431 -24.989 -23.675  0.00  0.00    -0.388 OA
ATOM     34  H5  ZDM d   1     -16.635 -25.324 -22.810  0.00  0.00     0.210 HD
ENDBRANCH  20  33
ENDBRANCH  12  13
ENDBRANCH   3  12
BRANCH   2  35
ATOM     35  O55 ZDM d   1     -15.813 -24.397 -20.909  0.00  0.00    -0.390 OA
ATOM     36  H33 ZDM d   1     -16.172 -24.580 -21.770  0.00  0.00     0.210 HD
ENDBRANCH   2  35
BRANCH   4  37
ATOM     37  C57 ZDM d   1     -11.946 -27.023 -21.177  0.00  0.00     0.043 C 
ATOM     38  H34 ZDM d   1     -11.064 -27.192 -20.541  0.00  0.00     0.078 H 
ATOM     39  H35 ZDM d   1     -11.764 -26.160 -21.835  0.00  0.00     0.078 H 
BRANCH  37  40
ATOM     40  O61 ZDM d   1     -12.198 -28.185 -21.968  0.00  0.00    -0.398 OA
ATOM     41  H36 ZDM d   1     -12.961 -28.036 -22.514  0.00  0.00     0.209 HD
ENDBRANCH  37  40
ENDBRANCH   4  37
BRANCH   1  42
ATOM     42  O49 ZDM d   1     -16.138 -25.821 -17.961  0.00  0.00    -0.388 OA
ATOM     43  H32 ZDM d   1     -15.939 -26.746 -17.880  0.00  0.00     0.210 HD
ENDBRANCH   1  42
BRANCH   6  44
ATOM     44  O16 ZDM d   1     -13.132 -25.978 -17.254  0.00  0.00    -0.359 OA
BRANCH  44  45
ATOM     45  C18 ZDM d   1     -13.819 -26.268 -16.036  0.00  0.00     0.023 C 
ATOM     46  H17 ZDM d   1     -13.138 -26.830 -15.380  0.00  0.00     0.074 H 
ATOM     47  H18 ZDM d   1     -14.695 -26.889 -16.273  0.00  0.00     0.074 H 
BRANCH  45  48
ATOM     48  C19 ZDM d   1     -14.294 -25.040 -15.289  0.00  0.00    -0.045 C 
ATOM     49  H19 ZDM d   1     -15.362 -24.889 -15.504  0.00  0.00     0.036 H 
ATOM     50  H20 ZDM d   1     -13.722 -24.170 -15.644  0.00  0.00     0.036 H 
BRANCH  48  51
ATOM     51  C22 ZDM d   1     -14.114 -25.158 -13.784  0.00  0.00    -0.063 C 
ATOM     52  H21 ZDM d   1     -13.561 -24.276 -13.428  0.00  0.00     0.033 H 
ATOM     53  H22 ZDM d   1     -13.532 -26.067 -13.572  0.00  0.00     0.033 H 
BRANCH  51  54
ATOM     54  C25 ZDM d   1     -15.426 -25.240 -13.031  0.00  0.00    -0.065 C 
ATOM     55  H23 ZDM d   1     -16.051 -26.011 -13.505  0.00  0.00     0.033 H 
ATOM     56  H24 ZDM d   1     -15.929 -24.265 -13.102  0.00  0.00     0.033 H 
BRANCH  54  57
ATOM     57  C28 ZDM d   1     -15.262 -25.594 -11.546  0.00  0.00    -0.065 C 
ATOM     58  H25 ZDM d   1     -14.371 -26.229 -11.435  0.00  0.00     0.033 H 
ATOM     59  H26 ZDM d   1     -16.152 -26.151 -11.220  0.00  0.00     0.033 H 
BRANCH  57  60
ATOM     60  C31 ZDM d   1     -15.101 -24.376 -10.652  0.00  0.00    -0.069 C 
ATOM     61  H27 ZDM d   1     -15.699 -23.552 -11.068  0.00  0.00     0.032 H 
ATOM     62  H28 ZDM d   1     -14.040 -24.088 -10.636  0.00  0.00     0.032 H 
BRANCH  60  63
ATOM     63  C34 ZDM d   1     -15.554 -24.636  -9.233  0.00  0.00    -0.077 C 
ATOM     64  H29 ZDM d   1     -15.416 -23.725  -8.632  0.00  0.00     0.027 H 
ATOM     65  H30 ZDM d   1     -14.958 -25.454  -8.802  0.00  0.00     0.027 H 
ATOM     66  H31 ZDM d   1     -16.617 -24.918  -9.233  0.00  0.00     0.027 H 
ENDBRANCH  60  63
ENDBRANCH  57  60
ENDBRANCH  54  57
ENDBRANCH  51  54
ENDBRANCH  48  51
ENDBRANCH  45  48
ENDBRANCH  44  45
ENDBRANCH   6  44
TORSDOF 19
