REMARK  4 active torsions:
REMARK  status: ('A' for Active; 'I' for Inactive)
REMARK    1  A    between atoms: C7_6  and  C11_10 
REMARK    2  A    between atoms: C15_14  and  N17_16 
REMARK    3  A    between atoms: N17_16  and  C18_17 
REMARK    4  A    between atoms: C20_18  and  C28_25 
ROOT
ATOM      1  N17 21G d   1     -17.174-150.033 176.153  0.00  0.00    -0.366 N 
ATOM      2  H6  21G d   1     -18.184-149.851 176.238  0.00  0.00     0.161 HD
ENDROOT
BRANCH   1   3
ATOM      3  C15 21G d   1     -16.490-150.712 177.108  0.00  0.00     0.166 A 
ATOM      4  C14 21G d   1     -17.090-151.199 178.262  0.00  0.00     0.179 A 
ATOM      5  C13 21G d   1     -16.324-151.899 179.191  0.00  0.00     0.045 A 
ATOM      6  F31 21G d   1     -18.399-151.010 178.489  0.00  0.00    -0.201 F 
ATOM      7  N12 21G d   1     -15.017-152.084 178.960  0.00  0.00    -0.237 NA
ATOM      8  H5  21G d   1     -16.781-152.291 180.093  0.00  0.00     0.119 H 
ATOM      9  C11 21G d   1     -14.448-151.594 177.830  0.00  0.00     0.164 A 
ATOM     10  N16 21G d   1     -15.175-150.922 176.912  0.00  0.00    -0.208 NA
BRANCH   9  11
ATOM     11  C7  21G d   1     -13.003-151.791 177.545  0.00  0.00     0.041 A 
ATOM     12  C6  21G d   1     -12.341-151.478 176.264  0.00  0.00     0.028 A 
ATOM     13  C1  21G d   1     -12.810-150.964 175.077  0.00  0.00    -0.030 A 
ATOM     14  C5  21G d   1     -11.023-151.806 176.419  0.00  0.00     0.138 A 
ATOM     15  C2  21G d   1     -11.890-150.794 174.055  0.00  0.00     0.134 A 
ATOM     16  H1  21G d   1     -13.854-150.703 174.947  0.00  0.00     0.089 H 
ATOM     17  C3  21G d   1     -10.544-151.136 174.244  0.00  0.00     0.042 A 
ATOM     18  F32 21G d   1     -12.315-150.293 172.884  0.00  0.00    -0.205 F 
ATOM     19  N4  21G d   1     -10.118-151.641 175.418  0.00  0.00    -0.239 NA
ATOM     20  H2  21G d   1      -9.837-150.992 173.435  0.00  0.00     0.119 H 
ATOM     21  N9  21G d   1     -10.821-152.290 177.673  0.00  0.00    -0.349 N 
ATOM     22  C8  21G d   1     -11.997-152.290 178.367  0.00  0.00    -0.007 A 
ATOM     23  H4  21G d   1      -9.915-152.609 178.045  0.00  0.00     0.167 HD
ATOM     24  H3  21G d   1     -12.126-152.625 179.395  0.00  0.00     0.112 H 
ENDBRANCH   9  11
ENDBRANCH   1   3
BRANCH   1  25
ATOM     25  C18 21G d   1     -16.406-149.573 174.998  0.00  0.00     0.028 C 
ATOM     26  C20 21G d   1     -16.221-148.081 175.195  0.00  0.00     0.054 C 
ATOM     27  C22 21G d   1     -17.252-147.346 174.375  0.00  0.00    -0.039 C 
ATOM     28  H8  21G d   1     -16.289-147.810 176.259  0.00  0.00     0.060 H 
ATOM     29  C23 21G d   1     -18.628-147.990 174.528  0.00  0.00    -0.060 C 
ATOM     30  C27 21G d   1     -16.711-147.457 172.947  0.00  0.00    -0.060 C 
ATOM     31  H9  21G d   1     -17.315-146.291 174.681  0.00  0.00     0.041 H 
ATOM     32  C24 21G d   1     -18.603-149.299 173.754  0.00  0.00    -0.059 C 
ATOM     33  H10 21G d   1     -19.403-147.325 174.118  0.00  0.00     0.033 H 
ATOM     34  H11 21G d   1     -18.837-148.185 175.590  0.00  0.00     0.033 H 
ATOM     35  C25 21G d   1     -17.156-149.772 173.677  0.00  0.00    -0.034 C 
ATOM     36  H12 21G d   1     -18.999-149.141 172.740  0.00  0.00     0.033 H 
ATOM     37  H13 21G d   1     -19.215-150.052 174.273  0.00  0.00     0.033 H 
ATOM     38  C26 21G d   1     -16.476-148.927 172.603  0.00  0.00    -0.059 C 
ATOM     39  H14 21G d   1     -17.130-150.837 173.401  0.00  0.00     0.043 H 
ATOM     40  H15 21G d   1     -16.909-149.155 171.618  0.00  0.00     0.033 H 
ATOM     41  H16 21G d   1     -15.397-149.140 172.587  0.00  0.00     0.033 H 
ATOM     42  H17 21G d   1     -15.762-146.907 172.871  0.00  0.00     0.033 H 
ATOM     43  H18 21G d   1     -17.441-147.028 172.244  0.00  0.00     0.033 H 
ATOM     44  H7  21G d   1     -15.437-150.091 174.957  0.00  0.00     0.074 H 
BRANCH  26  45
ATOM     45  C28 21G d   1     -14.898-147.724 174.622  0.00  0.00     0.179 C 
ATOM     46  O29 21G d   1     -14.288-146.769 175.140  0.00  0.00    -0.648 OA
ATOM     47  O30 21G d   1     -14.486-148.388 173.641  0.00  0.00    -0.648 OA
ENDBRANCH  26  45
ENDBRANCH   1  25
TORSDOF 4
