REMARK  5 active torsions:
REMARK  status: ('A' for Active; 'I' for Inactive)
REMARK    1  A    between atoms: C11_1  and  C12_12 
REMARK    2  A    between atoms: C04_5  and  C02_3 
REMARK    3  A    between atoms: C08_9  and  O09_10 
REMARK    4  A    between atoms: O09_10  and  C10_11 
REMARK    5  A    between atoms: C12_12  and  C13_13 
ROOT
ATOM      1  C11 C8Q d   1      61.486  16.721  30.944  0.00  0.00    -0.035 A 
ATOM      2  C04 C8Q d   1      57.755  18.733  31.822  0.00  0.00     0.108 C 
ATOM      3  C05 C8Q d   1      57.057  17.824  32.803  0.00  0.00     0.007 C 
ATOM      4  S06 C8Q d   1      58.334  16.805  33.582  0.00  0.00    -0.134 SA
ATOM      5  C07 C8Q d   1      59.441  17.067  32.260  0.00  0.00     0.106 A 
ATOM      6  C08 C8Q d   1      60.657  16.435  32.077  0.00  0.00     0.082 A 
ATOM      7  C23 C8Q d   1      60.996  17.668  30.080  0.00  0.00     0.033 A 
ATOM      8  C24 C8Q d   1      59.729  18.373  30.226  0.00  0.00     0.226 A 
ATOM      9  O25 C8Q d   1      59.328  19.215  29.430  0.00  0.00    -0.273 OA
ATOM     10  N26 C8Q d   1      58.964  18.025  31.362  0.00  0.00    -0.317 N 
ATOM     11  H1  C8Q d   1      57.096  18.914  30.960  0.00  0.00     0.091 H 
ATOM     12  H2  C8Q d   1      56.333  17.185  32.276  0.00  0.00     0.052 H 
ATOM     13  H3  C8Q d   1      56.533  18.421  33.564  0.00  0.00     0.052 H 
ATOM     14  H4  C8Q d   1      58.966  16.256  31.689  0.00  0.00     0.101 H 
ATOM     15  H17 C8Q d   1      60.939  17.168  29.102  0.00  0.00     0.054 H 
ATOM     16  H18 C8Q d   1      61.764  18.455  30.045  0.00  0.00     0.054 H 
ENDROOT
BRANCH   1  17
ATOM     17  C12 C8Q d   1      62.835  16.032  30.734  0.00  0.00    -0.017 C 
ATOM     18  H8  C8Q d   1      63.353  16.001  31.704  0.00  0.00     0.047 H 
ATOM     19  H9  C8Q d   1      63.418  16.640  30.026  0.00  0.00     0.047 H 
BRANCH  17  20
ATOM     20  C13 C8Q d   1      62.776  14.647  30.204  0.00  0.00    -0.043 A 
ATOM     21  C14 C8Q d   1      62.880  13.592  31.108  0.00  0.00    -0.076 A 
ATOM     22  C15 C8Q d   1      62.846  12.257  30.676  0.00  0.00    -0.082 A 
ATOM     23  H10 C8Q d   1      62.989  13.806  32.165  0.00  0.00     0.084 H 
ATOM     24  C16 C8Q d   1      62.700  11.963  29.336  0.00  0.00    -0.072 A 
ATOM     25  H11 C8Q d   1      62.935  11.454  31.398  0.00  0.00     0.083 H 
ATOM     26  C17 C8Q d   1      62.599  13.015  28.389  0.00  0.00    -0.025 A 
ATOM     27  H12 C8Q d   1      62.663  10.931  29.007  0.00  0.00     0.084 H 
ATOM     28  C18 C8Q d   1      62.458  12.719  27.020  0.00  0.00    -0.072 A 
ATOM     29  C22 C8Q d   1      62.647  14.357  28.837  0.00  0.00    -0.019 A 
ATOM     30  C19 C8Q d   1      62.363  13.720  26.094  0.00  0.00    -0.082 A 
ATOM     31  H13 C8Q d   1      62.424  11.685  26.696  0.00  0.00     0.084 H 
ATOM     32  C20 C8Q d   1      62.403  15.043  26.509  0.00  0.00    -0.082 A 
ATOM     33  H14 C8Q d   1      62.257  13.481  25.042  0.00  0.00     0.083 H 
ATOM     34  C21 C8Q d   1      62.536  15.366  27.838  0.00  0.00    -0.072 A 
ATOM     35  H15 C8Q d   1      62.328  15.835  25.773  0.00  0.00     0.083 H 
ATOM     36  H16 C8Q d   1      62.557  16.409  28.132  0.00  0.00     0.084 H 
ENDBRANCH  17  20
ENDBRANCH   1  17
BRANCH   6  37
ATOM     37  O09 C8Q d   1      61.112  15.493  32.962  0.00  0.00    -0.357 OA
BRANCH  37  38
ATOM     38  C10 C8Q d   1      61.368  15.912  34.345  0.00  0.00     0.010 C 
ATOM     39  H5  C8Q d   1      61.726  15.051  34.929  0.00  0.00     0.066 H 
ATOM     40  H6  C8Q d   1      60.438  16.296  34.790  0.00  0.00     0.066 H 
ATOM     41  H7  C8Q d   1      62.132  16.703  34.353  0.00  0.00     0.066 H 
ENDBRANCH  37  38
ENDBRANCH   6  37
BRANCH   2  42
ATOM     42  C02 C8Q d   1      58.083  20.079  32.467  0.00  0.00     0.197 C 
ATOM     43  O01 C8Q d   1      59.215  20.111  32.985  0.00  0.00    -0.646 OA
ATOM     44  O03 C8Q d   1      57.262  21.009  32.467  0.00  0.00    -0.646 OA
ENDBRANCH   2  42
TORSDOF 5
