REMARK  6 active torsions:
REMARK  status: ('A' for Active; 'I' for Inactive)
REMARK    1  A    between atoms: C02_2  and  C04_4 
REMARK    2  A    between atoms: C08_8  and  N09_9 
REMARK    3  A    between atoms: N09_9  and  C10_10 
REMARK    4  A    between atoms: N09_9  and  C11_11 
REMARK    5  A    between atoms: C12_12  and  C13_13 
REMARK    6  A    between atoms: C13_13  and  C14_14 
ROOT
ATOM      1  C04 BYK d   1      51.016   3.474  46.112  0.00  0.00     0.113 C 
ATOM      2  C05 BYK d   1      51.073   3.730  47.612  0.00  0.00     0.011 C 
ATOM      3  S06 BYK d   1      51.097   2.095  48.402  0.00  0.00    -0.108 SA
ATOM      4  C07 BYK d   1      50.364   1.313  47.011  0.00  0.00     0.098 A 
ATOM      5  C08 BYK d   1      49.786   0.056  46.910  0.00  0.00     0.051 A 
ATOM      6  C12 BYK d   1      49.245  -0.367  45.640  0.00  0.00    -0.024 A 
ATOM      7  C24 BYK d   1      49.286   0.438  44.542  0.00  0.00    -0.009 A 
ATOM      8  C25 BYK d   1      49.890   1.758  44.641  0.00  0.00     0.249 A 
ATOM      9  O26 BYK d   1      49.950   2.520  43.676  0.00  0.00    -0.268 OA
ATOM     10  N27 BYK d   1      50.415   2.146  45.903  0.00  0.00    -0.291 N 
ATOM     11  H1  BYK d   1      50.379   4.237  45.641  0.00  0.00     0.091 H 
ATOM     12  H2  BYK d   1      50.188   4.298  47.936  0.00  0.00     0.053 H 
ATOM     13  H3  BYK d   1      51.983   4.291  47.869  0.00  0.00     0.053 H 
ATOM     14  H19 BYK d   1      48.869   0.096  43.596  0.00  0.00     0.092 H 
ENDROOT
BRANCH   6  15
ATOM     15  C13 BYK d   1      48.627  -1.752  45.588  0.00  0.00    -0.014 C 
ATOM     16  H10 BYK d   1      47.803  -1.793  46.316  0.00  0.00     0.047 H 
ATOM     17  H11 BYK d   1      49.397  -2.487  45.865  0.00  0.00     0.047 H 
BRANCH  15  18
ATOM     18  C14 BYK d   1      48.076  -2.125  44.215  0.00  0.00    -0.043 A 
ATOM     19  C15 BYK d   1      46.729  -2.111  43.992  0.00  0.00    -0.076 A 
ATOM     20  C16 BYK d   1      46.137  -2.444  42.749  0.00  0.00    -0.082 A 
ATOM     21  H12 BYK d   1      46.077  -1.830  44.811  0.00  0.00     0.084 H 
ATOM     22  C17 BYK d   1      46.939  -2.807  41.688  0.00  0.00    -0.072 A 
ATOM     23  H13 BYK d   1      45.060  -2.414  42.633  0.00  0.00     0.083 H 
ATOM     24  C18 BYK d   1      48.342  -2.841  41.855  0.00  0.00    -0.025 A 
ATOM     25  H14 BYK d   1      46.497  -3.064  40.733  0.00  0.00     0.084 H 
ATOM     26  C19 BYK d   1      49.193  -3.210  40.784  0.00  0.00    -0.072 A 
ATOM     27  C23 BYK d   1      48.902  -2.500  43.119  0.00  0.00    -0.019 A 
ATOM     28  C20 BYK d   1      50.560  -3.238  40.967  0.00  0.00    -0.082 A 
ATOM     29  H15 BYK d   1      48.770  -3.470  39.821  0.00  0.00     0.084 H 
ATOM     30  C21 BYK d   1      51.127  -2.901  42.216  0.00  0.00    -0.082 A 
ATOM     31  H16 BYK d   1      51.206  -3.522  40.144  0.00  0.00     0.083 H 
ATOM     32  C22 BYK d   1      50.315  -2.540  43.270  0.00  0.00    -0.072 A 
ATOM     33  H17 BYK d   1      52.203  -2.926  42.346  0.00  0.00     0.083 H 
ATOM     34  H18 BYK d   1      50.759  -2.284  44.225  0.00  0.00     0.084 H 
ENDBRANCH  15  18
ENDBRANCH   6  15
BRANCH   5  35
ATOM     35  N09 BYK d   1      49.745  -0.788  48.066  0.00  0.00    -0.289 NA
BRANCH  35  36
ATOM     36  C10 BYK d   1      51.011  -1.435  48.409  0.00  0.00    -0.029 C 
ATOM     37  H4  BYK d   1      50.874  -2.057  49.306  0.00  0.00     0.048 H 
ATOM     38  H5  BYK d   1      51.773  -0.667  48.608  0.00  0.00     0.048 H 
ATOM     39  H6  BYK d   1      51.339  -2.067  47.571  0.00  0.00     0.048 H 
ENDBRANCH  35  36
BRANCH  35  40
ATOM     40  C11 BYK d   1      49.103  -0.203  49.248  0.00  0.00    -0.029 C 
ATOM     41  H7  BYK d   1      48.156   0.274  48.953  0.00  0.00     0.048 H 
ATOM     42  H8  BYK d   1      49.770   0.550  49.692  0.00  0.00     0.048 H 
ATOM     43  H9  BYK d   1      48.901  -0.994  49.985  0.00  0.00     0.048 H 
ENDBRANCH  35  40
ENDBRANCH   5  35
BRANCH   1  44
ATOM     44  C02 BYK d   1      52.402   3.547  45.483  0.00  0.00     0.198 C 
ATOM     45  O01 BYK d   1      52.967   4.652  45.415  0.00  0.00    -0.646 OA
ATOM     46  O03 BYK d   1      52.865   2.463  45.078  0.00  0.00    -0.646 OA
ENDBRANCH   1  44
TORSDOF 6
