REMARK  9 active torsions:
REMARK  status: ('A' for Active; 'I' for Inactive)
REMARK    1  A    between atoms: CA_2  and  C_3 
REMARK       I    between atoms: C_3  and  N_8 
REMARK    2  A    between atoms: CA_9  and  C_10 
REMARK       I    between atoms: C_10  and  N_15 
REMARK    3  A    between atoms: CA_16  and  C_17 
REMARK       I    between atoms: C_17  and  N_22 
REMARK    4  A    between atoms: CA_23  and  C_24 
REMARK       I    between atoms: C_24  and  N_29 
REMARK    5  A    between atoms: CA_30  and  C_31 
REMARK       I    between atoms: C_31  and  N_36 
REMARK    6  A    between atoms: CA_37  and  C_38 
REMARK       I    between atoms: C_38  and  N_43 
REMARK    7  A    between atoms: CA_44  and  C_45 
REMARK       I    between atoms: C_45  and  N_50 
REMARK    8  A    between atoms: CA_51  and  C_52 
REMARK       I    between atoms: C_52  and  N_57 
REMARK    9  A    between atoms: CA_58  and  C_59 
ROOT
ATOM      1  C   PRO d   1      28.421 -27.295   9.121  0.00  0.00     0.243 C 
ATOM      2  O   PRO d   1      28.370 -27.916   8.046  0.00  0.00    -0.271 OA
ATOM      3  N   PRO d   1      27.691 -27.658  10.175  0.00  0.00    -0.337 N 
ATOM      4  CA  PRO d   1      26.659 -28.692  10.054  0.00  0.00     0.092 C 
ATOM      5  CB  PRO d   1      26.037 -28.724  11.461  0.00  0.00    -0.036 C 
ATOM      6  CG  PRO d   1      27.154 -28.268  12.370  0.00  0.00    -0.048 C 
ATOM      7  CD  PRO d   1      27.880 -27.218  11.573  0.00  0.00    -0.001 C 
ATOM      8  H31 PRO d   1      27.104 -29.665   9.800  0.00  0.00     0.087 H 
ATOM      9  H32 PRO d   1      25.713 -29.742  11.721  0.00  0.00     0.036 H 
ATOM     10  H33 PRO d   1      25.179 -28.039  11.524  0.00  0.00     0.036 H 
ATOM     11  H34 PRO d   1      27.825 -29.105  12.613  0.00  0.00     0.035 H 
ATOM     12  H35 PRO d   1      26.750 -27.841  13.300  0.00  0.00     0.035 H 
ATOM     13  H36 PRO d   1      27.438 -26.224  11.736  0.00  0.00     0.064 H 
ATOM     14  H37 PRO d   1      28.948 -27.192  11.837  0.00  0.00     0.064 H 
ENDROOT
BRANCH   4  15
ATOM     15  C   PRO d   1      25.633 -28.318   8.998  0.00  0.00     0.243 C 
ATOM     16  O   PRO d   1      25.547 -27.148   8.589  0.00  0.00    -0.271 OA
ATOM     17  N   PRO d   1      24.848 -29.278   8.517  0.00  0.00    -0.337 N 
ATOM     18  CA  PRO d   1      23.813 -28.972   7.510  0.00  0.00     0.092 C 
ATOM     19  CD  PRO d   1      24.980 -30.727   8.754  0.00  0.00    -0.001 C 
ATOM     20  CB  PRO d   1      23.339 -30.364   7.059  0.00  0.00    -0.036 C 
ATOM     21  H38 PRO d   1      24.244 -28.413   6.666  0.00  0.00     0.087 H 
ATOM     22  CG  PRO d   1      23.703 -31.276   8.186  0.00  0.00    -0.048 C 
ATOM     23  H39 PRO d   1      23.852 -30.667   6.134  0.00  0.00     0.036 H 
ATOM     24  H40 PRO d   1      22.252 -30.368   6.893  0.00  0.00     0.036 H 
ATOM     25  H41 PRO d   1      23.857 -32.301   7.816  0.00  0.00     0.035 H 
ATOM     26  H42 PRO d   1      22.912 -31.276   8.950  0.00  0.00     0.035 H 
ATOM     27  H43 PRO d   1      25.062 -30.947   9.829  0.00  0.00     0.064 H 
ATOM     28  H44 PRO d   1      25.855 -31.136   8.228  0.00  0.00     0.064 H 
BRANCH  18  29
ATOM     29  C   PRO d   1      22.671 -28.169   8.108  0.00  0.00     0.243 C 
ATOM     30  O   PRO d   1      22.554 -28.057   9.338  0.00  0.00    -0.271 OA
ATOM     31  N   PRO d   1      21.813 -27.579   7.272  0.00  0.00    -0.337 N 
ATOM     32  CA  PRO d   1      20.663 -26.857   7.805  0.00  0.00     0.092 C 
ATOM     33  CD  PRO d   1      21.949 -27.401   5.814  0.00  0.00    -0.001 C 
ATOM     34  CB  PRO d   1      19.893 -26.443   6.544  0.00  0.00    -0.036 C 
ATOM     35  H45 PRO d   1      20.982 -25.973   8.377  0.00  0.00     0.087 H 
ATOM     36  CG  PRO d   1      20.937 -26.321   5.504  0.00  0.00    -0.048 C 
ATOM     37  H46 PRO d   1      19.381 -25.481   6.698  0.00  0.00     0.036 H 
ATOM     38  H47 PRO d   1      19.155 -27.211   6.268  0.00  0.00     0.036 H 
ATOM     39  H48 PRO d   1      21.409 -25.328   5.549  0.00  0.00     0.035 H 
ATOM     40  H49 PRO d   1      20.504 -26.476   4.505  0.00  0.00     0.035 H 
ATOM     41  H50 PRO d   1      21.710 -28.332   5.279  0.00  0.00     0.064 H 
ATOM     42  H51 PRO d   1      22.966 -27.077   5.549  0.00  0.00     0.064 H 
BRANCH  32  43
ATOM     43  C   PRO d   1      19.829 -27.758   8.695  0.00  0.00     0.243 C 
ATOM     44  O   PRO d   1      19.725 -28.974   8.457  0.00  0.00    -0.271 OA
ATOM     45  N   PRO d   1      19.215 -27.200   9.736  0.00  0.00    -0.337 N 
ATOM     46  CA  PRO d   1      18.486 -28.021  10.704  0.00  0.00     0.092 C 
ATOM     47  CD  PRO d   1      19.197 -25.769  10.090  0.00  0.00    -0.001 C 
ATOM     48  CB  PRO d   1      18.229 -27.045  11.864  0.00  0.00    -0.036 C 
ATOM     49  H52 PRO d   1      19.099 -28.872  11.036  0.00  0.00     0.087 H 
ATOM     50  CG  PRO d   1      18.186 -25.701  11.210  0.00  0.00    -0.048 C 
ATOM     51  H53 PRO d   1      19.043 -27.094  12.602  0.00  0.00     0.036 H 
ATOM     52  H54 PRO d   1      17.272 -27.269  12.358  0.00  0.00     0.036 H 
ATOM     53  H55 PRO d   1      18.459 -24.914  11.928  0.00  0.00     0.035 H 
ATOM     54  H56 PRO d   1      17.181 -25.499  10.810  0.00  0.00     0.035 H 
ATOM     55  H57 PRO d   1      18.879 -25.155   9.234  0.00  0.00     0.064 H 
ATOM     56  H58 PRO d   1      20.188 -25.435  10.433  0.00  0.00     0.064 H 
BRANCH  46  57
ATOM     57  C   PRO d   1      17.185 -28.539  10.119  0.00  0.00     0.243 C 
ATOM     58  O   PRO d   1      16.748 -28.088   9.047  0.00  0.00    -0.271 OA
ATOM     59  N   PRO d   1      16.537 -29.513  10.787  0.00  0.00    -0.336 N 
ATOM     60  CA  PRO d   1      15.228 -29.982  10.317  0.00  0.00     0.098 C 
ATOM     61  CD  PRO d   1      17.057 -30.337  11.895  0.00  0.00    -0.001 C 
ATOM     62  CB  PRO d   1      14.827 -31.022  11.368  0.00  0.00    -0.035 C 
ATOM     63  H59 PRO d   1      15.323 -30.450   9.326  0.00  0.00     0.089 H 
ATOM     64  CG  PRO d   1      16.122 -31.524  11.910  0.00  0.00    -0.048 C 
ATOM     65  H60 PRO d   1      14.255 -31.841  10.906  0.00  0.00     0.036 H 
ATOM     66  H61 PRO d   1      14.226 -30.558  12.164  0.00  0.00     0.036 H 
ATOM     67  H62 PRO d   1      16.517 -32.331  11.276  0.00  0.00     0.035 H 
ATOM     68  H63 PRO d   1      15.990 -31.896  12.937  0.00  0.00     0.035 H 
ATOM     69  H64 PRO d   1      17.014 -29.789  12.848  0.00  0.00     0.064 H 
ATOM     70  H65 PRO d   1      18.092 -30.653  11.700  0.00  0.00     0.064 H 
BRANCH  60  71
ATOM     71  C   PRO d   1      14.193 -28.850  10.233  0.00  0.00     0.196 C 
ATOM     72  O   PRO d   1      14.259 -27.859  10.967  0.00  0.00    -0.646 OA
ATOM     73  OXT PRO d   1      13.276 -28.892   9.407  0.00  0.00    -0.646 OA
ENDBRANCH  60  71
ENDBRANCH  46  57
ENDBRANCH  32  43
ENDBRANCH  18  29
ENDBRANCH   4  15
BRANCH   1  74
ATOM     74  CA  PRO d   1      29.327 -26.087   9.278  0.00  0.00     0.092 C 
ATOM     75  N   PRO d   1      30.379 -26.070   8.251  0.00  0.00    -0.337 N 
ATOM     76  C   PRO d   1      31.273 -27.052   8.190  0.00  0.00     0.243 C 
ATOM     77  CD  PRO d   1      30.366 -24.828   7.456  0.00  0.00    -0.001 C 
ATOM     78  O   PRO d   1      31.300 -27.954   9.043  0.00  0.00    -0.271 OA
ATOM     79  CG  PRO d   1      28.965 -24.326   7.652  0.00  0.00    -0.048 C 
ATOM     80  H29 PRO d   1      30.569 -25.034   6.395  0.00  0.00     0.064 H 
ATOM     81  H30 PRO d   1      31.103 -24.106   7.837  0.00  0.00     0.064 H 
ATOM     82  CB  PRO d   1      28.555 -24.778   9.028  0.00  0.00    -0.036 C 
ATOM     83  H27 PRO d   1      28.939 -23.228   7.586  0.00  0.00     0.035 H 
ATOM     84  H28 PRO d   1      28.295 -24.755   6.893  0.00  0.00     0.035 H 
ATOM     85  H25 PRO d   1      28.828 -24.021   9.778  0.00  0.00     0.036 H 
ATOM     86  H26 PRO d   1      27.471 -24.958   9.066  0.00  0.00     0.036 H 
ATOM     87  H24 PRO d   1      29.767 -26.093  10.286  0.00  0.00     0.087 H 
BRANCH  76  88
ATOM     88  CA  PRO d   1      32.286 -27.029   7.058  0.00  0.00     0.092 C 
ATOM     89  N   PRO d   1      33.494 -27.792   7.423  0.00  0.00    -0.337 N 
ATOM     90  C   PRO d   1      34.242 -27.404   8.454  0.00  0.00     0.243 C 
ATOM     91  CD  PRO d   1      33.700 -28.961   6.546  0.00  0.00    -0.001 C 
ATOM     92  O   PRO d   1      33.946 -26.405   9.127  0.00  0.00    -0.271 OA
ATOM     93  CG  PRO d   1      32.358 -29.134   5.879  0.00  0.00    -0.048 C 
ATOM     94  H22 PRO d   1      33.966 -29.852   7.133  0.00  0.00     0.064 H 
ATOM     95  H23 PRO d   1      34.487 -28.763   5.803  0.00  0.00     0.064 H 
ATOM     96  CB  PRO d   1      31.756 -27.763   5.814  0.00  0.00    -0.036 C 
ATOM     97  H20 PRO d   1      32.483 -29.546   4.867  0.00  0.00     0.035 H 
ATOM     98  H21 PRO d   1      31.719 -29.805   6.472  0.00  0.00     0.035 H 
ATOM     99  H18 PRO d   1      32.074 -27.246   4.897  0.00  0.00     0.036 H 
ATOM    100  H19 PRO d   1      30.658 -27.823   5.840  0.00  0.00     0.036 H 
ATOM    101  H17 PRO d   1      32.539 -25.986   6.817  0.00  0.00     0.087 H 
BRANCH  90 102
ATOM    102  CA  PRO d   1      35.483 -28.209   8.797  0.00  0.00     0.092 C 
ATOM    103  N   PRO d   1      36.395 -27.414   9.630  0.00  0.00    -0.337 N 
ATOM    104  C   PRO d   1      37.251 -26.563   9.071  0.00  0.00     0.251 C 
ATOM    105  CD  PRO d   1      36.256 -27.727  11.066  0.00  0.00    -0.001 C 
ATOM    106  O   PRO d   1      37.409 -26.482   7.852  0.00  0.00    -0.271 OA
ATOM    107  CG  PRO d   1      35.244 -28.857  11.092  0.00  0.00    -0.048 C 
ATOM    108  H15 PRO d   1      35.884 -26.855  11.623  0.00  0.00     0.064 H 
ATOM    109  H16 PRO d   1      37.217 -28.052  11.492  0.00  0.00     0.064 H 
ATOM    110  CB  PRO d   1      35.147 -29.408   9.697  0.00  0.00    -0.036 C 
ATOM    111  H13 PRO d   1      35.577 -29.644  11.784  0.00  0.00     0.035 H 
ATOM    112  H14 PRO d   1      34.264 -28.476  11.415  0.00  0.00     0.035 H 
ATOM    113  H11 PRO d   1      35.870 -30.223   9.548  0.00  0.00     0.036 H 
ATOM    114  H12 PRO d   1      34.131 -29.777   9.493  0.00  0.00     0.036 H 
ATOM    115  H10 PRO d   1      35.975 -28.538   7.870  0.00  0.00     0.087 H 
BRANCH 104 116
ATOM    116  CA  PRO d   1      38.070 -25.671  10.011  0.00  0.00     0.178 C 
ATOM    117  N   PRO d   1      39.369 -25.274   9.445  0.00  0.00    -0.062 N 
ATOM    118  CD  PRO d   1      39.488 -23.814   9.293  0.00  0.00     0.083 C 
ATOM    119  H1  PRO d   1      39.473 -25.704   8.539  0.00  0.00     0.278 HD
ATOM    120  H2  PRO d   1      40.102 -25.597  10.057  0.00  0.00     0.278 HD
ATOM    121  CG  PRO d   1      38.451 -23.294  10.233  0.00  0.00    -0.040 C 
ATOM    122  H8  PRO d   1      39.275 -23.505   8.259  0.00  0.00     0.075 H 
ATOM    123  H9  PRO d   1      40.492 -23.467   9.580  0.00  0.00     0.075 H 
ATOM    124  CB  PRO d   1      37.357 -24.329  10.237  0.00  0.00    -0.028 C 
ATOM    125  H6  PRO d   1      38.872 -23.175  11.242  0.00  0.00     0.035 H 
ATOM    126  H7  PRO d   1      38.064 -22.326   9.881  0.00  0.00     0.035 H 
ATOM    127  H4  PRO d   1      36.831 -24.330  11.203  0.00  0.00     0.036 H 
ATOM    128  H5  PRO d   1      36.638 -24.133   9.428  0.00  0.00     0.036 H 
ATOM    129  H3  PRO d   1      38.216 -26.200  10.964  0.00  0.00     0.099 H 
ENDBRANCH 104 116
ENDBRANCH  90 102
ENDBRANCH  76  88
ENDBRANCH   1  74
TORSDOF 9
