REMARK  17 active torsions:
REMARK  status: ('A' for Active; 'I' for Inactive)
REMARK    1  A    between atoms: CA_2  and  C_3 
REMARK       I    between atoms: C_3  and  N_8 
REMARK    2  A    between atoms: CA_9  and  C_10 
REMARK       I    between atoms: C_10  and  N_15 
REMARK    3  A    between atoms: N_15  and  CA_16 
REMARK    4  A    between atoms: CA_16  and  C_17 
REMARK       I    between atoms: C_17  and  N_19 
REMARK    5  A    between atoms: CA_20  and  C_21 
REMARK       I    between atoms: C_21  and  N_26 
REMARK    6  A    between atoms: N_26  and  CA_27 
REMARK    7  A    between atoms: CA_27  and  C_28 
REMARK    8  A    between atoms: CA_27  and  CB_30 
REMARK       I    between atoms: C_28  and  N_37 
REMARK    9  A    between atoms: CB_30  and  CG_31 
REMARK   10  A    between atoms: CG_31  and  CD_32 
REMARK   11  A    between atoms: CD_32  and  NE_33 
REMARK       I    between atoms: NE_33  and  CZ_34 
REMARK       I    between atoms: CZ_34  and  NH1_35 
REMARK   12  A    between atoms: N_37  and  CA_38 
REMARK   13  A    between atoms: CA_38  and  C_39 
REMARK       I    between atoms: C_39  and  N_41 
REMARK   14  A    between atoms: CA_42  and  C_43 
REMARK       I    between atoms: C_43  and  N_48 
REMARK   15  A    between atoms: CA_49  and  C_50 
REMARK       I    between atoms: C_50  and  N_55 
REMARK   16  A    between atoms: N_55  and  CA_56 
REMARK   17  A    between atoms: CA_56  and  C_57 
ROOT
ATOM      1  CA  ARG d   1     -18.454  11.863 -11.203  0.00  0.00     0.089 C 
ATOM      2  H28 ARG d   1     -17.720  11.125 -11.558  0.00  0.00     0.087 H 
ENDROOT
BRANCH   1   3
ATOM      3  N   ARG d   1     -18.665  12.852 -12.238  0.00  0.00    -0.346 N 
ATOM      4  C   PRO d   1     -17.931  12.868 -13.347  0.00  0.00     0.241 C 
ATOM      5  O   PRO d   1     -16.982  12.105 -13.538  0.00  0.00    -0.271 OA
ATOM      6  H27 ARG d   1     -19.380  13.540 -12.117  0.00  0.00     0.163 HD
BRANCH   4   7
ATOM      7  CA  PRO d   1     -18.369  13.889 -14.375  0.00  0.00     0.091 C 
ATOM      8  N   PRO d   1     -17.320  14.125 -15.365  0.00  0.00    -0.337 N 
ATOM      9  C   GLY d   1     -16.255  14.847 -15.051  0.00  0.00     0.238 C 
ATOM     10  CD  PRO d   1     -17.574  13.386 -16.611  0.00  0.00    -0.001 C 
ATOM     11  O   GLY d   1     -16.153  15.424 -13.966  0.00  0.00    -0.272 OA
ATOM     12  CG  PRO d   1     -18.802  12.560 -16.293  0.00  0.00    -0.048 C 
ATOM     13  H25 PRO d   1     -16.721  12.739 -16.865  0.00  0.00     0.064 H 
ATOM     14  H26 PRO d   1     -17.771  14.077 -17.444  0.00  0.00     0.064 H 
ATOM     15  CB  PRO d   1     -19.526  13.350 -15.214  0.00  0.00    -0.036 C 
ATOM     16  H23 PRO d   1     -19.437  12.448 -17.184  0.00  0.00     0.035 H 
ATOM     17  H24 PRO d   1     -18.515  11.566 -15.920  0.00  0.00     0.035 H 
ATOM     18  H21 PRO d   1     -20.118  14.169 -15.649  0.00  0.00     0.036 H 
ATOM     19  H22 PRO d   1     -20.182  12.700 -14.617  0.00  0.00     0.036 H 
ATOM     20  H20 PRO d   1     -18.650  14.824 -13.868  0.00  0.00     0.087 H 
BRANCH   9  21
ATOM     21  CA  GLY d   1     -15.179  14.935 -16.109  0.00  0.00     0.069 C 
ATOM     22  H18 GLY d   1     -14.750  13.932 -16.252  0.00  0.00     0.078 H 
ATOM     23  H19 GLY d   1     -15.642  15.273 -17.048  0.00  0.00     0.078 H 
BRANCH  21  24
ATOM     24  N   GLY d   1     -14.110  15.843 -15.777  0.00  0.00    -0.351 N 
ATOM     25  C   PRO d   1     -13.068  15.983 -16.595  0.00  0.00     0.241 C 
ATOM     26  O   PRO d   1     -12.964  15.366 -17.659  0.00  0.00    -0.271 OA
ATOM     27  H17 GLY d   1     -14.151  16.370 -14.928  0.00  0.00     0.163 HD
BRANCH  25  28
ATOM     28  CA  PRO d   1     -11.981  16.950 -16.150  0.00  0.00     0.091 C 
ATOM     29  N   PRO d   1     -10.696  16.247 -16.030  0.00  0.00    -0.337 N 
ATOM     30  C   PRO d   1     -10.468  15.436 -14.993  0.00  0.00     0.251 C 
ATOM     31  CD  PRO d   1      -9.870  16.414 -17.237  0.00  0.00    -0.001 C 
ATOM     32  O   PRO d   1     -11.280  15.255 -14.080  0.00  0.00    -0.271 OA
ATOM     33  CG  PRO d   1     -10.336  17.723 -17.792  0.00  0.00    -0.048 C 
ATOM     34  H15 PRO d   1     -10.047  15.597 -17.952  0.00  0.00     0.064 H 
ATOM     35  H16 PRO d   1      -8.801  16.452 -16.981  0.00  0.00     0.064 H 
ATOM     36  CB  PRO d   1     -11.707  18.026 -17.212  0.00  0.00    -0.036 C 
ATOM     37  H13 PRO d   1      -9.630  18.518 -17.512  0.00  0.00     0.035 H 
ATOM     38  H14 PRO d   1     -10.402  17.660 -18.888  0.00  0.00     0.035 H 
ATOM     39  H11 PRO d   1     -11.712  19.025 -16.751  0.00  0.00     0.036 H 
ATOM     40  H12 PRO d   1     -12.471  17.983 -18.002  0.00  0.00     0.036 H 
ATOM     41  H10 PRO d   1     -12.270  17.411 -15.194  0.00  0.00     0.087 H 
BRANCH  30  42
ATOM     42  CA  PRO d   1      -9.132  14.696 -14.959  0.00  0.00     0.178 C 
ATOM     43  N   PRO d   1      -8.960  13.896 -13.741  0.00  0.00    -0.062 N 
ATOM     44  CD  PRO d   1      -8.570  12.506 -14.041  0.00  0.00     0.083 C 
ATOM     45  H1  PRO d   1      -9.830  13.887 -13.232  0.00  0.00     0.278 HD
ATOM     46  H2  PRO d   1      -8.243  14.319 -13.173  0.00  0.00     0.278 HD
ATOM     47  CG  PRO d   1      -8.263  12.537 -15.515  0.00  0.00    -0.040 C 
ATOM     48  H8  PRO d   1      -9.395  11.811 -13.826  0.00  0.00     0.075 H 
ATOM     49  H9  PRO d   1      -7.683  12.213 -13.461  0.00  0.00     0.075 H 
ATOM     50  CB  PRO d   1      -9.060  13.652 -16.081  0.00  0.00    -0.028 C 
ATOM     51  H6  PRO d   1      -7.190  12.715 -15.677  0.00  0.00     0.035 H 
ATOM     52  H7  PRO d   1      -8.552  11.585 -15.985  0.00  0.00     0.035 H 
ATOM     53  H4  PRO d   1      -8.563  14.071 -16.968  0.00  0.00     0.036 H 
ATOM     54  H5  PRO d   1     -10.068  13.307 -16.354  0.00  0.00     0.036 H 
ATOM     55  H3  PRO d   1      -8.316  15.428 -15.055  0.00  0.00     0.099 H 
ENDBRANCH  30  42
ENDBRANCH  25  28
ENDBRANCH  21  24
ENDBRANCH   9  21
ENDBRANCH   4   7
ENDBRANCH   1   3
BRANCH   1  56
ATOM     56  C   ARG d   1     -19.764  11.156 -10.920  0.00  0.00     0.240 C 
ATOM     57  O   ARG d   1     -20.779  11.808 -10.651  0.00  0.00    -0.271 OA
ATOM     58  N   GLY d   1     -19.723   9.826 -10.936  0.00  0.00    -0.351 N 
ATOM     59  H40 GLY d   1     -18.858   9.366 -11.138  0.00  0.00     0.163 HD
BRANCH  58  60
ATOM     60  CA  GLY d   1     -20.897   9.034 -10.669  0.00  0.00     0.069 C 
ATOM     61  H41 GLY d   1     -20.848   8.106 -11.258  0.00  0.00     0.078 H 
ATOM     62  H42 GLY d   1     -21.791   9.605 -10.958  0.00  0.00     0.078 H 
BRANCH  60  63
ATOM     63  C   GLY d   1     -20.984   8.685  -9.200  0.00  0.00     0.238 C 
ATOM     64  O   GLY d   1     -20.143   9.095  -8.392  0.00  0.00    -0.272 OA
ATOM     65  N   PRO d   1     -21.994   7.905  -8.836  0.00  0.00    -0.337 N 
ATOM     66  CA  PRO d   1     -22.124   7.433  -7.460  0.00  0.00     0.092 C 
ATOM     67  CD  PRO d   1     -23.182   7.583  -9.660  0.00  0.00    -0.001 C 
ATOM     68  CB  PRO d   1     -23.344   6.493  -7.525  0.00  0.00    -0.036 C 
ATOM     69  H43 PRO d   1     -22.313   8.271  -6.773  0.00  0.00     0.087 H 
ATOM     70  CG  PRO d   1     -24.149   7.030  -8.683  0.00  0.00    -0.048 C 
ATOM     71  H44 PRO d   1     -23.923   6.537  -6.591  0.00  0.00     0.036 H 
ATOM     72  H45 PRO d   1     -23.030   5.456  -7.713  0.00  0.00     0.036 H 
ATOM     73  H46 PRO d   1     -24.830   7.821  -8.336  0.00  0.00     0.035 H 
ATOM     74  H47 PRO d   1     -24.733   6.221  -9.146  0.00  0.00     0.035 H 
ATOM     75  H48 PRO d   1     -22.934   6.838 -10.431  0.00  0.00     0.064 H 
ATOM     76  H49 PRO d   1     -23.583   8.488 -10.140  0.00  0.00     0.064 H 
BRANCH  66  77
ATOM     77  C   PRO d   1     -20.872   6.697  -7.020  0.00  0.00     0.243 C 
ATOM     78  O   PRO d   1     -20.261   5.959  -7.806  0.00  0.00    -0.271 OA
ATOM     79  N   PRO d   1     -20.440   6.902  -5.772  0.00  0.00    -0.337 N 
ATOM     80  CA  PRO d   1     -19.252   6.194  -5.279  0.00  0.00     0.091 C 
ATOM     81  CD  PRO d   1     -20.897   7.943  -4.830  0.00  0.00    -0.001 C 
ATOM     82  CB  PRO d   1     -19.052   6.790  -3.878  0.00  0.00    -0.036 C 
ATOM     83  H50 PRO d   1     -18.387   6.416  -5.921  0.00  0.00     0.087 H 
ATOM     84  CG  PRO d   1     -19.696   8.142  -3.948  0.00  0.00    -0.048 C 
ATOM     85  H51 PRO d   1     -17.981   6.881  -3.644  0.00  0.00     0.036 H 
ATOM     86  H52 PRO d   1     -19.542   6.165  -3.116  0.00  0.00     0.036 H 
ATOM     87  H53 PRO d   1     -19.008   8.878  -4.389  0.00  0.00     0.035 H 
ATOM     88  H54 PRO d   1     -20.001   8.479  -2.946  0.00  0.00     0.035 H 
ATOM     89  H55 PRO d   1     -21.764   7.598  -4.247  0.00  0.00     0.064 H 
ATOM     90  H56 PRO d   1     -21.158   8.871  -5.360  0.00  0.00     0.064 H 
BRANCH  80  91
ATOM     91  C   PRO d   1     -19.428   4.692  -5.212  0.00  0.00     0.241 C 
ATOM     92  O   PRO d   1     -18.428   3.968  -5.195  0.00  0.00    -0.271 OA
ATOM     93  N   GLY d   1     -20.660   4.203  -5.154  0.00  0.00    -0.349 N 
ATOM     94  H57 GLY d   1     -21.432   4.838  -5.173  0.00  0.00     0.163 HD
BRANCH  93  95
ATOM     95  CA  GLY d   1     -20.927   2.781  -5.064  0.00  0.00     0.075 C 
ATOM     96  H58 GLY d   1     -20.593   2.399  -4.088  0.00  0.00     0.080 H 
ATOM     97  H59 GLY d   1     -20.396   2.249  -5.867  0.00  0.00     0.080 H 
BRANCH  95  98
ATOM     98  C   GLY d   1     -22.420   2.580  -5.212  0.00  0.00     0.191 C 
ATOM     99  O   GLY d   1     -22.982   1.507  -4.994  0.00  0.00    -0.647 OA
ATOM    100  OXT GLY d   1     -23.106   3.545  -5.540  0.00  0.00    -0.647 OA
ENDBRANCH  95  98
ENDBRANCH  93  95
ENDBRANCH  80  91
ENDBRANCH  66  77
ENDBRANCH  60  63
ENDBRANCH  58  60
ENDBRANCH   1  56
BRANCH   1 101
ATOM    101  CB  ARG d   1     -17.912  12.520  -9.939  0.00  0.00    -0.036 C 
ATOM    102  H29 ARG d   1     -17.845  11.761  -9.146  0.00  0.00     0.036 H 
ATOM    103  H30 ARG d   1     -18.606  13.315  -9.628  0.00  0.00     0.036 H 
BRANCH 101 104
ATOM    104  CG  ARG d   1     -16.531  13.130 -10.152  0.00  0.00    -0.048 C 
ATOM    105  H31 ARG d   1     -16.604  13.910 -10.924  0.00  0.00     0.035 H 
ATOM    106  H32 ARG d   1     -15.845  12.341 -10.492  0.00  0.00     0.035 H 
BRANCH 104 107
ATOM    107  CD  ARG d   1     -15.968  13.754  -8.875  0.00  0.00     0.009 C 
ATOM    108  H33 ARG d   1     -14.967  14.157  -9.086  0.00  0.00     0.064 H 
ATOM    109  H34 ARG d   1     -15.894  12.977  -8.100  0.00  0.00     0.064 H 
BRANCH 107 110
ATOM    110  NE  ARG d   1     -16.822  14.836  -8.383  0.00  0.00    -0.227 N 
ATOM    111  CZ  ARG d   1     -17.399  14.879  -7.182  0.00  0.00     0.665 C 
ATOM    112  NH1 ARG d   1     -17.218  13.906  -6.292  0.00  0.00    -0.235 N 
ATOM    113  NH2 ARG d   1     -18.158  15.920  -6.864  0.00  0.00    -0.235 N 
ATOM    114  H36 ARG d   1     -17.674  13.960  -5.370  0.00  0.00     0.174 HD
ATOM    115  H37 ARG d   1     -16.622  13.099  -6.525  0.00  0.00     0.174 HD
ATOM    116  H38 ARG d   1     -18.304  16.678  -7.546  0.00  0.00     0.174 HD
ATOM    117  H39 ARG d   1     -18.601  15.970  -5.935  0.00  0.00     0.174 HD
ATOM    118  H35 ARG d   1     -16.991  15.630  -9.017  0.00  0.00     0.177 HD
ENDBRANCH 107 110
ENDBRANCH 104 107
ENDBRANCH 101 104
ENDBRANCH   1 101
TORSDOF 17
