REMARK  15 active torsions:
REMARK  status: ('A' for Active; 'I' for Inactive)
REMARK    1  A    between atoms: CA_2  and  C_3 
REMARK       I    between atoms: C_3  and  N_8 
REMARK    2  A    between atoms: N_8  and  CA_9 
REMARK    3  A    between atoms: CA_9  and  C_10 
REMARK       I    between atoms: C_10  and  N_12 
REMARK    4  A    between atoms: CA_13  and  C_14 
REMARK       I    between atoms: C_14  and  N_19 
REMARK    5  A    between atoms: N_19  and  CA_20 
REMARK    6  A    between atoms: CA_20  and  C_21 
REMARK    7  A    between atoms: CA_20  and  CB_23 
REMARK       I    between atoms: C_21  and  N_28 
REMARK    8  A    between atoms: CB_23  and  CG_24 
REMARK    9  A    between atoms: CG_24  and  CD_25 
REMARK   10  A    between atoms: N_28  and  CA_29 
REMARK   11  A    between atoms: CA_29  and  C_30 
REMARK       I    between atoms: C_30  and  N_32 
REMARK   12  A    between atoms: CA_33  and  C_34 
REMARK       I    between atoms: C_34  and  N_39 
REMARK   13  A    between atoms: CA_40  and  C_41 
REMARK       I    between atoms: C_41  and  N_46 
REMARK   14  A    between atoms: N_46  and  CA_47 
REMARK   15  A    between atoms: CA_47  and  C_48 
ROOT
ATOM      1  CA  GLU d   1     -18.264  11.922 -11.472  0.00  0.00     0.090 C 
ATOM      2  H21 GLU d   1     -17.534  11.188 -11.842  0.00  0.00     0.087 H 
ENDROOT
BRANCH   1   3
ATOM      3  N   GLU d   1     -18.521  12.893 -12.527  0.00  0.00    -0.346 N 
ATOM      4  C   PRO d   1     -17.831  12.903 -13.673  0.00  0.00     0.241 C 
ATOM      5  O   PRO d   1     -16.934  12.094 -13.922  0.00  0.00    -0.271 OA
ATOM      6  H20 GLU d   1     -19.238  13.576 -12.390  0.00  0.00     0.163 HD
BRANCH   4   7
ATOM      7  CA  PRO d   1     -18.223  13.983 -14.664  0.00  0.00     0.091 C 
ATOM      8  N   PRO d   1     -17.095  14.375 -15.525  0.00  0.00    -0.337 N 
ATOM      9  C   GLY d   1     -16.042  15.002 -14.993  0.00  0.00     0.238 C 
ATOM     10  CD  PRO d   1     -17.290  13.919 -16.913  0.00  0.00    -0.001 C 
ATOM     11  O   GLY d   1     -15.923  15.199 -13.798  0.00  0.00    -0.272 OA
ATOM     12  CG  PRO d   1     -18.444  12.969 -16.785  0.00  0.00    -0.048 C 
ATOM     13  H18 PRO d   1     -16.394  13.406 -17.292  0.00  0.00     0.064 H 
ATOM     14  H19 PRO d   1     -17.540  14.760 -17.576  0.00  0.00     0.064 H 
ATOM     15  CB  PRO d   1     -19.264  13.462 -15.657  0.00  0.00    -0.036 C 
ATOM     16  H16 PRO d   1     -19.036  12.962 -17.712  0.00  0.00     0.035 H 
ATOM     17  H17 PRO d   1     -18.079  11.953 -16.575  0.00  0.00     0.035 H 
ATOM     18  H14 PRO d   1     -19.936  14.269 -15.982  0.00  0.00     0.036 H 
ATOM     19  H15 PRO d   1     -19.856  12.647 -15.215  0.00  0.00     0.036 H 
ATOM     20  H13 PRO d   1     -18.610  14.853 -14.114  0.00  0.00     0.087 H 
BRANCH   9  21
ATOM     21  CA  GLY d   1     -14.953  15.520 -15.911  0.00  0.00     0.069 C 
ATOM     22  H11 GLY d   1     -14.142  14.783 -16.011  0.00  0.00     0.078 H 
ATOM     23  H12 GLY d   1     -15.359  15.755 -16.906  0.00  0.00     0.078 H 
BRANCH  21  24
ATOM     24  N   GLY d   1     -14.477  16.727 -15.248  0.00  0.00    -0.351 N 
ATOM     25  C   PRO d   1     -13.357  17.376 -15.560  0.00  0.00     0.248 C 
ATOM     26  O   PRO d   1     -12.958  18.358 -14.928  0.00  0.00    -0.271 OA
ATOM     27  H10 GLY d   1     -15.033  17.096 -14.503  0.00  0.00     0.163 HD
BRANCH  25  28
ATOM     28  CA  PRO d   1     -12.537  16.873 -16.748  0.00  0.00     0.178 C 
ATOM     29  N   PRO d   1     -11.720  17.931 -17.353  0.00  0.00    -0.062 N 
ATOM     30  CD  PRO d   1     -10.365  17.461 -17.688  0.00  0.00     0.083 C 
ATOM     31  H1  PRO d   1     -11.647  18.697 -16.702  0.00  0.00     0.278 HD
ATOM     32  H2  PRO d   1     -12.172  18.248 -18.196  0.00  0.00     0.278 HD
ATOM     33  CG  PRO d   1     -10.398  15.994 -17.318  0.00  0.00    -0.040 C 
ATOM     34  H8  PRO d   1      -9.606  17.998 -17.100  0.00  0.00     0.075 H 
ATOM     35  H9  PRO d   1     -10.158  17.591 -18.760  0.00  0.00     0.075 H 
ATOM     36  CB  PRO d   1     -11.496  15.845 -16.307  0.00  0.00    -0.028 C 
ATOM     37  H6  PRO d   1     -10.611  15.381 -18.206  0.00  0.00     0.035 H 
ATOM     38  H7  PRO d   1      -9.435  15.688 -16.884  0.00  0.00     0.035 H 
ATOM     39  H4  PRO d   1     -11.915  14.828 -16.330  0.00  0.00     0.036 H 
ATOM     40  H5  PRO d   1     -11.129  16.068 -15.294  0.00  0.00     0.036 H 
ATOM     41  H3  PRO d   1     -13.220  16.440 -17.494  0.00  0.00     0.099 H 
ENDBRANCH  25  28
ENDBRANCH  21  24
ENDBRANCH   9  21
ENDBRANCH   4   7
ENDBRANCH   1   3
BRANCH   1  42
ATOM     42  C   GLU d   1     -19.558  11.200 -11.129  0.00  0.00     0.240 C 
ATOM     43  O   GLU d   1     -20.573  11.838 -10.830  0.00  0.00    -0.271 OA
ATOM     44  N   GLY d   1     -19.519   9.873 -11.169  0.00  0.00    -0.351 N 
ATOM     45  H26 GLY d   1     -18.669   9.419 -11.437  0.00  0.00     0.163 HD
BRANCH  44  46
ATOM     46  CA  GLY d   1     -20.672   9.066 -10.836  0.00  0.00     0.069 C 
ATOM     47  H27 GLY d   1     -20.636   8.142 -11.431  0.00  0.00     0.078 H 
ATOM     48  H28 GLY d   1     -21.580   9.631 -11.092  0.00  0.00     0.078 H 
BRANCH  46  49
ATOM     49  C   GLY d   1     -20.734   8.693  -9.371  0.00  0.00     0.238 C 
ATOM     50  O   GLY d   1     -19.875   9.078  -8.573  0.00  0.00    -0.272 OA
ATOM     51  N   PRO d   1     -21.764   7.938  -8.990  0.00  0.00    -0.337 N 
ATOM     52  CA  PRO d   1     -21.923   7.530  -7.593  0.00  0.00     0.092 C 
ATOM     53  CD  PRO d   1     -22.895   7.522  -9.838  0.00  0.00    -0.001 C 
ATOM     54  CB  PRO d   1     -23.185   6.649  -7.609  0.00  0.00    -0.036 C 
ATOM     55  H29 PRO d   1     -22.067   8.406  -6.943  0.00  0.00     0.087 H 
ATOM     56  CG  PRO d   1     -23.915   7.020  -8.869  0.00  0.00    -0.048 C 
ATOM     57  H30 PRO d   1     -23.810   6.855  -6.727  0.00  0.00     0.036 H 
ATOM     58  H31 PRO d   1     -22.911   5.584  -7.623  0.00  0.00     0.036 H 
ATOM     59  H32 PRO d   1     -24.654   7.807  -8.659  0.00  0.00     0.035 H 
ATOM     60  H33 PRO d   1     -24.426   6.138  -9.283  0.00  0.00     0.035 H 
ATOM     61  H34 PRO d   1     -22.590   6.724 -10.531  0.00  0.00     0.064 H 
ATOM     62  H35 PRO d   1     -23.288   8.375 -10.411  0.00  0.00     0.064 H 
BRANCH  52  63
ATOM     63  C   PRO d   1     -20.715   6.747  -7.123  0.00  0.00     0.243 C 
ATOM     64  O   PRO d   1     -20.139   5.956  -7.890  0.00  0.00    -0.271 OA
ATOM     65  N   PRO d   1     -20.286   6.957  -5.876  0.00  0.00    -0.337 N 
ATOM     66  CA  PRO d   1     -19.138   6.186  -5.375  0.00  0.00     0.091 C 
ATOM     67  CD  PRO d   1     -20.732   7.979  -4.909  0.00  0.00    -0.001 C 
ATOM     68  CB  PRO d   1     -19.000   6.686  -3.930  0.00  0.00    -0.036 C 
ATOM     69  H36 PRO d   1     -18.234   6.430  -5.952  0.00  0.00     0.087 H 
ATOM     70  CG  PRO d   1     -19.583   8.063  -3.949  0.00  0.00    -0.048 C 
ATOM     71  H37 PRO d   1     -17.942   6.716  -3.629  0.00  0.00     0.036 H 
ATOM     72  H38 PRO d   1     -19.559   6.037  -3.240  0.00  0.00     0.036 H 
ATOM     73  H39 PRO d   1     -18.839   8.794  -4.298  0.00  0.00     0.035 H 
ATOM     74  H40 PRO d   1     -19.935   8.348  -2.947  0.00  0.00     0.035 H 
ATOM     75  H41 PRO d   1     -21.652   7.663  -4.396  0.00  0.00     0.064 H 
ATOM     76  H42 PRO d   1     -20.903   8.945  -5.406  0.00  0.00     0.064 H 
BRANCH  66  77
ATOM     77  C   PRO d   1     -19.363   4.689  -5.451  0.00  0.00     0.241 C 
ATOM     78  O   PRO d   1     -18.497   3.953  -5.938  0.00  0.00    -0.271 OA
ATOM     79  N   GLY d   1     -20.518   4.219  -5.002  0.00  0.00    -0.349 N 
ATOM     80  H43 GLY d   1     -21.182   4.853  -4.605  0.00  0.00     0.163 HD
BRANCH  79  81
ATOM     81  CA  GLY d   1     -20.842   2.808  -5.073  0.00  0.00     0.075 C 
ATOM     82  H44 GLY d   1     -20.550   2.321  -4.130  0.00  0.00     0.080 H 
ATOM     83  H45 GLY d   1     -20.290   2.351  -5.908  0.00  0.00     0.080 H 
BRANCH  81  84
ATOM     84  C   GLY d   1     -22.329   2.617  -5.294  0.00  0.00     0.191 C 
ATOM     85  O   GLY d   1     -22.898   1.531  -5.115  0.00  0.00    -0.647 OA
ATOM     86  OXT GLY d   1     -23.007   3.582  -5.644  0.00  0.00    -0.647 OA
ENDBRANCH  81  84
ENDBRANCH  79  81
ENDBRANCH  66  77
ENDBRANCH  52  63
ENDBRANCH  46  49
ENDBRANCH  44  46
ENDBRANCH   1  42
BRANCH   1  87
ATOM     87  CB  GLU d   1     -17.686  12.590 -10.214  0.00  0.00    -0.029 C 
ATOM     88  H22 GLU d   1     -18.472  13.208  -9.755  0.00  0.00     0.037 H 
ATOM     89  H23 GLU d   1     -16.844  13.231 -10.515  0.00  0.00     0.037 H 
BRANCH  87  90
ATOM     90  CG  GLU d   1     -17.184  11.589  -9.169  0.00  0.00     0.018 C 
ATOM     91  H24 GLU d   1     -16.311  11.062  -9.582  0.00  0.00     0.049 H 
ATOM     92  H25 GLU d   1     -17.987  10.866  -8.965  0.00  0.00     0.049 H 
BRANCH  90  93
ATOM     93  CD  GLU d   1     -16.774  12.245  -7.847  0.00  0.00     0.172 C 
ATOM     94  OE1 GLU d   1     -16.512  13.467  -7.833  0.00  0.00    -0.648 OA
ATOM     95  OE2 GLU d   1     -16.727  11.538  -6.816  0.00  0.00    -0.648 OA
ENDBRANCH  90  93
ENDBRANCH  87  90
ENDBRANCH   1  87
TORSDOF 15
