REMARK  7 active torsions:
REMARK  status: ('A' for Active; 'I' for Inactive)
REMARK    1  A    between atoms: S_2  and  C_4 
REMARK    2  A    between atoms: C6_15  and  S_2 
REMARK    3  A    between atoms: N3_11  and  C1_6 
REMARK       I    between atoms: N4_13  and  C7_16 
REMARK    4  A    between atoms: C9_18  and  N4_13 
REMARK    5  A    between atoms: C7_16  and  C6_15 
REMARK    6  A    between atoms: C6_15  and  C8_17 
REMARK    7  A    between atoms: C9_18  and  C10_19 
ROOT
ATOM      1  C6  C05 d   1       2.848  -5.355  -7.976  0.00  0.00     0.072 C 
ATOM      2  H11 C05 d   1       1.977  -4.692  -8.087  0.00  0.00     0.071 H 
ENDROOT
BRANCH   1   3
ATOM      3  S   C05 d   1       4.187  -4.687  -9.004  0.00  0.00    -0.075 SA
BRANCH   3   4
ATOM      4  C   C05 d   1       3.284  -3.707 -10.128  0.00  0.00     0.199 A 
ATOM      5  N2  C05 d   1       2.216  -4.106 -10.731  0.00  0.00    -0.135 NA
ATOM      6  N1  C05 d   1       1.876  -3.005 -11.540  0.00  0.00     0.018 NA
ATOM      7  N   C05 d   1       2.768  -1.987 -11.369  0.00  0.00    -0.002 NA
ATOM      8  N3  C05 d   1       3.639  -2.458 -10.445  0.00  0.00    -0.249 N 
BRANCH   8   9
ATOM      9  C1  C05 d   1       4.779  -1.625  -9.925  0.00  0.00     0.033 C 
ATOM     10  C2  C05 d   1       4.553  -1.170  -8.453  0.00  0.00    -0.044 C 
ATOM     11  C3  C05 d   1       5.730  -1.691  -7.626  0.00  0.00    -0.063 C 
ATOM     12  H2  C05 d   1       3.611  -1.589  -8.071  0.00  0.00     0.036 H 
ATOM     13  H3  C05 d   1       4.514  -0.072  -8.401  0.00  0.00     0.036 H 
ATOM     14  C4  C05 d   1       6.817  -2.090  -8.606  0.00  0.00    -0.063 C 
ATOM     15  H4  C05 d   1       5.418  -2.563  -7.032  0.00  0.00     0.033 H 
ATOM     16  H5  C05 d   1       6.098  -0.902  -6.954  0.00  0.00     0.033 H 
ATOM     17  C5  C05 d   1       6.133  -2.344  -9.957  0.00  0.00    -0.044 C 
ATOM     18  H6  C05 d   1       7.321  -3.005  -8.260  0.00  0.00     0.033 H 
ATOM     19  H7  C05 d   1       7.554  -1.280  -8.703  0.00  0.00     0.033 H 
ATOM     20  H9  C05 d   1       6.752  -1.944 -10.774  0.00  0.00     0.036 H 
ATOM     21  H10 C05 d   1       5.983  -3.424 -10.106  0.00  0.00     0.036 H 
ATOM     22  H1  C05 d   1       4.847  -0.731 -10.563  0.00  0.00     0.075 H 
ENDBRANCH   8   9
ENDBRANCH   3   4
ENDBRANCH   1   3
BRANCH   1  23
ATOM     23  C7  C05 d   1       2.441  -6.740  -8.388  0.00  0.00     0.231 C 
ATOM     24  O   C05 d   1       3.184  -7.511  -8.969  0.00  0.00    -0.272 OA
ATOM     25  N4  C05 d   1       1.179  -7.067  -8.059  0.00  0.00    -0.354 N 
ATOM     26  H8  C05 d   1       0.552  -6.334  -7.794  0.00  0.00     0.162 HD
BRANCH  25  27
ATOM     27  C9  C05 d   1       0.681  -8.429  -8.069  0.00  0.00     0.039 C 
ATOM     28  H15 C05 d   1       0.368  -8.709  -7.052  0.00  0.00     0.074 H 
ATOM     29  H16 C05 d   1       1.481  -9.105  -8.405  0.00  0.00     0.074 H 
BRANCH  27  30
ATOM     30  C10 C05 d   1      -0.486  -8.547  -8.994  0.00  0.00     0.070 A 
ATOM     31  O1  C05 d   1      -0.307  -8.765 -10.367  0.00  0.00    -0.325 OA
ATOM     32  C13 C05 d   1      -1.665  -8.799 -10.768  0.00  0.00     0.019 A 
ATOM     33  C12 C05 d   1      -2.542  -8.619  -9.739  0.00  0.00    -0.059 A 
ATOM     34  H19 C05 d   1      -1.979  -8.954 -11.799  0.00  0.00     0.123 H 
ATOM     35  C11 C05 d   1      -1.779  -8.453  -8.599  0.00  0.00    -0.051 A 
ATOM     36  H18 C05 d   1      -3.629  -8.608  -9.803  0.00  0.00     0.086 H 
ATOM     37  H17 C05 d   1      -2.143  -8.281  -7.587  0.00  0.00     0.087 H 
ENDBRANCH  27  30
ENDBRANCH  25  27
ENDBRANCH   1  23
BRANCH   1  38
ATOM     38  C8  C05 d   1       3.246  -5.388  -6.518  0.00  0.00    -0.056 C 
ATOM     39  H12 C05 d   1       2.417  -5.796  -5.921  0.00  0.00     0.029 H 
ATOM     40  H13 C05 d   1       3.475  -4.368  -6.177  0.00  0.00     0.029 H 
ATOM     41  H14 C05 d   1       4.135  -6.024  -6.395  0.00  0.00     0.029 H 
ENDBRANCH   1  38
TORSDOF 7
