REMARK  3 active torsions:
REMARK  status: ('A' for Active; 'I' for Inactive)
REMARK    1  A    between atoms: C3_5  and  C4_6 
REMARK    2  A    between atoms: C5_7  and  C6_8 
REMARK    3  A    between atoms: C5_7  and  S9_11 
ROOT
ATOM      1  C10 S3C d   1     -28.713   7.242  58.852  0.00  0.00     0.067 A 
ATOM      2  C15 S3C d   1     -30.904   8.396  57.576  0.00  0.00    -0.059 A 
ATOM      3 CL1  S3C d   1     -30.959   6.506  55.680  0.00  0.00    -0.083 Cl
ATOM      4  C2  S3C d   1     -30.312   7.239  57.089  0.00  0.00     0.046 A 
ATOM      5  C3  S3C d   1     -29.213   6.646  57.704  0.00  0.00     0.011 A 
ATOM      6 CL2  S3C d   1     -27.410   6.515  59.642  0.00  0.00    -0.082 Cl
ATOM      7  C12 S3C d   1     -29.294   8.407  59.342  0.00  0.00     0.056 A 
ATOM      8 CL3  S3C d   1     -28.663   9.164  60.720  0.00  0.00    -0.083 Cl
ATOM      9  C14 S3C d   1     -30.384   8.987  58.713  0.00  0.00    -0.059 A 
ATOM     10  H1  S3C d   1     -31.761   8.830  57.073  0.00  0.00     0.086 H 
ATOM     11  H4  S3C d   1     -30.825   9.895  59.108  0.00  0.00     0.086 H 
ENDROOT
BRANCH   5  12
ATOM     12  C4  S3C d   1     -28.580   5.451  57.140  0.00  0.00    -0.047 C 
ATOM     13  C5  S3C d   1     -27.344   5.469  56.627  0.00  0.00     0.075 C 
ATOM     14  H2  S3C d   1     -29.135   4.514  57.138  0.00  0.00     0.087 H 
BRANCH  13  15
ATOM     15  C6  S3C d   1     -26.763   4.224  56.070  0.00  0.00     0.216 C 
ATOM     16  O7  S3C d   1     -27.526   3.102  56.071  0.00  0.00    -0.644 OA
ATOM     17  O8  S3C d   1     -25.649   4.117  55.597  0.00  0.00    -0.644 OA
ENDBRANCH  13  15
BRANCH  13  18
ATOM     18  S9  S3C d   1     -26.341   6.900  56.558  0.00  0.00    -0.136 SA
ATOM     19  H3  S3C d   1     -25.491   6.738  57.074  0.00  0.00     0.107 HD
ENDBRANCH  13  18
ENDBRANCH   5  12
TORSDOF 3
