REMARK  3 active torsions:
REMARK  status: ('A' for Active; 'I' for Inactive)
REMARK    1  A    between atoms: C8_5  and  N4_13 
REMARK    2  A    between atoms: N_10  and  C4_7 
REMARK    3  A    between atoms: C6_11  and  N_10 
ROOT
ATOM      1  N   C0H d   1      12.173   1.276 -15.326  0.00  0.00    -0.186 N 
ATOM      2  H6  C0H d   1      11.264   1.036 -15.747  0.00  0.00     0.184 HD
ENDROOT
BRANCH   1   3
ATOM      3  C4  C0H d   1      12.127   1.710 -13.979  0.00  0.00     0.071 C 
ATOM      4  C3  C0H d   1      11.102   2.549 -13.565  0.00  0.00     0.061 C 
ATOM      5  C2  C0H d   1      11.054   3.048 -12.274  0.00  0.00    -0.060 C 
ATOM      6 CL   C0H d   1       9.999   3.190 -14.732  0.00  0.00    -0.082 Cl
ATOM      7  C1  C0H d   1      12.006   2.637 -11.356  0.00  0.00    -0.081 C 
ATOM      8  H2  C0H d   1      10.281   3.751 -11.986  0.00  0.00     0.086 H 
ATOM      9  C   C0H d   1      12.916   1.661 -11.699  0.00  0.00    -0.081 C 
ATOM     10  H1  C0H d   1      12.035   3.083 -10.368  0.00  0.00     0.083 H 
ATOM     11  C5  C0H d   1      13.022   1.237 -13.016  0.00  0.00    -0.055 C 
ATOM     12  H5  C0H d   1      13.551   1.223 -10.938  0.00  0.00     0.083 H 
ATOM     13  H4  C0H d   1      13.801   0.537 -13.298  0.00  0.00     0.087 H 
ENDBRANCH   1   3
BRANCH   1  14
ATOM     14  C6  C0H d   1      13.254   1.132 -16.142  0.00  0.00     0.744 C 
ATOM     15  N3  C0H d   1      14.415   1.601 -15.650  0.00  0.00     0.130 NA
ATOM     16  C8  C0H d   1      15.487   1.290 -16.406  0.00  0.00     0.737 C 
ATOM     17  N2  C0H d   1      15.446   0.691 -17.624  0.00  0.00    -0.055 NA
ATOM     18  C7  C0H d   1      14.216   0.318 -17.979  0.00  0.00     0.124 C 
ATOM     19  N1  C0H d   1      13.061   0.589 -17.362  0.00  0.00    -0.055 NA
ATOM     20  H3  C0H d   1      14.143  -0.280 -18.881  0.00  0.00     0.148 H 
BRANCH  16  21
ATOM     21  N4  C0H d   1      16.682   1.682 -15.950  0.00  0.00    -0.230 N 
ATOM     22  H7  C0H d   1      16.757   2.140 -15.031  0.00  0.00     0.174 HD
ATOM     23  H8  C0H d   1      17.527   1.525 -16.518  0.00  0.00     0.174 HD
ENDBRANCH  16  21
ENDBRANCH   1  14
TORSDOF 3
