REMARK  5 active torsions:
REMARK  status: ('A' for Active; 'I' for Inactive)
REMARK    1  A    between atoms: C9_6  and  N3_23 
REMARK    2  A    between atoms: N3_23  and  C10_7 
REMARK    3  A    between atoms: C13_10  and  C16_13 
REMARK    4  A    between atoms: N_18  and  C5_16 
REMARK    5  A    between atoms: N_18  and  C6_19 
ROOT
ATOM      1  C7  C1W d   1      13.253   0.714  -2.757  0.00  0.00     0.098 A 
ATOM      2  C8  C1W d   1      14.524   0.726  -3.307  0.00  0.00     0.046 A 
ATOM      3  C9  C1W d   1      15.281   1.990  -1.576  0.00  0.00     0.728 A 
ATOM      4  C6  C1W d   1      13.067   1.387  -1.542  0.00  0.00     0.170 A 
ATOM      5  N2  C1W d   1      14.092   2.024  -0.954  0.00  0.00    -0.043 NA
ATOM      6  N1  C1W d   1      15.550   1.387  -2.746  0.00  0.00    -0.073 NA
ATOM      7 CL1  C1W d   1      11.982  -0.176  -3.539  0.00  0.00    -0.079 Cl
ATOM      8  H3  C1W d   1      14.698   0.180  -4.227  0.00  0.00     0.118 H 
ENDROOT
BRANCH   3   9
ATOM      9  N3  C1W d   1      16.319   2.650  -0.978  0.00  0.00    -0.188 N 
ATOM     10  H10 C1W d   1      17.209   2.626  -1.497  0.00  0.00     0.184 HD
BRANCH   9  11
ATOM     11  C10 C1W d   1      16.357   3.361   0.244  0.00  0.00     0.051 A 
ATOM     12  C11 C1W d   1      16.990   4.595   0.348  0.00  0.00    -0.056 A 
ATOM     13  C12 C1W d   1      17.025   5.259   1.564  0.00  0.00    -0.063 A 
ATOM     14  H4  C1W d   1      17.457   5.038  -0.524  0.00  0.00     0.087 H 
ATOM     15  C13 C1W d   1      16.423   4.716   2.702  0.00  0.00     0.062 A 
ATOM     16  H5  C1W d   1      17.528   6.217   1.633  0.00  0.00     0.085 H 
ATOM     17  C14 C1W d   1      15.799   3.472   2.576  0.00  0.00     0.053 A 
ATOM     18  C15 C1W d   1      15.781   2.789   1.373  0.00  0.00    -0.035 A 
ATOM     19 CL   C1W d   1      15.059   2.696   3.937  0.00  0.00    -0.083 Cl
ATOM     20  H6  C1W d   1      15.319   1.810   1.311  0.00  0.00     0.089 H 
BRANCH  15  21
ATOM     21  C16 C1W d   1      16.522   5.485   3.988  0.00  0.00     0.211 C 
ATOM     22  O1  C1W d   1      15.463   5.436   4.754  0.00  0.00    -0.644 OA
ATOM     23  O   C1W d   1      17.540   6.111   4.291  0.00  0.00    -0.644 OA
ENDBRANCH  15  21
ENDBRANCH   9  11
ENDBRANCH   3   9
BRANCH   4  24
ATOM     24  N   C1W d   1      11.856   1.380  -0.909  0.00  0.00    -0.339 N 
ATOM     25  H9  C1W d   1      11.096   0.913  -1.423  0.00  0.00     0.167 HD
BRANCH  24  26
ATOM     26  C5  C1W d   1      11.492   1.917   0.343  0.00  0.00     0.033 A 
ATOM     27  C4  C1W d   1      12.271   1.657   1.466  0.00  0.00    -0.054 A 
ATOM     28  C3  C1W d   1      11.903   2.146   2.707  0.00  0.00    -0.044 A 
ATOM     29  H7  C1W d   1      13.174   1.066   1.368  0.00  0.00     0.087 H 
ATOM     30  C2  C1W d   1      10.783   2.930   2.792  0.00  0.00     0.116 A 
ATOM     31  H2  C1W d   1      12.487   1.914   3.591  0.00  0.00     0.088 H 
ATOM     32  C1  C1W d   1       9.995   3.227   1.704  0.00  0.00    -0.044 A 
ATOM     33  F   C1W d   1      10.414   3.398   4.020  0.00  0.00    -0.206 F 
ATOM     34  C   C1W d   1      10.368   2.726   0.465  0.00  0.00    -0.054 A 
ATOM     35  H1  C1W d   1       9.105   3.837   1.812  0.00  0.00     0.088 H 
ATOM     36  H8  C1W d   1       9.780   2.967  -0.413  0.00  0.00     0.087 H 
ENDBRANCH  24  26
ENDBRANCH   4  24
TORSDOF 5
