REMARK  3 active torsions:
REMARK  status: ('A' for Active; 'I' for Inactive)
REMARK    1  A    between atoms: C1_10  and  C_8 
REMARK    2  A    between atoms: C1_10  and  S_14 
REMARK    3  A    between atoms: C2_11  and  C3_12 
ROOT
ATOM      1  C4  C0W d   1      59.986  10.003  25.942  0.00  0.00    -0.034 A 
ATOM      2  C5  C0W d   1      58.514  10.293  27.915  0.00  0.00     0.015 A 
ATOM      3  C6  C0W d   1      57.533  10.514  28.876  0.00  0.00    -0.066 A 
ATOM      4  C7  C0W d   1      57.731  10.049  30.163  0.00  0.00    -0.082 A 
ATOM      5  C8  C0W d   1      58.895   9.385  30.493  0.00  0.00    -0.082 A 
ATOM      6  C9  C0W d   1      59.887   9.187  29.542  0.00  0.00    -0.071 A 
ATOM      7  C10 C0W d   1      59.722   9.636  28.233  0.00  0.00    -0.008 A 
ATOM      8  C3  C0W d   1      60.572   9.483  27.066  0.00  0.00    -0.017 A 
ATOM      9  S1  C0W d   1      58.427  10.683  26.225  0.00  0.00    -0.100 SA
ATOM     10  H1  C0W d   1      60.460   9.988  24.962  0.00  0.00     0.096 H 
ATOM     11  H2  C0W d   1      56.623  11.045  28.619  0.00  0.00     0.085 H 
ATOM     12  H3  C0W d   1      56.968  10.207  30.917  0.00  0.00     0.083 H 
ATOM     13  H4  C0W d   1      59.036   9.015  31.502  0.00  0.00     0.083 H 
ATOM     14  H5  C0W d   1      60.802   8.677  29.821  0.00  0.00     0.084 H 
ENDROOT
BRANCH   8  15
ATOM     15  C2  C0W d   1      61.860   8.796  27.102  0.00  0.00    -0.049 C 
ATOM     16  C1  C0W d   1      62.409   7.875  26.258  0.00  0.00     0.075 C 
ATOM     17  H6  C0W d   1      62.491   9.065  27.948  0.00  0.00     0.087 H 
BRANCH  16  18
ATOM     18  C   C0W d   1      63.730   7.261  26.483  0.00  0.00     0.216 C 
ATOM     19  O   C0W d   1      64.474   7.797  27.452  0.00  0.00    -0.644 OA
ATOM     20  O1  C0W d   1      64.071   6.298  25.848  0.00  0.00    -0.644 OA
ENDBRANCH  16  18
BRANCH  16  21
ATOM     21  S   C0W d   1      61.490   7.298  24.859  0.00  0.00    -0.136 SA
ATOM     22  H7  C0W d   1      62.043   6.627  24.349  0.00  0.00     0.107 HD
ENDBRANCH  16  21
ENDBRANCH   8  15
TORSDOF 3
