REMARK WARNING: 32 MAX_TORS EXCEEDED!!!
REMARK  44 active torsions:
REMARK  status: ('A' for Active; 'I' for Inactive)
REMARK    1  A    between atoms: N_1  and  CA_2 
REMARK    2  A    between atoms: CA_2  and  C_3 
REMARK    3  A    between atoms: CA_2  and  CB_5 
REMARK       I    between atoms: C_3  and  N_12 
REMARK    4  A    between atoms: CB_5  and  CG_6 
REMARK    5  A    between atoms: CG_6  and  CD_7 
REMARK    6  A    between atoms: CD_7  and  NE_8 
REMARK       I    between atoms: NE_8  and  CZ_9 
REMARK       I    between atoms: CZ_9  and  NH1_10 
REMARK       I    between atoms: CZ_9  and  NH2_11 
REMARK    7  A    between atoms: N_12  and  CA_13 
REMARK    8  A    between atoms: CA_13  and  C_14 
REMARK    9  A    between atoms: CA_13  and  CB_16 
REMARK       I    between atoms: C_14  and  N_21 
REMARK   10  A    between atoms: CB_16  and  CG_17 
REMARK   11  A    between atoms: CG_17  and  CD_18 
REMARK   12  A    between atoms: CD_18  and  CE_19 
REMARK   13  A    between atoms: CE_19  and  NZ_20 
REMARK   14  A    between atoms: N_21  and  CA_22 
REMARK   15  A    between atoms: CA_22  and  C_23 
REMARK   16  A    between atoms: CA_22  and  CB_25 
REMARK       I    between atoms: C_23  and  N_29 
REMARK   17  A    between atoms: CB_25  and  CG_26 
REMARK   18  A    between atoms: CG_26  and  CD1_27 
REMARK   19  A    between atoms: CG_26  and  CD2_28 
REMARK   20  A    between atoms: N_29  and  CA_30 
REMARK   21  A    between atoms: CA_30  and  CB_31 
REMARK   22  A    between atoms: CA_30  and  C_33 
REMARK   23  A    between atoms: CB_31  and  OG_32 
REMARK   24  A    between atoms: OG_32  and  P_35 
REMARK       I    between atoms: C_33  and  N_39 
REMARK   25  A    between atoms: N_39  and  CA_40 
REMARK   26  A    between atoms: CA_40  and  C_41 
REMARK   27  A    between atoms: CA_40  and  CB_43 
REMARK       I    between atoms: C_41  and  N_47 
REMARK   28  A    between atoms: CB_43  and  CG_44 
REMARK   29  A    between atoms: CG_44  and  CD1_45 
REMARK   30  A    between atoms: CG_44  and  CD2_46 
REMARK   31  A    between atoms: N_47  and  CA_48 
REMARK   32  A    between atoms: CA_48  and  C_49 
REMARK   33  A    between atoms: CA_48  and  CB_51 
REMARK       I    between atoms: C_49  and  N_52 
REMARK   34  A    between atoms: N_52  and  CA_53 
REMARK   35  A    between atoms: CA_53  and  C_54 
REMARK   36  A    between atoms: CA_53  and  CB_56 
REMARK       I    between atoms: C_54  and  N_61 
REMARK   37  A    between atoms: CB_56  and  CG_57 
REMARK   38  A    between atoms: CG_57  and  CD_58 
REMARK   39  A    between atoms: N_61  and  CA_62 
REMARK   40  A    between atoms: CA_62  and  C_63 
REMARK   41  A    between atoms: CA_62  and  CB_65 
REMARK   42  A    between atoms: CB_65  and  CG_66 
REMARK   43  A    between atoms: CG_66  and  CD_67 
REMARK   44  A    between atoms: CD_67  and  NE_68 
REMARK       I    between atoms: NE_68  and  CZ_69 
REMARK       I    between atoms: CZ_69  and  NH1_70 
ROOT
ATOM      1  CA  SEP d   1      31.706  19.937  26.045  0.00  0.00     0.110 C 
ATOM      2  H41 SEP d   1      32.462  20.649  26.407  0.00  0.00     0.090 H 
ENDROOT
BRANCH   1   3
ATOM      3  N   SEP d   1      32.025  18.619  26.584  0.00  0.00    -0.344 N 
ATOM      4  C   LEU d   1      32.492  18.427  27.812  0.00  0.00     0.241 C 
ATOM      5  O   LEU d   1      32.522  19.314  28.655  0.00  0.00    -0.271 OA
ATOM      6  H40 SEP d   1      31.885  17.820  25.999  0.00  0.00     0.163 HD
BRANCH   4   7
ATOM      7  CA  LEU d   1      32.957  17.006  28.147  0.00  0.00     0.089 C 
ATOM      8  H30 LEU d   1      33.083  16.928  29.237  0.00  0.00     0.087 H 
BRANCH   7   9
ATOM      9  N   LEU d   1      31.943  16.030  27.731  0.00  0.00    -0.346 N 
ATOM     10  C   LYS d   1      30.726  16.061  28.267  0.00  0.00     0.241 C 
ATOM     11  O   LYS d   1      30.426  16.807  29.209  0.00  0.00    -0.271 OA
ATOM     12  H29 LEU d   1      32.167  15.340  27.043  0.00  0.00     0.163 HD
BRANCH  10  13
ATOM     13  CA  LYS d   1      29.689  15.110  27.665  0.00  0.00     0.089 C 
ATOM     14  H17 LYS d   1      30.191  14.463  26.930  0.00  0.00     0.087 H 
BRANCH  13  15
ATOM     15  N   LYS d   1      29.115  14.276  28.718  0.00  0.00    -0.346 N 
ATOM     16  C   ARG d   1      29.490  13.019  28.944  0.00  0.00     0.248 C 
ATOM     17  O   ARG d   1      30.421  12.472  28.333  0.00  0.00    -0.271 OA
ATOM     18  H16 LYS d   1      28.403  14.670  29.299  0.00  0.00     0.163 HD
BRANCH  16  19
ATOM     19  CA  ARG d   1      28.681  12.273  30.026  0.00  0.00     0.176 C 
ATOM     20  H4  ARG d   1      27.657  12.139  29.648  0.00  0.00     0.099 H 
BRANCH  19  21
ATOM     21  N   ARG d   1      29.228  10.947  30.314  0.00  0.00    -0.067 N 
ATOM     22  H1  ARG d   1      28.669  10.500  31.024  0.00  0.00     0.275 HD
ATOM     23  H2  ARG d   1      30.177  11.039  30.642  0.00  0.00     0.275 HD
ATOM     24  H3  ARG d   1      29.215  10.389  29.475  0.00  0.00     0.275 HD
ENDBRANCH  19  21
BRANCH  19  25
ATOM     25  CB  ARG d   1      28.613  13.111  31.309  0.00  0.00    -0.029 C 
ATOM     26  H5  ARG d   1      27.926  12.614  32.010  0.00  0.00     0.036 H 
ATOM     27  H6  ARG d   1      28.219  14.105  31.052  0.00  0.00     0.036 H 
BRANCH  25  28
ATOM     28  CG  ARG d   1      29.963  13.295  32.007  0.00  0.00    -0.047 C 
ATOM     29  H7  ARG d   1      30.693  13.671  31.275  0.00  0.00     0.035 H 
ATOM     30  H8  ARG d   1      30.299  12.321  32.393  0.00  0.00     0.035 H 
BRANCH  28  31
ATOM     31  CD  ARG d   1      29.879  14.280  33.166  0.00  0.00     0.009 C 
ATOM     32  H9  ARG d   1      29.380  13.791  34.015  0.00  0.00     0.064 H 
ATOM     33  H10 ARG d   1      29.292  15.155  32.850  0.00  0.00     0.064 H 
BRANCH  31  34
ATOM     34  NE  ARG d   1      31.204  14.726  33.588  0.00  0.00    -0.227 N 
ATOM     35  CZ  ARG d   1      31.951  15.617  32.930  0.00  0.00     0.665 C 
ATOM     36  NH1 ARG d   1      31.512  16.170  31.804  0.00  0.00    -0.235 N 
ATOM     37  NH2 ARG d   1      33.147  15.953  33.400  0.00  0.00    -0.235 N 
ATOM     38  H12 ARG d   1      32.096  16.856  31.305  0.00  0.00     0.174 HD
ATOM     39  H13 ARG d   1      30.587  15.913  31.430  0.00  0.00     0.174 HD
ATOM     40  H14 ARG d   1      33.495  15.530  34.272  0.00  0.00     0.174 HD
ATOM     41  H15 ARG d   1      33.726  16.637  32.893  0.00  0.00     0.174 HD
ATOM     42  H11 ARG d   1      31.590  14.325  34.455  0.00  0.00     0.177 HD
ENDBRANCH  31  34
ENDBRANCH  28  31
ENDBRANCH  25  28
ENDBRANCH  19  25
ENDBRANCH  16  19
ENDBRANCH  13  15
BRANCH  13  43
ATOM     43  CB  LYS d   1      28.567  15.885  26.952  0.00  0.00    -0.038 C 
ATOM     44  H18 LYS d   1      28.174  16.633  27.657  0.00  0.00     0.036 H 
ATOM     45  H19 LYS d   1      27.773  15.168  26.697  0.00  0.00     0.036 H 
BRANCH  43  46
ATOM     46  CG  LYS d   1      28.961  16.608  25.684  0.00  0.00    -0.061 C 
ATOM     47  H20 LYS d   1      29.112  15.868  24.884  0.00  0.00     0.033 H 
ATOM     48  H21 LYS d   1      29.900  17.154  25.861  0.00  0.00     0.033 H 
BRANCH  46  49
ATOM     49  CD  LYS d   1      27.890  17.598  25.245  0.00  0.00    -0.043 C 
ATOM     50  H22 LYS d   1      28.338  18.330  24.557  0.00  0.00     0.035 H 
ATOM     51  H23 LYS d   1      27.498  18.119  26.131  0.00  0.00     0.035 H 
BRANCH  49  52
ATOM     52  CE  LYS d   1      26.736  16.883  24.533  0.00  0.00     0.080 C 
ATOM     53  H24 LYS d   1      25.838  17.512  24.618  0.00  0.00     0.075 H 
ATOM     54  H25 LYS d   1      26.561  15.923  25.041  0.00  0.00     0.075 H 
BRANCH  52  55
ATOM     55  NZ  LYS d   1      26.978  16.606  23.080  0.00  0.00    -0.079 N 
ATOM     56  H26 LYS d   1      26.176  16.137  22.689  0.00  0.00     0.274 HD
ATOM     57  H27 LYS d   1      27.792  16.019  22.981  0.00  0.00     0.274 HD
ATOM     58  H28 LYS d   1      27.129  17.475  22.593  0.00  0.00     0.274 HD
ENDBRANCH  52  55
ENDBRANCH  49  52
ENDBRANCH  46  49
ENDBRANCH  43  46
ENDBRANCH  13  43
ENDBRANCH  10  13
ENDBRANCH   7   9
BRANCH   7  59
ATOM     59  CB  LEU d   1      34.314  16.723  27.484  0.00  0.00    -0.035 C 
ATOM     60  H31 LEU d   1      34.970  17.572  27.727  0.00  0.00     0.037 H 
ATOM     61  H32 LEU d   1      34.138  16.695  26.399  0.00  0.00     0.037 H 
BRANCH  59  62
ATOM     62  CG  LEU d   1      35.094  15.438  27.844  0.00  0.00    -0.059 C 
ATOM     63  H33 LEU d   1      34.864  14.700  27.062  0.00  0.00     0.038 H 
BRANCH  62  64
ATOM     64  CD1 LEU d   1      36.603  15.703  27.801  0.00  0.00    -0.073 C 
ATOM     65  H34 LEU d   1      37.145  14.781  28.059  0.00  0.00     0.028 H 
ATOM     66  H35 LEU d   1      36.858  16.492  28.524  0.00  0.00     0.028 H 
ATOM     67  H36 LEU d   1      36.890  16.026  26.789  0.00  0.00     0.028 H 
ENDBRANCH  62  64
BRANCH  62  68
ATOM     68  CD2 LEU d   1      34.696  14.789  29.201  0.00  0.00    -0.073 C 
ATOM     69  H37 LEU d   1      33.611  14.606  29.216  0.00  0.00     0.028 H 
ATOM     70  H38 LEU d   1      34.964  15.467  30.024  0.00  0.00     0.028 H 
ATOM     71  H39 LEU d   1      35.231  13.835  29.322  0.00  0.00     0.028 H 
ENDBRANCH  62  68
ENDBRANCH  59  62
ENDBRANCH   7  59
ENDBRANCH   4   7
ENDBRANCH   1   3
BRANCH   1  72
ATOM     72  CB  SEP d   1      31.773  19.890  24.512  0.00  0.00     0.059 C 
ATOM     73  H42 SEP d   1      32.762  19.518  24.206  0.00  0.00     0.079 H 
ATOM     74  H43 SEP d   1      31.623  20.904  24.113  0.00  0.00     0.079 H 
BRANCH  72  75
ATOM     75  OG  SEP d   1      30.768  19.030  23.988  0.00  0.00    -0.280 OA
BRANCH  75  76
ATOM     76  P   SEP d   1      30.992  18.837  22.412  0.00  0.00     0.422 P 
ATOM     77  O1P SEP d   1      30.916  20.274  21.692  0.00  0.00    -0.617 OA
ATOM     78  O2P SEP d   1      32.432  18.204  22.053  0.00  0.00    -0.617 OA
ATOM     79  O3P SEP d   1      29.858  17.848  21.860  0.00  0.00    -0.617 OA
ENDBRANCH  75  76
ENDBRANCH  72  75
ENDBRANCH   1  72
BRANCH   1  80
ATOM     80  C   SEP d   1      30.335  20.429  26.503  0.00  0.00     0.243 C 
ATOM     81  O   SEP d   1      29.565  19.678  27.092  0.00  0.00    -0.271 OA
ATOM     82  N   LEU d   1      30.039  21.692  26.222  0.00  0.00    -0.346 N 
ATOM     83  H44 LEU d   1      30.692  22.222  25.680  0.00  0.00     0.163 HD
BRANCH  82  84
ATOM     84  CA  LEU d   1      28.812  22.349  26.661  0.00  0.00     0.089 C 
ATOM     85  H45 LEU d   1      28.792  22.334  27.761  0.00  0.00     0.087 H 
BRANCH  84  86
ATOM     86  C   LEU d   1      27.558  21.658  26.158  0.00  0.00     0.241 C 
ATOM     87  O   LEU d   1      27.573  21.057  25.091  0.00  0.00    -0.271 OA
ATOM     88  N   GLN d   1      26.478  21.727  26.936  0.00  0.00    -0.346 N 
ATOM     89  H55 GLN d   1      26.558  22.141  27.843  0.00  0.00     0.163 HD
BRANCH  88  90
ATOM     90  CA  GLN d   1      25.178  21.214  26.502  0.00  0.00     0.086 C 
ATOM     91  H56 GLN d   1      25.340  20.330  25.868  0.00  0.00     0.086 H 
BRANCH  90  92
ATOM     92  C   GLN d   1      24.467  22.287  25.682  0.00  0.00     0.240 C 
ATOM     93  O   GLN d   1      24.132  23.359  26.201  0.00  0.00    -0.271 OA
ATOM     94  N   GLU d   1      24.252  22.001  24.393  0.00  0.00    -0.346 N 
ATOM     95  H60 GLU d   1      24.620  21.148  24.023  0.00  0.00     0.163 HD
BRANCH  94  96
ATOM     96  CA  GLU d   1      23.502  22.883  23.506  0.00  0.00     0.090 C 
ATOM     97  H61 GLU d   1      22.905  23.562  24.133  0.00  0.00     0.087 H 
BRANCH  96  98
ATOM     98  C   GLU d   1      22.553  22.098  22.604  0.00  0.00     0.241 C 
ATOM     99  O   GLU d   1      22.198  22.584  21.525  0.00  0.00    -0.271 OA
ATOM    100  N   ARG d   1      22.156  20.891  22.993  0.00  0.00    -0.345 N 
ATOM    101  H66 ARG d   1      22.478  20.525  23.866  0.00  0.00     0.163 HD
BRANCH 100 102
ATOM    102  CA  ARG d   1      21.258  20.090  22.167  0.00  0.00     0.096 C 
ATOM    103  H67 ARG d   1      21.267  20.496  21.145  0.00  0.00     0.089 H 
BRANCH 102 104
ATOM    104  C   ARG d   1      19.830  20.164  22.707  0.00  0.00     0.196 C 
ATOM    105  O   ARG d   1      18.885  20.425  21.971  0.00  0.00    -0.646 OA
ATOM    106  OXT ARG d   1      19.588  19.965  23.892  0.00  0.00    -0.646 OA
ENDBRANCH 102 104
BRANCH 102 107
ATOM    107  CB  ARG d   1      21.731  18.638  22.117  0.00  0.00    -0.035 C 
ATOM    108  H68 ARG d   1      20.871  18.008  21.847  0.00  0.00     0.036 H 
ATOM    109  H69 ARG d   1      22.088  18.361  23.120  0.00  0.00     0.036 H 
BRANCH 107 110
ATOM    110  CG  ARG d   1      22.853  18.360  21.121  0.00  0.00    -0.047 C 
ATOM    111  H70 ARG d   1      23.693  19.043  21.315  0.00  0.00     0.035 H 
ATOM    112  H71 ARG d   1      22.482  18.516  20.097  0.00  0.00     0.035 H 
BRANCH 110 113
ATOM    113  CD  ARG d   1      23.320  16.931  21.275  0.00  0.00     0.009 C 
ATOM    114  H72 ARG d   1      23.319  16.668  22.343  0.00  0.00     0.064 H 
ATOM    115  H73 ARG d   1      24.342  16.844  20.877  0.00  0.00     0.064 H 
BRANCH 113 116
ATOM    116  NE  ARG d   1      22.450  16.001  20.557  0.00  0.00    -0.227 N 
ATOM    117  CZ  ARG d   1      22.783  14.754  20.221  0.00  0.00     0.665 C 
ATOM    118  NH1 ARG d   1      23.980  14.275  20.548  0.00  0.00    -0.235 N 
ATOM    119  NH2 ARG d   1      21.927  13.988  19.547  0.00  0.00    -0.235 N 
ATOM    120  H75 ARG d   1      24.238  13.312  20.289  0.00  0.00     0.174 HD
ATOM    121  H76 ARG d   1      24.649  14.867  21.060  0.00  0.00     0.174 HD
ATOM    122  H77 ARG d   1      20.999  14.354  19.291  0.00  0.00     0.174 HD
ATOM    123  H78 ARG d   1      22.193  13.029  19.281  0.00  0.00     0.174 HD
ATOM    124  H74 ARG d   1      21.512  16.333  20.291  0.00  0.00     0.177 HD
ENDBRANCH 113 116
ENDBRANCH 110 113
ENDBRANCH 107 110
ENDBRANCH 102 107
ENDBRANCH 100 102
ENDBRANCH  96  98
BRANCH  96 125
ATOM    125  CB  GLU d   1      24.437  23.737  22.615  0.00  0.00    -0.029 C 
ATOM    126  H62 GLU d   1      23.829  24.519  22.136  0.00  0.00     0.037 H 
ATOM    127  H63 GLU d   1      24.864  23.080  21.843  0.00  0.00     0.037 H 
BRANCH 125 128
ATOM    128  CG  GLU d   1      25.584  24.414  23.342  0.00  0.00     0.018 C 
ATOM    129  H64 GLU d   1      26.142  23.646  23.898  0.00  0.00     0.049 H 
ATOM    130  H65 GLU d   1      25.162  25.144  24.049  0.00  0.00     0.049 H 
BRANCH 128 131
ATOM    131  CD  GLU d   1      26.568  25.151  22.415  0.00  0.00     0.172 C 
ATOM    132  OE1 GLU d   1      27.731  24.702  22.327  0.00  0.00    -0.648 OA
ATOM    133  OE2 GLU d   1      26.198  26.189  21.801  0.00  0.00    -0.648 OA
ENDBRANCH 128 131
ENDBRANCH 125 128
ENDBRANCH  96 125
ENDBRANCH  94  96
ENDBRANCH  90  92
BRANCH  90 134
ATOM    134  CB  GLN d   1      24.321  20.802  27.696  0.00  0.00    -0.049 C 
ATOM    135  H57 GLN d   1      23.353  20.422  27.338  0.00  0.00     0.030 H 
ATOM    136  H58 GLN d   1      24.155  21.674  28.346  0.00  0.00     0.030 H 
ATOM    137  H59 GLN d   1      24.837  20.014  28.264  0.00  0.00     0.030 H 
ENDBRANCH  90 134
ENDBRANCH  88  90
ENDBRANCH  84  86
BRANCH  84 138
ATOM    138  CB  LEU d   1      28.814  23.813  26.186  0.00  0.00    -0.035 C 
ATOM    139  H46 LEU d   1      28.663  23.802  25.096  0.00  0.00     0.037 H 
ATOM    140  H47 LEU d   1      29.806  24.229  26.415  0.00  0.00     0.037 H 
BRANCH 138 141
ATOM    141  CG  LEU d   1      27.769  24.774  26.782  0.00  0.00    -0.059 C 
ATOM    142  H48 LEU d   1      26.851  24.207  26.998  0.00  0.00     0.038 H 
BRANCH 141 143
ATOM    143  CD1 LEU d   1      28.310  25.344  28.059  0.00  0.00    -0.073 C 
ATOM    144  H49 LEU d   1      27.572  26.033  28.495  0.00  0.00     0.028 H 
ATOM    145  H50 LEU d   1      29.242  25.890  27.851  0.00  0.00     0.028 H 
ATOM    146  H51 LEU d   1      28.513  24.528  28.768  0.00  0.00     0.028 H 
ENDBRANCH 141 143
BRANCH 141 147
ATOM    147  CD2 LEU d   1      27.425  25.911  25.826  0.00  0.00    -0.073 C 
ATOM    148  H52 LEU d   1      27.028  25.494  24.889  0.00  0.00     0.028 H 
ATOM    149  H53 LEU d   1      28.331  26.497  25.612  0.00  0.00     0.028 H 
ATOM    150  H54 LEU d   1      26.668  26.562  26.288  0.00  0.00     0.028 H 
ENDBRANCH 141 147
ENDBRANCH 138 141
ENDBRANCH  84 138
ENDBRANCH  82  84
ENDBRANCH   1  80
TORSDOF 44
