REMARK  15 active torsions:
REMARK  status: ('A' for Active; 'I' for Inactive)
REMARK    1  A    between atoms: O3C_40  and  PD_1 
REMARK    2  A    between atoms: O3B_12  and  PG_5 
REMARK    3  A    between atoms: PB_9  and  O3B_12 
REMARK    4  A    between atoms: O3A_13  and  PB_9 
REMARK    5  A    between atoms: PA_14  and  O3A_13 
REMARK    6  A    between atoms: O5'_17  and  PA_14 
REMARK    7  A    between atoms: C5'_18  and  O5'_17 
REMARK    8  A    between atoms: C4'_19  and  C5'_18 
REMARK    9  A    between atoms: O3'_22  and  C3'_21 
REMARK   10  A    between atoms: PC_37  and  O3'_22 
REMARK   11  A    between atoms: C2'_23  and  O2'_24 
REMARK   12  A    between atoms: C1'_25  and  N9_26 
REMARK   13  A    between atoms: C6_30  and  O6_31 
REMARK   14  A    between atoms: C2_33  and  N2_34 
REMARK   15  A    between atoms: PC_37  and  O3C_40 
ROOT
ATOM      1  C4' C1Z d   1      91.822  15.162  57.706  0.00  0.00     0.090 C 
ATOM      2  O4' C1Z d   1      92.257  14.646  56.357  0.00  0.00    -0.353 OA
ATOM      3  C3' C1Z d   1      93.048  15.578  58.364  0.00  0.00     0.106 C 
ATOM      4  C2' C1Z d   1      94.042  14.615  57.973  0.00  0.00     0.106 C 
ATOM      5  C1' C1Z d   1      93.667  14.174  56.608  0.00  0.00     0.139 C 
ATOM      6  H3  C1Z d   1      91.331  14.357  58.272  0.00  0.00     0.090 H 
ATOM      7  H4  C1Z d   1      93.352  16.596  58.080  0.00  0.00     0.092 H 
ATOM      8  H5  C1Z d   1      95.053  15.049  57.989  0.00  0.00     0.093 H 
ATOM      9  H7  C1Z d   1      93.700  13.075  56.582  0.00  0.00     0.122 H 
ENDROOT
BRANCH   5  10
ATOM     10  N9  C1Z d   1      94.498  14.668  55.548  0.00  0.00    -0.295 N 
ATOM     11  C8  C1Z d   1      93.960  15.176  54.572  0.00  0.00     0.070 A 
ATOM     12  N7  C1Z d   1      94.890  15.564  53.670  0.00  0.00    -0.240 NA
ATOM     13  H8  C1Z d   1      92.885  15.298  54.448  0.00  0.00     0.144 H 
ATOM     14  C5  C1Z d   1      96.172  15.123  54.392  0.00  0.00     0.129 A 
ATOM     15  C6  C1Z d   1      97.605  15.200  54.040  0.00  0.00     0.163 A 
ATOM     16  C4  C1Z d   1      95.750  14.554  55.588  0.00  0.00     0.155 A 
ATOM     17  N1  C1Z d   1      98.612  14.666  54.977  0.00  0.00    -0.194 N 
ATOM     18  H9  C1Z d   1      97.677  16.183  54.527  0.00  0.00     0.129 H 
ATOM     19  C2  C1Z d   1      98.227  14.126  56.122  0.00  0.00     0.675 A 
ATOM     20  H11 C1Z d   1      99.613  14.713  54.740  0.00  0.00     0.180 HD
ATOM     21  N3  C1Z d   1      96.731  14.033  56.507  0.00  0.00    -0.175 N 
ATOM     22  H14 C1Z d   1      96.443  13.608  57.400  0.00  0.00     0.186 HD
BRANCH  15  23
ATOM     23  O6  C1Z d   1      97.982  15.782  52.815  0.00  0.00    -0.370 OA
ATOM     24  H10 C1Z d   1      97.205  16.067  52.349  0.00  0.00     0.212 HD
ENDBRANCH  15  23
BRANCH  19  25
ATOM     25  N2  C1Z d   1      99.228  13.597  57.055  0.00  0.00    -0.235 N 
ATOM     26  H12 C1Z d   1      98.930  13.176  57.947  0.00  0.00     0.174 HD
ATOM     27  H13 C1Z d   1     100.229  13.646  56.818  0.00  0.00     0.174 HD
ENDBRANCH  19  25
ENDBRANCH   5  10
BRANCH   4  28
ATOM     28  O2' C1Z d   1      93.948  13.463  58.894  0.00  0.00    -0.388 OA
ATOM     29  H6  C1Z d   1      94.106  13.756  59.784  0.00  0.00     0.210 HD
ENDBRANCH   4  28
BRANCH   1  30
ATOM     30  C5' C1Z d   1      90.897  16.331  57.622  0.00  0.00     0.058 C 
ATOM     31  H1  C1Z d   1      89.955  16.030  57.140  0.00  0.00     0.079 H 
ATOM     32  H2  C1Z d   1      90.686  16.715  58.631  0.00  0.00     0.079 H 
BRANCH  30  33
ATOM     33  O5' C1Z d   1      91.540  17.338  56.844  0.00  0.00    -0.287 OA
BRANCH  33  34
ATOM     34  PA  C1Z d   1      90.729  17.950  55.502  0.00  0.00     0.417 P 
ATOM     35  O1A C1Z d   1      89.398  17.346  55.331  0.00  0.00    -0.624 OA
ATOM     36  O2A C1Z d   1      91.356  17.547  54.235  0.00  0.00    -0.624 OA
BRANCH  34  37
ATOM     37  O3A C1Z d   1      90.638  19.605  55.760  0.00  0.00    -0.180 OA
BRANCH  37  38
ATOM     38  PB  C1Z d   1      89.748  20.215  57.041  0.00  0.00     0.428 P 
ATOM     39  O1B C1Z d   1      90.471  21.212  57.824  0.00  0.00    -0.624 OA
ATOM     40  O2B C1Z d   1      89.500  19.189  58.040  0.00  0.00    -0.624 OA
BRANCH  38  41
ATOM     41  O3B C1Z d   1      88.328  20.797  56.450  0.00  0.00    -0.173 OA
BRANCH  41  42
ATOM     42  PG  C1Z d   1      87.259  19.774  55.707  0.00  0.00     0.431 P 
ATOM     43  O1G C1Z d   1      87.696  19.256  54.409  0.00  0.00    -0.616 OA
ATOM     44  O2G C1Z d   1      85.965  20.386  55.444  0.00  0.00    -0.616 OA
ATOM     45  O3G C1Z d   1      86.958  18.571  56.484  0.00  0.00    -0.616 OA
ENDBRANCH  41  42
ENDBRANCH  38  41
ENDBRANCH  37  38
ENDBRANCH  34  37
ENDBRANCH  33  34
ENDBRANCH  30  33
ENDBRANCH   1  30
BRANCH   3  46
ATOM     46  O3' C1Z d   1      92.755  15.497  59.767  0.00  0.00    -0.279 OA
BRANCH  46  47
ATOM     47  PC  C1Z d   1      94.039  15.624  60.790  0.00  0.00     0.419 P 
ATOM     48  O1C C1Z d   1      94.824  14.385  60.747  0.00  0.00    -0.624 OA
ATOM     49  O2C C1Z d   1      93.582  15.689  62.170  0.00  0.00    -0.624 OA
BRANCH  47  50
ATOM     50  O3C C1Z d   1      94.900  16.974  60.340  0.00  0.00    -0.173 OA
BRANCH  50  51
ATOM     51  PD  C1Z d   1      94.208  18.482  60.174  0.00  0.00     0.431 P 
ATOM     52  O1D C1Z d   1      93.208  18.584  59.116  0.00  0.00    -0.616 OA
ATOM     53  O2D C1Z d   1      95.171  19.536  59.863  0.00  0.00    -0.616 OA
ATOM     54  O3D C1Z d   1      93.500  18.958  61.372  0.00  0.00    -0.616 OA
ENDBRANCH  50  51
ENDBRANCH  47  50
ENDBRANCH  46  47
ENDBRANCH   3  46
TORSDOF 15
