REMARK  8 active torsions:
REMARK  status: ('A' for Active; 'I' for Inactive)
REMARK    1  A    between atoms: C01_1  and  C02_2 
REMARK    2  A    between atoms: C06_6  and  C07_7 
REMARK    3  A    between atoms: C07_7  and  C08_8 
REMARK    4  A    between atoms: C16_16  and  C17_17 
REMARK    5  A    between atoms: C20_20  and  N21_21 
REMARK    6  A    between atoms: N21_21  and  C22_22 
REMARK    7  A    between atoms: N21_21  and  C23_23 
REMARK    8  A    between atoms: C24_24  and  C25_25 
ROOT
ATOM      1  C08 QQH d   1      64.800 102.536  13.993  0.00  0.00    -0.024 A 
ATOM      2  C09 QQH d   1      64.531 101.896  12.802  0.00  0.00    -0.009 A 
ATOM      3  C10 QQH d   1      63.788 102.466  11.713  0.00  0.00     0.249 A 
ATOM      4  O11 QQH d   1      63.578 101.829  10.658  0.00  0.00    -0.268 OA
ATOM      5  N12 QQH d   1      63.279 103.780  11.842  0.00  0.00    -0.291 N 
ATOM      6  C13 QQH d   1      63.553 104.429  13.036  0.00  0.00     0.098 A 
ATOM      7  S14 QQH d   1      62.828 106.035  12.971  0.00  0.00    -0.108 SA
ATOM      8  C15 QQH d   1      61.765 105.643  11.566  0.00  0.00     0.011 C 
ATOM      9  C16 QQH d   1      62.517 104.551  10.860  0.00  0.00     0.113 C 
ATOM     10  C20 QQH d   1      64.277 103.888  14.120  0.00  0.00     0.051 A 
ATOM     11  H9  QQH d   1      64.910 100.883  12.678  0.00  0.00     0.092 H 
ATOM     12  H10 QQH d   1      61.636 106.519  10.913  0.00  0.00     0.053 H 
ATOM     13  H11 QQH d   1      60.780 105.289  11.904  0.00  0.00     0.053 H 
ATOM     14  H12 QQH d   1      61.787 103.872  10.394  0.00  0.00     0.091 H 
ENDROOT
BRANCH   1  15
ATOM     15  C07 QQH d   1      65.579 101.954  15.147  0.00  0.00    -0.015 C 
ATOM     16  H7  QQH d   1      66.407 102.640  15.379  0.00  0.00     0.047 H 
ATOM     17  H8  QQH d   1      64.904 101.888  16.013  0.00  0.00     0.047 H 
BRANCH  15  18
ATOM     18  C06 QQH d   1      66.161 100.589  14.906  0.00  0.00    -0.047 A 
ATOM     19  C05 QQH d   1      65.639  99.482  15.581  0.00  0.00    -0.076 A 
ATOM     20  C04 QQH d   1      66.170  98.205  15.380  0.00  0.00    -0.082 A 
ATOM     21  H6  QQH d   1      64.812  99.616  16.269  0.00  0.00     0.084 H 
ATOM     22  C03 QQH d   1      67.234  98.013  14.502  0.00  0.00    -0.077 A 
ATOM     23  H5  QQH d   1      65.751  97.358  15.911  0.00  0.00     0.083 H 
ATOM     24  C02 QQH d   1      67.784  99.107  13.811  0.00  0.00    -0.056 A 
ATOM     25  H4  QQH d   1      67.639  97.019  14.351  0.00  0.00     0.084 H 
ATOM     26  C24 QQH d   1      67.247 100.394  14.017  0.00  0.00    -0.050 A 
BRANCH  24  27
ATOM     27  C01 QQH d   1      68.939  98.828  12.872  0.00  0.00    -0.051 C 
ATOM     28  H1  QQH d   1      69.171  97.753  12.886  0.00  0.00     0.033 H 
ATOM     29  H2  QQH d   1      69.822  99.398  13.197  0.00  0.00     0.033 H 
ATOM     30  H3  QQH d   1      68.663  99.130  11.851  0.00  0.00     0.033 H 
ENDBRANCH  24  27
BRANCH  26  31
ATOM     31  C25 QQH d   1      67.859 101.540  13.261  0.00  0.00    -0.050 C 
ATOM     32  H19 QQH d   1      68.682 101.167  12.633  0.00  0.00     0.033 H 
ATOM     33  H20 QQH d   1      68.249 102.283  13.973  0.00  0.00     0.033 H 
ATOM     34  H21 QQH d   1      67.095 102.009  12.624  0.00  0.00     0.033 H 
ENDBRANCH  26  31
ENDBRANCH  15  18
ENDBRANCH   1  15
BRANCH  10  35
ATOM     35  N21 QQH d   1      64.469 104.651  15.242  0.00  0.00    -0.289 NA
BRANCH  35  36
ATOM     36  C22 QQH d   1      63.155 105.219  15.775  0.00  0.00    -0.029 C 
ATOM     37  H13 QQH d   1      63.354 105.823  16.673  0.00  0.00     0.048 H 
ATOM     38  H14 QQH d   1      62.476 104.393  16.032  0.00  0.00     0.048 H 
ATOM     39  H15 QQH d   1      62.689 105.850  15.004  0.00  0.00     0.048 H 
ENDBRANCH  35  36
BRANCH  35  40
ATOM     40  C23 QQH d   1      65.575 105.684  15.073  0.00  0.00    -0.029 C 
ATOM     41  H16 QQH d   1      66.480 105.192  14.687  0.00  0.00     0.048 H 
ATOM     42  H17 QQH d   1      65.796 106.147  16.046  0.00  0.00     0.048 H 
ATOM     43  H18 QQH d   1      65.248 106.459  14.364  0.00  0.00     0.048 H 
ENDBRANCH  35  40
ENDBRANCH  10  35
BRANCH   9  44
ATOM     44  C17 QQH d   1      63.375 105.136   9.746  0.00  0.00     0.198 C 
ATOM     45  O18 QQH d   1      64.592 104.911   9.922  0.00  0.00    -0.646 OA
ATOM     46  O19 QQH d   1      62.906 105.756   8.807  0.00  0.00    -0.646 OA
ENDBRANCH   9  44
TORSDOF 8
