REMARK  10 active torsions:
REMARK  status: ('A' for Active; 'I' for Inactive)
REMARK    1  A    between atoms: C21_2  and  C22_3 
REMARK    2  A    between atoms: C25_11  and  C26_5 
REMARK    3  A    between atoms: C26_5  and  N27_29 
REMARK    4  A    between atoms: N30_8  and  C33_21 
REMARK    5  A    between atoms: C33_21  and  C35_10 
REMARK    6  A    between atoms: O02_12  and  C01_14 
REMARK    7  A    between atoms: C03_16  and  O02_12 
REMARK    8  A    between atoms: C06_13  and  C19_15 
REMARK    9  A    between atoms: C33_21  and  C34_20 
REMARK   10  A    between atoms: C09_28  and  C08_34 
ROOT
ATOM      1  C22 C5W d   1      -6.384 -32.924  24.222  0.00  0.00     0.180 A 
ATOM      2  C24 C5W d   1      -6.021 -34.964  23.795  0.00  0.00     0.035 A 
ATOM      3  C25 C5W d   1      -4.840 -34.450  24.156  0.00  0.00     0.099 A 
ATOM      4  O36 C5W d   1      -5.051 -33.108  24.410  0.00  0.00    -0.292 OA
ATOM      5  N23 C5W d   1      -7.006 -34.000  23.857  0.00  0.00    -0.234 NA
ATOM      6  H2  C5W d   1      -6.182 -35.998  23.494  0.00  0.00     0.118 H 
ENDROOT
BRANCH   1   7
ATOM      7  C21 C5W d   1      -6.960 -31.588  24.429  0.00  0.00     0.032 A 
ATOM      8  C20 C5W d   1      -8.252 -31.361  23.957  0.00  0.00    -0.057 A 
ATOM      9  C19 C5W d   1      -8.887 -30.121  24.119  0.00  0.00    -0.021 A 
ATOM     10  H1  C5W d   1      -8.779 -32.163  23.452  0.00  0.00     0.086 H 
ATOM     11  C42 C5W d   1      -8.228 -29.067  24.763  0.00  0.00    -0.042 A 
ATOM     12  C41 C5W d   1      -6.936 -29.286  25.239  0.00  0.00     0.090 A 
ATOM     13  H30 C5W d   1      -8.710 -28.104  24.889  0.00  0.00     0.088 H 
ATOM     14  C37 C5W d   1      -6.306 -30.528  25.078  0.00  0.00     0.026 A 
ATOM     15  N40 C5W d   1      -6.022 -28.496  25.899  0.00  0.00    -0.175 NA
ATOM     16  C38 C5W d   1      -5.032 -30.390  25.673  0.00  0.00     0.009 A 
ATOM     17  N39 C5W d   1      -4.868 -29.173  26.158  0.00  0.00    -0.288 N 
ATOM     18  H23 C5W d   1      -4.285 -31.181  25.725  0.00  0.00     0.115 H 
ATOM     19  H22 C5W d   1      -4.033 -28.808  26.637  0.00  0.00     0.188 HD
BRANCH   9  20
ATOM     20  C06 C5W d   1     -10.248 -29.959  23.574  0.00  0.00    -0.007 A 
ATOM     21  C05 C5W d   1     -11.333 -29.497  24.296  0.00  0.00     0.016 A 
ATOM     22  N04 C5W d   1     -12.549 -29.306  23.768  0.00  0.00    -0.235 NA
ATOM     23  H16 C5W d   1     -11.192 -29.277  25.348  0.00  0.00     0.116 H 
ATOM     24  C03 C5W d   1     -12.735 -29.570  22.480  0.00  0.00     0.177 A 
ATOM     25  C08 C5W d   1     -11.696 -30.053  21.644  0.00  0.00     0.055 A 
ATOM     26  C07 C5W d   1     -10.453 -30.242  22.231  0.00  0.00    -0.054 A 
ATOM     27  H17 C5W d   1      -9.630 -30.616  21.632  0.00  0.00     0.086 H 
BRANCH  24  28
ATOM     28  O02 C5W d   1     -13.930 -29.314  21.900  0.00  0.00    -0.339 OA
BRANCH  28  29
ATOM     29  C01 C5W d   1     -14.905 -28.613  22.669  0.00  0.00     0.012 C 
ATOM     30  H13 C5W d   1     -15.818 -28.479  22.070  0.00  0.00     0.067 H 
ATOM     31  H14 C5W d   1     -14.507 -27.628  22.956  0.00  0.00     0.067 H 
ATOM     32  H15 C5W d   1     -15.142 -29.191  23.575  0.00  0.00     0.067 H 
ENDBRANCH  28  29
ENDBRANCH  24  28
BRANCH  25  33
ATOM     33  C09 C5W d   1     -11.835 -30.297  20.200  0.00  0.00     0.122 C 
ATOM     34  O10 C5W d   1     -10.924 -30.792  19.543  0.00  0.00    -0.301 OA
ATOM     35  H28 C5W d   1     -12.767 -30.032  19.703  0.00  0.00     0.152 H 
ENDBRANCH  25  33
ENDBRANCH   9  20
ENDBRANCH   1   7
BRANCH   3  36
ATOM     36  C26 C5W d   1      -3.503 -35.004  24.502  0.00  0.00     0.129 C 
ATOM     37  H3  C5W d   1      -3.646 -36.047  24.820  0.00  0.00     0.086 H 
ATOM     38  H4  C5W d   1      -3.105 -34.416  25.342  0.00  0.00     0.086 H 
BRANCH  36  39
ATOM     39  N27 C5W d   1      -2.503 -34.997  23.443  0.00  0.00    -0.062 N 
ATOM     40  C28 C5W d   1      -1.146 -35.055  23.994  0.00  0.00     0.106 C 
ATOM     41  C29 C5W d   1      -0.128 -35.145  22.869  0.00  0.00     0.106 C 
ATOM     42  H5  C5W d   1      -0.955 -34.148  24.586  0.00  0.00     0.078 H 
ATOM     43  H6  C5W d   1      -1.053 -35.941  24.640  0.00  0.00     0.078 H 
ATOM     44  N30 C5W d   1      -0.256 -34.004  21.942  0.00  0.00    -0.064 N 
ATOM     45  H7  C5W d   1      -0.290 -36.080  22.312  0.00  0.00     0.078 H 
ATOM     46  H8  C5W d   1       0.884 -35.146  23.300  0.00  0.00     0.078 H 
ATOM     47  C31 C5W d   1      -1.636 -33.885  21.447  0.00  0.00     0.106 C 
ATOM     48  H9  C5W d   1      -0.045 -33.173  22.472  0.00  0.00     0.280 HD
ATOM     49  C32 C5W d   1      -2.617 -33.810  22.598  0.00  0.00     0.106 C 
ATOM     50  H24 C5W d   1      -1.874 -34.762  20.828  0.00  0.00     0.078 H 
ATOM     51  H25 C5W d   1      -1.723 -32.972  20.839  0.00  0.00     0.078 H 
ATOM     52  H26 C5W d   1      -3.640 -33.746  22.199  0.00  0.00     0.078 H 
ATOM     53  H27 C5W d   1      -2.402 -32.915  23.200  0.00  0.00     0.078 H 
ATOM     54  H29 C5W d   1      -2.652 -35.812  22.869  0.00  0.00     0.280 HD
BRANCH  44  55
ATOM     55  C33 C5W d   1       0.676 -34.036  20.793  0.00  0.00     0.097 C 
ATOM     56  H21 C5W d   1       0.233 -34.715  20.049  0.00  0.00     0.083 H 
BRANCH  55  57
ATOM     57  C35 C5W d   1       0.798 -32.672  20.141  0.00  0.00    -0.050 C 
ATOM     58  H10 C5W d   1       1.496 -32.732  19.293  0.00  0.00     0.030 H 
ATOM     59  H11 C5W d   1       1.176 -31.947  20.877  0.00  0.00     0.030 H 
ATOM     60  H12 C5W d   1      -0.190 -32.348  19.780  0.00  0.00     0.030 H 
ENDBRANCH  55  57
BRANCH  55  61
ATOM     61  C34 C5W d   1       2.061 -34.594  21.127  0.00  0.00    -0.050 C 
ATOM     62  H18 C5W d   1       2.688 -34.583  20.224  0.00  0.00     0.030 H 
ATOM     63  H19 C5W d   1       1.962 -35.627  21.492  0.00  0.00     0.030 H 
ATOM     64  H20 C5W d   1       2.529 -33.973  21.905  0.00  0.00     0.030 H 
ENDBRANCH  55  61
ENDBRANCH  44  55
ENDBRANCH  36  39
ENDBRANCH   3  36
TORSDOF 10
