REMARK  12 active torsions:
REMARK  status: ('A' for Active; 'I' for Inactive)
REMARK    1  A    between atoms: C15_1  and  O16_15 
REMARK    2  A    between atoms: O16_15  and  C17_2 
REMARK    3  A    between atoms: C11_12  and  C21_3 
REMARK    4  A    between atoms: C24_5  and  C25_16 
REMARK    5  A    between atoms: O05_7  and  C01_6 
REMARK    6  A    between atoms: C06_8  and  O05_7 
REMARK    7  A    between atoms: C08_10  and  C06_8 
REMARK    8  A    between atoms: C29_19  and  C30_20 
REMARK    9  A    between atoms: C30_20  and  N33_21 
REMARK   10  A    between atoms: N40_24  and  C47_27 
REMARK   11  A    between atoms: C47_27  and  C49_28 
REMARK   12  A    between atoms: C47_27  and  C53_29 
ROOT
ATOM      1  C25 C5Z d   1      -6.261 -32.876  24.244  0.00  0.00     0.180 A 
ATOM      2  N26 C5Z d   1      -6.737 -33.956  23.707  0.00  0.00    -0.234 NA
ATOM      3  C27 C5Z d   1      -5.706 -34.861  23.764  0.00  0.00     0.035 A 
ATOM      4  C29 C5Z d   1      -4.641 -34.321  24.342  0.00  0.00     0.099 A 
ATOM      5  O57 C5Z d   1      -4.961 -33.011  24.649  0.00  0.00    -0.292 OA
ATOM      6  H10 C5Z d   1      -5.756 -35.881  23.387  0.00  0.00     0.118 H 
ENDROOT
BRANCH   1   7
ATOM      7  C24 C5Z d   1      -6.939 -31.582  24.404  0.00  0.00     0.032 A 
ATOM      8  C22 C5Z d   1      -8.241 -31.456  23.905  0.00  0.00    -0.057 A 
ATOM      9  C21 C5Z d   1      -8.992 -30.282  24.060  0.00  0.00    -0.021 A 
ATOM     10  H4  C5Z d   1      -8.684 -32.295  23.381  0.00  0.00     0.086 H 
ATOM     11  C65 C5Z d   1      -8.385 -29.166  24.652  0.00  0.00    -0.042 A 
ATOM     12  C64 C5Z d   1      -7.062 -29.268  25.070  0.00  0.00     0.090 A 
ATOM     13  H32 C5Z d   1      -8.936 -28.241  24.782  0.00  0.00     0.088 H 
ATOM     14  C58 C5Z d   1      -6.336 -30.467  25.020  0.00  0.00     0.026 A 
ATOM     15  N62 C5Z d   1      -6.260 -28.372  25.696  0.00  0.00    -0.175 NA
ATOM     16  C59 C5Z d   1      -5.066 -30.160  25.560  0.00  0.00     0.009 A 
ATOM     17  N61 C5Z d   1      -5.034 -28.912  25.983  0.00  0.00    -0.288 N 
ATOM     18  H30 C5Z d   1      -4.231 -30.857  25.618  0.00  0.00     0.115 H 
ATOM     19  H31 C5Z d   1      -4.243 -28.436  26.440  0.00  0.00     0.188 HD
BRANCH   9  20
ATOM     20  C11 C5Z d   1     -10.348 -30.166  23.452  0.00  0.00    -0.007 A 
ATOM     21  C09 C5Z d   1     -10.659 -30.838  22.270  0.00  0.00    -0.051 A 
ATOM     22  C08 C5Z d   1     -11.921 -30.692  21.678  0.00  0.00     0.093 A 
ATOM     23  H8  C5Z d   1      -9.918 -31.479  21.805  0.00  0.00     0.086 H 
ATOM     24  C15 C5Z d   1     -12.812 -29.809  22.323  0.00  0.00     0.180 A 
ATOM     25  N14 C5Z d   1     -12.543 -29.171  23.450  0.00  0.00    -0.235 NA
ATOM     26  C12 C5Z d   1     -11.319 -29.321  23.972  0.00  0.00     0.016 A 
ATOM     27  H9  C5Z d   1     -11.071 -28.746  24.857  0.00  0.00     0.116 H 
BRANCH  22  28
ATOM     28  C06 C5Z d   1     -12.269 -31.463  20.445  0.00  0.00     0.297 C 
ATOM     29  O07 C5Z d   1     -13.241 -31.260  19.784  0.00  0.00    -0.259 OA
BRANCH  28  30
ATOM     30  O05 C5Z d   1     -11.431 -32.467  20.199  0.00  0.00    -0.322 OA
BRANCH  30  31
ATOM     31  C01 C5Z d   1     -11.956 -33.798  20.453  0.00  0.00     0.013 C 
ATOM     32  H5  C5Z d   1     -11.185 -34.547  20.218  0.00  0.00     0.067 H 
ATOM     33  H6  C5Z d   1     -12.840 -33.970  19.821  0.00  0.00     0.067 H 
ATOM     34  H7  C5Z d   1     -12.240 -33.884  21.512  0.00  0.00     0.067 H 
ENDBRANCH  30  31
ENDBRANCH  28  30
ENDBRANCH  22  28
BRANCH  24  35
ATOM     35  O16 C5Z d   1     -14.026 -29.655  21.746  0.00  0.00    -0.339 OA
BRANCH  35  36
ATOM     36  C17 C5Z d   1     -14.859 -28.599  22.222  0.00  0.00     0.012 C 
ATOM     37  H1  C5Z d   1     -15.806 -28.598  21.662  0.00  0.00     0.067 H 
ATOM     38  H2  C5Z d   1     -14.348 -27.636  22.079  0.00  0.00     0.067 H 
ATOM     39  H3  C5Z d   1     -15.066 -28.749  23.292  0.00  0.00     0.067 H 
ENDBRANCH  35  36
ENDBRANCH  24  35
ENDBRANCH   9  20
ENDBRANCH   1   7
BRANCH   4  40
ATOM     40  C30 C5Z d   1      -3.269 -34.800  24.670  0.00  0.00     0.129 C 
ATOM     41  H11 C5Z d   1      -3.349 -35.828  25.052  0.00  0.00     0.086 H 
ATOM     42  H12 C5Z d   1      -2.860 -34.148  25.456  0.00  0.00     0.086 H 
BRANCH  40  43
ATOM     43  N33 C5Z d   1      -2.329 -34.805  23.551  0.00  0.00    -0.062 N 
ATOM     44  C34 C5Z d   1      -2.363 -33.537  22.813  0.00  0.00     0.106 C 
ATOM     45  C37 C5Z d   1      -1.438 -33.592  21.606  0.00  0.00     0.106 C 
ATOM     46  H14 C5Z d   1      -2.040 -32.723  23.479  0.00  0.00     0.078 H 
ATOM     47  H15 C5Z d   1      -3.391 -33.345  22.472  0.00  0.00     0.078 H 
ATOM     48  N40 C5Z d   1      -0.050 -33.860  22.047  0.00  0.00    -0.064 N 
ATOM     49  H16 C5Z d   1      -1.473 -32.629  21.076  0.00  0.00     0.078 H 
ATOM     50  H17 C5Z d   1      -1.768 -34.395  20.930  0.00  0.00     0.078 H 
ATOM     51  C41 C5Z d   1      -0.019 -35.131  22.803  0.00  0.00     0.106 C 
ATOM     52  H18 C5Z d   1       0.210 -33.125  22.686  0.00  0.00     0.280 HD
ATOM     53  C44 C5Z d   1      -0.957 -35.077  23.996  0.00  0.00     0.106 C 
ATOM     54  H19 C5Z d   1       1.006 -35.313  23.159  0.00  0.00     0.078 H 
ATOM     55  H20 C5Z d   1      -0.328 -35.952  22.139  0.00  0.00     0.078 H 
ATOM     56  H21 C5Z d   1      -0.931 -36.042  24.523  0.00  0.00     0.078 H 
ATOM     57  H22 C5Z d   1      -0.631 -34.278  24.678  0.00  0.00     0.078 H 
ATOM     58  H13 C5Z d   1      -2.606 -35.542  22.921  0.00  0.00     0.280 HD
BRANCH  48  59
ATOM     59  C47 C5Z d   1       0.941 -33.819  20.922  0.00  0.00     0.097 C 
ATOM     60  H23 C5Z d   1       0.819 -34.755  20.358  0.00  0.00     0.083 H 
BRANCH  59  61
ATOM     61  C49 C5Z d   1       0.678 -32.676  19.957  0.00  0.00    -0.050 C 
ATOM     62  H24 C5Z d   1       1.431 -32.693  19.155  0.00  0.00     0.030 H 
ATOM     63  H25 C5Z d   1       0.738 -31.719  20.497  0.00  0.00     0.030 H 
ATOM     64  H26 C5Z d   1      -0.325 -32.788  19.520  0.00  0.00     0.030 H 
ENDBRANCH  59  61
BRANCH  59  65
ATOM     65  C53 C5Z d   1       2.384 -33.775  21.416  0.00  0.00    -0.050 C 
ATOM     66  H27 C5Z d   1       3.066 -33.746  20.553  0.00  0.00     0.030 H 
ATOM     67  H28 C5Z d   1       2.593 -34.671  22.019  0.00  0.00     0.030 H 
ATOM     68  H29 C5Z d   1       2.534 -32.876  22.032  0.00  0.00     0.030 H 
ENDBRANCH  59  65
ENDBRANCH  48  59
ENDBRANCH  40  43
ENDBRANCH   4  40
TORSDOF 12
