REMARK  12 active torsions:
REMARK  status: ('A' for Active; 'I' for Inactive)
REMARK    1  A    between atoms: CD_2  and  CG_4 
REMARK    2  A    between atoms: CG_4  and  CB_5 
REMARK    3  A    between atoms: CB_5  and  CA_6 
REMARK    4  A    between atoms: CA_6  and  C_7 
REMARK    5  A    between atoms: CA_6  and  N_10 
REMARK       I    between atoms: N_10  and  CAR_11 
REMARK    6  A    between atoms: CAR_11  and  OAN_13 
REMARK    7  A    between atoms: OAN_13  and  CAU_14 
REMARK    8  A    between atoms: CAU_14  and  CAQ_15 
REMARK    9  A    between atoms: CAU_14  and  CAL_18 
REMARK   10  A    between atoms: CAL_18  and  CAS_19 
REMARK   11  A    between atoms: CAS_19  and  CAB_20 
REMARK   12  A    between atoms: CAS_19  and  CAA_21 
ROOT
ATOM      1  OAN C68 d   1      18.779  45.459  44.265  0.00  0.00    -0.288 OA
ENDROOT
BRANCH   1   2
ATOM      2  CAR C68 d   1      18.181  44.777  43.270  0.00  0.00     0.362 C 
ATOM      3  N   C68 d   1      16.996  45.240  42.853  0.00  0.00    -0.322 N 
ATOM      4  H6  C68 d   1      16.601  46.043  43.299  0.00  0.00     0.165 HD
ATOM      5  OAF C68 d   1      18.654  43.756  42.771  0.00  0.00    -0.238 OA
BRANCH   3   6
ATOM      6  CA  C68 d   1      16.264  44.596  41.756  0.00  0.00     0.099 C 
ATOM      7  H5  C68 d   1      16.060  43.549  42.025  0.00  0.00     0.089 H 
BRANCH   6   8
ATOM      8  CB  C68 d   1      14.913  45.323  41.482  0.00  0.00    -0.028 C 
ATOM      9  H3  C68 d   1      14.381  44.808  40.669  0.00  0.00     0.037 H 
ATOM     10  H4  C68 d   1      14.297  45.303  42.394  0.00  0.00     0.037 H 
BRANCH   8  11
ATOM     11  CG  C68 d   1      15.173  46.780  41.076  0.00  0.00     0.018 C 
ATOM     12  H1  C68 d   1      15.594  47.316  41.939  0.00  0.00     0.049 H 
ATOM     13  H2  C68 d   1      15.898  46.791  40.248  0.00  0.00     0.049 H 
BRANCH  11  14
ATOM     14  CD  C68 d   1      13.891  47.506  40.620  0.00  0.00     0.172 C 
ATOM     15  OE1 C68 d   1      13.817  48.701  40.908  0.00  0.00    -0.648 OA
ATOM     16  OE2 C68 d   1      13.074  46.900  39.896  0.00  0.00    -0.648 OA
ENDBRANCH  11  14
ENDBRANCH   8  11
ENDBRANCH   6   8
BRANCH   6  17
ATOM     17  C   C68 d   1      17.132  44.639  40.486  0.00  0.00     0.196 C 
ATOM     18  OXT C68 d   1      18.087  45.463  40.424  0.00  0.00    -0.646 OA
ATOM     19  O   C68 d   1      16.853  43.779  39.630  0.00  0.00    -0.646 OA
ENDBRANCH   6  17
ENDBRANCH   3   6
ENDBRANCH   1   2
BRANCH   1  20
ATOM     20  CAU C68 d   1      20.165  45.298  44.590  0.00  0.00     0.133 C 
ATOM     21  H7  C68 d   1      20.469  44.242  44.539  0.00  0.00     0.101 H 
BRANCH  20  22
ATOM     22  CAQ C68 d   1      20.304  45.833  46.024  0.00  0.00     0.203 C 
ATOM     23  OAI C68 d   1      19.858  46.988  46.245  0.00  0.00    -0.646 OA
ATOM     24  OAE C68 d   1      20.811  45.055  46.862  0.00  0.00    -0.646 OA
ENDBRANCH  20  22
BRANCH  20  25
ATOM     25  CAL C68 d   1      20.982  46.130  43.594  0.00  0.00    -0.028 C 
ATOM     26  H8  C68 d   1      20.564  47.147  43.559  0.00  0.00     0.038 H 
ATOM     27  H9  C68 d   1      20.902  45.666  42.600  0.00  0.00     0.038 H 
BRANCH  25  28
ATOM     28  CAS C68 d   1      22.474  46.223  43.976  0.00  0.00    -0.058 C 
ATOM     29  H10 C68 d   1      22.569  46.717  44.954  0.00  0.00     0.039 H 
BRANCH  28  30
ATOM     30  CAB C68 d   1      23.197  47.048  42.914  0.00  0.00    -0.073 C 
ATOM     31  H11 C68 d   1      24.264  47.124  43.172  0.00  0.00     0.028 H 
ATOM     32  H12 C68 d   1      22.758  48.056  42.870  0.00  0.00     0.028 H 
ATOM     33  H13 C68 d   1      23.091  46.559  41.934  0.00  0.00     0.028 H 
ENDBRANCH  28  30
BRANCH  28  34
ATOM     34  CAA C68 d   1      23.108  44.824  44.055  0.00  0.00    -0.073 C 
ATOM     35  H14 C68 d   1      22.588  44.228  44.820  0.00  0.00     0.028 H 
ATOM     36  H15 C68 d   1      24.171  44.918  44.323  0.00  0.00     0.028 H 
ATOM     37  H16 C68 d   1      23.019  44.325  43.079  0.00  0.00     0.028 H 
ENDBRANCH  28  34
ENDBRANCH  25  28
ENDBRANCH  20  25
ENDBRANCH   1  20
TORSDOF 12
