REMARK  8 active torsions:
REMARK  status: ('A' for Active; 'I' for Inactive)
REMARK    1  A    between atoms: N12_2  and  C13_3 
REMARK    2  A    between atoms: C13_3  and  C14_20 
REMARK    3  A    between atoms: O02_11  and  C01_10 
REMARK    4  A    between atoms: C03_12  and  O02_11 
REMARK    5  A    between atoms: C05_14  and  C04_13 
REMARK    6  A    between atoms: C07_16  and  C05_14 
REMARK    7  A    between atoms: C08_17  and  C07_16 
REMARK    8  A    between atoms: C08_17  and  C09_18 
ROOT
ATOM      1  C10 C6K d   1      -4.975  -2.511  52.540  0.00  0.00    -0.039 C 
ATOM      2  N12 C6K d   1      -4.176  -3.703  54.588  0.00  0.00    -0.067 N 
ATOM      3  C20 C6K d   1      -5.501  -3.697  55.086  0.00  0.00     0.084 C 
ATOM      4  C21 C6K d   1      -6.420  -2.651  54.428  0.00  0.00    -0.039 C 
ATOM      5  C09 C6K d   1      -6.329  -2.655  52.976  0.00  0.00    -0.051 C 
ATOM      6  C11 C6K d   1      -4.129  -3.643  53.111  0.00  0.00     0.084 C 
ATOM      7  H1  C6K d   1      -4.579  -1.546  52.889  0.00  0.00     0.035 H 
ATOM      8  H2  C6K d   1      -4.939  -2.546  51.441  0.00  0.00     0.035 H 
ATOM      9  H3  C6K d   1      -3.690  -2.899  54.953  0.00  0.00     0.280 HD
ATOM     10  H8  C6K d   1      -5.462  -3.491  56.166  0.00  0.00     0.076 H 
ATOM     11  H9  C6K d   1      -5.937  -4.693  54.918  0.00  0.00     0.076 H 
ATOM     12  H10 C6K d   1      -6.137  -1.653  54.795  0.00  0.00     0.035 H 
ATOM     13  H11 C6K d   1      -7.460  -2.866  54.716  0.00  0.00     0.035 H 
ATOM     14  H21 C6K d   1      -6.730  -3.601  52.585  0.00  0.00     0.040 H 
ATOM     15  H22 C6K d   1      -3.085  -3.494  52.798  0.00  0.00     0.076 H 
ATOM     16  H23 C6K d   1      -4.500  -4.597  52.708  0.00  0.00     0.076 H 
ENDROOT
BRANCH   5  17
ATOM     17  C08 C6K d   1      -7.191  -1.467  52.463  0.00  0.00    -0.055 C 
ATOM     18  H19 C6K d   1      -8.222  -1.823  52.321  0.00  0.00     0.034 H 
ATOM     19  H20 C6K d   1      -7.179  -0.675  53.226  0.00  0.00     0.034 H 
BRANCH  17  20
ATOM     20  C07 C6K d   1      -6.708  -0.884  51.167  0.00  0.00    -0.005 C 
ATOM     21  H17 C6K d   1      -5.734  -1.329  50.916  0.00  0.00     0.044 H 
ATOM     22  H18 C6K d   1      -7.434  -1.122  50.376  0.00  0.00     0.044 H 
BRANCH  20  23
ATOM     23  C05 C6K d   1      -6.553   0.626  51.257  0.00  0.00     0.162 C 
ATOM     24  O06 C6K d   1      -5.469   1.146  51.006  0.00  0.00    -0.292 OA
BRANCH  23  25
ATOM     25  C04 C6K d   1      -7.692   1.505  51.629  0.00  0.00     0.046 A 
ATOM     26  C22 C6K d   1      -8.424   1.249  52.803  0.00  0.00    -0.043 A 
ATOM     27  C23 C6K d   1      -9.524   2.095  53.160  0.00  0.00     0.062 A 
ATOM     28  H12 C6K d   1      -8.156   0.412  53.437  0.00  0.00     0.087 H 
ATOM     29 CL   C6K d   1     -10.416   1.753  54.588  0.00  0.00    -0.082 Cl
ATOM     30  C25 C6K d   1      -9.891   3.251  52.317  0.00  0.00     0.067 A 
ATOM     31  N26 C6K d   1     -10.883   4.189  52.465  0.00  0.00    -0.364 N 
ATOM     32  C29 C6K d   1      -9.178   3.514  51.179  0.00  0.00     0.028 A 
ATOM     33  C27 C6K d   1     -10.811   5.054  51.419  0.00  0.00    -0.021 A 
ATOM     34  H27 C6K d   1     -11.565   4.230  53.236  0.00  0.00     0.165 HD
ATOM     35  C28 C6K d   1      -9.778   4.685  50.593  0.00  0.00    -0.053 A 
ATOM     36  H28 C6K d   1     -11.470   5.907  51.261  0.00  0.00     0.111 H 
ATOM     37  H13 C6K d   1      -9.472   5.181  49.673  0.00  0.00     0.087 H 
ATOM     38  C03 C6K d   1      -8.015   2.608  50.793  0.00  0.00     0.094 A 
BRANCH  38  39
ATOM     39  O02 C6K d   1      -7.231   2.847  49.633  0.00  0.00    -0.354 OA
BRANCH  39  40
ATOM     40  C01 C6K d   1      -7.345   1.925  48.514  0.00  0.00     0.010 C 
ATOM     41  H14 C6K d   1      -6.678   2.249  47.702  0.00  0.00     0.066 H 
ATOM     42  H15 C6K d   1      -8.384   1.914  48.152  0.00  0.00     0.066 H 
ATOM     43  H16 C6K d   1      -7.060   0.914  48.841  0.00  0.00     0.066 H 
ENDBRANCH  39  40
ENDBRANCH  38  39
ENDBRANCH  23  25
ENDBRANCH  20  23
ENDBRANCH  17  20
ENDBRANCH   5  17
BRANCH   2  44
ATOM     44  C13 C6K d   1      -3.629  -4.710  54.981  0.00  0.00     0.107 C 
ATOM     45  H4  C6K d   1      -3.875  -5.538  54.300  0.00  0.00     0.083 H 
ATOM     46  H5  C6K d   1      -3.996  -4.944  55.991  0.00  0.00     0.083 H 
BRANCH  44  47
ATOM     47  C14 C6K d   1      -2.057  -4.539  55.033  0.00  0.00    -0.033 A 
ATOM     48  C15 C6K d   1      -1.494  -3.813  56.020  0.00  0.00    -0.075 A 
ATOM     49  C16 C6K d   1      -0.113  -3.659  56.071  0.00  0.00    -0.082 A 
ATOM     50  H6  C6K d   1      -2.119  -3.349  56.775  0.00  0.00     0.084 H 
ATOM     51  C17 C6K d   1       0.679  -4.267  55.114  0.00  0.00    -0.083 A 
ATOM     52  H24 C6K d   1       0.340  -3.066  56.857  0.00  0.00     0.083 H 
ATOM     53  C18 C6K d   1       0.101  -5.022  54.102  0.00  0.00    -0.082 A 
ATOM     54  H7  C6K d   1       1.756  -4.154  55.154  0.00  0.00     0.083 H 
ATOM     55  C19 C6K d   1      -1.234  -5.167  54.048  0.00  0.00    -0.075 A 
ATOM     56  H25 C6K d   1       0.728  -5.495  53.355  0.00  0.00     0.083 H 
ATOM     57  H26 C6K d   1      -1.685  -5.759  53.260  0.00  0.00     0.084 H 
ENDBRANCH  44  47
ENDBRANCH   2  44
TORSDOF 8
