REMARK  8 active torsions:
REMARK  status: ('A' for Active; 'I' for Inactive)
REMARK    1  A    between atoms: C01_1  and  O02_2 
REMARK    2  A    between atoms: O02_2  and  C03_3 
REMARK    3  A    between atoms: C04_4  and  C05_5 
REMARK    4  A    between atoms: C05_5  and  C07_7 
REMARK    5  A    between atoms: C07_7  and  C08_8 
REMARK    6  A    between atoms: C08_8  and  C09_9 
REMARK    7  A    between atoms: N12_12  and  C13_13 
REMARK    8  A    between atoms: C13_13  and  C14_14 
ROOT
ATOM      1  C09 C6H d   1      -5.168  -1.943  52.904  0.00  0.00    -0.051 C 
ATOM      2  C10 C6H d   1      -5.925  -2.374  54.062  0.00  0.00    -0.039 C 
ATOM      3  C11 C6H d   1      -5.196  -3.206  55.100  0.00  0.00     0.084 C 
ATOM      4  N12 C6H d   1      -4.023  -3.946  54.647  0.00  0.00    -0.071 N 
ATOM      5  C20 C6H d   1      -4.035  -4.116  53.214  0.00  0.00     0.084 C 
ATOM      6  C21 C6H d   1      -4.115  -2.838  52.433  0.00  0.00    -0.039 C 
ATOM      7  H8  C6H d   1      -4.698  -0.980  53.153  0.00  0.00     0.040 H 
ATOM      8  H9  C6H d   1      -6.775  -2.970  53.698  0.00  0.00     0.035 H 
ATOM      9  H10 C6H d   1      -6.300  -1.471  54.566  0.00  0.00     0.035 H 
ATOM     10  H11 C6H d   1      -5.913  -3.935  55.505  0.00  0.00     0.076 H 
ATOM     11  H12 C6H d   1      -4.871  -2.527  55.902  0.00  0.00     0.076 H 
ATOM     12  H13 C6H d   1      -4.088  -4.873  55.037  0.00  0.00     0.279 HD
ATOM     13  H27 C6H d   1      -4.905  -4.734  52.949  0.00  0.00     0.076 H 
ATOM     14  H28 C6H d   1      -3.112  -4.638  52.923  0.00  0.00     0.076 H 
ATOM     15  H29 C6H d   1      -3.150  -2.317  52.515  0.00  0.00     0.035 H 
ATOM     16  H30 C6H d   1      -4.310  -3.084  51.379  0.00  0.00     0.035 H 
ENDROOT
BRANCH   1  17
ATOM     17  C08 C6H d   1      -6.225  -1.731  51.677  0.00  0.00    -0.055 C 
ATOM     18  H6  C6H d   1      -5.715  -1.271  50.818  0.00  0.00     0.034 H 
ATOM     19  H7  C6H d   1      -6.650  -2.700  51.376  0.00  0.00     0.034 H 
BRANCH  17  20
ATOM     20  C07 C6H d   1      -7.348  -0.797  52.187  0.00  0.00    -0.005 C 
ATOM     21  H4  C6H d   1      -8.324  -1.182  51.856  0.00  0.00     0.044 H 
ATOM     22  H5  C6H d   1      -7.322  -0.758  53.286  0.00  0.00     0.044 H 
BRANCH  20  23
ATOM     23  C05 C6H d   1      -7.135   0.608  51.622  0.00  0.00     0.162 C 
ATOM     24  O06 C6H d   1      -6.106   0.810  50.981  0.00  0.00    -0.292 OA
BRANCH  23  25
ATOM     25  C04 C6H d   1      -8.242   1.730  51.859  0.00  0.00     0.046 A 
ATOM     26  C03 C6H d   1      -9.074   1.764  52.996  0.00  0.00     0.094 A 
ATOM     27  C29 C6H d   1     -10.064   2.801  53.137  0.00  0.00     0.028 A 
ATOM     28  C25 C6H d   1     -10.230   3.780  52.155  0.00  0.00     0.067 A 
ATOM     29  C28 C6H d   1     -11.040   3.113  54.182  0.00  0.00    -0.053 A 
ATOM     30  C23 C6H d   1      -9.413   3.753  50.994  0.00  0.00     0.062 A 
ATOM     31  N26 C6H d   1     -11.224   4.634  52.535  0.00  0.00    -0.364 N 
ATOM     32  C22 C6H d   1      -8.426   2.726  50.892  0.00  0.00    -0.043 A 
ATOM     33 CL   C6H d   1      -9.577   4.960  49.726  0.00  0.00    -0.082 Cl
ATOM     34  H31 C6H d   1      -7.784   2.717  50.018  0.00  0.00     0.087 H 
ATOM     35  C27 C6H d   1     -11.714   4.276  53.711  0.00  0.00    -0.021 A 
ATOM     36  H32 C6H d   1     -11.547   5.442  51.985  0.00  0.00     0.165 HD
ATOM     37  H33 C6H d   1     -12.513   4.793  54.240  0.00  0.00     0.111 H 
ATOM     38  H34 C6H d   1     -11.213   2.575  55.113  0.00  0.00     0.087 H 
BRANCH  26  39
ATOM     39  O02 C6H d   1      -8.967   0.805  54.002  0.00  0.00    -0.354 OA
BRANCH  39  40
ATOM     40  C01 C6H d   1      -8.339   1.247  55.123  0.00  0.00     0.010 C 
ATOM     41  H1  C6H d   1      -8.296   0.435  55.864  0.00  0.00     0.066 H 
ATOM     42  H2  C6H d   1      -8.895   2.098  55.544  0.00  0.00     0.066 H 
ATOM     43  H3  C6H d   1      -7.317   1.566  54.869  0.00  0.00     0.066 H 
ENDBRANCH  39  40
ENDBRANCH  26  39
ENDBRANCH  23  25
ENDBRANCH  20  23
ENDBRANCH  17  20
ENDBRANCH   1  17
BRANCH   4  44
ATOM     44  C13 C6H d   1      -3.011  -3.451  55.115  0.00  0.00     0.087 C 
ATOM     45  H14 C6H d   1      -3.114  -3.497  56.209  0.00  0.00     0.076 H 
ATOM     46  H15 C6H d   1      -2.996  -2.400  54.792  0.00  0.00     0.076 H 
BRANCH  44  47
ATOM     47  C14 C6H d   1      -1.625  -4.037  54.777  0.00  0.00    -0.031 C 
ATOM     48  C15 C6H d   1      -0.644  -3.527  55.824  0.00  0.00    -0.060 C 
ATOM     49  C16 C6H d   1       0.795  -3.902  55.477  0.00  0.00    -0.065 C 
ATOM     50  H17 C6H d   1      -0.902  -3.966  56.799  0.00  0.00     0.033 H 
ATOM     51  H18 C6H d   1      -0.723  -2.431  55.883  0.00  0.00     0.033 H 
ATOM     52  C17 C6H d   1       0.944  -5.400  55.208  0.00  0.00    -0.065 C 
ATOM     53  H19 C6H d   1       1.448  -3.625  56.318  0.00  0.00     0.033 H 
ATOM     54  H20 C6H d   1       1.100  -3.347  54.578  0.00  0.00     0.033 H 
ATOM     55  C18 C6H d   1      -0.119  -5.948  54.253  0.00  0.00    -0.065 C 
ATOM     56  H21 C6H d   1       0.865  -5.937  56.165  0.00  0.00     0.033 H 
ATOM     57  H22 C6H d   1       1.936  -5.580  54.768  0.00  0.00     0.033 H 
ATOM     58  C19 C6H d   1      -1.509  -5.576  54.749  0.00  0.00    -0.060 C 
ATOM     59  H23 C6H d   1      -0.032  -7.043  54.202  0.00  0.00     0.033 H 
ATOM     60  H24 C6H d   1       0.036  -5.520  53.252  0.00  0.00     0.033 H 
ATOM     61  H25 C6H d   1      -2.268  -5.993  54.071  0.00  0.00     0.033 H 
ATOM     62  H26 C6H d   1      -1.661  -5.978  55.762  0.00  0.00     0.033 H 
ATOM     63  H16 C6H d   1      -1.335  -3.661  53.785  0.00  0.00     0.042 H 
ENDBRANCH  44  47
ENDBRANCH   4  44
TORSDOF 8
