REMARK WARNING: 32 MAX_TORS EXCEEDED!!!
REMARK  43 active torsions:
REMARK  status: ('A' for Active; 'I' for Inactive)
REMARK    1  A    between atoms: N_1  and  CA_2 
REMARK    2  A    between atoms: CA_2  and  C_3 
REMARK       I    between atoms: C_3  and  N_5 
REMARK    3  A    between atoms: N_5  and  CA_6 
REMARK    4  A    between atoms: CA_6  and  C_7 
REMARK    5  A    between atoms: CA_6  and  CB_9 
REMARK       I    between atoms: C_7  and  N_11 
REMARK    6  A    between atoms: CB_9  and  CG_10 
REMARK    7  A    between atoms: N_11  and  CA_12 
REMARK    8  A    between atoms: CA_12  and  C_13 
REMARK    9  A    between atoms: CA_12  and  CB_15 
REMARK       I    between atoms: C_13  and  N_18 
REMARK   10  A    between atoms: CB_15  and  OG1_16 
REMARK   11  A    between atoms: CB_15  and  CG2_17 
REMARK   12  A    between atoms: N_18  and  CA_19 
REMARK   13  A    between atoms: CA_19  and  C_20 
REMARK   14  A    between atoms: CA_19  and  CB_22 
REMARK       I    between atoms: C_20  and  N_27 
REMARK   15  A    between atoms: CB_22  and  CG_23 
REMARK   16  A    between atoms: CG_23  and  CD_24 
REMARK   17  A    between atoms: CD_24  and  CE_25 
REMARK   18  A    between atoms: CE_25  and  NZ_26 
REMARK   19  A    between atoms: N_27  and  CA_28 
REMARK   20  A    between atoms: CA_28  and  C_29 
REMARK   21  A    between atoms: CA_28  and  CB_31 
REMARK       I    between atoms: C_29  and  N_36 
REMARK   22  A    between atoms: CB_31  and  CG_32 
REMARK   23  A    between atoms: CG_32  and  CD_33 
REMARK   24  A    between atoms: CD_33  and  CE_34 
REMARK   25  A    between atoms: CE_34  and  NZ_35 
REMARK   26  A    between atoms: N_36  and  CA_37 
REMARK   27  A    between atoms: CA_37  and  C_38 
REMARK   28  A    between atoms: CA_37  and  CB_40 
REMARK       I    between atoms: C_38  and  N_43 
REMARK   29  A    between atoms: CB_40  and  OG1_41 
REMARK   30  A    between atoms: CB_40  and  CG2_42 
REMARK   31  A    between atoms: N_43  and  CA_44 
REMARK   32  A    between atoms: CA_44  and  C_45 
REMARK   33  A    between atoms: CA_44  and  CB_47 
REMARK       I    between atoms: C_45  and  N_52 
REMARK   34  A    between atoms: CB_47  and  CG_48 
REMARK   35  A    between atoms: CG_48  and  CD_49 
REMARK   36  A    between atoms: CD_49  and  CE_50 
REMARK   37  A    between atoms: CE_50  and  NZ_51 
REMARK   38  A    between atoms: N_52  and  CA_53 
REMARK   39  A    between atoms: CA_53  and  C_54 
REMARK   40  A    between atoms: CA_53  and  CB_56 
REMARK   41  A    between atoms: CB_56  and  CG_57 
REMARK   42  A    between atoms: CG_57  and  CD1_58 
REMARK   43  A    between atoms: CG_57  and  CD2_59 
ROOT
ATOM      1  CA  LYS d   1      11.704  22.984  80.336  0.00  0.00     0.089 C 
ATOM      2  H34 LYS d   1      12.291  22.264  79.747  0.00  0.00     0.087 H 
ENDROOT
BRANCH   1   3
ATOM      3  N   LYS d   1      10.867  23.757  79.429  0.00  0.00    -0.346 N 
ATOM      4  C   LYS d   1      11.130  23.843  78.124  0.00  0.00     0.241 C 
ATOM      5  O   LYS d   1      12.078  23.263  77.590  0.00  0.00    -0.271 OA
ATOM      6  H33 LYS d   1      10.071  24.238  79.796  0.00  0.00     0.163 HD
BRANCH   4   7
ATOM      7  CA  LYS d   1      10.197  24.724  77.305  0.00  0.00     0.089 C 
ATOM      8  H21 LYS d   1       9.666  25.414  77.977  0.00  0.00     0.087 H 
BRANCH   7   9
ATOM      9  N   LYS d   1      10.987  25.498  76.360  0.00  0.00    -0.346 N 
ATOM     10  C   THR d   1      11.405  26.736  76.614  0.00  0.00     0.243 C 
ATOM     11  O   THR d   1      11.010  27.407  77.573  0.00  0.00    -0.271 OA
ATOM     12  H20 LYS d   1      11.226  25.082  75.482  0.00  0.00     0.163 HD
BRANCH  10  13
ATOM     13  CA  THR d   1      12.410  27.318  75.633  0.00  0.00     0.113 C 
ATOM     14  H14 THR d   1      12.460  26.668  74.747  0.00  0.00     0.091 H 
BRANCH  13  15
ATOM     15  N   THR d   1      11.975  28.643  75.214  0.00  0.00    -0.344 N 
ATOM     16  C   GLU d   1      11.503  28.895  73.997  0.00  0.00     0.241 C 
ATOM     17  O   GLU d   1      11.359  28.020  73.135  0.00  0.00    -0.271 OA
ATOM     18  H13 THR d   1      12.034  29.396  75.870  0.00  0.00     0.163 HD
BRANCH  16  19
ATOM     19  CA  GLU d   1      11.140  30.345  73.697  0.00  0.00     0.089 C 
ATOM     20  H7  GLU d   1      11.441  30.968  74.552  0.00  0.00     0.087 H 
BRANCH  19  21
ATOM     21  N   GLU d   1      11.868  30.789  72.514  0.00  0.00    -0.346 N 
ATOM     22  C   LEU d   1      13.112  31.258  72.580  0.00  0.00     0.243 C 
ATOM     23  O   LEU d   1      13.743  31.336  73.635  0.00  0.00    -0.272 OA
ATOM     24  H6  GLU d   1      11.417  30.739  71.623  0.00  0.00     0.163 HD
BRANCH  22  25
ATOM     25  CA  LEU d   1      13.740  31.703  71.261  0.00  0.00     0.152 C 
ATOM     26  H4  LEU d   1      14.826  31.810  71.398  0.00  0.00     0.090 H 
ATOM     27  H5  LEU d   1      13.540  30.941  70.493  0.00  0.00     0.090 H 
BRANCH  25  28
ATOM     28  N   LEU d   1      13.187  32.979  70.822  0.00  0.00    -0.071 N 
ATOM     29  H1  LEU d   1      13.617  33.250  69.951  0.00  0.00     0.274 HD
ATOM     30  H2  LEU d   1      13.370  33.683  71.520  0.00  0.00     0.274 HD
ATOM     31  H3  LEU d   1      12.192  32.887  70.691  0.00  0.00     0.274 HD
ENDBRANCH  25  28
ENDBRANCH  22  25
ENDBRANCH  19  21
BRANCH  19  32
ATOM     32  CB  GLU d   1       9.632  30.497  73.495  0.00  0.00    -0.041 C 
ATOM     33  H8  GLU d   1       9.313  29.779  72.725  0.00  0.00     0.036 H 
ATOM     34  H9  GLU d   1       9.432  31.521  73.147  0.00  0.00     0.036 H 
BRANCH  32  35
ATOM     35  CG  GLU d   1       8.804  30.249  74.750  0.00  0.00    -0.074 C 
ATOM     36  H10 GLU d   1       7.737  30.378  74.517  0.00  0.00     0.027 H 
ATOM     37  H11 GLU d   1       9.098  30.966  75.531  0.00  0.00     0.027 H 
ATOM     38  H12 GLU d   1       8.979  29.224  75.108  0.00  0.00     0.027 H 
ENDBRANCH  32  35
ENDBRANCH  19  32
ENDBRANCH  16  19
ENDBRANCH  13  15
BRANCH  13  39
ATOM     39  CB  THR d   1      13.797  27.369  76.278  0.00  0.00     0.060 C 
ATOM     40  H15 THR d   1      13.748  27.988  77.186  0.00  0.00     0.086 H 
BRANCH  39  41
ATOM     41  OG1 THR d   1      14.732  27.948  75.360  0.00  0.00    -0.393 OA
ATOM     42  H16 THR d   1      14.453  28.829  75.139  0.00  0.00     0.210 HD
ENDBRANCH  39  41
BRANCH  39  43
ATOM     43  CG2 THR d   1      14.266  25.969  76.653  0.00  0.00    -0.050 C 
ATOM     44  H17 THR d   1      15.263  26.028  77.114  0.00  0.00     0.031 H 
ATOM     45  H18 THR d   1      14.316  25.345  75.749  0.00  0.00     0.031 H 
ATOM     46  H19 THR d   1      13.557  25.524  77.367  0.00  0.00     0.031 H 
ENDBRANCH  39  43
ENDBRANCH  13  39
ENDBRANCH  10  13
ENDBRANCH   7   9
BRANCH   7  47
ATOM     47  CB  LYS d   1       9.169  23.852  76.579  0.00  0.00    -0.038 C 
ATOM     48  H22 LYS d   1       8.518  23.392  77.337  0.00  0.00     0.036 H 
ATOM     49  H23 LYS d   1       9.713  23.065  76.037  0.00  0.00     0.036 H 
BRANCH  47  50
ATOM     50  CG  LYS d   1       8.285  24.584  75.582  0.00  0.00    -0.061 C 
ATOM     51  H24 LYS d   1       8.917  25.186  74.913  0.00  0.00     0.033 H 
ATOM     52  H25 LYS d   1       7.595  25.244  76.127  0.00  0.00     0.033 H 
BRANCH  50  53
ATOM     53  CD  LYS d   1       7.478  23.592  74.751  0.00  0.00    -0.043 C 
ATOM     54  H26 LYS d   1       6.815  23.023  75.419  0.00  0.00     0.035 H 
ATOM     55  H27 LYS d   1       8.170  22.902  74.246  0.00  0.00     0.035 H 
BRANCH  53  56
ATOM     56  CE  LYS d   1       6.639  24.296  73.709  0.00  0.00     0.080 C 
ATOM     57  H28 LYS d   1       7.304  24.779  72.978  0.00  0.00     0.075 H 
ATOM     58  H29 LYS d   1       6.020  25.060  74.202  0.00  0.00     0.075 H 
BRANCH  56  59
ATOM     59  NZ  LYS d   1       5.756  23.338  73.003  0.00  0.00    -0.079 N 
ATOM     60  H30 LYS d   1       5.208  23.830  72.315  0.00  0.00     0.274 HD
ATOM     61  H31 LYS d   1       5.141  22.895  73.668  0.00  0.00     0.274 HD
ATOM     62  H32 LYS d   1       6.318  22.637  72.546  0.00  0.00     0.274 HD
ENDBRANCH  56  59
ENDBRANCH  53  56
ENDBRANCH  50  53
ENDBRANCH  47  50
ENDBRANCH   7  47
ENDBRANCH   4   7
ENDBRANCH   1   3
BRANCH   1  63
ATOM     63  C   LYS d   1      10.816  22.222  81.307  0.00  0.00     0.241 C 
ATOM     64  O   LYS d   1       9.830  22.767  81.811  0.00  0.00    -0.271 OA
ATOM     65  N   THR d   1      11.173  20.965  81.572  0.00  0.00    -0.344 N 
ATOM     66  H46 THR d   1      11.956  20.574  81.089  0.00  0.00     0.163 HD
BRANCH  65  67
ATOM     67  CA  THR d   1      10.460  20.141  82.542  0.00  0.00     0.113 C 
ATOM     68  H47 THR d   1       9.920  20.803  83.235  0.00  0.00     0.091 H 
BRANCH  67  69
ATOM     69  C   THR d   1      11.453  19.302  83.332  0.00  0.00     0.243 C 
ATOM     70  O   THR d   1      12.257  18.573  82.745  0.00  0.00    -0.271 OA
ATOM     71  N   LYS d   1      11.407  19.413  84.660  0.00  0.00    -0.346 N 
ATOM     72  H53 LYS d   1      10.813  20.099  85.080  0.00  0.00     0.163 HD
BRANCH  71  73
ATOM     73  CA  LYS d   1      12.216  18.543  85.504  0.00  0.00     0.089 C 
ATOM     74  H54 LYS d   1      13.235  18.500  85.093  0.00  0.00     0.087 H 
BRANCH  73  75
ATOM     75  C   LYS d   1      11.629  17.136  85.509  0.00  0.00     0.241 C 
ATOM     76  O   LYS d   1      10.426  16.957  85.725  0.00  0.00    -0.271 OA
ATOM     77  N   LEU d   1      12.475  16.138  85.258  0.00  0.00    -0.345 N 
ATOM     78  H66 LEU d   1      13.441  16.347  85.103  0.00  0.00     0.163 HD
BRANCH  77  79
ATOM     79  CA  LEU d   1      12.032  14.743  85.202  0.00  0.00     0.096 C 
ATOM     80  H67 LEU d   1      10.968  14.718  85.479  0.00  0.00     0.089 H 
BRANCH  79  81
ATOM     81  C   LEU d   1      12.795  13.838  86.172  0.00  0.00     0.196 C 
ATOM     82  O   LEU d   1      12.298  12.762  86.519  0.00  0.00    -0.646 OA
ATOM     83  OXT LEU d   1      13.909  14.136  86.629  0.00  0.00    -0.646 OA
ENDBRANCH  79  81
BRANCH  79  84
ATOM     84  CB  LEU d   1      12.176  14.191  83.783  0.00  0.00    -0.034 C 
ATOM     85  H68 LEU d   1      11.990  13.107  83.815  0.00  0.00     0.037 H 
ATOM     86  H69 LEU d   1      13.206  14.377  83.445  0.00  0.00     0.037 H 
BRANCH  84  87
ATOM     87  CG  LEU d   1      11.221  14.809  82.765  0.00  0.00    -0.059 C 
ATOM     88  H70 LEU d   1      11.359  15.900  82.770  0.00  0.00     0.038 H 
BRANCH  87  89
ATOM     89  CD1 LEU d   1      11.502  14.296  81.371  0.00  0.00    -0.073 C 
ATOM     90  H71 LEU d   1      10.800  14.758  80.662  0.00  0.00     0.028 H 
ATOM     91  H72 LEU d   1      11.378  13.203  81.350  0.00  0.00     0.028 H 
ATOM     92  H73 LEU d   1      12.533  14.553  81.086  0.00  0.00     0.028 H 
ENDBRANCH  87  89
BRANCH  87  93
ATOM     93  CD2 LEU d   1       9.798  14.496  83.160  0.00  0.00    -0.073 C 
ATOM     94  H74 LEU d   1       9.608  14.874  84.175  0.00  0.00     0.028 H 
ATOM     95  H75 LEU d   1       9.643  13.407  83.139  0.00  0.00     0.028 H 
ATOM     96  H76 LEU d   1       9.107  14.978  82.453  0.00  0.00     0.028 H 
ENDBRANCH  87  93
ENDBRANCH  84  87
ENDBRANCH  79  84
ENDBRANCH  77  79
ENDBRANCH  73  75
BRANCH  73  97
ATOM     97  CB  LYS d   1      12.286  19.098  86.931  0.00  0.00    -0.038 C 
ATOM     98  H55 LYS d   1      11.265  19.131  87.340  0.00  0.00     0.036 H 
ATOM     99  H56 LYS d   1      12.697  20.117  86.886  0.00  0.00     0.036 H 
BRANCH  97 100
ATOM    100  CG  LYS d   1      13.152  18.274  87.871  0.00  0.00    -0.061 C 
ATOM    101  H57 LYS d   1      14.200  18.343  87.543  0.00  0.00     0.033 H 
ATOM    102  H58 LYS d   1      12.824  17.225  87.830  0.00  0.00     0.033 H 
BRANCH 100 103
ATOM    103  CD  LYS d   1      13.050  18.772  89.322  0.00  0.00    -0.043 C 
ATOM    104  H59 LYS d   1      13.659  18.119  89.965  0.00  0.00     0.035 H 
ATOM    105  H60 LYS d   1      11.998  18.723  89.641  0.00  0.00     0.035 H 
BRANCH 103 106
ATOM    106  CE  LYS d   1      13.541  20.201  89.472  0.00  0.00     0.080 C 
ATOM    107  H61 LYS d   1      12.947  20.859  88.820  0.00  0.00     0.075 H 
ATOM    108  H62 LYS d   1      14.600  20.253  89.179  0.00  0.00     0.075 H 
BRANCH 106 109
ATOM    109  NZ  LYS d   1      13.399  20.655  90.892  0.00  0.00    -0.079 N 
ATOM    110  H63 LYS d   1      13.729  21.604  90.976  0.00  0.00     0.274 HD
ATOM    111  H64 LYS d   1      13.944  20.056  91.492  0.00  0.00     0.274 HD
ATOM    112  H65 LYS d   1      12.429  20.611  91.163  0.00  0.00     0.274 HD
ENDBRANCH 106 109
ENDBRANCH 103 106
ENDBRANCH 100 103
ENDBRANCH  97 100
ENDBRANCH  73  97
ENDBRANCH  71  73
ENDBRANCH  67  69
BRANCH  67 113
ATOM    113  CB  THR d   1       9.447  19.221  81.856  0.00  0.00     0.060 C 
ATOM    114  H48 THR d   1       9.983  18.533  81.185  0.00  0.00     0.086 H 
BRANCH 113 115
ATOM    115  OG1 THR d   1       8.527  20.005  81.088  0.00  0.00    -0.393 OA
ATOM    116  H49 THR d   1       9.004  20.496  80.429  0.00  0.00     0.210 HD
ENDBRANCH 113 115
BRANCH 113 117
ATOM    117  CG2 THR d   1       8.688  18.410  82.896  0.00  0.00    -0.050 C 
ATOM    118  H50 THR d   1       7.964  17.753  82.392  0.00  0.00     0.031 H 
ATOM    119  H51 THR d   1       8.154  19.092  83.575  0.00  0.00     0.031 H 
ATOM    120  H52 THR d   1       9.397  17.799  83.473  0.00  0.00     0.031 H 
ENDBRANCH 113 117
ENDBRANCH  67 113
ENDBRANCH  65  67
ENDBRANCH   1  63
BRANCH   1 121
ATOM    121  CB  LYS d   1      12.678  23.890  81.116  0.00  0.00    -0.038 C 
ATOM    122  H35 LYS d   1      13.337  23.249  81.720  0.00  0.00     0.036 H 
ATOM    123  H36 LYS d   1      12.089  24.539  81.780  0.00  0.00     0.036 H 
BRANCH 121 124
ATOM    124  CG  LYS d   1      13.552  24.777  80.230  0.00  0.00    -0.061 C 
ATOM    125  H37 LYS d   1      12.902  25.468  79.673  0.00  0.00     0.033 H 
ATOM    126  H38 LYS d   1      14.098  24.137  79.522  0.00  0.00     0.033 H 
BRANCH 124 127
ATOM    127  CD  LYS d   1      14.561  25.594  81.026  0.00  0.00    -0.043 C 
ATOM    128  H39 LYS d   1      15.253  24.911  81.540  0.00  0.00     0.035 H 
ATOM    129  H40 LYS d   1      14.026  26.202  81.770  0.00  0.00     0.035 H 
BRANCH 127 130
ATOM    130  CE  LYS d   1      15.358  26.516  80.106  0.00  0.00     0.080 C 
ATOM    131  H41 LYS d   1      14.661  27.217  79.624  0.00  0.00     0.075 H 
ATOM    132  H42 LYS d   1      15.851  25.902  79.337  0.00  0.00     0.075 H 
BRANCH 130 133
ATOM    133  NZ  LYS d   1      16.400  27.302  80.824  0.00  0.00    -0.079 N 
ATOM    134  H43 LYS d   1      16.890  27.889  80.167  0.00  0.00     0.274 HD
ATOM    135  H44 LYS d   1      17.053  26.672  81.264  0.00  0.00     0.274 HD
ATOM    136  H45 LYS d   1      15.962  27.877  81.527  0.00  0.00     0.274 HD
ENDBRANCH 130 133
ENDBRANCH 127 130
ENDBRANCH 124 127
ENDBRANCH 121 124
ENDBRANCH   1 121
TORSDOF 43
