REMARK WARNING: 32 MAX_TORS EXCEEDED!!!
REMARK  35 active torsions:
REMARK  status: ('A' for Active; 'I' for Inactive)
REMARK    1  A    between atoms: N_1  and  CA_2 
REMARK    2  A    between atoms: CA_2  and  C_3 
REMARK    3  A    between atoms: CA_2  and  CB_5 
REMARK       I    between atoms: C_3  and  N_12 
REMARK    4  A    between atoms: CB_5  and  CG_6 
REMARK    5  A    between atoms: CG_6  and  CD_7 
REMARK    6  A    between atoms: CD_7  and  NE_8 
REMARK       I    between atoms: NE_8  and  CZ_9 
REMARK       I    between atoms: CZ_9  and  NH1_10 
REMARK       I    between atoms: CZ_9  and  NH2_11 
REMARK    7  A    between atoms: N_12  and  CA_13 
REMARK    8  A    between atoms: CA_13  and  C_14 
REMARK    9  A    between atoms: CA_13  and  CB_16 
REMARK       I    between atoms: C_14  and  N_23 
REMARK   10  A    between atoms: CB_16  and  CG_17 
REMARK   11  A    between atoms: CG_17  and  CD_18 
REMARK   12  A    between atoms: CD_18  and  NE_19 
REMARK       I    between atoms: NE_19  and  CZ_20 
REMARK       I    between atoms: CZ_20  and  NH1_21 
REMARK   13  A    between atoms: CA_24  and  C_25 
REMARK       I    between atoms: C_25  and  N_30 
REMARK   14  A    between atoms: N_30  and  CA_31 
REMARK   15  A    between atoms: CA_31  and  C_32 
REMARK   16  A    between atoms: CA_31  and  CB_34 
REMARK       I    between atoms: C_32  and  N_39 
REMARK   17  A    between atoms: CB_34  and  CG_35 
REMARK   18  A    between atoms: CG_35  and  CD_36 
REMARK   19  A    between atoms: N_39  and  CA_40 
REMARK   20  A    between atoms: CA_40  and  CB_41 
REMARK   21  A    between atoms: CA_40  and  C_43 
REMARK   22  A    between atoms: CB_41  and  OG_42 
REMARK   23  A    between atoms: OG_42  and  P_45 
REMARK       I    between atoms: C_43  and  N_49 
REMARK   24  A    between atoms: N_49  and  CA_50 
REMARK   25  A    between atoms: CA_50  and  C_51 
REMARK   26  A    between atoms: CA_50  and  CB_53 
REMARK       I    between atoms: C_51  and  N_54 
REMARK   27  A    between atoms: CA_55  and  C_56 
REMARK       I    between atoms: C_56  and  N_61 
REMARK   28  A    between atoms: N_61  and  CA_62 
REMARK   29  A    between atoms: CA_62  and  C_63 
REMARK   30  A    between atoms: CA_62  and  CB_65 
REMARK       I    between atoms: C_63  and  N_66 
REMARK   31  A    between atoms: N_66  and  CA_67 
REMARK   32  A    between atoms: CA_67  and  C_68 
REMARK   33  A    between atoms: CA_67  and  CB_70 
REMARK   34  A    between atoms: CB_70  and  CG_71 
REMARK   35  A    between atoms: CG_71  and  CD_72 
ROOT
ATOM      1  CA  GLU d   1      10.756   4.749  40.102  0.00  0.00     0.090 C 
ATOM      2  H37 GLU d   1      10.446   4.842  39.051  0.00  0.00     0.087 H 
ENDROOT
BRANCH   1   3
ATOM      3  N   GLU d   1      11.208   6.061  40.566  0.00  0.00    -0.346 N 
ATOM      4  C   PRO d   1      10.676   7.207  40.155  0.00  0.00     0.241 C 
ATOM      5  O   PRO d   1       9.892   7.317  39.198  0.00  0.00    -0.271 OA
ATOM      6  H36 GLU d   1      11.957   6.097  41.227  0.00  0.00     0.163 HD
BRANCH   4   7
ATOM      7  CA  PRO d   1      11.157   8.445  40.888  0.00  0.00     0.091 C 
ATOM      8  N   PRO d   1      10.834   9.623  40.089  0.00  0.00    -0.337 N 
ATOM      9  C   ARG d   1      11.679  10.024  39.104  0.00  0.00     0.243 C 
ATOM     10  CD  PRO d   1       9.522  10.152  40.455  0.00  0.00    -0.001 C 
ATOM     11  O   ARG d   1      12.771   9.464  38.897  0.00  0.00    -0.271 OA
ATOM     12  CG  PRO d   1       9.154   9.393  41.718  0.00  0.00    -0.048 C 
ATOM     13  H34 PRO d   1       8.788   9.962  39.658  0.00  0.00     0.064 H 
ATOM     14  H35 PRO d   1       9.578  11.233  40.652  0.00  0.00     0.064 H 
ATOM     15  CB  PRO d   1      10.352   8.672  42.165  0.00  0.00    -0.036 C 
ATOM     16  H32 PRO d   1       8.827  10.097  42.497  0.00  0.00     0.035 H 
ATOM     17  H33 PRO d   1       8.344   8.680  41.505  0.00  0.00     0.035 H 
ATOM     18  H30 PRO d   1      10.925   9.277  42.884  0.00  0.00     0.036 H 
ATOM     19  H31 PRO d   1      10.079   7.713  42.629  0.00  0.00     0.036 H 
ATOM     20  H29 PRO d   1      12.234   8.371  41.097  0.00  0.00     0.087 H 
BRANCH   9  21
ATOM     21  CA  ARG d   1      11.194  11.168  38.199  0.00  0.00     0.089 C 
ATOM     22  H17 ARG d   1      10.558  11.839  38.795  0.00  0.00     0.087 H 
BRANCH  21  23
ATOM     23  N   ARG d   1      12.315  11.923  37.699  0.00  0.00    -0.346 N 
ATOM     24  C   ARG d   1      12.865  12.880  38.443  0.00  0.00     0.248 C 
ATOM     25  O   ARG d   1      12.410  13.219  39.557  0.00  0.00    -0.271 OA
ATOM     26  H16 ARG d   1      12.681  11.727  36.789  0.00  0.00     0.163 HD
BRANCH  24  27
ATOM     27  CA  ARG d   1      14.102  13.578  37.890  0.00  0.00     0.176 C 
ATOM     28  H4  ARG d   1      14.269  13.277  36.845  0.00  0.00     0.099 H 
BRANCH  27  29
ATOM     29  N   ARG d   1      13.881  15.067  37.964  0.00  0.00    -0.067 N 
ATOM     30  H1  ARG d   1      14.691  15.545  37.602  0.00  0.00     0.275 HD
ATOM     31  H2  ARG d   1      13.733  15.337  38.924  0.00  0.00     0.275 HD
ATOM     32  H3  ARG d   1      13.072  15.314  37.416  0.00  0.00     0.275 HD
ENDBRANCH  27  29
BRANCH  27  33
ATOM     33  CB  ARG d   1      15.316  13.185  38.743  0.00  0.00    -0.029 C 
ATOM     34  H5  ARG d   1      15.190  12.135  39.045  0.00  0.00     0.036 H 
ATOM     35  H6  ARG d   1      15.321  13.826  39.637  0.00  0.00     0.036 H 
BRANCH  33  36
ATOM     36  CG  ARG d   1      16.681  13.316  38.066  0.00  0.00    -0.047 C 
ATOM     37  H7  ARG d   1      17.462  13.291  38.840  0.00  0.00     0.035 H 
ATOM     38  H8  ARG d   1      16.720  14.279  37.536  0.00  0.00     0.035 H 
BRANCH  36  39
ATOM     39  CD  ARG d   1      16.953  12.188  37.057  0.00  0.00     0.009 C 
ATOM     40  H9  ARG d   1      17.999  12.272  36.726  0.00  0.00     0.064 H 
ATOM     41  H10 ARG d   1      16.283  12.332  36.196  0.00  0.00     0.064 H 
BRANCH  39  42
ATOM     42  NE  ARG d   1      16.746  10.825  37.572  0.00  0.00    -0.227 N 
ATOM     43  CZ  ARG d   1      17.631  10.077  38.244  0.00  0.00     0.665 C 
ATOM     44  NH1 ARG d   1      18.849  10.544  38.542  0.00  0.00    -0.235 N 
ATOM     45  NH2 ARG d   1      17.284   8.833  38.664  0.00  0.00    -0.235 N 
ATOM     46  H12 ARG d   1      19.515   9.953  39.060  0.00  0.00     0.174 HD
ATOM     47  H13 ARG d   1      19.121  11.495  38.254  0.00  0.00     0.174 HD
ATOM     48  H14 ARG d   1      16.351   8.457  38.444  0.00  0.00     0.174 HD
ATOM     49  H15 ARG d   1      17.954   8.266  39.203  0.00  0.00     0.174 HD
ATOM     50  H11 ARG d   1      15.823  10.402  37.397  0.00  0.00     0.177 HD
ENDBRANCH  39  42
ENDBRANCH  36  39
ENDBRANCH  33  36
ENDBRANCH  27  33
ENDBRANCH  24  27
ENDBRANCH  21  23
BRANCH  21  51
ATOM     51  CB  ARG d   1      10.373  10.624  37.045  0.00  0.00    -0.036 C 
ATOM     52  H18 ARG d   1       9.632   9.917  37.446  0.00  0.00     0.036 H 
ATOM     53  H19 ARG d   1      11.047  10.096  36.355  0.00  0.00     0.036 H 
BRANCH  51  54
ATOM     54  CG  ARG d   1       9.648  11.691  36.280  0.00  0.00    -0.048 C 
ATOM     55  H20 ARG d   1      10.361  12.200  35.615  0.00  0.00     0.035 H 
ATOM     56  H21 ARG d   1       9.227  12.417  36.991  0.00  0.00     0.035 H 
BRANCH  54  57
ATOM     57  CD  ARG d   1       8.532  11.116  35.451  0.00  0.00     0.009 C 
ATOM     58  H22 ARG d   1       7.791  10.660  36.124  0.00  0.00     0.064 H 
ATOM     59  H23 ARG d   1       8.947  10.345  34.786  0.00  0.00     0.064 H 
BRANCH  57  60
ATOM     60  NE  ARG d   1       7.862  12.135  34.632  0.00  0.00    -0.227 N 
ATOM     61  CZ  ARG d   1       8.226  12.507  33.425  0.00  0.00     0.665 C 
ATOM     62  NH1 ARG d   1       9.303  11.963  32.833  0.00  0.00    -0.235 N 
ATOM     63  NH2 ARG d   1       7.517  13.427  32.794  0.00  0.00    -0.235 N 
ATOM     64  H25 ARG d   1       9.577  12.264  31.887  0.00  0.00     0.174 HD
ATOM     65  H26 ARG d   1       9.854  11.246  33.325  0.00  0.00     0.174 HD
ATOM     66  H27 ARG d   1       6.692  13.843  33.249  0.00  0.00     0.174 HD
ATOM     67  H28 ARG d   1       7.790  13.728  31.847  0.00  0.00     0.174 HD
ATOM     68  H24 ARG d   1       7.036  12.598  35.038  0.00  0.00     0.177 HD
ENDBRANCH  57  60
ENDBRANCH  54  57
ENDBRANCH  51  54
ENDBRANCH  21  51
ENDBRANCH   9  21
ENDBRANCH   4   7
ENDBRANCH   1   3
BRANCH   1  69
ATOM     69  C   GLU d   1       9.572   4.250  40.899  0.00  0.00     0.241 C 
ATOM     70  O   GLU d   1       9.474   4.542  42.064  0.00  0.00    -0.271 OA
ATOM     71  N   SEP d   1       8.604   3.593  40.253  0.00  0.00    -0.344 N 
ATOM     72  H42 SEP d   1       8.660   3.515  39.258  0.00  0.00     0.163 HD
BRANCH  71  73
ATOM     73  CA  SEP d   1       7.458   2.979  40.946  0.00  0.00     0.110 C 
ATOM     74  H43 SEP d   1       7.458   3.218  42.020  0.00  0.00     0.090 H 
BRANCH  73  75
ATOM     75  CB  SEP d   1       6.250   3.619  40.289  0.00  0.00     0.059 C 
ATOM     76  H44 SEP d   1       6.328   4.713  40.380  0.00  0.00     0.079 H 
ATOM     77  H45 SEP d   1       5.338   3.273  40.797  0.00  0.00     0.079 H 
BRANCH  75  78
ATOM     78  OG  SEP d   1       6.176   3.263  38.886  0.00  0.00    -0.280 OA
BRANCH  78  79
ATOM     79  P   SEP d   1       4.942   3.855  38.073  0.00  0.00     0.422 P 
ATOM     80  O1P SEP d   1       5.190   3.426  36.594  0.00  0.00    -0.617 OA
ATOM     81  O2P SEP d   1       3.681   3.200  38.628  0.00  0.00    -0.617 OA
ATOM     82  O3P SEP d   1       4.951   5.367  38.225  0.00  0.00    -0.617 OA
ENDBRANCH  78  79
ENDBRANCH  75  78
ENDBRANCH  73  75
BRANCH  73  83
ATOM     83  C   SEP d   1       7.621   1.483  40.776  0.00  0.00     0.243 C 
ATOM     84  O   SEP d   1       8.623   1.003  40.177  0.00  0.00    -0.271 OA
ATOM     85  N   ALA d   1       6.679   0.733  41.310  0.00  0.00    -0.346 N 
ATOM     86  H46 ALA d   1       5.846   1.174  41.644  0.00  0.00     0.163 HD
BRANCH  85  87
ATOM     87  CA  ALA d   1       6.802  -0.699  41.432  0.00  0.00     0.086 C 
ATOM     88  H47 ALA d   1       7.762  -0.944  41.909  0.00  0.00     0.086 H 
BRANCH  87  89
ATOM     89  C   ALA d   1       6.743  -1.315  40.042  0.00  0.00     0.243 C 
ATOM     90  O   ALA d   1       6.083  -0.768  39.199  0.00  0.00    -0.271 OA
ATOM     91  N   PRO d   1       7.414  -2.458  39.827  0.00  0.00    -0.337 N 
ATOM     92  CA  PRO d   1       7.182  -3.213  38.577  0.00  0.00     0.091 C 
ATOM     93  CD  PRO d   1       8.547  -3.001  40.622  0.00  0.00    -0.001 C 
ATOM     94  CB  PRO d   1       8.412  -4.166  38.484  0.00  0.00    -0.036 C 
ATOM     95  H51 PRO d   1       7.142  -2.538  37.710  0.00  0.00     0.087 H 
ATOM     96  CG  PRO d   1       8.991  -4.253  39.871  0.00  0.00    -0.048 C 
ATOM     97  H52 PRO d   1       9.158  -3.757  37.786  0.00  0.00     0.036 H 
ATOM     98  H53 PRO d   1       8.096  -5.162  38.141  0.00  0.00     0.036 H 
ATOM     99  H54 PRO d   1      10.089  -4.293  39.820  0.00  0.00     0.035 H 
ATOM    100  H55 PRO d   1       8.615  -5.152  40.381  0.00  0.00     0.035 H 
ATOM    101  H56 PRO d   1       8.218  -3.257  41.640  0.00  0.00     0.064 H 
ATOM    102  H57 PRO d   1       9.368  -2.270  40.675  0.00  0.00     0.064 H 
BRANCH  92 103
ATOM    103  C   PRO d   1       5.887  -4.007  38.667  0.00  0.00     0.241 C 
ATOM    104  O   PRO d   1       5.340  -4.172  39.762  0.00  0.00    -0.271 OA
ATOM    105  N   ALA d   1       5.392  -4.509  37.544  0.00  0.00    -0.346 N 
ATOM    106  H58 ALA d   1       5.844  -4.306  36.675  0.00  0.00     0.163 HD
BRANCH 105 107
ATOM    107  CA  ALA d   1       4.187  -5.362  37.550  0.00  0.00     0.086 C 
ATOM    108  H59 ALA d   1       3.464  -4.898  38.237  0.00  0.00     0.086 H 
BRANCH 107 109
ATOM    109  C   ALA d   1       4.430  -6.815  38.066  0.00  0.00     0.240 C 
ATOM    110  O   ALA d   1       3.925  -7.772  37.485  0.00  0.00    -0.271 OA
ATOM    111  N   GLU d   1       5.187  -6.958  39.170  0.00  0.00    -0.345 N 
ATOM    112  H63 GLU d   1       5.587  -6.126  39.554  0.00  0.00     0.163 HD
BRANCH 111 113
ATOM    113  CA  GLU d   1       5.487  -8.235  39.876  0.00  0.00     0.097 C 
ATOM    114  H64 GLU d   1       6.306  -8.015  40.576  0.00  0.00     0.089 H 
BRANCH 113 115
ATOM    115  C   GLU d   1       5.968  -9.389  38.993  0.00  0.00     0.196 C 
ATOM    116  O   GLU d   1       6.393  -9.188  37.857  0.00  0.00    -0.646 OA
ATOM    117  OXT GLU d   1       5.944 -10.551  39.394  0.00  0.00    -0.646 OA
ENDBRANCH 113 115
BRANCH 113 118
ATOM    118  CB  GLU d   1       4.274  -8.694  40.711  0.00  0.00    -0.028 C 
ATOM    119  H65 GLU d   1       3.860  -9.599  40.242  0.00  0.00     0.037 H 
ATOM    120  H66 GLU d   1       3.521  -7.892  40.688  0.00  0.00     0.037 H 
BRANCH 118 121
ATOM    121  CG  GLU d   1       4.581  -9.016  42.178  0.00  0.00     0.018 C 
ATOM    122  H67 GLU d   1       5.554  -9.527  42.228  0.00  0.00     0.049 H 
ATOM    123  H68 GLU d   1       3.796  -9.684  42.562  0.00  0.00     0.049 H 
BRANCH 121 124
ATOM    124  CD  GLU d   1       4.638  -7.773  43.063  0.00  0.00     0.172 C 
ATOM    125  OE1 GLU d   1       3.817  -7.666  43.999  0.00  0.00    -0.648 OA
ATOM    126  OE2 GLU d   1       5.493  -6.893  42.816  0.00  0.00    -0.648 OA
ENDBRANCH 121 124
ENDBRANCH 118 121
ENDBRANCH 113 118
ENDBRANCH 111 113
ENDBRANCH 107 109
BRANCH 107 127
ATOM    127  CB  ALA d   1       3.568  -5.368  36.158  0.00  0.00    -0.049 C 
ATOM    128  H60 ALA d   1       2.670  -6.003  36.159  0.00  0.00     0.030 H 
ATOM    129  H61 ALA d   1       4.296  -5.764  35.435  0.00  0.00     0.030 H 
ATOM    130  H62 ALA d   1       3.291  -4.342  35.875  0.00  0.00     0.030 H 
ENDBRANCH 107 127
ENDBRANCH 105 107
ENDBRANCH  92 103
ENDBRANCH  87  89
BRANCH  87 131
ATOM    131  CB  ALA d   1       5.665  -1.269  42.262  0.00  0.00    -0.049 C 
ATOM    132  H48 ALA d   1       5.780  -2.360  42.341  0.00  0.00     0.030 H 
ATOM    133  H49 ALA d   1       4.705  -1.036  41.778  0.00  0.00     0.030 H 
ATOM    134  H50 ALA d   1       5.686  -0.824  43.268  0.00  0.00     0.030 H 
ENDBRANCH  87 131
ENDBRANCH  85  87
ENDBRANCH  73  83
ENDBRANCH  71  73
ENDBRANCH   1  69
BRANCH   1 135
ATOM    135  CB  GLU d   1      11.917   3.750  40.182  0.00  0.00    -0.029 C 
ATOM    136  H38 GLU d   1      11.529   2.737  39.998  0.00  0.00     0.037 H 
ATOM    137  H39 GLU d   1      12.359   3.797  41.188  0.00  0.00     0.037 H 
BRANCH 135 138
ATOM    138  CG  GLU d   1      12.994   4.057  39.158  0.00  0.00     0.018 C 
ATOM    139  H40 GLU d   1      13.242   5.127  39.215  0.00  0.00     0.049 H 
ATOM    140  H41 GLU d   1      12.606   3.824  38.156  0.00  0.00     0.049 H 
BRANCH 138 141
ATOM    141  CD  GLU d   1      14.267   3.245  39.393  0.00  0.00     0.172 C 
ATOM    142  OE1 GLU d   1      15.108   3.500  40.327  0.00  0.00    -0.648 OA
ATOM    143  OE2 GLU d   1      14.426   2.308  38.639  0.00  0.00    -0.648 OA
ENDBRANCH 138 141
ENDBRANCH 135 138
ENDBRANCH   1 135
TORSDOF 35
