REMARK WARNING: 32 MAX_TORS EXCEEDED!!!
REMARK  45 active torsions:
REMARK  status: ('A' for Active; 'I' for Inactive)
REMARK    1  A    between atoms: N_1  and  CA_2 
REMARK    2  A    between atoms: CA_2  and  C_3 
REMARK    3  A    between atoms: CA_2  and  CB_5 
REMARK       I    between atoms: C_3  and  N_12 
REMARK    4  A    between atoms: CB_5  and  CG_6 
REMARK    5  A    between atoms: CG_6  and  CD_7 
REMARK    6  A    between atoms: CD_7  and  NE_8 
REMARK       I    between atoms: NE_8  and  CZ_9 
REMARK       I    between atoms: CZ_9  and  NH1_10 
REMARK    7  A    between atoms: N_12  and  CA_13 
REMARK    8  A    between atoms: CA_13  and  C_14 
REMARK    9  A    between atoms: CA_13  and  CB_16 
REMARK       I    between atoms: C_14  and  N_18 
REMARK   10  A    between atoms: CB_16  and  OG_17 
REMARK   11  A    between atoms: N_18  and  CA_19 
REMARK   12  A    between atoms: CA_19  and  C_20 
REMARK   13  A    between atoms: CA_19  and  CB_22 
REMARK       I    between atoms: C_20  and  N_30 
REMARK   14  A    between atoms: CB_22  and  CG_23 
REMARK   15  A    between atoms: CZ_28  and  OH_29 
REMARK   16  A    between atoms: N_30  and  CA_31 
REMARK   17  A    between atoms: CA_31  and  CB_32 
REMARK   18  A    between atoms: CA_31  and  C_34 
REMARK   19  A    between atoms: CB_32  and  OG_33 
REMARK   20  A    between atoms: OG_33  and  P_36 
REMARK       I    between atoms: C_34  and  N_40 
REMARK   21  A    between atoms: N_40  and  CA_41 
REMARK   22  A    between atoms: CA_41  and  C_42 
REMARK   23  A    between atoms: CA_41  and  CB_44 
REMARK       I    between atoms: C_42  and  N_46 
REMARK   24  A    between atoms: CB_44  and  OG_45 
REMARK   25  A    between atoms: CA_47  and  C_48 
REMARK       I    between atoms: C_48  and  N_53 
REMARK   26  A    between atoms: N_53  and  CA_54 
REMARK   27  A    between atoms: CA_54  and  C_55 
REMARK   28  A    between atoms: CA_54  and  CB_57 
REMARK       I    between atoms: C_55  and  N_61 
REMARK   29  A    between atoms: CB_57  and  CG_58 
REMARK   30  A    between atoms: N_61  and  CA_62 
REMARK   31  A    between atoms: CA_62  and  C_63 
REMARK   32  A    between atoms: CA_62  and  CB_65 
REMARK       I    between atoms: C_63  and  N_69 
REMARK   33  A    between atoms: CB_65  and  CG1_66 
REMARK   34  A    between atoms: CB_65  and  CG2_67 
REMARK   35  A    between atoms: CG1_66  and  CD1_68 
REMARK   36  A    between atoms: N_69  and  CA_70 
REMARK   37  A    between atoms: CA_70  and  C_71 
REMARK   38  A    between atoms: CA_70  and  CB_73 
REMARK       I    between atoms: C_71  and  N_76 
REMARK   39  A    between atoms: CB_73  and  OG1_74 
REMARK   40  A    between atoms: CB_73  and  CG2_75 
REMARK   41  A    between atoms: N_76  and  CA_77 
REMARK   42  A    between atoms: CA_77  and  C_78 
REMARK   43  A    between atoms: CA_77  and  CB_80 
REMARK   44  A    between atoms: CB_80  and  CG_81 
REMARK   45  A    between atoms: CG_81  and  CD_82 
REMARK       I    between atoms: CD_82  and  NE2_84 
ROOT
ATOM      1  CA  SER d   1      16.502  32.438  -5.369  0.00  0.00     0.109 C 
ATOM      2  H35 SER d   1      16.870  31.934  -4.463  0.00  0.00     0.090 H 
ENDROOT
BRANCH   1   3
ATOM      3  N   SER d   1      15.293  33.172  -4.974  0.00  0.00    -0.344 N 
ATOM      4  C   SEP d   1      15.290  34.147  -4.084  0.00  0.00     0.243 C 
ATOM      5  O   SEP d   1      16.301  34.476  -3.446  0.00  0.00    -0.271 OA
ATOM      6  H34 SER d   1      14.425  32.920  -5.402  0.00  0.00     0.163 HD
BRANCH   4   7
ATOM      7  CA  SEP d   1      13.928  34.729  -3.759  0.00  0.00     0.110 C 
ATOM      8  H31 SEP d   1      13.246  33.885  -3.580  0.00  0.00     0.090 H 
BRANCH   7   9
ATOM      9  N   SEP d   1      14.041  35.465  -2.521  0.00  0.00    -0.344 N 
ATOM     10  C   TYR d   1      13.338  35.137  -1.444  0.00  0.00     0.241 C 
ATOM     11  O   TYR d   1      12.613  34.166  -1.400  0.00  0.00    -0.271 OA
ATOM     12  H30 SEP d   1      14.667  36.244  -2.474  0.00  0.00     0.163 HD
BRANCH  10  13
ATOM     13  CA  TYR d   1      13.681  35.937  -0.210  0.00  0.00     0.093 C 
ATOM     14  H22 TYR d   1      14.304  36.797  -0.497  0.00  0.00     0.088 H 
BRANCH  13  15
ATOM     15  N   TYR d   1      12.449  36.412   0.373  0.00  0.00    -0.346 N 
ATOM     16  C   SER d   1      11.863  37.540   0.010  0.00  0.00     0.243 C 
ATOM     17  O   SER d   1      12.381  38.349  -0.761  0.00  0.00    -0.271 OA
ATOM     18  H21 TYR d   1      12.017  35.861   1.087  0.00  0.00     0.163 HD
BRANCH  16  19
ATOM     19  CA  SER d   1      10.474  37.757   0.585  0.00  0.00     0.109 C 
ATOM     20  H17 SER d   1      10.441  37.390   1.621  0.00  0.00     0.090 H 
BRANCH  19  21
ATOM     21  N   SER d   1      10.146  39.171   0.579  0.00  0.00    -0.344 N 
ATOM     22  C   ARG d   1      10.900  40.060   1.218  0.00  0.00     0.249 C 
ATOM     23  O   ARG d   1      11.779  39.727   2.014  0.00  0.00    -0.271 OA
ATOM     24  H16 SER d   1       9.335  39.483   0.084  0.00  0.00     0.163 HD
BRANCH  22  25
ATOM     25  CA  ARG d   1      10.617  41.549   0.921  0.00  0.00     0.176 C 
ATOM     26  H4  ARG d   1       9.542  41.729   1.068  0.00  0.00     0.099 H 
BRANCH  25  27
ATOM     27  N   ARG d   1      11.360  42.439   1.807  0.00  0.00    -0.067 N 
ATOM     28  H1  ARG d   1      11.145  43.397   1.578  0.00  0.00     0.275 HD
ATOM     29  H2  ARG d   1      12.349  42.279   1.692  0.00  0.00     0.275 HD
ATOM     30  H3  ARG d   1      11.099  42.256   2.763  0.00  0.00     0.275 HD
ENDBRANCH  25  27
BRANCH  25  31
ATOM     31  CB  ARG d   1      10.978  41.879  -0.521  0.00  0.00    -0.029 C 
ATOM     32  H5  ARG d   1      10.625  42.896  -0.748  0.00  0.00     0.036 H 
ATOM     33  H6  ARG d   1      10.474  41.159  -1.183  0.00  0.00     0.036 H 
BRANCH  31  34
ATOM     34  CG  ARG d   1      12.492  41.814  -0.786  0.00  0.00    -0.047 C 
ATOM     35  H7  ARG d   1      12.819  40.768  -0.695  0.00  0.00     0.035 H 
ATOM     36  H8  ARG d   1      13.007  42.426  -0.031  0.00  0.00     0.035 H 
BRANCH  34  37
ATOM     37  CD  ARG d   1      12.877  42.327  -2.176  0.00  0.00     0.009 C 
ATOM     38  H9  ARG d   1      13.092  43.404  -2.108  0.00  0.00     0.064 H 
ATOM     39  H10 ARG d   1      12.031  42.164  -2.860  0.00  0.00     0.064 H 
BRANCH  37  40
ATOM     40  NE  ARG d   1      14.060  41.643  -2.718  0.00  0.00    -0.227 N 
ATOM     41  CZ  ARG d   1      14.031  40.601  -3.554  0.00  0.00     0.665 C 
ATOM     42  NH1 ARG d   1      15.177  40.041  -3.984  0.00  0.00    -0.235 N 
ATOM     43  NH2 ARG d   1      12.861  40.100  -3.953  0.00  0.00    -0.235 N 
ATOM     44  H12 ARG d   1      15.148  39.238  -4.628  0.00  0.00     0.174 HD
ATOM     45  H13 ARG d   1      16.083  40.416  -3.669  0.00  0.00     0.174 HD
ATOM     46  H14 ARG d   1      11.981  40.525  -3.627  0.00  0.00     0.174 HD
ATOM     47  H15 ARG d   1      12.838  39.289  -4.587  0.00  0.00     0.174 HD
ATOM     48  H11 ARG d   1      14.984  41.995  -2.431  0.00  0.00     0.177 HD
ENDBRANCH  37  40
ENDBRANCH  34  37
ENDBRANCH  31  34
ENDBRANCH  25  31
ENDBRANCH  22  25
ENDBRANCH  19  21
BRANCH  19  49
ATOM     49  CB  SER d   1       9.494  36.948  -0.272  0.00  0.00     0.044 C 
ATOM     50  H18 SER d   1       9.730  35.879  -0.164  0.00  0.00     0.077 H 
ATOM     51  H19 SER d   1       9.615  37.246  -1.324  0.00  0.00     0.077 H 
BRANCH  49  52
ATOM     52  OG  SER d   1       8.152  37.156   0.106  0.00  0.00    -0.398 OA
ATOM     53  H20 SER d   1       7.936  38.076   0.010  0.00  0.00     0.209 HD
ENDBRANCH  49  52
ENDBRANCH  19  49
ENDBRANCH  16  19
ENDBRANCH  13  15
BRANCH  13  54
ATOM     54  CB  TYR d   1      14.456  35.080   0.801  0.00  0.00    -0.014 C 
ATOM     55  H23 TYR d   1      15.467  34.897   0.409  0.00  0.00     0.043 H 
ATOM     56  H24 TYR d   1      13.933  34.121   0.928  0.00  0.00     0.043 H 
BRANCH  54  57
ATOM     57  CG  TYR d   1      14.568  35.740   2.120  0.00  0.00    -0.056 A 
ATOM     58  CD1 TYR d   1      15.097  36.993   2.218  0.00  0.00    -0.074 A 
ATOM     59  CE1 TYR d   1      15.201  37.627   3.431  0.00  0.00    -0.051 A 
ATOM     60  H25 TYR d   1      15.441  37.497   1.322  0.00  0.00     0.084 H 
ATOM     61  CZ  TYR d   1      14.734  37.000   4.555  0.00  0.00     0.065 A 
ATOM     62  H27 TYR d   1      15.648  38.612   3.498  0.00  0.00     0.087 H 
ATOM     63  CE2 TYR d   1      14.192  35.746   4.497  0.00  0.00    -0.051 A 
ATOM     64  CD2 TYR d   1      14.098  35.108   3.276  0.00  0.00    -0.074 A 
ATOM     65  H28 TYR d   1      13.840  35.258   5.399  0.00  0.00     0.087 H 
ATOM     66  H26 TYR d   1      13.660  34.118   3.213  0.00  0.00     0.084 H 
BRANCH  61  67
ATOM     67  OH  TYR d   1      14.837  37.628   5.761  0.00  0.00    -0.361 OA
ATOM     68  H29 TYR d   1      15.230  38.484   5.638  0.00  0.00     0.217 HD
ENDBRANCH  61  67
ENDBRANCH  54  57
ENDBRANCH  13  54
ENDBRANCH  10  13
ENDBRANCH   7   9
BRANCH   7  69
ATOM     69  CB  SEP d   1      13.314  35.542  -4.886  0.00  0.00     0.059 C 
ATOM     70  H32 SEP d   1      12.365  35.987  -4.552  0.00  0.00     0.079 H 
ATOM     71  H33 SEP d   1      13.129  34.895  -5.756  0.00  0.00     0.079 H 
BRANCH  69  72
ATOM     72  OG  SEP d   1      14.219  36.555  -5.231  0.00  0.00    -0.280 OA
BRANCH  72  73
ATOM     73  P   SEP d   1      13.786  37.532  -6.414  0.00  0.00     0.422 P 
ATOM     74  O1P SEP d   1      13.676  36.631  -7.596  0.00  0.00    -0.617 OA
ATOM     75  O2P SEP d   1      12.490  38.141  -5.977  0.00  0.00    -0.617 OA
ATOM     76  O3P SEP d   1      14.945  38.480  -6.489  0.00  0.00    -0.617 OA
ENDBRANCH  72  73
ENDBRANCH  69  72
ENDBRANCH   7  69
ENDBRANCH   4   7
ENDBRANCH   1   3
BRANCH   1  77
ATOM     77  C   SER d   1      17.673  33.260  -5.919  0.00  0.00     0.245 C 
ATOM     78  O   SER d   1      17.542  33.897  -6.965  0.00  0.00    -0.271 OA
ATOM     79  N   PRO d   1      18.828  33.250  -5.218  0.00  0.00    -0.337 N 
ATOM     80  CA  PRO d   1      19.940  33.982  -5.828  0.00  0.00     0.091 C 
ATOM     81  CD  PRO d   1      19.200  32.686  -3.906  0.00  0.00    -0.001 C 
ATOM     82  CB  PRO d   1      20.952  34.097  -4.680  0.00  0.00    -0.036 C 
ATOM     83  H39 PRO d   1      19.605  34.982  -6.141  0.00  0.00     0.087 H 
ATOM     84  CG  PRO d   1      20.691  32.962  -3.813  0.00  0.00    -0.048 C 
ATOM     85  H40 PRO d   1      20.806  35.040  -4.133  0.00  0.00     0.036 H 
ATOM     86  H41 PRO d   1      21.980  34.054  -5.069  0.00  0.00     0.036 H 
ATOM     87  H42 PRO d   1      20.969  33.203  -2.776  0.00  0.00     0.035 H 
ATOM     88  H43 PRO d   1      21.262  32.085  -4.152  0.00  0.00     0.035 H 
ATOM     89  H44 PRO d   1      18.997  31.605  -3.870  0.00  0.00     0.064 H 
ATOM     90  H45 PRO d   1      18.655  33.188  -3.093  0.00  0.00     0.064 H 
BRANCH  80  91
ATOM     91  C   PRO d   1      20.531  33.278  -7.041  0.00  0.00     0.241 C 
ATOM     92  O   PRO d   1      21.470  33.812  -7.648  0.00  0.00    -0.271 OA
ATOM     93  N   ASP d   1      19.986  32.122  -7.429  0.00  0.00    -0.346 N 
ATOM     94  H46 ASP d   1      19.282  31.705  -6.854  0.00  0.00     0.163 HD
BRANCH  93  95
ATOM     95  CA  ASP d   1      20.380  31.442  -8.664  0.00  0.00     0.098 C 
ATOM     96  H47 ASP d   1      19.881  30.462  -8.687  0.00  0.00     0.088 H 
BRANCH  95  97
ATOM     97  C   ASP d   1      21.893  31.204  -8.677  0.00  0.00     0.241 C 
ATOM     98  O   ASP d   1      22.565  31.357  -9.699  0.00  0.00    -0.271 OA
ATOM     99  N   ILE d   1      22.427  30.829  -7.516  0.00  0.00    -0.346 N 
ATOM    100  H50 ILE d   1      21.820  30.695  -6.732  0.00  0.00     0.163 HD
BRANCH  99 101
ATOM    101  CA  ILE d   1      23.853  30.605  -7.336  0.00  0.00     0.092 C 
ATOM    102  H51 ILE d   1      24.408  31.258  -8.026  0.00  0.00     0.088 H 
BRANCH 101 103
ATOM    103  C   ILE d   1      24.157  29.153  -7.669  0.00  0.00     0.241 C 
ATOM    104  O   ILE d   1      23.567  28.234  -7.087  0.00  0.00    -0.271 OA
ATOM    105  N   THR d   1      25.090  28.947  -8.587  0.00  0.00    -0.344 N 
ATOM    106  H61 THR d   1      25.351  29.707  -9.182  0.00  0.00     0.163 HD
BRANCH 105 107
ATOM    107  CA  THR d   1      25.752  27.665  -8.768  0.00  0.00     0.113 C 
ATOM    108  H62 THR d   1      25.251  26.902  -8.155  0.00  0.00     0.091 H 
BRANCH 107 109
ATOM    109  C   THR d   1      27.183  27.854  -8.286  0.00  0.00     0.243 C 
ATOM    110  O   THR d   1      27.941  28.626  -8.882  0.00  0.00    -0.271 OA
ATOM    111  N   GLN d   1      27.540  27.169  -7.205  0.00  0.00    -0.345 N 
ATOM    112  H68 GLN d   1      26.872  26.566  -6.770  0.00  0.00     0.163 HD
BRANCH 111 113
ATOM    113  CA  GLN d   1      28.879  27.271  -6.634  0.00  0.00     0.096 C 
ATOM    114  H69 GLN d   1      29.113  28.335  -6.485  0.00  0.00     0.089 H 
BRANCH 113 115
ATOM    115  C   GLN d   1      29.910  26.675  -7.563  0.00  0.00     0.196 C 
ATOM    116  O   GLN d   1      29.619  25.682  -8.227  0.00  0.00    -0.646 OA
ATOM    117  OXT GLN d   1      31.039  27.162  -7.644  0.00  0.00    -0.646 OA
ENDBRANCH 113 115
BRANCH 113 118
ATOM    118  CB  GLN d   1      28.944  26.562  -5.286  0.00  0.00    -0.029 C 
ATOM    119  H70 GLN d   1      30.003  26.400  -5.034  0.00  0.00     0.037 H 
ATOM    120  H71 GLN d   1      28.438  25.590  -5.385  0.00  0.00     0.037 H 
BRANCH 118 121
ATOM    121  CG  GLN d   1      28.294  27.321  -4.138  0.00  0.00     0.011 C 
ATOM    122  H72 GLN d   1      27.201  27.243  -4.233  0.00  0.00     0.047 H 
ATOM    123  H73 GLN d   1      28.593  28.378  -4.196  0.00  0.00     0.047 H 
BRANCH 121 124
ATOM    124  CD  GLN d   1      28.711  26.765  -2.785  0.00  0.00     0.215 C 
ATOM    125  OE1 GLN d   1      29.467  25.798  -2.705  0.00  0.00    -0.274 OA
ATOM    126  NE2 GLN d   1      28.219  27.370  -1.722  0.00  0.00    -0.370 N 
ATOM    127  H74 GLN d   1      28.459  27.047  -0.807  0.00  0.00     0.159 HD
ATOM    128  H75 GLN d   1      27.605  28.152  -1.831  0.00  0.00     0.159 HD
ENDBRANCH 121 124
ENDBRANCH 118 121
ENDBRANCH 113 118
ENDBRANCH 111 113
ENDBRANCH 107 109
BRANCH 107 129
ATOM    129  CB  THR d   1      25.725  27.215 -10.223  0.00  0.00     0.060 C 
ATOM    130  H63 THR d   1      26.246  27.960 -10.842  0.00  0.00     0.086 H 
BRANCH 129 131
ATOM    131  OG1 THR d   1      24.367  27.105 -10.656  0.00  0.00    -0.393 OA
ATOM    132  H64 THR d   1      24.347  26.824 -11.563  0.00  0.00     0.210 HD
ENDBRANCH 129 131
BRANCH 129 133
ATOM    133  CG2 THR d   1      26.420  25.867 -10.374  0.00  0.00    -0.050 C 
ATOM    134  H65 THR d   1      26.392  25.556 -11.429  0.00  0.00     0.031 H 
ATOM    135  H66 THR d   1      25.904  25.117  -9.757  0.00  0.00     0.031 H 
ATOM    136  H67 THR d   1      27.466  25.955 -10.045  0.00  0.00     0.031 H 
ENDBRANCH 129 133
ENDBRANCH 107 129
ENDBRANCH 105 107
ENDBRANCH 101 103
BRANCH 101 137
ATOM    137  CB  ILE d   1      24.291  30.925  -5.897  0.00  0.00    -0.030 C 
ATOM    138  H52 ILE d   1      23.616  30.395  -5.209  0.00  0.00     0.043 H 
BRANCH 137 139
ATOM    139  CG1 ILE d   1      24.181  32.423  -5.611  0.00  0.00    -0.063 C 
ATOM    140  H53 ILE d   1      23.253  32.799  -6.067  0.00  0.00     0.033 H 
ATOM    141  H54 ILE d   1      25.045  32.931  -6.065  0.00  0.00     0.033 H 
BRANCH 139 142
ATOM    142  CD1 ILE d   1      24.156  32.748  -4.114  0.00  0.00    -0.076 C 
ATOM    143  H58 ILE d   1      24.076  33.836  -3.976  0.00  0.00     0.027 H 
ATOM    144  H59 ILE d   1      25.083  32.386  -3.645  0.00  0.00     0.027 H 
ATOM    145  H60 ILE d   1      23.291  32.255  -3.646  0.00  0.00     0.027 H 
ENDBRANCH 139 142
ENDBRANCH 137 139
BRANCH 137 146
ATOM    146  CG2 ILE d   1      25.727  30.425  -5.641  0.00  0.00    -0.071 C 
ATOM    147  H55 ILE d   1      25.783  29.347  -5.853  0.00  0.00     0.028 H 
ATOM    148  H56 ILE d   1      25.997  30.607  -4.590  0.00  0.00     0.028 H 
ATOM    149  H57 ILE d   1      26.426  30.964  -6.298  0.00  0.00     0.028 H 
ENDBRANCH 137 146
ENDBRANCH 101 137
ENDBRANCH  99 101
ENDBRANCH  95  97
BRANCH  95 150
ATOM    150  CB  ASP d   1      19.925  32.231  -9.906  0.00  0.00     0.043 C 
ATOM    151  H48 ASP d   1      20.442  31.823 -10.787  0.00  0.00     0.052 H 
ATOM    152  H49 ASP d   1      20.206  33.286  -9.771  0.00  0.00     0.052 H 
BRANCH 150 153
ATOM    153  CG  ASP d   1      18.395  32.158 -10.157  0.00  0.00     0.175 C 
ATOM    154  OD1 ASP d   1      17.678  31.429  -9.455  0.00  0.00    -0.648 OA
ATOM    155  OD2 ASP d   1      17.901  32.832 -11.083  0.00  0.00    -0.648 OA
ENDBRANCH 150 153
ENDBRANCH  95 150
ENDBRANCH  93  95
ENDBRANCH  80  91
ENDBRANCH   1  77
BRANCH   1 156
ATOM    156  CB  SER d   1      16.131  31.363  -6.395  0.00  0.00     0.044 C 
ATOM    157  H36 SER d   1      15.852  31.850  -7.341  0.00  0.00     0.077 H 
ATOM    158  H37 SER d   1      15.277  30.783  -6.015  0.00  0.00     0.077 H 
BRANCH 156 159
ATOM    159  OG  SER d   1      17.219  30.485  -6.629  0.00  0.00    -0.398 OA
ATOM    160  H38 SER d   1      17.959  30.980  -6.961  0.00  0.00     0.209 HD
ENDBRANCH 156 159
ENDBRANCH   1 156
TORSDOF 45
