REMARK WARNING: 32 MAX_TORS EXCEEDED!!!
REMARK  79 active torsions:
REMARK  status: ('A' for Active; 'I' for Inactive)
REMARK    1  A    between atoms: N_1  and  CA_2 
REMARK    2  A    between atoms: CA_2  and  C_3 
REMARK    3  A    between atoms: CA_2  and  CB_5 
REMARK       I    between atoms: C_3  and  N_9 
REMARK    4  A    between atoms: CB_5  and  CG_6 
REMARK    5  A    between atoms: CG_6  and  CD1_7 
REMARK    6  A    between atoms: CG_6  and  CD2_8 
REMARK    7  A    between atoms: N_9  and  CA_10 
REMARK    8  A    between atoms: CA_10  and  C_11 
REMARK    9  A    between atoms: CA_10  and  CB_13 
REMARK       I    between atoms: C_11  and  N_14 
REMARK   10  A    between atoms: N_14  and  CA_15 
REMARK   11  A    between atoms: CA_15  and  C_16 
REMARK   12  A    between atoms: CA_15  and  CB_18 
REMARK       I    between atoms: C_16  and  N_22 
REMARK   13  A    between atoms: CB_18  and  CG1_19 
REMARK   14  A    between atoms: CB_18  and  CG2_20 
REMARK   15  A    between atoms: CG1_19  and  CD1_21 
REMARK   16  A    between atoms: N_22  and  CA_23 
REMARK   17  A    between atoms: CA_23  and  C_24 
REMARK   18  A    between atoms: CA_23  and  CB_26 
REMARK       I    between atoms: C_24  and  N_29 
REMARK   19  A    between atoms: CB_26  and  OG1_27 
REMARK   20  A    between atoms: CB_26  and  CG2_28 
REMARK   21  A    between atoms: N_29  and  CA_30 
REMARK   22  A    between atoms: CA_30  and  C_31 
REMARK   23  A    between atoms: CA_30  and  CB_33 
REMARK       I    between atoms: C_31  and  N_37 
REMARK   24  A    between atoms: CB_33  and  CG_34 
REMARK   25  A    between atoms: CG_34  and  SD_35 
REMARK   26  A    between atoms: SD_35  and  CE_36 
REMARK   27  A    between atoms: N_37  and  CA_38 
REMARK   28  A    between atoms: CA_38  and  C_39 
REMARK   29  A    between atoms: CA_38  and  CB_41 
REMARK       I    between atoms: C_39  and  N_45 
REMARK   30  A    between atoms: CB_41  and  CG_42 
REMARK   31  A    between atoms: CG_42  and  CD1_43 
REMARK   32  A    between atoms: CG_42  and  CD2_44 
REMARK   33  A    between atoms: N_45  and  CA_46 
REMARK   34  A    between atoms: CA_46  and  C_47 
REMARK   35  A    between atoms: CA_46  and  CB_49 
REMARK       I    between atoms: C_47  and  N_54 
REMARK   36  A    between atoms: CB_49  and  CG_50 
REMARK   37  A    between atoms: CG_50  and  CD_51 
REMARK   38  A    between atoms: CD_51  and  CE_52 
REMARK   39  A    between atoms: CE_52  and  NZ_53 
REMARK   40  A    between atoms: CA_55  and  C_56 
REMARK       I    between atoms: C_56  and  N_61 
REMARK   41  A    between atoms: N_61  and  CA_62 
REMARK   42  A    between atoms: CA_62  and  C_63 
REMARK   43  A    between atoms: CA_62  and  CB_65 
REMARK       I    between atoms: C_63  and  N_72 
REMARK   44  A    between atoms: CB_65  and  CG_66 
REMARK   45  A    between atoms: CG_66  and  CD_67 
REMARK   46  A    between atoms: CD_67  and  NE_68 
REMARK       I    between atoms: NE_68  and  CZ_69 
REMARK       I    between atoms: CZ_69  and  NH1_70 
REMARK   47  A    between atoms: N_72  and  CA_73 
REMARK   48  A    between atoms: CA_73  and  C_74 
REMARK   49  A    between atoms: CA_73  and  CB_76 
REMARK       I    between atoms: C_74  and  N_81 
REMARK   50  A    between atoms: CB_76  and  CG_77 
REMARK   51  A    between atoms: CG_77  and  CD_78 
REMARK   52  A    between atoms: CD_78  and  CE_79 
REMARK   53  A    between atoms: CE_79  and  NZ_80 
REMARK   54  A    between atoms: N_81  and  CA_82 
REMARK   55  A    between atoms: CA_82  and  C_83 
REMARK   56  A    between atoms: CA_82  and  CB_85 
REMARK       I    between atoms: C_83  and  N_90 
REMARK   57  A    between atoms: CB_85  and  CG_86 
REMARK   58  A    between atoms: CG_86  and  CD_87 
REMARK   59  A    between atoms: CD_87  and  CE_88 
REMARK   60  A    between atoms: CE_88  and  NZ_89 
REMARK   61  A    between atoms: N_90  and  CA_91 
REMARK   62  A    between atoms: CA_91  and  C_92 
REMARK   63  A    between atoms: CA_91  and  CB_94 
REMARK       I    between atoms: C_92  and  N_95 
REMARK   64  A    between atoms: N_95  and  CA_96 
REMARK   65  A    between atoms: CA_96  and  C_97 
REMARK   66  A    between atoms: CA_96  and  CB_99 
REMARK       I    between atoms: C_97  and  N_104 
REMARK   67  A    between atoms: CB_99  and  CG_100 
REMARK   68  A    between atoms: CG_100  and  CD_101 
REMARK   69  A    between atoms: CD_101  and  CE_102 
REMARK   70  A    between atoms: CE_102  and  NZ_103 
REMARK   71  A    between atoms: N_104  and  CA_105 
REMARK   72  A    between atoms: CA_105  and  C_106 
REMARK   73  A    between atoms: CA_105  and  CB_108 
REMARK       I    between atoms: C_106  and  N_109 
REMARK   74  A    between atoms: N_109  and  CA_110 
REMARK   75  A    between atoms: CA_110  and  C_111 
REMARK   76  A    between atoms: CA_110  and  CB_113 
REMARK   77  A    between atoms: CB_113  and  CG_114 
REMARK   78  A    between atoms: CG_114  and  CD1_115 
REMARK   79  A    between atoms: CG_114  and  CD2_116 
ROOT
ATOM      1  C   LYS d   1      -9.868  -8.322 -10.426  0.00  0.00     0.243 C 
ATOM      2  O   LYS d   1     -10.525  -7.513 -11.087  0.00  0.00    -0.271 OA
ATOM      3  N   PRO d   1      -8.913  -7.934  -9.564  0.00  0.00    -0.337 N 
ATOM      4  CA  PRO d   1      -8.637  -6.528  -9.281  0.00  0.00     0.091 C 
ATOM      5  CB  PRO d   1      -7.670  -6.582  -8.099  0.00  0.00    -0.036 C 
ATOM      6  CG  PRO d   1      -6.979  -7.893  -8.243  0.00  0.00    -0.048 C 
ATOM      7  CD  PRO d   1      -8.008  -8.832  -8.817  0.00  0.00    -0.001 C 
ATOM      8  H70 PRO d   1      -9.562  -6.005  -8.999  0.00  0.00     0.087 H 
ATOM      9  H71 PRO d   1      -8.217  -6.534  -7.146  0.00  0.00     0.036 H 
ATOM     10  H72 PRO d   1      -6.948  -5.754  -8.149  0.00  0.00     0.036 H 
ATOM     11  H73 PRO d   1      -6.633  -8.255  -7.263  0.00  0.00     0.035 H 
ATOM     12  H74 PRO d   1      -6.120  -7.802  -8.924  0.00  0.00     0.035 H 
ATOM     13  H75 PRO d   1      -7.539  -9.566  -9.489  0.00  0.00     0.064 H 
ATOM     14  H76 PRO d   1      -8.549  -9.360  -8.017  0.00  0.00     0.064 H 
ENDROOT
BRANCH   4  15
ATOM     15  C   PRO d   1      -8.015  -5.820 -10.474  0.00  0.00     0.241 C 
ATOM     16  O   PRO d   1      -6.835  -5.994 -10.778  0.00  0.00    -0.271 OA
ATOM     17  N   ARG d   1      -8.832  -5.030 -11.144  0.00  0.00    -0.346 N 
ATOM     18  H77 ARG d   1      -9.773  -4.926 -10.821  0.00  0.00     0.163 HD
BRANCH  17  19
ATOM     19  CA  ARG d   1      -8.419  -4.306 -12.331  0.00  0.00     0.089 C 
ATOM     20  H78 ARG d   1      -7.966  -5.010 -13.044  0.00  0.00     0.087 H 
BRANCH  19  21
ATOM     21  C   ARG d   1      -7.396  -3.243 -11.964  0.00  0.00     0.241 C 
ATOM     22  O   ARG d   1      -7.214  -2.922 -10.798  0.00  0.00    -0.271 OA
ATOM     23  N   LYS d   1      -6.729  -2.708 -12.957  0.00  0.00    -0.346 N 
ATOM     24  H90 LYS d   1      -6.886  -3.040 -13.887  0.00  0.00     0.163 HD
BRANCH  23  25
ATOM     25  CA  LYS d   1      -5.769  -1.646 -12.736  0.00  0.00     0.089 C 
ATOM     26  H91 LYS d   1      -5.472  -1.646 -11.677  0.00  0.00     0.087 H 
BRANCH  25  27
ATOM     27  C   LYS d   1      -6.431  -0.320 -13.065  0.00  0.00     0.241 C 
ATOM     28  O   LYS d   1      -6.359   0.152 -14.202  0.00  0.00    -0.271 OA
ATOM     29  N   LYS d   1      -7.085   0.261 -12.061  0.00  0.00    -0.346 N 
ATOM     30 3H10 LYS d   1      -7.001  -0.128 -11.144  0.00  0.00     0.163 HD
BRANCH  29  31
ATOM     31  CA  LYS d   1      -7.918   1.441 -12.246  0.00  0.00     0.089 C 
ATOM     32 4H10 LYS d   1      -8.380   1.697 -11.281  0.00  0.00     0.087 H 
BRANCH  31  33
ATOM     33  C   LYS d   1      -9.033   1.133 -13.241  0.00  0.00     0.241 C 
ATOM     34  O   LYS d   1     -10.023   0.502 -12.877  0.00  0.00    -0.271 OA
ATOM     35  N   ALA d   1      -8.843   1.558 -14.487  0.00  0.00    -0.346 N 
ATOM     36 6H11 ALA d   1      -8.037   2.116 -14.683  0.00  0.00     0.163 HD
BRANCH  35  37
ATOM     37  CA  ALA d   1      -9.760   1.246 -15.586  0.00  0.00     0.086 C 
ATOM     38 7H11 ALA d   1      -9.530   1.923 -16.421  0.00  0.00     0.086 H 
BRANCH  37  39
ATOM     39  C   ALA d   1     -11.221   1.463 -15.199  0.00  0.00     0.240 C 
ATOM     40  O   ALA d   1     -12.067   0.595 -15.414  0.00  0.00    -0.271 OA
ATOM     41  N   LYS d   1     -11.514   2.627 -14.641  0.00  0.00    -0.346 N 
ATOM     42 1H12 LYS d   1     -10.794   3.311 -14.528  0.00  0.00     0.163 HD
BRANCH  41  43
ATOM     43  CA  LYS d   1     -12.863   2.931 -14.189  0.00  0.00     0.089 C 
ATOM     44 2H12 LYS d   1     -13.273   2.039 -13.693  0.00  0.00     0.087 H 
BRANCH  43  45
ATOM     45  C   LYS d   1     -13.758   3.277 -15.372  0.00  0.00     0.241 C 
ATOM     46  O   LYS d   1     -13.309   3.888 -16.346  0.00  0.00    -0.271 OA
ATOM     47  N   ALA d   1     -15.015   2.872 -15.293  0.00  0.00    -0.346 N 
ATOM     48 4H13 ALA d   1     -15.320   2.387 -14.473  0.00  0.00     0.163 HD
BRANCH  47  49
ATOM     49  CA  ALA d   1     -15.962   3.113 -16.365  0.00  0.00     0.086 C 
ATOM     50 5H13 ALA d   1     -15.562   3.910 -17.008  0.00  0.00     0.086 H 
BRANCH  49  51
ATOM     51  C   ALA d   1     -17.303   3.569 -15.814  0.00  0.00     0.240 C 
ATOM     52  O   ALA d   1     -17.765   3.072 -14.785  0.00  0.00    -0.271 OA
ATOM     53  N   LEU d   1     -17.916   4.522 -16.495  0.00  0.00    -0.345 N 
ATOM     54 9H13 LEU d   1     -17.463   4.917 -17.295  0.00  0.00     0.163 HD
BRANCH  53  55
ATOM     55  CA  LEU d   1     -19.230   5.012 -16.113  0.00  0.00     0.096 C 
ATOM     56 0H14 LEU d   1     -19.751   4.210 -15.570  0.00  0.00     0.089 H 
BRANCH  55  57
ATOM     57  C   LEU d   1     -20.041   5.350 -17.361  0.00  0.00     0.196 C 
ATOM     58  O   LEU d   1     -20.229   6.544 -17.657  0.00  0.00    -0.646 OA
ATOM     59  OXT LEU d   1     -20.462   4.406 -18.064  0.00  0.00    -0.646 OA
ENDBRANCH  55  57
BRANCH  55  60
ATOM     60  CB  LEU d   1     -19.125   6.232 -15.175  0.00  0.00    -0.034 C 
ATOM     61 1H14 LEU d   1     -18.698   5.885 -14.222  0.00  0.00     0.037 H 
ATOM     62 2H14 LEU d   1     -20.144   6.610 -15.004  0.00  0.00     0.037 H 
BRANCH  60  63
ATOM     63  CG  LEU d   1     -18.267   7.409 -15.669  0.00  0.00    -0.059 C 
ATOM     64 3H14 LEU d   1     -18.428   7.527 -16.751  0.00  0.00     0.038 H 
BRANCH  63  65
ATOM     65  CD1 LEU d   1     -18.686   8.692 -14.970  0.00  0.00    -0.073 C 
ATOM     66 4H14 LEU d   1     -18.066   9.526 -15.331  0.00  0.00     0.028 H 
ATOM     67 5H14 LEU d   1     -18.552   8.579 -13.884  0.00  0.00     0.028 H 
ATOM     68 6H14 LEU d   1     -19.744   8.900 -15.189  0.00  0.00     0.028 H 
ENDBRANCH  63  65
BRANCH  63  69
ATOM     69  CD2 LEU d   1     -16.786   7.150 -15.426  0.00  0.00    -0.073 C 
ATOM     70 7H14 LEU d   1     -16.488   6.221 -15.934  0.00  0.00     0.028 H 
ATOM     71 8H14 LEU d   1     -16.603   7.052 -14.346  0.00  0.00     0.028 H 
ATOM     72 9H14 LEU d   1     -16.197   7.990 -15.823  0.00  0.00     0.028 H 
ENDBRANCH  63  69
ENDBRANCH  60  63
ENDBRANCH  55  60
ENDBRANCH  53  55
ENDBRANCH  49  51
BRANCH  49  73
ATOM     73  CB  ALA d   1     -16.140   1.857 -17.206  0.00  0.00    -0.049 C 
ATOM     74 6H13 ALA d   1     -16.860   2.055 -18.014  0.00  0.00     0.030 H 
ATOM     75 7H13 ALA d   1     -16.517   1.041 -16.572  0.00  0.00     0.030 H 
ATOM     76 8H13 ALA d   1     -15.172   1.567 -17.641  0.00  0.00     0.030 H 
ENDBRANCH  49  73
ENDBRANCH  47  49
ENDBRANCH  43  45
BRANCH  43  77
ATOM     77  CB  LYS d   1     -12.843   4.080 -13.178  0.00  0.00    -0.038 C 
ATOM     78 3H12 LYS d   1     -13.880   4.316 -12.898  0.00  0.00     0.036 H 
ATOM     79 4H12 LYS d   1     -12.383   4.957 -13.656  0.00  0.00     0.036 H 
BRANCH  77  80
ATOM     80  CG  LYS d   1     -12.064   3.758 -11.912  0.00  0.00    -0.061 C 
ATOM     81 5H12 LYS d   1     -11.027   3.512 -12.184  0.00  0.00     0.033 H 
ATOM     82 6H12 LYS d   1     -12.529   2.892 -11.418  0.00  0.00     0.033 H 
BRANCH  80  83
ATOM     83  CD  LYS d   1     -12.054   4.930 -10.944  0.00  0.00    -0.043 C 
ATOM     84 7H12 LYS d   1     -13.088   5.158 -10.647  0.00  0.00     0.035 H 
ATOM     85 8H12 LYS d   1     -11.616   5.805 -11.446  0.00  0.00     0.035 H 
BRANCH  83  86
ATOM     86  CE  LYS d   1     -11.241   4.615  -9.701  0.00  0.00     0.080 C 
ATOM     87 9H12 LYS d   1     -10.242   4.274 -10.009  0.00  0.00     0.075 H 
ATOM     88 0H13 LYS d   1     -11.746   3.814  -9.141  0.00  0.00     0.075 H 
BRANCH  86  89
ATOM     89  NZ  LYS d   1     -11.090   5.798  -8.812  0.00  0.00    -0.079 N 
ATOM     90 1H13 LYS d   1     -10.546   5.543  -8.003  0.00  0.00     0.274 HD
ATOM     91 2H13 LYS d   1     -12.000   6.116  -8.518  0.00  0.00     0.274 HD
ATOM     92 3H13 LYS d   1     -10.622   6.537  -9.313  0.00  0.00     0.274 HD
ENDBRANCH  86  89
ENDBRANCH  83  86
ENDBRANCH  80  83
ENDBRANCH  77  80
ENDBRANCH  43  77
ENDBRANCH  41  43
ENDBRANCH  37  39
BRANCH  37  93
ATOM     93  CB  ALA d   1      -9.538  -0.185 -16.058  0.00  0.00    -0.049 C 
ATOM     94 8H11 ALA d   1     -10.230  -0.411 -16.883  0.00  0.00     0.030 H 
ATOM     95 9H11 ALA d   1      -9.722  -0.879 -15.225  0.00  0.00     0.030 H 
ATOM     96 0H12 ALA d   1      -8.501  -0.299 -16.408  0.00  0.00     0.030 H 
ENDBRANCH  37  93
ENDBRANCH  35  37
ENDBRANCH  31  33
BRANCH  31  97
ATOM     97  CB  LYS d   1      -7.064   2.634 -12.697  0.00  0.00    -0.038 C 
ATOM     98 5H10 LYS d   1      -6.733   2.449 -13.730  0.00  0.00     0.036 H 
ATOM     99 6H10 LYS d   1      -6.186   2.698 -12.037  0.00  0.00     0.036 H 
BRANCH  97 100
ATOM    100  CG  LYS d   1      -7.785   3.974 -12.661  0.00  0.00    -0.061 C 
ATOM    101 7H10 LYS d   1      -8.786   3.850 -13.099  0.00  0.00     0.033 H 
ATOM    102 8H10 LYS d   1      -7.212   4.701 -13.256  0.00  0.00     0.033 H 
BRANCH 100 103
ATOM    103  CD  LYS d   1      -7.932   4.507 -11.244  0.00  0.00    -0.043 C 
ATOM    104 9H10 LYS d   1      -8.437   3.748 -10.628  0.00  0.00     0.035 H 
ATOM    105 0H11 LYS d   1      -8.540   5.423 -11.269  0.00  0.00     0.035 H 
BRANCH 103 106
ATOM    106  CE  LYS d   1      -6.581   4.828 -10.621  0.00  0.00     0.080 C 
ATOM    107 1H11 LYS d   1      -5.999   5.436 -11.329  0.00  0.00     0.075 H 
ATOM    108 2H11 LYS d   1      -6.048   3.886 -10.422  0.00  0.00     0.075 H 
BRANCH 106 109
ATOM    109  NZ  LYS d   1      -6.721   5.578  -9.346  0.00  0.00    -0.079 N 
ATOM    110 3H11 LYS d   1      -5.807   5.770  -8.967  0.00  0.00     0.274 HD
ATOM    111 4H11 LYS d   1      -7.248   5.026  -8.688  0.00  0.00     0.274 HD
ATOM    112 5H11 LYS d   1      -7.203   6.447  -9.518  0.00  0.00     0.274 HD
ENDBRANCH 106 109
ENDBRANCH 103 106
ENDBRANCH 100 103
ENDBRANCH  97 100
ENDBRANCH  31  97
ENDBRANCH  29  31
ENDBRANCH  25  27
BRANCH  25 113
ATOM    113  CB  LYS d   1      -4.516  -1.853 -13.595  0.00  0.00    -0.038 C 
ATOM    114  H92 LYS d   1      -4.777  -1.655 -14.645  0.00  0.00     0.036 H 
ATOM    115  H93 LYS d   1      -4.190  -2.898 -13.489  0.00  0.00     0.036 H 
BRANCH 113 116
ATOM    116  CG  LYS d   1      -3.357  -0.945 -13.207  0.00  0.00    -0.061 C 
ATOM    117  H94 LYS d   1      -3.711   0.096 -13.189  0.00  0.00     0.033 H 
ATOM    118  H95 LYS d   1      -2.558  -1.048 -13.956  0.00  0.00     0.033 H 
BRANCH 116 119
ATOM    119  CD  LYS d   1      -2.798  -1.300 -11.837  0.00  0.00    -0.043 C 
ATOM    120  H96 LYS d   1      -3.634  -1.421 -11.132  0.00  0.00     0.035 H 
ATOM    121  H97 LYS d   1      -2.146  -0.482 -11.496  0.00  0.00     0.035 H 
BRANCH 119 122
ATOM    122  CE  LYS d   1      -1.992  -2.590 -11.870  0.00  0.00     0.080 C 
ATOM    123  H98 LYS d   1      -2.587  -3.370 -12.369  0.00  0.00     0.075 H 
ATOM    124  H99 LYS d   1      -1.773  -2.900 -10.838  0.00  0.00     0.075 H 
BRANCH 122 125
ATOM    125  NZ  LYS d   1      -0.711  -2.417 -12.604  0.00  0.00    -0.079 N 
ATOM    126 0H10 LYS d   1      -0.205  -3.289 -12.606  0.00  0.00     0.274 HD
ATOM    127 1H10 LYS d   1      -0.157  -1.708 -12.150  0.00  0.00     0.274 HD
ATOM    128 2H10 LYS d   1      -0.903  -2.138 -13.553  0.00  0.00     0.274 HD
ENDBRANCH 122 125
ENDBRANCH 119 122
ENDBRANCH 116 119
ENDBRANCH 113 116
ENDBRANCH  25 113
ENDBRANCH  23  25
ENDBRANCH  19  21
BRANCH  19 129
ATOM    129  CB  ARG d   1      -9.641  -3.649 -12.978  0.00  0.00    -0.036 C 
ATOM    130  H79 ARG d   1      -9.337  -3.222 -13.945  0.00  0.00     0.036 H 
ATOM    131  H80 ARG d   1      -9.996  -2.844 -12.318  0.00  0.00     0.036 H 
BRANCH 129 132
ATOM    132  CG  ARG d   1     -10.786  -4.618 -13.216  0.00  0.00    -0.048 C 
ATOM    133  H81 ARG d   1     -11.020  -5.130 -12.271  0.00  0.00     0.035 H 
ATOM    134  H82 ARG d   1     -10.474  -5.359 -13.967  0.00  0.00     0.035 H 
BRANCH 132 135
ATOM    135  CD  ARG d   1     -12.037  -3.911 -13.714  0.00  0.00     0.009 C 
ATOM    136  H83 ARG d   1     -12.290  -3.103 -13.012  0.00  0.00     0.064 H 
ATOM    137  H84 ARG d   1     -12.863  -4.637 -13.750  0.00  0.00     0.064 H 
BRANCH 135 138
ATOM    138  NE  ARG d   1     -11.859  -3.337 -15.045  0.00  0.00    -0.227 N 
ATOM    139  CZ  ARG d   1     -12.863  -2.909 -15.808  0.00  0.00     0.665 C 
ATOM    140  NH1 ARG d   1     -14.112  -2.977 -15.361  0.00  0.00    -0.235 N 
ATOM    141  NH2 ARG d   1     -12.616  -2.412 -17.015  0.00  0.00    -0.235 N 
ATOM    142  H86 ARG d   1     -14.889  -2.646 -15.951  0.00  0.00     0.174 HD
ATOM    143  H87 ARG d   1     -14.304  -3.361 -14.425  0.00  0.00     0.174 HD
ATOM    144  H88 ARG d   1     -11.648  -2.359 -17.362  0.00  0.00     0.174 HD
ATOM    145  H89 ARG d   1     -13.393  -2.079 -17.604  0.00  0.00     0.174 HD
ATOM    146  H85 ARG d   1     -10.901  -3.259 -15.415  0.00  0.00     0.177 HD
ENDBRANCH 135 138
ENDBRANCH 132 135
ENDBRANCH 129 132
ENDBRANCH  19 129
ENDBRANCH  17  19
ENDBRANCH   4  15
BRANCH   1 147
ATOM    147  CA  LYS d   1     -10.151  -9.814 -10.524  0.00  0.00     0.089 C 
ATOM    148  H58 LYS d   1      -9.205 -10.371 -10.454  0.00  0.00     0.087 H 
BRANCH 147 149
ATOM    149  N   LYS d   1     -11.005 -10.172  -9.410  0.00  0.00    -0.346 N 
ATOM    150  C   LEU d   1     -10.853 -11.295  -8.740  0.00  0.00     0.241 C 
ATOM    151  O   LEU d   1     -10.127 -12.211  -9.127  0.00  0.00    -0.271 OA
ATOM    152  H57 LYS d   1     -11.735  -9.544  -9.141  0.00  0.00     0.163 HD
BRANCH 150 153
ATOM    153  CA  LEU d   1     -11.669 -11.413  -7.452  0.00  0.00     0.089 C 
ATOM    154  H47 LEU d   1     -12.737 -11.463  -7.711  0.00  0.00     0.087 H 
BRANCH 153 155
ATOM    155  N   LEU d   1     -11.308 -12.631  -6.723  0.00  0.00    -0.346 N 
ATOM    156  C   MET d   1     -10.071 -12.846  -6.271  0.00  0.00     0.241 C 
ATOM    157  O   MET d   1      -9.144 -12.048  -6.424  0.00  0.00    -0.271 OA
ATOM    158  H46 LEU d   1     -12.011 -13.323  -6.559  0.00  0.00     0.163 HD
BRANCH 156 159
ATOM    159  CA  MET d   1      -9.833 -14.169  -5.556  0.00  0.00     0.090 C 
ATOM    160  H38 MET d   1      -9.100 -13.999  -4.754  0.00  0.00     0.087 H 
BRANCH 159 161
ATOM    161  N   MET d   1     -11.053 -14.692  -4.946  0.00  0.00    -0.346 N 
ATOM    162  C   THR d   1     -11.581 -14.156  -3.853  0.00  0.00     0.243 C 
ATOM    163  O   THR d   1     -11.139 -13.138  -3.322  0.00  0.00    -0.271 OA
ATOM    164  H37 MET d   1     -11.505 -15.479  -5.366  0.00  0.00     0.163 HD
BRANCH 162 165
ATOM    165  CA  THR d   1     -12.772 -14.896  -3.252  0.00  0.00     0.113 C 
ATOM    166  H31 THR d   1     -13.115 -15.658  -3.968  0.00  0.00     0.091 H 
BRANCH 165 167
ATOM    167  N   THR d   1     -12.360 -15.556  -2.033  0.00  0.00    -0.344 N 
ATOM    168  C   ILE d   1     -12.900 -16.686  -1.626  0.00  0.00     0.241 C 
ATOM    169  O   ILE d   1     -13.867 -17.207  -2.181  0.00  0.00    -0.271 OA
ATOM    170  H30 THR d   1     -11.639 -15.139  -1.479  0.00  0.00     0.163 HD
BRANCH 168 171
ATOM    171  CA  ILE d   1     -12.261 -17.320  -0.403  0.00  0.00     0.092 C 
ATOM    172  H20 ILE d   1     -12.302 -16.609   0.436  0.00  0.00     0.088 H 
BRANCH 171 173
ATOM    173  N   ILE d   1     -12.990 -18.520  -0.015  0.00  0.00    -0.346 N 
ATOM    174  C   ALA d   1     -13.239 -18.799   1.256  0.00  0.00     0.240 C 
ATOM    175  O   ALA d   1     -12.825 -18.107   2.189  0.00  0.00    -0.271 OA
ATOM    176  H19 ILE d   1     -13.310 -19.148  -0.725  0.00  0.00     0.163 HD
BRANCH 174 177
ATOM    177  CA  ALA d   1     -14.056 -20.054   1.528  0.00  0.00     0.086 C 
ATOM    178  H15 ALA d   1     -13.745 -20.837   0.821  0.00  0.00     0.086 H 
BRANCH 177 179
ATOM    179  N   ALA d   1     -13.811 -20.525   2.880  0.00  0.00    -0.346 N 
ATOM    180  C   LEU d   1     -13.536 -21.792   3.147  0.00  0.00     0.248 C 
ATOM    181  O   LEU d   1     -13.492 -22.665   2.281  0.00  0.00    -0.271 OA
ATOM    182  H14 ALA d   1     -13.851 -19.870   3.635  0.00  0.00     0.163 HD
BRANCH 180 183
ATOM    183  CA  LEU d   1     -13.277 -22.130   4.610  0.00  0.00     0.176 C 
ATOM    184  H4  LEU d   1     -13.126 -21.195   5.170  0.00  0.00     0.099 H 
BRANCH 183 185
ATOM    185  N   LEU d   1     -14.444 -22.843   5.173  0.00  0.00    -0.066 N 
ATOM    186  H1  LEU d   1     -14.268 -23.064   6.141  0.00  0.00     0.275 HD
ATOM    187  H2  LEU d   1     -14.599 -23.695   4.656  0.00  0.00     0.275 HD
ATOM    188  H3  LEU d   1     -15.261 -22.256   5.106  0.00  0.00     0.275 HD
ENDBRANCH 183 185
BRANCH 183 189
ATOM    189  CB  LEU d   1     -12.014 -22.996   4.742  0.00  0.00    -0.028 C 
ATOM    190  H5  LEU d   1     -11.951 -23.638   3.851  0.00  0.00     0.037 H 
ATOM    191  H6  LEU d   1     -12.127 -23.623   5.639  0.00  0.00     0.037 H 
BRANCH 189 192
ATOM    192  CG  LEU d   1     -10.686 -22.232   4.866  0.00  0.00    -0.059 C 
ATOM    193  H7  LEU d   1     -10.751 -21.570   5.742  0.00  0.00     0.038 H 
BRANCH 192 194
ATOM    194  CD1 LEU d   1      -9.537 -23.202   5.082  0.00  0.00    -0.073 C 
ATOM    195  H8  LEU d   1      -8.595 -22.641   5.169  0.00  0.00     0.028 H 
ATOM    196  H9  LEU d   1      -9.475 -23.893   4.228  0.00  0.00     0.028 H 
ATOM    197  H10 LEU d   1      -9.709 -23.774   6.005  0.00  0.00     0.028 H 
ENDBRANCH 192 194
BRANCH 192 198
ATOM    198  CD2 LEU d   1     -10.424 -21.372   3.637  0.00  0.00    -0.073 C 
ATOM    199  H11 LEU d   1     -11.262 -20.675   3.492  0.00  0.00     0.028 H 
ATOM    200  H12 LEU d   1     -10.327 -22.018   2.752  0.00  0.00     0.028 H 
ATOM    201  H13 LEU d   1      -9.494 -20.802   3.780  0.00  0.00     0.028 H 
ENDBRANCH 192 198
ENDBRANCH 189 192
ENDBRANCH 183 189
ENDBRANCH 180 183
ENDBRANCH 177 179
BRANCH 177 202
ATOM    202  CB  ALA d   1     -15.538 -19.776   1.323  0.00  0.00    -0.049 C 
ATOM    203  H16 ALA d   1     -15.706 -19.421   0.296  0.00  0.00     0.030 H 
ATOM    204  H17 ALA d   1     -15.869 -19.006   2.036  0.00  0.00     0.030 H 
ATOM    205  H18 ALA d   1     -16.111 -20.700   1.489  0.00  0.00     0.030 H 
ENDBRANCH 177 202
ENDBRANCH 174 177
ENDBRANCH 171 173
BRANCH 171 206
ATOM    206  CB  ILE d   1     -10.780 -17.597  -0.744  0.00  0.00    -0.030 C 
ATOM    207  H21 ILE d   1     -10.660 -17.508  -1.834  0.00  0.00     0.043 H 
BRANCH 206 208
ATOM    208  CG1 ILE d   1     -10.361 -19.006  -0.340  0.00  0.00    -0.063 C 
ATOM    209  H22 ILE d   1     -11.077 -19.721  -0.771  0.00  0.00     0.033 H 
ATOM    210  H23 ILE d   1     -10.387 -19.078   0.757  0.00  0.00     0.033 H 
BRANCH 208 211
ATOM    211  CD1 ILE d   1      -8.974 -19.371  -0.812  0.00  0.00    -0.076 C 
ATOM    212  H27 ILE d   1      -8.735 -20.395  -0.489  0.00  0.00     0.027 H 
ATOM    213  H28 ILE d   1      -8.244 -18.670  -0.381  0.00  0.00     0.027 H 
ATOM    214  H29 ILE d   1      -8.933 -19.314  -1.910  0.00  0.00     0.027 H 
ENDBRANCH 208 211
ENDBRANCH 206 208
BRANCH 206 215
ATOM    215  CG2 ILE d   1      -9.885 -16.563  -0.082  0.00  0.00    -0.071 C 
ATOM    216  H24 ILE d   1     -10.203 -15.555  -0.386  0.00  0.00     0.028 H 
ATOM    217  H25 ILE d   1      -8.843 -16.728  -0.392  0.00  0.00     0.028 H 
ATOM    218  H26 ILE d   1      -9.961 -16.658   1.011  0.00  0.00     0.028 H 
ENDBRANCH 206 215
ENDBRANCH 171 206
ENDBRANCH 168 171
ENDBRANCH 165 167
BRANCH 165 219
ATOM    219  CB  THR d   1     -13.931 -13.921  -2.984  0.00  0.00     0.060 C 
ATOM    220  H32 THR d   1     -13.592 -13.157  -2.269  0.00  0.00     0.086 H 
BRANCH 219 221
ATOM    221  OG1 THR d   1     -15.042 -14.635  -2.417  0.00  0.00    -0.393 OA
ATOM    222  H33 THR d   1     -14.774 -15.039  -1.600  0.00  0.00     0.210 HD
ENDBRANCH 219 221
BRANCH 219 223
ATOM    223  CG2 THR d   1     -14.369 -13.233  -4.263  0.00  0.00    -0.050 C 
ATOM    224  H34 THR d   1     -15.197 -12.543  -4.043  0.00  0.00     0.031 H 
ATOM    225  H35 THR d   1     -14.704 -13.988  -4.989  0.00  0.00     0.031 H 
ATOM    226  H36 THR d   1     -13.524 -12.669  -4.684  0.00  0.00     0.031 H 
ENDBRANCH 219 223
ENDBRANCH 165 219
ENDBRANCH 162 165
ENDBRANCH 159 161
BRANCH 159 227
ATOM    227  CB  MET d   1      -9.245 -15.180  -6.543  0.00  0.00    -0.030 C 
ATOM    228  H39 MET d   1      -8.944 -14.636  -7.450  0.00  0.00     0.037 H 
ATOM    229  H40 MET d   1     -10.030 -15.908  -6.795  0.00  0.00     0.037 H 
BRANCH 227 230
ATOM    230  CG  MET d   1      -8.033 -15.951  -6.029  0.00  0.00    -0.021 C 
ATOM    231  H41 MET d   1      -7.311 -15.228  -5.622  0.00  0.00     0.049 H 
ATOM    232  H42 MET d   1      -7.579 -16.486  -6.876  0.00  0.00     0.049 H 
BRANCH 230 233
ATOM    233  SD  MET d   1      -8.420 -17.157  -4.736  0.00  0.00    -0.173 SA
BRANCH 233 234
ATOM    234  CE  MET d   1      -8.428 -16.125  -3.272  0.00  0.00    -0.035 C 
ATOM    235  H43 MET d   1      -8.655 -16.742  -2.390  0.00  0.00     0.041 H 
ATOM    236  H44 MET d   1      -9.194 -15.342  -3.379  0.00  0.00     0.041 H 
ATOM    237  H45 MET d   1      -7.440 -15.657  -3.148  0.00  0.00     0.041 H 
ENDBRANCH 233 234
ENDBRANCH 230 233
ENDBRANCH 227 230
ENDBRANCH 159 227
ENDBRANCH 156 159
ENDBRANCH 153 155
BRANCH 153 238
ATOM    238  CB  LEU d   1     -11.427 -10.165  -6.581  0.00  0.00    -0.035 C 
ATOM    239  H48 LEU d   1     -10.729  -9.509  -7.123  0.00  0.00     0.037 H 
ATOM    240  H49 LEU d   1     -10.962 -10.498  -5.641  0.00  0.00     0.037 H 
BRANCH 238 241
ATOM    241  CG  LEU d   1     -12.665  -9.331  -6.219  0.00  0.00    -0.059 C 
ATOM    242  H50 LEU d   1     -12.326  -8.445  -5.661  0.00  0.00     0.038 H 
BRANCH 241 243
ATOM    243  CD1 LEU d   1     -13.393  -8.854  -7.461  0.00  0.00    -0.073 C 
ATOM    244  H51 LEU d   1     -14.272  -8.262  -7.166  0.00  0.00     0.028 H 
ATOM    245  H52 LEU d   1     -13.718  -9.723  -8.052  0.00  0.00     0.028 H 
ATOM    246  H53 LEU d   1     -12.717  -8.231  -8.066  0.00  0.00     0.028 H 
ENDBRANCH 241 243
BRANCH 241 247
ATOM    247  CD2 LEU d   1     -13.598 -10.117  -5.332  0.00  0.00    -0.073 C 
ATOM    248  H54 LEU d   1     -13.055 -10.455  -4.437  0.00  0.00     0.028 H 
ATOM    249  H55 LEU d   1     -13.978 -10.991  -5.882  0.00  0.00     0.028 H 
ATOM    250  H56 LEU d   1     -14.441  -9.479  -5.030  0.00  0.00     0.028 H 
ENDBRANCH 241 247
ENDBRANCH 238 241
ENDBRANCH 153 238
ENDBRANCH 150 153
ENDBRANCH 147 149
BRANCH 147 251
ATOM    251  CB  LYS d   1     -10.829 -10.157 -11.859  0.00  0.00    -0.038 C 
ATOM    252  H59 LYS d   1     -11.408  -9.280 -12.185  0.00  0.00     0.036 H 
ATOM    253  H60 LYS d   1     -11.510 -11.004 -11.691  0.00  0.00     0.036 H 
BRANCH 251 254
ATOM    254  CG  LYS d   1      -9.865 -10.536 -12.982  0.00  0.00    -0.061 C 
ATOM    255  H61 LYS d   1     -10.452 -10.837 -13.862  0.00  0.00     0.033 H 
ATOM    256  H62 LYS d   1      -9.249 -11.383 -12.645  0.00  0.00     0.033 H 
BRANCH 254 257
ATOM    257  CD  LYS d   1      -8.942  -9.392 -13.382  0.00  0.00    -0.043 C 
ATOM    258  H63 LYS d   1      -8.332  -9.102 -12.514  0.00  0.00     0.035 H 
ATOM    259  H64 LYS d   1      -9.551  -8.535 -13.705  0.00  0.00     0.035 H 
BRANCH 257 260
ATOM    260  CE  LYS d   1      -8.021  -9.805 -14.522  0.00  0.00     0.080 C 
ATOM    261  H65 LYS d   1      -8.636 -10.086 -15.390  0.00  0.00     0.075 H 
ATOM    262  H66 LYS d   1      -7.425 -10.671 -14.199  0.00  0.00     0.075 H 
BRANCH 260 263
ATOM    263  NZ  LYS d   1      -7.097  -8.712 -14.925  0.00  0.00    -0.079 N 
ATOM    264  H67 LYS d   1      -6.509  -9.030 -15.680  0.00  0.00     0.274 HD
ATOM    265  H68 LYS d   1      -6.523  -8.450 -14.139  0.00  0.00     0.274 HD
ATOM    266  H69 LYS d   1      -7.633  -7.914 -15.230  0.00  0.00     0.274 HD
ENDBRANCH 260 263
ENDBRANCH 257 260
ENDBRANCH 254 257
ENDBRANCH 251 254
ENDBRANCH 147 251
ENDBRANCH   1 147
TORSDOF 79
