REMARK  12 active torsions:
REMARK  status: ('A' for Active; 'I' for Inactive)
REMARK    1  A    between atoms: C03_3  and  O04_42 
REMARK    2  A    between atoms: C05_4  and  O06_43 
REMARK    3  A    between atoms: C11_8  and  C38_29 
REMARK    4  A    between atoms: C14_11  and  C13_10 
REMARK       I    between atoms: N16_39  and  C14_11 
REMARK    5  A    between atoms: C17_12  and  N16_39 
REMARK    6  A    between atoms: C21_15  and  C23_17 
REMARK    7  A    between atoms: C24_18  and  C35_26 
REMARK    8  A    between atoms: C27_19  and  C28_20 
REMARK    9  A    between atoms: C35_26  and  C36_27 
REMARK   10  A    between atoms: C35_26  and  C37_28 
REMARK   11  A    between atoms: C41_32  and  O42_46 
REMARK   12  A    between atoms: O42_46  and  C43_33 
ROOT
ATOM      1  C1  CG5 d   1     -14.204 -34.023 -16.858  0.00  0.00     0.122 C 
ATOM      2  C02 CG5 d   1     -15.444 -32.256 -15.813  0.00  0.00     0.110 C 
ATOM      3  C03 CG5 d   1     -16.439 -31.240 -16.284  0.00  0.00     0.085 C 
ATOM      4  C05 CG5 d   1     -16.181 -31.260 -17.762  0.00  0.00     0.091 C 
ATOM      5  C07 CG5 d   1     -15.891 -32.710 -18.120  0.00  0.00     0.146 C 
ATOM      6  C08 CG5 d   1     -14.925 -32.814 -19.272  0.00  0.00     0.030 C 
ATOM      7  C10 CG5 d   1     -13.887 -34.583 -18.175  0.00  0.00     0.049 A 
ATOM      8  C11 CG5 d   1     -13.133 -35.767 -18.450  0.00  0.00     0.001 A 
ATOM      9  C12 CG5 d   1     -13.093 -35.833 -19.809  0.00  0.00    -0.039 A 
ATOM     10  C13 CG5 d   1     -13.764 -34.747 -20.318  0.00  0.00     0.104 A 
ATOM     11  N01 CG5 d   1     -15.395 -33.251 -16.873  0.00  0.00    -0.055 N 
ATOM     12  N09 CG5 d   1     -14.210 -34.037 -19.295  0.00  0.00    -0.342 N 
ATOM     13  H1  CG5 d   1     -13.370 -33.381 -16.537  0.00  0.00     0.085 H 
ATOM     14  H2  CG5 d   1     -14.327 -34.849 -16.143  0.00  0.00     0.085 H 
ATOM     15  H3  CG5 d   1     -15.775 -32.713 -14.868  0.00  0.00     0.080 H 
ATOM     16  H4  CG5 d   1     -14.456 -31.793 -15.671  0.00  0.00     0.080 H 
ATOM     17  H5  CG5 d   1     -16.285 -30.248 -15.833  0.00  0.00     0.089 H 
ATOM     18  H6  CG5 d   1     -15.296 -30.650 -17.994  0.00  0.00     0.090 H 
ATOM     19  H7  CG5 d   1     -16.819 -33.226 -18.406  0.00  0.00     0.091 H 
ATOM     20  H8  CG5 d   1     -14.202 -31.988 -19.197  0.00  0.00     0.068 H 
ATOM     21  H9  CG5 d   1     -15.490 -32.722 -20.211  0.00  0.00     0.068 H 
ATOM     22  H10 CG5 d   1     -12.611 -36.614 -20.394  0.00  0.00     0.088 H 
ATOM     23  H32 CG5 d   1     -16.100 -33.925 -16.619  0.00  0.00     0.281 HD
ENDROOT
BRANCH  10  24
ATOM     24  C14 CG5 d   1     -13.901 -34.446 -21.780  0.00  0.00     0.274 C 
ATOM     25  N16 CG5 d   1     -13.097 -35.103 -22.627  0.00  0.00    -0.306 N 
ATOM     26  H33 CG5 d   1     -12.572 -35.865 -22.248  0.00  0.00     0.170 HD
ATOM     27  O15 CG5 d   1     -14.672 -33.595 -22.052  0.00  0.00    -0.266 OA
BRANCH  25  28
ATOM     28  C17 CG5 d   1     -12.926 -34.843 -23.925  0.00  0.00     0.130 A 
ATOM     29  C22 CG5 d   1     -13.683 -33.939 -24.601  0.00  0.00    -0.028 A 
ATOM     30  C21 CG5 d   1     -13.453 -33.685 -25.929  0.00  0.00    -0.016 A 
ATOM     31  H13 CG5 d   1     -14.478 -33.413 -24.085  0.00  0.00     0.090 H 
ATOM     32  C20 CG5 d   1     -12.460 -34.354 -26.530  0.00  0.00    -0.055 A 
ATOM     33  C19 CG5 d   1     -11.756 -35.279 -25.799  0.00  0.00     0.005 A 
ATOM     34  H12 CG5 d   1     -12.218 -34.169 -27.570  0.00  0.00     0.087 H 
ATOM     35  N18 CG5 d   1     -11.978 -35.457 -24.557  0.00  0.00    -0.243 NA
ATOM     36  H11 CG5 d   1     -10.993 -35.872 -26.290  0.00  0.00     0.114 H 
BRANCH  30  37
ATOM     37  C23 CG5 d   1     -14.251 -32.685 -26.667  0.00  0.00     0.038 A 
ATOM     38  C24 CG5 d   1     -14.783 -31.449 -26.128  0.00  0.00     0.095 A 
ATOM     39  O25 CG5 d   1     -15.394 -30.859 -27.113  0.00  0.00    -0.216 OA
ATOM     40  N26 CG5 d   1     -15.355 -31.516 -28.205  0.00  0.00    -0.127 NA
ATOM     41  C27 CG5 d   1     -14.637 -32.620 -27.995  0.00  0.00     0.108 A 
BRANCH  38  42
ATOM     42  C35 CG5 d   1     -14.737 -30.781 -24.816  0.00  0.00    -0.011 C 
ATOM     43  H18 CG5 d   1     -13.834 -31.127 -24.292  0.00  0.00     0.049 H 
BRANCH  42  44
ATOM     44  C36 CG5 d   1     -14.692 -29.283 -24.900  0.00  0.00    -0.067 C 
ATOM     45  H19 CG5 d   1     -14.659 -28.860 -23.885  0.00  0.00     0.028 H 
ATOM     46  H20 CG5 d   1     -15.589 -28.918 -25.421  0.00  0.00     0.028 H 
ATOM     47  H21 CG5 d   1     -13.794 -28.974 -25.455  0.00  0.00     0.028 H 
ENDBRANCH  42  44
BRANCH  42  48
ATOM     48  C37 CG5 d   1     -15.941 -31.150 -24.014  0.00  0.00    -0.067 C 
ATOM     49  H22 CG5 d   1     -16.005 -32.245 -23.932  0.00  0.00     0.028 H 
ATOM     50  H23 CG5 d   1     -16.844 -30.766 -24.511  0.00  0.00     0.028 H 
ATOM     51  H24 CG5 d   1     -15.861 -30.711 -23.009  0.00  0.00     0.028 H 
ENDBRANCH  42  48
ENDBRANCH  38  42
BRANCH  41  52
ATOM     52  C28 CG5 d   1     -14.483 -33.620 -29.063  0.00  0.00    -0.004 A 
ATOM     53  C29 CG5 d   1     -14.066 -33.292 -30.320  0.00  0.00    -0.068 A 
ATOM     54  C30 CG5 d   1     -14.010 -34.232 -31.300  0.00  0.00    -0.045 A 
ATOM     55  H14 CG5 d   1     -13.776 -32.271 -30.539  0.00  0.00     0.085 H 
ATOM     56  C31 CG5 d   1     -14.378 -35.526 -31.014  0.00  0.00     0.116 A 
ATOM     57  H15 CG5 d   1     -13.679 -33.965 -32.297  0.00  0.00     0.088 H 
ATOM     58  C33 CG5 d   1     -14.816 -35.870 -29.763  0.00  0.00    -0.045 A 
ATOM     59  F32 CG5 d   1     -14.284 -36.411 -31.944  0.00  0.00    -0.206 F 
ATOM     60  C34 CG5 d   1     -14.888 -34.909 -28.805  0.00  0.00    -0.068 A 
ATOM     61  H16 CG5 d   1     -15.101 -36.892 -29.541  0.00  0.00     0.088 H 
ATOM     62  H17 CG5 d   1     -15.270 -35.162 -27.823  0.00  0.00     0.085 H 
ENDBRANCH  41  52
ENDBRANCH  30  37
ENDBRANCH  25  28
ENDBRANCH  10  24
BRANCH   8  63
ATOM     63  C38 CG5 d   1     -12.618 -36.734 -17.488  0.00  0.00    -0.024 A 
ATOM     64  C39 CG5 d   1     -11.872 -36.372 -16.412  0.00  0.00    -0.070 A 
ATOM     65  C40 CG5 d   1     -11.443 -37.333 -15.553  0.00  0.00    -0.050 A 
ATOM     66  H25 CG5 d   1     -11.623 -35.331 -16.241  0.00  0.00     0.085 H 
ATOM     67  C41 CG5 d   1     -11.771 -38.639 -15.763  0.00  0.00     0.068 A 
ATOM     68  H26 CG5 d   1     -10.837 -37.060 -14.697  0.00  0.00     0.087 H 
ATOM     69  C44 CG5 d   1     -12.557 -39.028 -16.804  0.00  0.00    -0.050 A 
ATOM     70  C45 CG5 d   1     -12.970 -38.053 -17.678  0.00  0.00    -0.070 A 
ATOM     71  H30 CG5 d   1     -12.845 -40.065 -16.937  0.00  0.00     0.087 H 
ATOM     72  H31 CG5 d   1     -13.582 -38.325 -18.530  0.00  0.00     0.085 H 
BRANCH  67  73
ATOM     73  O42 CG5 d   1     -11.352 -39.532 -14.886  0.00  0.00    -0.356 OA
BRANCH  73  74
ATOM     74  C43 CG5 d   1     -12.070 -40.717 -14.759  0.00  0.00     0.010 C 
ATOM     75  H27 CG5 d   1     -11.598 -41.351 -13.994  0.00  0.00     0.066 H 
ATOM     76  H28 CG5 d   1     -12.076 -41.247 -15.723  0.00  0.00     0.066 H 
ATOM     77  H29 CG5 d   1     -13.104 -40.489 -14.460  0.00  0.00     0.066 H 
ENDBRANCH  73  74
ENDBRANCH  67  73
ENDBRANCH   8  63
BRANCH   4  78
ATOM     78  O06 CG5 d   1     -17.263 -30.726 -18.435  0.00  0.00    -0.391 OA
ATOM     79  H35 CG5 d   1     -18.042 -31.229 -18.230  0.00  0.00     0.210 HD
ENDBRANCH   4  78
BRANCH   3  80
ATOM     80  O04 CG5 d   1     -17.738 -31.712 -16.044  0.00  0.00    -0.391 OA
ATOM     81  H34 CG5 d   1     -18.364 -31.152 -16.488  0.00  0.00     0.210 HD
ENDBRANCH   3  80
TORSDOF 12
