REMARK  4 active torsions:
REMARK  status: ('A' for Active; 'I' for Inactive)
REMARK    1  A    between atoms: C2_2  and  C11_8 
REMARK    2  A    between atoms: C7_4  and  C8_5 
REMARK    3  A    between atoms: N1_20  and  C7_4 
REMARK    4  A    between atoms: C6_17  and  C5_15 
REMARK       I    between atoms: C6_17  and  N1_20 
ROOT
ATOM      1  C1  C9Q d   1       2.237 -26.046  17.861  0.00  0.00    -0.054 A 
ATOM      2  C2  C9Q d   1       1.317 -25.232  17.188  0.00  0.00    -0.010 A 
ATOM      3  C3  C9Q d   1       1.829 -24.277  16.309  0.00  0.00     0.023 A 
ATOM      4  C9  C9Q d   1       3.190 -24.194  16.183  0.00  0.00     0.139 A 
ATOM      5  C10 C9Q d   1       3.576 -25.852  17.633  0.00  0.00     0.005 A 
ATOM      6  C4  C9Q d   1       1.287 -23.255  15.470  0.00  0.00    -0.037 A 
ATOM      7  C5  C9Q d   1       2.322 -22.599  14.826  0.00  0.00     0.103 A 
ATOM      8  N2  C9Q d   1       3.470 -23.200  15.291  0.00  0.00    -0.336 N 
ATOM      9  N3  C9Q d   1       4.116 -24.934  16.787  0.00  0.00    -0.242 NA
ATOM     10  H1  C9Q d   1       1.898 -26.813  18.548  0.00  0.00     0.087 H 
ATOM     11  H7  C9Q d   1       4.266 -26.488  18.176  0.00  0.00     0.114 H 
ATOM     12  H12 C9Q d   1       0.228 -23.028  15.355  0.00  0.00     0.088 H 
ATOM     13  H13 C9Q d   1       4.422 -22.933  15.002  0.00  0.00     0.168 HD
ENDROOT
BRANCH   2  14
ATOM     14  C11 C9Q d   1      -0.131 -25.346  17.286  0.00  0.00    -0.023 A 
ATOM     15  C12 C9Q d   1      -0.880 -25.435  16.072  0.00  0.00    -0.051 A 
ATOM     16  C13 C9Q d   1      -2.268 -25.547  16.068  0.00  0.00     0.034 A 
ATOM     17  H8  C9Q d   1      -0.352 -25.415  15.126  0.00  0.00     0.087 H 
ATOM     18  C14 C9Q d   1      -2.942 -25.592  17.280  0.00  0.00    -0.062 A 
ATOM     19 CL1  C9Q d   1      -3.187 -25.622  14.579  0.00  0.00    -0.084 Cl
ATOM     20  C15 C9Q d   1      -2.224 -25.543  18.476  0.00  0.00    -0.081 A 
ATOM     21  H9  C9Q d   1      -4.023 -25.665  17.298  0.00  0.00     0.086 H 
ATOM     22  C16 C9Q d   1      -0.835 -25.416  18.477  0.00  0.00    -0.072 A 
ATOM     23  H10 C9Q d   1      -2.755 -25.605  19.419  0.00  0.00     0.083 H 
ATOM     24  H11 C9Q d   1      -0.301 -25.372  19.419  0.00  0.00     0.084 H 
ENDBRANCH   2  14
BRANCH   7  25
ATOM     25  C6  C9Q d   1       2.182 -21.480  13.898  0.00  0.00     0.268 C 
ATOM     26  O1  C9Q d   1       1.096 -20.951  13.693  0.00  0.00    -0.266 OA
ATOM     27  N1  C9Q d   1       3.290 -21.014  13.220  0.00  0.00    -0.356 N 
ATOM     28  H14 C9Q d   1       4.124 -21.566  13.229  0.00  0.00     0.162 HD
BRANCH  27  29
ATOM     29  C7  C9Q d   1       3.295 -19.746  12.489  0.00  0.00    -0.008 C 
ATOM     30  H2  C9Q d   1       2.319 -19.623  11.997  0.00  0.00     0.063 H 
ATOM     31  H3  C9Q d   1       3.449 -18.929  13.209  0.00  0.00     0.063 H 
BRANCH  29  32
ATOM     32  C8  C9Q d   1       4.383 -19.667  11.429  0.00  0.00    -0.061 C 
ATOM     33  H4  C9Q d   1       4.330 -18.693  10.921  0.00  0.00     0.029 H 
ATOM     34  H5  C9Q d   1       4.238 -20.472  10.694  0.00  0.00     0.029 H 
ATOM     35  H6  C9Q d   1       5.368 -19.778  11.906  0.00  0.00     0.029 H 
ENDBRANCH  29  32
ENDBRANCH  27  29
ENDBRANCH   7  25
TORSDOF 4
