REMARK  2 active torsions:
REMARK  status: ('A' for Active; 'I' for Inactive)
REMARK    1  A    between atoms: N2_16  and  C3_3 
REMARK    2  A    between atoms: C6_19  and  C7_4 
ROOT
ATOM      1  C13 C9B d   1      -1.845 -10.233 -19.192  0.00  0.00     0.042 C 
ATOM      2  C14 C9B d   1      -1.657  -8.084 -20.069  0.00  0.00     0.034 C 
ATOM      3  C15 C9B d   1      -0.655  -7.622 -19.003  0.00  0.00     0.016 C 
ATOM      4  N2  C9B d   1      -0.066  -8.760 -18.305  0.00  0.00    -0.367 N 
ATOM      5  C6  C9B d   1      -0.871  -9.951 -18.029  0.00  0.00     0.058 C 
ATOM      6  O1  C9B d   1      -2.544  -9.038 -19.501  0.00  0.00    -0.387 OA
ATOM      7  H6  C9B d   1      -2.561 -11.014 -18.894  0.00  0.00     0.078 H 
ATOM      8  H7  C9B d   1      -1.280 -10.570 -20.074  0.00  0.00     0.078 H 
ATOM      9  H8  C9B d   1      -1.114  -8.542 -20.909  0.00  0.00     0.076 H 
ATOM     10  H9  C9B d   1      -2.232  -7.219 -20.432  0.00  0.00     0.076 H 
ATOM     11  H10 C9B d   1      -1.175  -6.984 -18.274  0.00  0.00     0.067 H 
ATOM     12  H11 C9B d   1       0.146  -7.045 -19.489  0.00  0.00     0.067 H 
ATOM     13  H16 C9B d   1      -0.182 -10.802 -17.929  0.00  0.00     0.083 H 
ENDROOT
BRANCH   4  14
ATOM     14  C3  C9B d   1       1.249  -8.655 -17.852  0.00  0.00     0.048 A 
ATOM     15  C2  C9B d   1       1.784  -9.457 -16.822  0.00  0.00     0.057 A 
ATOM     16  C1  C9B d   1       3.142  -9.226 -16.501  0.00  0.00     0.182 A 
ATOM     17  C16 C9B d   1       1.372 -10.501 -15.932  0.00  0.00     0.012 A 
ATOM     18  N1  C9B d   1       3.978  -8.332 -17.078  0.00  0.00    -0.239 NA
ATOM     19  N4  C9B d   1       3.407 -10.114 -15.485  0.00  0.00    -0.154 NA
ATOM     20  C5  C9B d   1       3.415  -7.592 -18.051  0.00  0.00     0.007 A 
ATOM     21  C4  C9B d   1       2.083  -7.714 -18.469  0.00  0.00    -0.039 A 
ATOM     22  H15 C9B d   1       4.034  -6.851 -18.545  0.00  0.00     0.114 H 
ATOM     23  H13 C9B d   1       1.701  -7.084 -19.264  0.00  0.00     0.089 H 
ATOM     24  N3  C9B d   1       2.346 -10.877 -15.145  0.00  0.00    -0.286 N 
ATOM     25  H14 C9B d   1       2.311 -11.604 -14.417  0.00  0.00     0.188 HD
ATOM     26  H12 C9B d   1       0.371 -10.929 -15.913  0.00  0.00     0.115 H 
ENDBRANCH   4  14
BRANCH   5  27
ATOM     27  C7  C9B d   1      -1.691  -9.854 -16.758  0.00  0.00    -0.033 A 
ATOM     28  C8  C9B d   1      -2.332 -11.003 -16.264  0.00  0.00    -0.075 A 
ATOM     29  C9  C9B d   1      -3.100 -10.943 -15.091  0.00  0.00    -0.082 A 
ATOM     30  H1  C9B d   1      -2.232 -11.944 -16.794  0.00  0.00     0.084 H 
ATOM     31  C10 C9B d   1      -3.217  -9.719 -14.417  0.00  0.00    -0.083 A 
ATOM     32  H2  C9B d   1      -3.595 -11.829 -14.712  0.00  0.00     0.083 H 
ATOM     33  C11 C9B d   1      -2.576  -8.572 -14.906  0.00  0.00    -0.082 A 
ATOM     34  H3  C9B d   1      -3.808  -9.659 -13.510  0.00  0.00     0.083 H 
ATOM     35  C12 C9B d   1      -1.810  -8.630 -16.079  0.00  0.00    -0.075 A 
ATOM     36  H4  C9B d   1      -2.673  -7.633 -14.373  0.00  0.00     0.083 H 
ATOM     37  H5  C9B d   1      -1.316  -7.742 -16.457  0.00  0.00     0.084 H 
ENDBRANCH   5  27
TORSDOF 2
