REMARK  2 active torsions:
REMARK  status: ('A' for Active; 'I' for Inactive)
REMARK    1  A    between atoms: C9_6  and  C10_7 
REMARK    2  A    between atoms: C5_15  and  N2_17 
ROOT
ATOM      1  C7  C8Z d   1      -2.004  -8.657 -20.077  0.00  0.00    -0.048 C 
ATOM      2  C8  C8Z d   1      -1.730 -10.108 -19.677  0.00  0.00    -0.041 C 
ATOM      3  C9  C8Z d   1      -0.828  -9.923 -18.432  0.00  0.00     0.037 C 
ATOM      4  N2  C8Z d   1       0.015  -8.803 -18.855  0.00  0.00    -0.371 N 
ATOM      5  C6  C8Z d   1      -0.617  -7.995 -19.914  0.00  0.00    -0.004 C 
ATOM      6  H2  C8Z d   1      -2.746  -8.194 -19.409  0.00  0.00     0.035 H 
ATOM      7  H3  C8Z d   1      -2.356  -8.591 -21.117  0.00  0.00     0.035 H 
ATOM      8  H4  C8Z d   1      -1.205 -10.652 -20.476  0.00  0.00     0.036 H 
ATOM      9  H5  C8Z d   1      -2.660 -10.637 -19.423  0.00  0.00     0.036 H 
ATOM     10  H6  C8Z d   1      -0.212 -10.818 -18.261  0.00  0.00     0.080 H 
ATOM     11  H15 C8Z d   1      -0.715  -6.944 -19.604  0.00  0.00     0.064 H 
ATOM     12  H16 C8Z d   1      -0.041  -8.049 -20.849  0.00  0.00     0.064 H 
ENDROOT
BRANCH   4  13
ATOM     13  C5  C8Z d   1       1.281  -8.584 -18.378  0.00  0.00     0.046 A 
ATOM     14  C2  C8Z d   1       1.802  -9.264 -17.249  0.00  0.00     0.038 A 
ATOM     15  C1  C8Z d   1       3.156  -8.961 -16.925  0.00  0.00     0.139 A 
ATOM     16  C3  C8Z d   1       1.349 -10.228 -16.278  0.00  0.00    -0.052 A 
ATOM     17  N1  C8Z d   1       3.474  -9.687 -15.809  0.00  0.00    -0.350 N 
ATOM     18  N3  C8Z d   1       3.997  -8.123 -17.528  0.00  0.00    -0.242 NA
ATOM     19  C4  C8Z d   1       2.397 -10.448 -15.424  0.00  0.00    -0.020 A 
ATOM     20  H13 C8Z d   1       4.385  -9.666 -15.329  0.00  0.00     0.166 HD
ATOM     21  H14 C8Z d   1       2.379 -11.123 -14.570  0.00  0.00     0.111 H 
ATOM     22  C17 C8Z d   1       3.466  -7.504 -18.577  0.00  0.00     0.007 A 
ATOM     23  C16 C8Z d   1       2.160  -7.703 -19.038  0.00  0.00    -0.039 A 
ATOM     24  H17 C8Z d   1       4.088  -6.796 -19.113  0.00  0.00     0.114 H 
ATOM     25  H12 C8Z d   1       1.819  -7.170 -19.918  0.00  0.00     0.089 H 
ATOM     26  H1  C8Z d   1       0.365 -10.691 -16.232  0.00  0.00     0.087 H 
ENDBRANCH   4  13
BRANCH   3  27
ATOM     27  C10 C8Z d   1      -1.637  -9.665 -17.182  0.00  0.00    -0.035 A 
ATOM     28  C11 C8Z d   1      -2.365 -10.717 -16.622  0.00  0.00    -0.075 A 
ATOM     29  C12 C8Z d   1      -3.123 -10.518 -15.470  0.00  0.00    -0.082 A 
ATOM     30  H7  C8Z d   1      -2.340 -11.696 -17.087  0.00  0.00     0.084 H 
ATOM     31  C13 C8Z d   1      -3.144  -9.254 -14.870  0.00  0.00    -0.083 A 
ATOM     32  H8  C8Z d   1      -3.692 -11.336 -15.042  0.00  0.00     0.083 H 
ATOM     33  C14 C8Z d   1      -2.430  -8.202 -15.431  0.00  0.00    -0.082 A 
ATOM     34  H9  C8Z d   1      -3.719  -9.095 -13.965  0.00  0.00     0.083 H 
ATOM     35  C15 C8Z d   1      -1.669  -8.410 -16.578  0.00  0.00    -0.075 A 
ATOM     36  H10 C8Z d   1      -2.466  -7.219 -14.975  0.00  0.00     0.083 H 
ATOM     37  H11 C8Z d   1      -1.099  -7.592 -17.003  0.00  0.00     0.084 H 
ENDBRANCH   3  27
TORSDOF 2
