REMARK  12 active torsions:
REMARK  status: ('A' for Active; 'I' for Inactive)
REMARK    1  A    between atoms: C13_1  and  O14_43 
REMARK    2  A    between atoms: C15_2  and  C09_14 
REMARK       I    between atoms: N17_39  and  C15_2 
REMARK    3  A    between atoms: C22_5  and  C24_6 
REMARK    4  A    between atoms: C28_7  and  C29_20 
REMARK    5  A    between atoms: C01_8  and  O02_42 
REMARK    6  A    between atoms: C07_12  and  C39_29 
REMARK    7  A    between atoms: C18_17  and  N17_39 
REMARK    8  A    between atoms: C25_19  and  C36_26 
REMARK    9  A    between atoms: C36_26  and  C37_27 
REMARK   10  A    between atoms: C36_26  and  C38_28 
REMARK   11  A    between atoms: C42_32  and  O43_46 
REMARK   12  A    between atoms: O43_46  and  C44_33 
ROOT
ATOM      1  C13 C9Z d   1      14.214  -1.217  27.288  0.00  0.00     0.091 C 
ATOM      2  C01 C9Z d   1      14.475  -2.627  27.853  0.00  0.00     0.085 C 
ATOM      3  C03 C9Z d   1      15.731  -3.013  27.042  0.00  0.00     0.110 C 
ATOM      4  C05 C9Z d   1      17.609  -1.603  26.200  0.00  0.00     0.122 C 
ATOM      5  C06 C9Z d   1      17.861  -0.133  25.743  0.00  0.00     0.049 A 
ATOM      6  C07 C9Z d   1      18.973   0.421  25.189  0.00  0.00     0.001 A 
ATOM      7  C08 C9Z d   1      18.684   1.764  24.977  0.00  0.00    -0.039 A 
ATOM      8  C09 C9Z d   1      17.402   1.985  25.424  0.00  0.00     0.104 A 
ATOM      9  C11 C9Z d   1      15.597   0.614  26.486  0.00  0.00     0.030 C 
ATOM     10  C12 C9Z d   1      15.451  -0.713  27.237  0.00  0.00     0.146 C 
ATOM     11  N04 C9Z d   1      16.256  -1.898  26.548  0.00  0.00    -0.055 N 
ATOM     12  N10 C9Z d   1      16.912   0.839  25.900  0.00  0.00    -0.342 N 
ATOM     13  H1  C9Z d   1      13.754  -1.238  26.289  0.00  0.00     0.090 H 
ATOM     14  H4  C9Z d   1      13.637  -3.309  27.644  0.00  0.00     0.089 H 
ATOM     15  H5  C9Z d   1      15.453  -3.691  26.221  0.00  0.00     0.080 H 
ATOM     16  H6  C9Z d   1      16.461  -3.511  27.697  0.00  0.00     0.080 H 
ATOM     17  H7  C9Z d   1      18.239  -1.801  27.079  0.00  0.00     0.085 H 
ATOM     18  H8  C9Z d   1      17.905  -2.272  25.379  0.00  0.00     0.085 H 
ATOM     19  H9  C9Z d   1      19.350   2.505  24.538  0.00  0.00     0.088 H 
ATOM     20  H10 C9Z d   1      15.392   1.432  27.192  0.00  0.00     0.068 H 
ATOM     21  H11 C9Z d   1      14.853   0.633  25.676  0.00  0.00     0.068 H 
ATOM     22  H12 C9Z d   1      15.821  -0.552  28.260  0.00  0.00     0.091 H 
ATOM     23  H32 C9Z d   1      15.870  -1.920  25.617  0.00  0.00     0.281 HD
ENDROOT
BRANCH   8  24
ATOM     24  C15 C9Z d   1      16.666   3.354  25.449  0.00  0.00     0.274 C 
ATOM     25  N17 C9Z d   1      17.532   4.473  25.174  0.00  0.00    -0.306 N 
ATOM     26  H33 C9Z d   1      18.482   4.279  24.928  0.00  0.00     0.170 HD
ATOM     27  O16 C9Z d   1      15.556   3.432  25.692  0.00  0.00    -0.266 OA
BRANCH  25  28
ATOM     28  C18 C9Z d   1      17.125   5.835  25.230  0.00  0.00     0.130 A 
ATOM     29  C23 C9Z d   1      15.817   6.173  25.476  0.00  0.00    -0.028 A 
ATOM     30  C22 C9Z d   1      15.493   7.510  25.595  0.00  0.00    -0.016 A 
ATOM     31  H13 C9Z d   1      15.056   5.407  25.575  0.00  0.00     0.090 H 
ATOM     32  C21 C9Z d   1      16.531   8.414  25.486  0.00  0.00    -0.055 A 
ATOM     33  C20 C9Z d   1      17.813   7.959  25.254  0.00  0.00     0.005 A 
ATOM     34  H3  C9Z d   1      16.340   9.477  25.582  0.00  0.00     0.087 H 
ATOM     35  N19 C9Z d   1      18.079   6.704  25.169  0.00  0.00    -0.243 NA
ATOM     36  H2  C9Z d   1      18.616   8.678  25.140  0.00  0.00     0.114 H 
BRANCH  30  37
ATOM     37  C24 C9Z d   1      14.064   7.948  25.856  0.00  0.00     0.038 A 
ATOM     38  C28 C9Z d   1      13.415   9.118  25.462  0.00  0.00     0.108 A 
ATOM     39  N27 C9Z d   1      12.175   9.085  25.919  0.00  0.00    -0.127 NA
ATOM     40  O26 C9Z d   1      12.042   7.951  26.628  0.00  0.00    -0.216 OA
ATOM     41  C25 C9Z d   1      13.151   7.280  26.612  0.00  0.00     0.095 A 
BRANCH  38  42
ATOM     42  C29 C9Z d   1      13.891  10.224  24.535  0.00  0.00    -0.004 A 
ATOM     43  C30 C9Z d   1      13.608  11.537  24.787  0.00  0.00    -0.068 A 
ATOM     44  C31 C9Z d   1      14.017  12.480  23.893  0.00  0.00    -0.045 A 
ATOM     45  H14 C9Z d   1      13.068  11.823  25.682  0.00  0.00     0.085 H 
ATOM     46  C32 C9Z d   1      14.650  12.097  22.749  0.00  0.00     0.116 A 
ATOM     47  H15 C9Z d   1      13.839  13.531  24.091  0.00  0.00     0.088 H 
ATOM     48  C34 C9Z d   1      14.893  10.787  22.475  0.00  0.00    -0.045 A 
ATOM     49  F33 C9Z d   1      15.038  13.002  21.884  0.00  0.00    -0.206 F 
ATOM     50  C35 C9Z d   1      14.490   9.844  23.368  0.00  0.00    -0.068 A 
ATOM     51  H16 C9Z d   1      15.399  10.500  21.561  0.00  0.00     0.088 H 
ATOM     52  H17 C9Z d   1      14.644   8.793  23.154  0.00  0.00     0.085 H 
ENDBRANCH  38  42
BRANCH  41  53
ATOM     53  C36 C9Z d   1      13.322   5.953  27.324  0.00  0.00    -0.011 C 
ATOM     54  H18 C9Z d   1      14.393   5.723  27.428  0.00  0.00     0.049 H 
BRANCH  53  55
ATOM     55  C37 C9Z d   1      12.695   6.055  28.722  0.00  0.00    -0.067 C 
ATOM     56  H19 C9Z d   1      12.814   5.096  29.248  0.00  0.00     0.028 H 
ATOM     57  H20 C9Z d   1      11.625   6.291  28.628  0.00  0.00     0.028 H 
ATOM     58  H21 C9Z d   1      13.197   6.851  29.292  0.00  0.00     0.028 H 
ENDBRANCH  53  55
BRANCH  53  59
ATOM     59  C38 C9Z d   1      12.652   4.860  26.471  0.00  0.00    -0.067 C 
ATOM     60  H22 C9Z d   1      13.131   4.822  25.481  0.00  0.00     0.028 H 
ATOM     61  H23 C9Z d   1      11.583   5.091  26.352  0.00  0.00     0.028 H 
ATOM     62  H24 C9Z d   1      12.763   3.886  26.970  0.00  0.00     0.028 H 
ENDBRANCH  53  59
ENDBRANCH  41  53
ENDBRANCH  30  37
ENDBRANCH  25  28
ENDBRANCH   8  24
BRANCH   6  63
ATOM     63  C39 C9Z d   1      20.224  -0.327  24.772  0.00  0.00    -0.024 A 
ATOM     64  C40 C9Z d   1      20.624  -0.080  23.489  0.00  0.00    -0.070 A 
ATOM     65  C41 C9Z d   1      21.716  -0.720  22.972  0.00  0.00    -0.050 A 
ATOM     66  H25 C9Z d   1      20.073   0.626  22.878  0.00  0.00     0.085 H 
ATOM     67  C42 C9Z d   1      22.416  -1.637  23.725  0.00  0.00     0.068 A 
ATOM     68  H26 C9Z d   1      22.034  -0.503  21.959  0.00  0.00     0.087 H 
ATOM     69  C45 C9Z d   1      22.010  -1.898  25.028  0.00  0.00    -0.050 A 
ATOM     70  C46 C9Z d   1      20.887  -1.254  25.530  0.00  0.00    -0.070 A 
ATOM     71  H30 C9Z d   1      22.564  -2.596  25.645  0.00  0.00     0.087 H 
ATOM     72  H31 C9Z d   1      20.533  -1.487  26.528  0.00  0.00     0.085 H 
BRANCH  67  73
ATOM     73  O43 C9Z d   1      23.528  -2.302  23.173  0.00  0.00    -0.356 OA
BRANCH  73  74
ATOM     74  C44 C9Z d   1      23.463  -2.396  21.778  0.00  0.00     0.010 C 
ATOM     75  H27 C9Z d   1      24.354  -2.922  21.404  0.00  0.00     0.066 H 
ATOM     76  H28 C9Z d   1      23.425  -1.386  21.344  0.00  0.00     0.066 H 
ATOM     77  H29 C9Z d   1      22.560  -2.954  21.490  0.00  0.00     0.066 H 
ENDBRANCH  73  74
ENDBRANCH  67  73
ENDBRANCH   6  63
BRANCH   1  78
ATOM     78  O14 C9Z d   1      13.346  -0.555  28.217  0.00  0.00    -0.391 OA
ATOM     79  H35 C9Z d   1      13.710  -0.622  29.092  0.00  0.00     0.210 HD
ENDBRANCH   1  78
BRANCH   2  80
ATOM     80  O02 C9Z d   1      14.701  -2.598  29.189  0.00  0.00    -0.391 OA
ATOM     81  H34 C9Z d   1      13.900  -2.356  29.639  0.00  0.00     0.210 HD
ENDBRANCH   2  80
TORSDOF 12
