REMARK  4 active torsions:
REMARK  status: ('A' for Active; 'I' for Inactive)
REMARK    1  A    between atoms: CA_2  and  N_1 
REMARK    2  A    between atoms: CA_2  and  C_3 
REMARK    3  A    between atoms: CB_5  and  CA_2 
REMARK    4  A    between atoms: NAQ_14  and  CB_5 
ROOT
ATOM      1  CAF CGW d   1      -7.869  27.847 -15.810  0.00  0.00    -0.028 C 
ATOM      2  CAG CGW d   1      -6.299  29.857 -15.618  0.00  0.00    -0.018 C 
ATOM      3  CAL CGW d   1      -6.536  27.532 -15.527  0.00  0.00     0.066 A 
ATOM      4  CAM CGW d   1      -5.670  28.603 -15.421  0.00  0.00     0.061 A 
ATOM      5  CAN CGW d   1      -6.054  26.288 -15.371  0.00  0.00     0.262 A 
ATOM      6  CAO CGW d   1      -3.841  27.147 -14.990  0.00  0.00     0.330 A 
ATOM      7  NAI CGW d   1      -4.692  26.045 -15.090  0.00  0.00    -0.275 N 
ATOM      8  NAQ CGW d   1      -4.341  28.395 -15.162  0.00  0.00    -0.296 N 
ATOM      9  OAC CGW d   1      -6.799  25.308 -15.451  0.00  0.00    -0.267 OA
ATOM     10  OAD CGW d   1      -2.653  26.951 -14.755  0.00  0.00    -0.246 OA
ATOM     11  SAJ CGW d   1      -8.073  29.586 -15.395  0.00  0.00    -0.110 SA
ATOM     12  H7  CGW d   1      -8.630  27.175 -16.203  0.00  0.00     0.096 H 
ATOM     13  H8  CGW d   1      -5.810  30.800 -15.857  0.00  0.00     0.098 H 
ATOM     14  H9  CGW d   1      -4.348  25.114 -14.967  0.00  0.00     0.173 HD
ENDROOT
BRANCH   8  15
ATOM     15  CB  CGW d   1      -3.406  29.539 -15.028  0.00  0.00     0.041 C 
ATOM     16  H5  CGW d   1      -2.456  29.303 -15.530  0.00  0.00     0.069 H 
ATOM     17  H6  CGW d   1      -3.849  30.436 -15.485  0.00  0.00     0.069 H 
BRANCH  15  18
ATOM     18  CA  CGW d   1      -3.153  29.790 -13.533  0.00  0.00     0.198 C 
ATOM     19  H4  CGW d   1      -2.795  28.854 -13.080  0.00  0.00     0.103 H 
BRANCH  18  20
ATOM     20  N   CGW d   1      -4.333  30.251 -12.807  0.00  0.00    -0.064 N 
ATOM     21  H1  CGW d   1      -5.065  29.562 -12.884  0.00  0.00     0.275 HD
ATOM     22  H2  CGW d   1      -4.650  31.123 -13.200  0.00  0.00     0.275 HD
ATOM     23  H3  CGW d   1      -4.099  30.385 -11.836  0.00  0.00     0.275 HD
ENDBRANCH  18  20
BRANCH  18  24
ATOM     24  C   CGW d   1      -2.117  30.868 -13.368  0.00  0.00     0.206 C 
ATOM     25  O   CGW d   1      -2.543  31.927 -12.849  0.00  0.00    -0.646 OA
ATOM     26  OXT CGW d   1      -0.964  30.603 -13.754  0.00  0.00    -0.646 OA
ENDBRANCH  18  24
ENDBRANCH  15  18
ENDBRANCH   8  15
TORSDOF 4
