REMARK  5 active torsions:
REMARK  status: ('A' for Active; 'I' for Inactive)
REMARK    1  A    between atoms: C8_5  and  C9_6 
REMARK    2  A    between atoms: C9_6  and  C10_7 
REMARK    3  A    between atoms: C_13  and  C1_15 
REMARK    4  A    between atoms: C_13  and  S_23 
REMARK    5  A    between atoms: C2_20  and  C3_21 
ROOT
ATOM      1  C9  CF8 d   1      14.271  14.471  44.629  0.00  0.00    -0.016 C 
ATOM      2  H5  CF8 d   1      14.710  15.235  45.288  0.00  0.00     0.047 H 
ATOM      3  H6  CF8 d   1      14.166  13.526  45.182  0.00  0.00     0.047 H 
ENDROOT
BRANCH   1   4
ATOM      4  C8  CF8 d   1      15.244  14.233  43.476  0.00  0.00    -0.044 A 
ATOM      5  C7  CF8 d   1      16.473  14.894  43.453  0.00  0.00    -0.076 A 
ATOM      6  C6  CF8 d   1      17.365  14.722  42.404  0.00  0.00    -0.082 A 
ATOM      7  H4  CF8 d   1      16.736  15.555  44.271  0.00  0.00     0.084 H 
ATOM      8  C5  CF8 d   1      17.042  13.918  41.349  0.00  0.00    -0.082 A 
ATOM      9  H3  CF8 d   1      18.323  15.229  42.422  0.00  0.00     0.083 H 
ATOM     10  C4  CF8 d   1      15.836  13.262  41.333  0.00  0.00    -0.072 A 
ATOM     11  H2  CF8 d   1      17.736  13.798  40.525  0.00  0.00     0.083 H 
ATOM     12  C3  CF8 d   1      14.940  13.371  42.404  0.00  0.00    -0.028 A 
ATOM     13  H1  CF8 d   1      15.573  12.650  40.478  0.00  0.00     0.084 H 
BRANCH  12  14
ATOM     14  C2  CF8 d   1      13.733  12.538  42.431  0.00  0.00    -0.050 C 
ATOM     15  C   CF8 d   1      13.387  11.540  43.305  0.00  0.00     0.075 C 
ATOM     16  H14 CF8 d   1      13.008  12.741  41.644  0.00  0.00     0.087 H 
BRANCH  15  17
ATOM     17  C1  CF8 d   1      12.080  10.889  43.068  0.00  0.00     0.216 C 
ATOM     18  O   CF8 d   1      11.838   9.905  43.791  0.00  0.00    -0.644 OA
ATOM     19  O1  CF8 d   1      11.307  11.147  42.088  0.00  0.00    -0.644 OA
ENDBRANCH  15  17
BRANCH  15  20
ATOM     20  S   CF8 d   1      14.444  11.065  44.626  0.00  0.00    -0.136 SA
ATOM     21  H15 CF8 d   1      14.012  10.320  45.150  0.00  0.00     0.107 HD
ENDBRANCH  15  20
ENDBRANCH  12  14
ENDBRANCH   1   4
BRANCH   1  22
ATOM     22  C10 CF8 d   1      12.869  14.942  44.233  0.00  0.00    -0.053 A 
ATOM     23  C11 CF8 d   1      11.769  14.197  44.557  0.00  0.00    -0.066 A 
ATOM     24  C12 CF8 d   1      10.458  14.603  44.207  0.00  0.00    -0.025 A 
ATOM     25  H7  CF8 d   1      11.905  13.268  45.098  0.00  0.00     0.085 H 
ATOM     26  C13 CF8 d   1       9.300  13.857  44.569  0.00  0.00    -0.072 A 
ATOM     27  C17 CF8 d   1      10.290  15.813  43.488  0.00  0.00    -0.026 A 
ATOM     28  C14 CF8 d   1       8.053  14.282  44.196  0.00  0.00    -0.082 A 
ATOM     29  H8  CF8 d   1       9.407  12.945  45.145  0.00  0.00     0.084 H 
ATOM     30  C15 CF8 d   1       7.893  15.467  43.486  0.00  0.00    -0.082 A 
ATOM     31  H9  CF8 d   1       7.183  13.690  44.456  0.00  0.00     0.083 H 
ATOM     32  C16 CF8 d   1       8.979  16.226  43.143  0.00  0.00    -0.072 A 
ATOM     33  H10 CF8 d   1       6.899  15.793  43.202  0.00  0.00     0.083 H 
ATOM     34  H11 CF8 d   1       8.835  17.154  42.601  0.00  0.00     0.084 H 
ATOM     35  C18 CF8 d   1      11.445  16.558  43.153  0.00  0.00    -0.072 A 
ATOM     36  C19 CF8 d   1      12.691  16.123  43.519  0.00  0.00    -0.076 A 
ATOM     37  H12 CF8 d   1      11.343  17.485  42.600  0.00  0.00     0.084 H 
ATOM     38  H13 CF8 d   1      13.559  16.712  43.246  0.00  0.00     0.084 H 
ENDBRANCH   1  22
TORSDOF 5
