REMARK  6 active torsions:
REMARK  status: ('A' for Active; 'I' for Inactive)
REMARK    1  A    between atoms: N_1  and  CA_2 
REMARK    2  A    between atoms: CA_2  and  C_3 
REMARK    3  A    between atoms: CA_2  and  CB_5 
REMARK    4  A    between atoms: CB_5  and  CG_6 
REMARK    5  A    between atoms: CG_6  and  CD_7 
REMARK    6  A    between atoms: CD_7  and  NE_8 
REMARK       I    between atoms: NE_8  and  CZ_9 
REMARK       I    between atoms: CZ_9  and  NH1_10 
ROOT
ATOM      1  CG  ARG d   1     -13.440  -2.430  26.613  0.00  0.00    -0.047 C 
ATOM      2  H7  ARG d   1     -12.577  -2.112  26.010  0.00  0.00     0.035 H 
ATOM      3  H8  ARG d   1     -14.313  -1.812  26.357  0.00  0.00     0.035 H 
ENDROOT
BRANCH   1   4
ATOM      4  CB  ARG d   1     -13.114  -2.244  28.084  0.00  0.00    -0.028 C 
ATOM      5  H5  ARG d   1     -14.027  -2.441  28.666  0.00  0.00     0.036 H 
ATOM      6  H6  ARG d   1     -12.339  -2.974  28.359  0.00  0.00     0.036 H 
BRANCH   4   7
ATOM      7  CA  ARG d   1     -12.607  -0.849  28.448  0.00  0.00     0.182 C 
ATOM      8  H4  ARG d   1     -13.075  -0.120  27.770  0.00  0.00     0.101 H 
BRANCH   7   9
ATOM      9  N   ARG d   1     -11.161  -0.770  28.279  0.00  0.00    -0.065 N 
ATOM     10  H1  ARG d   1     -10.921  -1.002  27.328  0.00  0.00     0.275 HD
ATOM     11  H2  ARG d   1     -10.713  -1.419  28.907  0.00  0.00     0.275 HD
ATOM     12  H3  ARG d   1     -10.849   0.166  28.485  0.00  0.00     0.275 HD
ENDBRANCH   7   9
BRANCH   7  13
ATOM     13  C   ARG d   1     -13.005  -0.503  29.878  0.00  0.00     0.204 C 
ATOM     14  O   ARG d   1     -14.155  -0.156  30.150  0.00  0.00    -0.646 OA
ATOM     15  OXT ARG d   1     -12.184  -0.565  30.794  0.00  0.00    -0.646 OA
ENDBRANCH   7  13
ENDBRANCH   4   7
ENDBRANCH   1   4
BRANCH   1  16
ATOM     16  CD  ARG d   1     -13.753  -3.887  26.306  0.00  0.00     0.009 C 
ATOM     17  H9  ARG d   1     -14.726  -4.142  26.751  0.00  0.00     0.064 H 
ATOM     18  H10 ARG d   1     -12.970  -4.519  26.749  0.00  0.00     0.064 H 
BRANCH  16  19
ATOM     19  NE  ARG d   1     -13.810  -4.145  24.870  0.00  0.00    -0.227 N 
ATOM     20  CZ  ARG d   1     -13.560  -5.324  24.312  0.00  0.00     0.665 C 
ATOM     21  NH1 ARG d   1     -13.232  -6.363  25.069  0.00  0.00    -0.235 N 
ATOM     22  NH2 ARG d   1     -13.635  -5.466  22.996  0.00  0.00    -0.235 N 
ATOM     23  H12 ARG d   1     -13.039  -7.276  24.634  0.00  0.00     0.174 HD
ATOM     24  H13 ARG d   1     -13.171  -6.256  26.092  0.00  0.00     0.174 HD
ATOM     25  H14 ARG d   1     -13.889  -4.662  22.405  0.00  0.00     0.174 HD
ATOM     26  H15 ARG d   1     -13.439  -6.381  22.565  0.00  0.00     0.174 HD
ATOM     27  H11 ARG d   1     -14.060  -3.362  24.250  0.00  0.00     0.177 HD
ENDBRANCH  16  19
ENDBRANCH   1  16
TORSDOF 6
