REMARK  7 active torsions:
REMARK  status: ('A' for Active; 'I' for Inactive)
REMARK    1  A    between atoms: C1_1  and  N_27 
REMARK    2  A    between atoms: N1_23  and  C7_4 
REMARK    3  A    between atoms: C11_8  and  C13_10 
REMARK    4  A    between atoms: C16_13  and  C19_14 
REMARK       I    between atoms: C19_14  and  N5_17 
REMARK    5  A    between atoms: N_27  and  C20_15 
REMARK    6  A    between atoms: N1_23  and  C4_24 
REMARK    7  A    between atoms: N_27  and  C_28 
ROOT
ATOM      1  C7  CJT d   1      24.402  43.283   9.224  0.00  0.00     0.140 A 
ATOM      2  C8  CJT d   1      23.891  42.879   7.034  0.00  0.00     0.091 A 
ATOM      3  C9  CJT d   1      26.077  42.873   7.569  0.00  0.00     0.143 A 
ATOM      4  C10 CJT d   1      25.812  43.189   8.926  0.00  0.00     0.064 A 
ATOM      5  C11 CJT d   1      27.099  43.219   9.581  0.00  0.00    -0.021 A 
ATOM      6  C12 CJT d   1      28.031  43.011   8.607  0.00  0.00    -0.014 A 
ATOM      7  N4  CJT d   1      27.425  42.750   7.409  0.00  0.00    -0.349 N 
ATOM      8  N3  CJT d   1      25.146  42.756   6.598  0.00  0.00    -0.223 NA
ATOM      9  N2  CJT d   1      23.465  43.159   8.268  0.00  0.00    -0.224 NA
ATOM     10  H6  CJT d   1      23.117  42.733   6.290  0.00  0.00     0.146 H 
ATOM     11  H7  CJT d   1      29.108  43.048   8.762  0.00  0.00     0.112 H 
ATOM     12  H23 CJT d   1      27.907  42.502   6.533  0.00  0.00     0.166 HD
ENDROOT
BRANCH   1  13
ATOM     13  N1  CJT d   1      23.969  43.537  10.483  0.00  0.00    -0.369 N 
ATOM     14  H24 CJT d   1      24.682  43.756  11.193  0.00  0.00     0.161 HD
BRANCH  13  15
ATOM     15  C4  CJT d   1      22.571  43.525  10.915  0.00  0.00     0.011 C 
ATOM     16  C3  CJT d   1      22.305  44.490  12.060  0.00  0.00    -0.044 C 
ATOM     17  C2  CJT d   1      20.834  44.438  12.508  0.00  0.00    -0.036 C 
ATOM     18  H4  CJT d   1      22.948  44.221  12.911  0.00  0.00     0.036 H 
ATOM     19  H5  CJT d   1      22.543  45.512  11.729  0.00  0.00     0.036 H 
ATOM     20  C1  CJT d   1      20.351  43.008  12.805  0.00  0.00     0.103 C 
ATOM     21  H2  CJT d   1      20.723  45.043  13.420  0.00  0.00     0.036 H 
ATOM     22  H3  CJT d   1      20.208  44.861  11.709  0.00  0.00     0.036 H 
ATOM     23  C6  CJT d   1      20.678  42.033  11.672  0.00  0.00    -0.036 C 
ATOM     24  H1  CJT d   1      20.930  42.681  13.681  0.00  0.00     0.084 H 
ATOM     25  C5  CJT d   1      22.158  42.111  11.303  0.00  0.00    -0.044 C 
ATOM     26  H28 CJT d   1      20.072  42.288  10.790  0.00  0.00     0.036 H 
ATOM     27  H29 CJT d   1      20.440  41.009  11.997  0.00  0.00     0.036 H 
ATOM     28  H26 CJT d   1      22.758  41.789  12.167  0.00  0.00     0.036 H 
ATOM     29  H27 CJT d   1      22.349  41.439  10.454  0.00  0.00     0.036 H 
ATOM     30  H25 CJT d   1      21.953  43.841  10.062  0.00  0.00     0.072 H 
BRANCH  20  31
ATOM     31  N   CJT d   1      18.865  42.853  13.197  0.00  0.00    -0.074 N 
ATOM     32  H30 CJT d   1      18.668  41.873  13.069  0.00  0.00     0.279 HD
BRANCH  31  33
ATOM     33  C20 CJT d   1      17.915  43.553  12.319  0.00  0.00     0.066 C 
ATOM     34  H14 CJT d   1      16.890  43.383  12.679  0.00  0.00     0.068 H 
ATOM     35  H15 CJT d   1      18.012  43.169  11.293  0.00  0.00     0.068 H 
ATOM     36  H16 CJT d   1      18.133  44.631  12.329  0.00  0.00     0.068 H 
ENDBRANCH  31  33
BRANCH  31  37
ATOM     37  C   CJT d   1      18.592  43.121  14.603  0.00  0.00     0.066 C 
ATOM     38  H31 CJT d   1      19.320  42.582  15.227  0.00  0.00     0.068 H 
ATOM     39  H32 CJT d   1      17.575  42.782  14.850  0.00  0.00     0.068 H 
ATOM     40  H33 CJT d   1      18.674  44.201  14.793  0.00  0.00     0.068 H 
ENDBRANCH  31  37
ENDBRANCH  20  31
ENDBRANCH  13  15
ENDBRANCH   1  13
BRANCH   5  41
ATOM     41  C13 CJT d   1      27.366  43.539  11.027  0.00  0.00    -0.026 C 
ATOM     42  C14 CJT d   1      27.333  45.063  11.273  0.00  0.00    -0.057 C 
ATOM     43  C15 CJT d   1      27.633  45.403  12.741  0.00  0.00    -0.053 C 
ATOM     44  H9  CJT d   1      26.334  45.445  11.014  0.00  0.00     0.034 H 
ATOM     45  H10 CJT d   1      28.087  45.545  10.633  0.00  0.00     0.034 H 
ATOM     46  C16 CJT d   1      28.993  44.828  13.162  0.00  0.00     0.023 C 
ATOM     47  H11 CJT d   1      26.846  44.975  13.379  0.00  0.00     0.034 H 
ATOM     48  H12 CJT d   1      27.649  46.496  12.863  0.00  0.00     0.034 H 
ATOM     49  C17 CJT d   1      28.985  43.307  12.965  0.00  0.00    -0.053 C 
ATOM     50  H13 CJT d   1      29.764  45.257  12.505  0.00  0.00     0.054 H 
ATOM     51  C18 CJT d   1      28.717  42.962  11.501  0.00  0.00    -0.057 C 
ATOM     52  H19 CJT d   1      28.197  42.864  13.592  0.00  0.00     0.034 H 
ATOM     53  H20 CJT d   1      29.962  42.898  13.261  0.00  0.00     0.034 H 
ATOM     54  H21 CJT d   1      29.523  43.381  10.881  0.00  0.00     0.034 H 
ATOM     55  H22 CJT d   1      28.699  41.868  11.388  0.00  0.00     0.034 H 
ATOM     56  H8  CJT d   1      26.568  43.077  11.627  0.00  0.00     0.047 H 
BRANCH  46  57
ATOM     57  C19 CJT d   1      29.346  45.196  14.595  0.00  0.00     0.219 C 
ATOM     58  O   CJT d   1      28.469  45.474  15.419  0.00  0.00    -0.273 OA
ATOM     59  N5  CJT d   1      30.641  45.187  14.892  0.00  0.00    -0.370 N 
ATOM     60  H17 CJT d   1      30.944  45.419  15.816  0.00  0.00     0.159 HD
ATOM     61  H18 CJT d   1      31.313  44.948  14.191  0.00  0.00     0.159 HD
ENDBRANCH  46  57
ENDBRANCH   5  41
TORSDOF 7
