REMARK  5 active torsions:
REMARK  status: ('A' for Active; 'I' for Inactive)
REMARK    1  A    between atoms: O1_25  and  C1_1 
REMARK    2  A    between atoms: C8_5  and  C9_6 
REMARK    3  A    between atoms: C9_6  and  C10_7 
REMARK       I    between atoms: C10_7  and  N2_17 
REMARK    4  A    between atoms: C11_8  and  O1_25 
REMARK    5  A    between atoms: N3_26  and  C14_11 
ROOT
ATOM      1  C11 CJQ d   1     -20.774 -15.712  11.729  0.00  0.00     0.047 C 
ATOM      2  C12 CJQ d   1     -20.807 -15.020  13.067  0.00  0.00    -0.038 C 
ATOM      3  C13 CJQ d   1     -22.244 -14.761  13.483  0.00  0.00    -0.036 C 
ATOM      4  C14 CJQ d   1     -23.083 -16.035  13.516  0.00  0.00     0.104 C 
ATOM      5  C15 CJQ d   1     -22.946 -16.881  12.238  0.00  0.00    -0.036 C 
ATOM      6  C16 CJQ d   1     -21.480 -17.051  11.801  0.00  0.00    -0.038 C 
ATOM      7  H6  CJQ d   1     -21.241 -15.090  10.951  0.00  0.00     0.084 H 
ATOM      8  H7  CJQ d   1     -20.270 -14.062  12.995  0.00  0.00     0.036 H 
ATOM      9  H8  CJQ d   1     -20.320 -15.658  13.819  0.00  0.00     0.036 H 
ATOM     10  H9  CJQ d   1     -22.697 -14.059  12.767  0.00  0.00     0.036 H 
ATOM     11  H10 CJQ d   1     -22.245 -14.312  14.487  0.00  0.00     0.036 H 
ATOM     12  H11 CJQ d   1     -22.657 -16.658  14.316  0.00  0.00     0.084 H 
ATOM     13  H12 CJQ d   1     -23.502 -16.388  11.427  0.00  0.00     0.036 H 
ATOM     14  H13 CJQ d   1     -23.376 -17.876  12.425  0.00  0.00     0.036 H 
ATOM     15  H14 CJQ d   1     -20.960 -17.693  12.528  0.00  0.00     0.036 H 
ATOM     16  H15 CJQ d   1     -21.453 -17.525  10.809  0.00  0.00     0.036 H 
ENDROOT
BRANCH   1  17
ATOM     17  O1  CJQ d   1     -19.351 -15.888  11.473  0.00  0.00    -0.328 OA
BRANCH  17  18
ATOM     18  C1  CJQ d   1     -18.906 -15.964  10.199  0.00  0.00     0.179 A 
ATOM     19  C2  CJQ d   1     -17.502 -16.118  10.053  0.00  0.00     0.060 A 
ATOM     20  C3  CJQ d   1     -16.410 -16.042  10.970  0.00  0.00    -0.023 A 
ATOM     21  C5  CJQ d   1     -17.104 -16.495   8.773  0.00  0.00     0.114 A 
ATOM     22  C8  CJQ d   1     -16.162 -15.784  12.439  0.00  0.00    -0.018 C 
ATOM     23  C4  CJQ d   1     -15.247 -16.391  10.369  0.00  0.00    -0.007 A 
ATOM     24  C7  CJQ d   1     -14.597 -15.800  12.511  0.00  0.00    -0.053 C 
ATOM     25  H3  CJQ d   1     -16.538 -14.799  12.754  0.00  0.00     0.048 H 
ATOM     26  C6  CJQ d   1     -14.095 -16.530  11.281  0.00  0.00    -0.034 C 
ATOM     27  H1  CJQ d   1     -14.268 -16.324  13.420  0.00  0.00     0.034 H 
ATOM     28  H2  CJQ d   1     -14.210 -14.770  12.521  0.00  0.00     0.034 H 
ATOM     29  H22 CJQ d   1     -13.880 -17.586  11.500  0.00  0.00     0.041 H 
ATOM     30  H23 CJQ d   1     -13.195 -16.051  10.868  0.00  0.00     0.041 H 
ATOM     31  S   CJQ d   1     -15.397 -16.820   8.691  0.00  0.00    -0.073 SA
ATOM     32  N1  CJQ d   1     -17.910 -16.639   7.725  0.00  0.00    -0.234 NA
ATOM     33  C   CJQ d   1     -19.201 -16.414   8.008  0.00  0.00     0.090 A 
ATOM     34  N   CJQ d   1     -19.752 -16.086   9.185  0.00  0.00    -0.217 NA
ATOM     35  H24 CJQ d   1     -19.889 -16.510   7.176  0.00  0.00     0.146 H 
BRANCH  22  36
ATOM     36  C9  CJQ d   1     -16.914 -16.870  13.212  0.00  0.00     0.016 C 
ATOM     37  H4  CJQ d   1     -16.586 -17.853  12.842  0.00  0.00     0.048 H 
ATOM     38  H5  CJQ d   1     -17.991 -16.749  13.026  0.00  0.00     0.048 H 
BRANCH  36  39
ATOM     39  C10 CJQ d   1     -16.675 -16.814  14.703  0.00  0.00     0.215 C 
ATOM     40  O   CJQ d   1     -17.159 -15.908  15.381  0.00  0.00    -0.274 OA
ATOM     41  N2  CJQ d   1     -15.934 -17.785  15.210  0.00  0.00    -0.370 N 
ATOM     42  H20 CJQ d   1     -15.739 -17.805  16.191  0.00  0.00     0.159 HD
ATOM     43  H21 CJQ d   1     -15.569 -18.499  14.613  0.00  0.00     0.159 HD
ENDBRANCH  36  39
ENDBRANCH  22  36
ENDBRANCH  17  18
ENDBRANCH   1  17
BRANCH   4  44
ATOM     44  N3  CJQ d   1     -24.461 -15.735  13.943  0.00  0.00    -0.063 N 
ATOM     45  C20 CJQ d   1     -24.932 -16.210  15.246  0.00  0.00     0.103 C 
ATOM     46  C19 CJQ d   1     -26.189 -15.459  15.616  0.00  0.00     0.042 C 
ATOM     47  H18 CJQ d   1     -25.148 -17.287  15.190  0.00  0.00     0.079 H 
ATOM     48  H19 CJQ d   1     -24.157 -16.031  16.006  0.00  0.00     0.079 H 
ATOM     49  O2  CJQ d   1     -27.210 -15.597  14.612  0.00  0.00    -0.388 OA
ATOM     50  H16 CJQ d   1     -25.945 -14.393  15.732  0.00  0.00     0.076 H 
ATOM     51  H17 CJQ d   1     -26.572 -15.853  16.569  0.00  0.00     0.076 H 
ATOM     52  C18 CJQ d   1     -26.745 -15.148  13.325  0.00  0.00     0.042 C 
ATOM     53  C17 CJQ d   1     -25.479 -15.861  12.887  0.00  0.00     0.103 C 
ATOM     54  H26 CJQ d   1     -26.542 -14.068  13.380  0.00  0.00     0.076 H 
ATOM     55  H27 CJQ d   1     -27.532 -15.336  12.580  0.00  0.00     0.076 H 
ATOM     56  H28 CJQ d   1     -25.698 -16.925  12.712  0.00  0.00     0.079 H 
ATOM     57  H29 CJQ d   1     -25.104 -15.406  11.958  0.00  0.00     0.079 H 
ATOM     58  H25 CJQ d   1     -24.414 -14.739  14.090  0.00  0.00     0.280 HD
ENDBRANCH   4  44
TORSDOF 5
