REMARK  8 active torsions:
REMARK  status: ('A' for Active; 'I' for Inactive)
REMARK    1  A    between atoms: O3A_8  and  PB_1 
REMARK    2  A    between atoms: PA_5  and  O3A_8 
REMARK    3  A    between atoms: PA_5  and  O5'_9 
REMARK    4  A    between atoms: O5'_9  and  C5'_10 
REMARK    5  A    between atoms: C5'_10  and  C4'_11 
REMARK    6  A    between atoms: C3'_13  and  O3'_14 
REMARK    7  A    between atoms: C2'_15  and  O2'_16 
REMARK    8  A    between atoms: C1'_17  and  N9_18 
ROOT
ATOM      1  C4' ADP d   1      24.404  75.394 104.178  0.00  0.00     0.089 C 
ATOM      2  O4' ADP d   1      23.808  74.568 105.179  0.00  0.00    -0.353 OA
ATOM      3  C3' ADP d   1      24.145  76.844 104.565  0.00  0.00     0.091 C 
ATOM      4  C2' ADP d   1      23.052  76.788 105.614  0.00  0.00     0.105 C 
ATOM      5  C1' ADP d   1      22.918  75.326 105.997  0.00  0.00     0.139 C 
ATOM      6  H3  ADP d   1      23.913  75.202 103.213  0.00  0.00     0.090 H 
ATOM      7  H4  ADP d   1      25.055  77.293 104.990  0.00  0.00     0.091 H 
ATOM      8  H6  ADP d   1      23.340  77.387 106.490  0.00  0.00     0.093 H 
ATOM      9  H8  ADP d   1      21.882  74.985 105.850  0.00  0.00     0.122 H 
ENDROOT
BRANCH   5  10
ATOM     10  N9  ADP d   1      23.309  75.171 107.411  0.00  0.00    -0.294 N 
ATOM     11  C8  ADP d   1      24.578  75.174 107.863  0.00  0.00     0.071 A 
ATOM     12  N7  ADP d   1      24.603  75.016 109.206  0.00  0.00    -0.236 NA
ATOM     13  H9  ADP d   1      25.460  75.288 107.235  0.00  0.00     0.144 H 
ATOM     14  C5  ADP d   1      23.328  74.913 109.622  0.00  0.00     0.149 A 
ATOM     15  C6  ADP d   1      22.657  74.729 110.919  0.00  0.00     0.155 A 
ATOM     16  C4  ADP d   1      22.472  75.018 108.437  0.00  0.00     0.167 A 
ATOM     17  N6  ADP d   1      23.404  74.630 112.036  0.00  0.00    -0.382 N 
ATOM     18  N1  ADP d   1      21.305  74.673 110.940  0.00  0.00    -0.222 NA
ATOM     19  H10 ADP d   1      22.948  74.501 112.951  0.00  0.00     0.157 HD
ATOM     20  H11 ADP d   1      24.431  74.683 111.975  0.00  0.00     0.157 HD
ATOM     21  C2  ADP d   1      20.573  74.776 109.813  0.00  0.00     0.091 A 
ATOM     22  N3  ADP d   1      21.128  74.942 108.599  0.00  0.00    -0.222 NA
ATOM     23  H12 ADP d   1      19.493  74.723 109.888  0.00  0.00     0.146 H 
ENDBRANCH   5  10
BRANCH   4  24
ATOM     24  O2' ADP d   1      21.810  77.275 105.099  0.00  0.00    -0.388 OA
ATOM     25  H7  ADP d   1      21.916  78.177 104.821  0.00  0.00     0.210 HD
ENDBRANCH   4  24
BRANCH   1  26
ATOM     26  C5' ADP d   1      25.880  75.041 104.028  0.00  0.00     0.058 C 
ATOM     27  H1  ADP d   1      25.986  73.947 103.993  0.00  0.00     0.079 H 
ATOM     28  H2  ADP d   1      26.260  75.477 103.092  0.00  0.00     0.079 H 
BRANCH  26  29
ATOM     29  O5' ADP d   1      26.641  75.547 105.120  0.00  0.00    -0.287 OA
BRANCH  29  30
ATOM     30  PA  ADP d   1      28.247  75.570 105.020  0.00  0.00     0.418 P 
ATOM     31  O1A ADP d   1      28.707  74.214 104.538  0.00  0.00    -0.624 OA
ATOM     32  O2A ADP d   1      28.760  76.117 106.330  0.00  0.00    -0.624 OA
BRANCH  30  33
ATOM     33  O3A ADP d   1      28.397  76.635 103.820  0.00  0.00    -0.173 OA
BRANCH  33  34
ATOM     34  PB  ADP d   1      29.181  78.038 103.922  0.00  0.00     0.431 P 
ATOM     35  O1B ADP d   1      30.245  77.951 102.854  0.00  0.00    -0.616 OA
ATOM     36  O2B ADP d   1      28.076  79.032 103.654  0.00  0.00    -0.616 OA
ATOM     37  O3B ADP d   1      29.740  78.100 105.321  0.00  0.00    -0.616 OA
ENDBRANCH  33  34
ENDBRANCH  30  33
ENDBRANCH  29  30
ENDBRANCH  26  29
ENDBRANCH   1  26
BRANCH   3  38
ATOM     38  O3' ADP d   1      23.734  77.608 103.427  0.00  0.00    -0.390 OA
ATOM     39  H5  ADP d   1      22.935  77.238 103.071  0.00  0.00     0.210 HD
ENDBRANCH   3  38
TORSDOF 8
