REMARK  8 active torsions:
REMARK  status: ('A' for Active; 'I' for Inactive)
REMARK    1  A    between atoms: C2_2  and  C1_1 
REMARK    2  A    between atoms: C2_2  and  C3_3 
REMARK    3  A    between atoms: N4_14  and  C2_2 
REMARK    4  A    between atoms: N12_19  and  C11_6 
REMARK    5  A    between atoms: C13_7  and  N12_19 
REMARK    6  A    between atoms: N21_21  and  C22_12 
REMARK    7  A    between atoms: C17_20  and  N21_21 
REMARK    8  A    between atoms: N21_21  and  C23_22 
ROOT
ATOM      1  C13 CJN d   1     -22.921 -15.867 -11.969  0.00  0.00     0.011 C 
ATOM      2  C15 CJN d   1     -22.738 -15.074 -13.279  0.00  0.00    -0.044 C 
ATOM      3  C16 CJN d   1     -21.231 -14.970 -13.571  0.00  0.00    -0.036 C 
ATOM      4  C19 CJN d   1     -20.859 -17.286 -12.514  0.00  0.00    -0.036 C 
ATOM      5  C20 CJN d   1     -22.350 -17.300 -12.127  0.00  0.00    -0.044 C 
ATOM      6  C17 CJN d   1     -20.613 -16.382 -13.744  0.00  0.00     0.103 C 
ATOM      7  H9  CJN d   1     -22.372 -15.361 -11.161  0.00  0.00     0.072 H 
ATOM      8  H10 CJN d   1     -23.166 -14.067 -13.168  0.00  0.00     0.036 H 
ATOM      9  H11 CJN d   1     -23.242 -15.598 -14.105  0.00  0.00     0.036 H 
ATOM     10  H12 CJN d   1     -20.735 -14.458 -12.734  0.00  0.00     0.036 H 
ATOM     11  H13 CJN d   1     -21.080 -14.393 -14.495  0.00  0.00     0.036 H 
ATOM     12  H14 CJN d   1     -20.540 -18.311 -12.752  0.00  0.00     0.036 H 
ATOM     13  H15 CJN d   1     -20.271 -16.906 -11.665  0.00  0.00     0.036 H 
ATOM     14  H16 CJN d   1     -22.916 -17.824 -12.912  0.00  0.00     0.036 H 
ATOM     15  H17 CJN d   1     -22.465 -17.835 -11.173  0.00  0.00     0.036 H 
ATOM     16  H24 CJN d   1     -21.129 -16.852 -14.594  0.00  0.00     0.084 H 
ENDROOT
BRANCH   1  17
ATOM     17  N12 CJN d   1     -24.361 -15.882 -11.631  0.00  0.00    -0.368 N 
ATOM     18  H23 CJN d   1     -25.047 -15.755 -12.389  0.00  0.00     0.161 HD
BRANCH  17  19
ATOM     19  C11 CJN d   1     -24.828 -16.059 -10.337  0.00  0.00     0.154 A 
ATOM     20  C24 CJN d   1     -26.218 -16.183 -10.036  0.00  0.00     0.110 A 
ATOM     21  C7  CJN d   1     -26.509 -16.405  -8.660  0.00  0.00     0.090 A 
ATOM     22  N4  CJN d   1     -27.465 -16.166 -10.710  0.00  0.00    -0.348 N 
ATOM     23  C6  CJN d   1     -27.958 -16.517  -8.561  0.00  0.00    -0.038 A 
ATOM     24  N8  CJN d   1     -25.522 -16.460  -7.750  0.00  0.00    -0.240 NA
ATOM     25  C5  CJN d   1     -28.465 -16.378  -9.795  0.00  0.00    -0.017 A 
ATOM     26  H22 CJN d   1     -28.528 -16.684  -7.648  0.00  0.00     0.089 H 
ATOM     27  H21 CJN d   1     -29.526 -16.427 -10.037  0.00  0.00     0.111 H 
ATOM     28  C9  CJN d   1     -24.252 -16.325  -8.071  0.00  0.00     0.089 A 
ATOM     29  N10 CJN d   1     -23.929 -16.147  -9.339  0.00  0.00    -0.222 NA
ATOM     30  H8  CJN d   1     -23.484 -16.359  -7.307  0.00  0.00     0.146 H 
BRANCH  22  31
ATOM     31  C2  CJN d   1     -27.758 -15.975 -12.155  0.00  0.00     0.010 C 
ATOM     32  H4  CJN d   1     -26.942 -16.446 -12.723  0.00  0.00     0.072 H 
BRANCH  31  33
ATOM     33  C1  CJN d   1     -29.088 -16.624 -12.572  0.00  0.00    -0.057 C 
ATOM     34  H1  CJN d   1     -29.258 -16.455 -13.646  0.00  0.00     0.030 H 
ATOM     35  H2  CJN d   1     -29.911 -16.176 -11.996  0.00  0.00     0.030 H 
ATOM     36  H3  CJN d   1     -29.047 -17.705 -12.373  0.00  0.00     0.030 H 
ENDBRANCH  31  33
BRANCH  31  37
ATOM     37  C3  CJN d   1     -27.843 -14.491 -12.555  0.00  0.00    -0.057 C 
ATOM     38  H5  CJN d   1     -26.909 -13.982 -12.275  0.00  0.00     0.030 H 
ATOM     39  H6  CJN d   1     -28.689 -14.018 -12.034  0.00  0.00     0.030 H 
ATOM     40  H7  CJN d   1     -27.992 -14.412 -13.642  0.00  0.00     0.030 H 
ENDBRANCH  31  37
ENDBRANCH  22  31
ENDBRANCH  17  19
ENDBRANCH   1  17
BRANCH   6  41
ATOM     41  N21 CJN d   1     -19.164 -16.321 -14.094  0.00  0.00    -0.074 N 
ATOM     42  H25 CJN d   1     -18.902 -17.294 -14.076  0.00  0.00     0.279 HD
BRANCH  41  43
ATOM     43  C22 CJN d   1     -18.228 -15.717 -13.126  0.00  0.00     0.066 C 
ATOM     44  H18 CJN d   1     -17.207 -15.750 -13.534  0.00  0.00     0.068 H 
ATOM     45  H19 CJN d   1     -18.264 -16.279 -12.181  0.00  0.00     0.068 H 
ATOM     46  H20 CJN d   1     -18.515 -14.671 -12.942  0.00  0.00     0.068 H 
ENDBRANCH  41  43
BRANCH  41  47
ATOM     47  C23 CJN d   1     -18.868 -15.914 -15.490  0.00  0.00     0.066 C 
ATOM     48  H26 CJN d   1     -17.779 -15.900 -15.645  0.00  0.00     0.068 H 
ATOM     49  H27 CJN d   1     -19.277 -14.909 -15.674  0.00  0.00     0.068 H 
ATOM     50  H28 CJN d   1     -19.328 -16.630 -16.186  0.00  0.00     0.068 H 
ENDBRANCH  41  47
ENDBRANCH   6  41
TORSDOF 8
