REMARK  8 active torsions:
REMARK  status: ('A' for Active; 'I' for Inactive)
REMARK    1  A    between atoms: C2_2  and  C1_1 
REMARK    2  A    between atoms: C1_1  and  C20_16 
REMARK    3  A    between atoms: C1_1  and  C_19 
REMARK       I    between atoms: C21_17  and  N6_4 
REMARK    4  A    between atoms: C9_7  and  N4_28 
REMARK       I    between atoms: N5_29  and  C16_14 
REMARK    5  A    between atoms: C16_14  and  C17_30 
REMARK    6  A    between atoms: C20_16  and  C21_17 
REMARK    7  A    between atoms: N3_26  and  C5_25 
REMARK    8  A    between atoms: N3_26  and  C6_27 
ROOT
ATOM      1  C7  CKN d   1     -20.478 -39.985 -13.017  0.00  0.00    -0.044 C 
ATOM      2  C8  CKN d   1     -21.973 -40.073 -13.346  0.00  0.00    -0.036 C 
ATOM      3  C9  CKN d   1     -22.596 -38.686 -13.596  0.00  0.00     0.104 C 
ATOM      4  C10 CKN d   1     -22.263 -37.676 -12.494  0.00  0.00    -0.036 C 
ATOM      5  C11 CKN d   1     -20.759 -37.640 -12.196  0.00  0.00    -0.044 C 
ATOM      6  C6  CKN d   1     -20.221 -39.028 -11.864  0.00  0.00     0.011 C 
ATOM      7  H4  CKN d   1     -19.936 -39.629 -13.905  0.00  0.00     0.036 H 
ATOM      8  H5  CKN d   1     -20.113 -40.985 -12.741  0.00  0.00     0.036 H 
ATOM      9  H6  CKN d   1     -22.494 -40.549 -12.502  0.00  0.00     0.036 H 
ATOM     10  H7  CKN d   1     -22.102 -40.687 -14.249  0.00  0.00     0.036 H 
ATOM     11  H8  CKN d   1     -22.106 -38.313 -14.508  0.00  0.00     0.084 H 
ATOM     12  H9  CKN d   1     -22.802 -37.958 -11.577  0.00  0.00     0.036 H 
ATOM     13  H10 CKN d   1     -22.587 -36.676 -12.817  0.00  0.00     0.036 H 
ATOM     14  H11 CKN d   1     -20.580 -36.973 -11.340  0.00  0.00     0.036 H 
ATOM     15  H12 CKN d   1     -20.229 -37.253 -13.079  0.00  0.00     0.036 H 
ATOM     16  H30 CKN d   1     -20.755 -39.405 -10.979  0.00  0.00     0.072 H 
ENDROOT
BRANCH   6  17
ATOM     17  N3  CKN d   1     -18.801 -38.956 -11.543  0.00  0.00    -0.368 N 
ATOM     18  H29 CKN d   1     -18.143 -39.166 -12.307  0.00  0.00     0.161 HD
BRANCH  17  19
ATOM     19  C5  CKN d   1     -18.260 -38.643 -10.350  0.00  0.00     0.154 A 
ATOM     20  C3  CKN d   1     -16.843 -38.586 -10.182  0.00  0.00     0.110 A 
ATOM     21  C2  CKN d   1     -15.729 -38.708 -10.990  0.00  0.00    -0.020 A 
ATOM     22  N   CKN d   1     -16.409 -38.206  -8.924  0.00  0.00    -0.240 N 
ATOM     23  C19 CKN d   1     -14.588 -38.407 -10.165  0.00  0.00    -0.057 A 
ATOM     24  C18 CKN d   1     -15.014 -38.113  -8.917  0.00  0.00     0.005 A 
ATOM     25  H21 CKN d   1     -13.550 -38.415 -10.494  0.00  0.00     0.086 H 
ATOM     26  H27 CKN d   1     -14.388 -37.852  -8.065  0.00  0.00     0.114 H 
ATOM     27  N1  CKN d   1     -17.234 -37.971  -7.836  0.00  0.00    -0.161 NA
ATOM     28  C4  CKN d   1     -18.555 -38.121  -8.132  0.00  0.00     0.108 A 
ATOM     29  N2  CKN d   1     -19.097 -38.432  -9.313  0.00  0.00    -0.221 NA
ATOM     30  H28 CKN d   1     -19.252 -37.970  -7.309  0.00  0.00     0.149 H 
BRANCH  21  31
ATOM     31  C1  CKN d   1     -15.739 -39.167 -12.427  0.00  0.00    -0.022 C 
ATOM     32  H1  CKN d   1     -16.773 -39.467 -12.651  0.00  0.00     0.047 H 
BRANCH  31  33
ATOM     33  C20 CKN d   1     -15.381 -38.050 -13.413  0.00  0.00     0.016 C 
ATOM     34  H22 CKN d   1     -14.709 -38.471 -14.175  0.00  0.00     0.048 H 
ATOM     35  H23 CKN d   1     -14.855 -37.260 -12.856  0.00  0.00     0.048 H 
BRANCH  33  36
ATOM     36  C21 CKN d   1     -16.557 -37.417 -14.125  0.00  0.00     0.215 C 
ATOM     37  N6  CKN d   1     -16.309 -36.291 -14.774  0.00  0.00    -0.370 N 
ATOM     38  H2  CKN d   1     -17.045 -35.824 -15.264  0.00  0.00     0.159 HD
ATOM     39  H3  CKN d   1     -15.386 -35.907 -14.774  0.00  0.00     0.159 HD
ATOM     40  O1  CKN d   1     -17.675 -37.946 -14.103  0.00  0.00    -0.274 OA
ENDBRANCH  33  36
ENDBRANCH  31  33
BRANCH  31  41
ATOM     41  C   CKN d   1     -14.863 -40.402 -12.648  0.00  0.00    -0.068 C 
ATOM     42  H24 CKN d   1     -15.143 -41.184 -11.927  0.00  0.00     0.028 H 
ATOM     43  H25 CKN d   1     -13.806 -40.133 -12.504  0.00  0.00     0.028 H 
ATOM     44  H26 CKN d   1     -15.010 -40.777 -13.671  0.00  0.00     0.028 H 
ENDBRANCH  31  41
ENDBRANCH  21  31
ENDBRANCH  17  19
ENDBRANCH   6  17
BRANCH   3  45
ATOM     45  N4  CKN d   1     -24.044 -38.678 -13.895  0.00  0.00    -0.064 N 
ATOM     46  C12 CKN d   1     -24.866 -39.497 -12.988  0.00  0.00     0.099 C 
ATOM     47  C13 CKN d   1     -26.346 -39.261 -13.231  0.00  0.00     0.020 C 
ATOM     48  H13 CKN d   1     -24.639 -40.560 -13.158  0.00  0.00     0.078 H 
ATOM     49  H14 CKN d   1     -24.626 -39.232 -11.948  0.00  0.00     0.078 H 
ATOM     50  N5  CKN d   1     -26.679 -39.487 -14.648  0.00  0.00    -0.349 N 
ATOM     51  H15 CKN d   1     -26.596 -38.224 -12.961  0.00  0.00     0.066 H 
ATOM     52  H16 CKN d   1     -26.930 -39.953 -12.607  0.00  0.00     0.066 H 
ATOM     53  C14 CKN d   1     -25.829 -38.726 -15.576  0.00  0.00     0.020 C 
ATOM     54  C16 CKN d   1     -27.754 -40.238 -15.032  0.00  0.00     0.215 C 
ATOM     55  C15 CKN d   1     -24.362 -39.000 -15.294  0.00  0.00     0.099 C 
ATOM     56  H17 CKN d   1     -26.062 -39.025 -16.609  0.00  0.00     0.066 H 
ATOM     57  H18 CKN d   1     -26.028 -37.651 -15.451  0.00  0.00     0.066 H 
ATOM     58  H19 CKN d   1     -23.742 -38.380 -15.959  0.00  0.00     0.078 H 
ATOM     59  H20 CKN d   1     -24.149 -40.063 -15.479  0.00  0.00     0.078 H 
ATOM     60  O   CKN d   1     -28.446 -40.810 -14.204  0.00  0.00    -0.274 OA
ATOM     61  H31 CKN d   1     -24.339 -37.725 -13.752  0.00  0.00     0.280 HD
BRANCH  54  62
ATOM     62  C17 CKN d   1     -28.047 -40.362 -16.498  0.00  0.00    -0.003 C 
ATOM     63  H32 CKN d   1     -28.936 -40.993 -16.642  0.00  0.00     0.040 H 
ATOM     64  H33 CKN d   1     -27.186 -40.820 -17.007  0.00  0.00     0.040 H 
ATOM     65  H34 CKN d   1     -28.234 -39.364 -16.920  0.00  0.00     0.040 H 
ENDBRANCH  54  62
ENDBRANCH   3  45
TORSDOF 8
