REMARK  4 active torsions:
REMARK  status: ('A' for Active; 'I' for Inactive)
REMARK    1  A    between atoms: C1_1  and  C2_4 
REMARK    2  A    between atoms: C2_4  and  C3_6 
REMARK    3  A    between atoms: C3_6  and  C4_7 
REMARK    4  A    between atoms: C4_7  and  C5_8 
ROOT
ATOM      1  C3  AKG d   1     -36.024  10.312 -46.617  0.00  0.00     0.010 C 
ATOM      2  H1  AKG d   1     -35.904   9.825 -45.638  0.00  0.00     0.045 H 
ATOM      3  H2  AKG d   1     -36.888  10.992 -46.584  0.00  0.00     0.045 H 
ENDROOT
BRANCH   1   4
ATOM      4  C2  AKG d   1     -36.281   9.237 -47.676  0.00  0.00     0.225 C 
ATOM      5  O5  AKG d   1     -35.546   8.991 -48.571  0.00  0.00    -0.286 OA
BRANCH   4   6
ATOM      6  C1  AKG d   1     -37.589   8.491 -47.461  0.00  0.00     0.246 C 
ATOM      7  O1  AKG d   1     -37.923   7.552 -48.232  0.00  0.00    -0.642 OA
ATOM      8  O2  AKG d   1     -38.331   8.819 -46.501  0.00  0.00    -0.642 OA
ENDBRANCH   4   6
ENDBRANCH   1   4
BRANCH   1   9
ATOM      9  C4  AKG d   1     -34.765  11.127 -46.921  0.00  0.00     0.022 C 
ATOM     10  H3  AKG d   1     -34.919  11.688 -47.855  0.00  0.00     0.049 H 
ATOM     11  H4  AKG d   1     -33.915  10.440 -47.042  0.00  0.00     0.049 H 
BRANCH   9  12
ATOM     12  C5  AKG d   1     -34.450  12.117 -45.789  0.00  0.00     0.172 C 
ATOM     13  O3  AKG d   1     -33.291  12.619 -45.725  0.00  0.00    -0.648 OA
ATOM     14  O4  AKG d   1     -35.388  12.362 -44.989  0.00  0.00    -0.648 OA
ENDBRANCH   9  12
ENDBRANCH   1   9
TORSDOF 4
