REMARK  6 active torsions:
REMARK  status: ('A' for Active; 'I' for Inactive)
REMARK    1  A    between atoms: C6_6  and  N6_7 
REMARK    2  A    between atoms: C9_10  and  C1'_11 
REMARK    3  A    between atoms: C2'_12  and  O2'_13 
REMARK    4  A    between atoms: C3'_14  and  O3'_15 
REMARK    5  A    between atoms: C4'_16  and  C5'_18 
REMARK    6  A    between atoms: C5'_18  and  O5'_19 
ROOT
ATOM      1  C1' FMC d   1      -7.667  -6.088  14.250  0.00  0.00     0.112 C 
ATOM      2  C2' FMC d   1      -6.365  -5.308  14.158  0.00  0.00     0.093 C 
ATOM      3  C3' FMC d   1      -5.316  -6.419  14.247  0.00  0.00     0.090 C 
ATOM      4  C4' FMC d   1      -6.035  -7.690  13.783  0.00  0.00     0.087 C 
ATOM      5  O4' FMC d   1      -7.439  -7.336  13.666  0.00  0.00    -0.367 OA
ATOM      6  H5  FMC d   1      -8.449  -5.553  13.692  0.00  0.00     0.097 H 
ATOM      7  H6  FMC d   1      -6.259  -4.575  14.971  0.00  0.00     0.091 H 
ATOM      8  H8  FMC d   1      -5.011  -6.538  15.297  0.00  0.00     0.091 H 
ATOM      9  H10 FMC d   1      -5.646  -7.967  12.792  0.00  0.00     0.090 H 
ENDROOT
BRANCH   1  10
ATOM     10  C9  FMC d   1      -8.094  -6.260  15.561  0.00  0.00     0.117 A 
ATOM     11  C4  FMC d   1      -9.349  -6.739  15.927  0.00  0.00     0.119 A 
ATOM     12  N3  FMC d   1     -10.430  -7.144  15.192  0.00  0.00    -0.237 NA
ATOM     13  C5  FMC d   1      -9.389  -6.758  17.269  0.00  0.00     0.126 A 
ATOM     14  C2  FMC d   1     -11.563  -7.562  15.837  0.00  0.00     0.089 A 
ATOM     15  N1  FMC d   1     -11.602  -7.590  17.209  0.00  0.00    -0.222 NA
ATOM     16  H1  FMC d   1     -12.430  -7.871  15.264  0.00  0.00     0.146 H 
ATOM     17  C6  FMC d   1     -10.528  -7.191  17.918  0.00  0.00     0.153 A 
ATOM     18  N7  FMC d   1      -8.186  -6.302  17.757  0.00  0.00    -0.272 N 
ATOM     19  N8  FMC d   1      -7.387  -6.006  16.684  0.00  0.00    -0.174 NA
ATOM     20  H4  FMC d   1      -7.932  -6.201  18.750  0.00  0.00     0.189 HD
BRANCH  17  21
ATOM     21  N6  FMC d   1     -10.985  -7.361  19.254  0.00  0.00    -0.382 N 
ATOM     22  H2  FMC d   1     -10.365  -7.131  20.044  0.00  0.00     0.157 HD
ATOM     23  H3  FMC d   1     -11.936  -7.714  19.432  0.00  0.00     0.157 HD
ENDBRANCH  17  21
ENDBRANCH   1  10
BRANCH   2  24
ATOM     24  O2' FMC d   1      -6.301  -4.666  12.894  0.00  0.00    -0.390 OA
ATOM     25  H7  FMC d   1      -5.489  -4.176  12.829  0.00  0.00     0.210 HD
ENDBRANCH   2  24
BRANCH   3  26
ATOM     26  O3' FMC d   1      -4.153  -6.162  13.493  0.00  0.00    -0.390 OA
ATOM     27  H9  FMC d   1      -3.746  -5.362  13.804  0.00  0.00     0.210 HD
ENDBRANCH   3  26
BRANCH   4  28
ATOM     28  C5' FMC d   1      -5.866  -8.887  14.690  0.00  0.00     0.043 C 
ATOM     29  H11 FMC d   1      -5.781  -8.537  15.729  0.00  0.00     0.078 H 
ATOM     30  H12 FMC d   1      -4.947  -9.421  14.406  0.00  0.00     0.078 H 
BRANCH  28  31
ATOM     31  O5' FMC d   1      -6.964  -9.781  14.596  0.00  0.00    -0.398 OA
ATOM     32  H13 FMC d   1      -7.761  -9.329  14.845  0.00  0.00     0.209 HD
ENDBRANCH  28  31
ENDBRANCH   4  28
TORSDOF 6
