REMARK WARNING: 32 MAX_TORS EXCEEDED!!!
REMARK  54 active torsions:
REMARK  status: ('A' for Active; 'I' for Inactive)
REMARK    1  A    between atoms: N_1  and  CA_2 
REMARK    2  A    between atoms: CA_2  and  C_3 
REMARK    3  A    between atoms: CA_2  and  CB_5 
REMARK       I    between atoms: C_3  and  N_8 
REMARK    4  A    between atoms: CB_5  and  OG1_6 
REMARK    5  A    between atoms: CB_5  and  CG2_7 
REMARK    6  A    between atoms: N_8  and  CA_9 
REMARK    7  A    between atoms: CA_9  and  C_10 
REMARK    8  A    between atoms: CA_9  and  CB_12 
REMARK       I    between atoms: C_10  and  N_17 
REMARK    9  A    between atoms: CB_12  and  CG_13 
REMARK   10  A    between atoms: CG_13  and  CD_14 
REMARK   11  A    between atoms: CD_14  and  CE_15 
REMARK   12  A    between atoms: CE_15  and  NZ_16 
REMARK   13  A    between atoms: N_17  and  CA_18 
REMARK   14  A    between atoms: CA_18  and  C_19 
REMARK       I    between atoms: C_19  and  N_21 
REMARK   15  A    between atoms: CA_22  and  C_23 
REMARK       I    between atoms: C_23  and  N_28 
REMARK   16  A    between atoms: N_28  and  CA_29 
REMARK   17  A    between atoms: CA_29  and  C_30 
REMARK   18  A    between atoms: CA_29  and  CB_32 
REMARK       I    between atoms: C_30  and  N_33 
REMARK   19  A    between atoms: CA_34  and  C_35 
REMARK       I    between atoms: C_35  and  N_40 
REMARK   20  A    between atoms: N_40  and  CA_41 
REMARK   21  A    between atoms: CA_41  and  C_42 
REMARK   22  A    between atoms: CA_41  and  CB_44 
REMARK       I    between atoms: C_42  and  N_48 
REMARK   23  A    between atoms: CB_44  and  CG_45 
REMARK       I    between atoms: CG_45  and  ND2_47 
REMARK   24  A    between atoms: CA_49  and  C_50 
REMARK       I    between atoms: C_50  and  N_55 
REMARK   25  A    between atoms: CA_56  and  C_57 
REMARK       I    between atoms: C_57  and  N_62 
REMARK   26  A    between atoms: CA_63  and  C_64 
REMARK       I    between atoms: C_64  and  N_69 
REMARK   27  A    between atoms: N_69  and  CA_70 
REMARK   28  A    between atoms: CA_70  and  C_71 
REMARK   29  A    between atoms: CA_70  and  CB_73 
REMARK       I    between atoms: C_71  and  N_77 
REMARK   30  A    between atoms: CB_73  and  CG1_74 
REMARK   31  A    between atoms: CB_73  and  CG2_75 
REMARK   32  A    between atoms: CG1_74  and  CD1_76 
REMARK   33  A    between atoms: N_77  and  CA_78 
REMARK   34  A    between atoms: CA_78  and  C_79 
REMARK   35  A    between atoms: CA_78  and  CB_81 
REMARK       I    between atoms: C_79  and  N_85 
REMARK   36  A    between atoms: CB_81  and  CG_82 
REMARK   37  A    between atoms: CG_82  and  CD1_83 
REMARK   38  A    between atoms: CG_82  and  CD2_84 
REMARK   39  A    between atoms: N_85  and  CA_86 
REMARK   40  A    between atoms: CA_86  and  C_87 
REMARK   41  A    between atoms: CA_86  and  CB_89 
REMARK       I    between atoms: C_87  and  N_94 
REMARK   42  A    between atoms: CB_89  and  CG_90 
REMARK   43  A    between atoms: CG_90  and  CD_91 
REMARK   44  A    between atoms: CD_91  and  CE_92 
REMARK   45  A    between atoms: CE_92  and  NZ_93 
REMARK   46  A    between atoms: N_94  and  CA_95 
REMARK   47  A    between atoms: CA_95  and  C_96 
REMARK   48  A    between atoms: CA_95  and  CB_98 
REMARK       I    between atoms: C_96  and  N_101 
REMARK   49  A    between atoms: CB_98  and  CG1_99 
REMARK   50  A    between atoms: CB_98  and  CG2_100 
REMARK   51  A    between atoms: N_101  and  CA_102 
REMARK   52  A    between atoms: CA_102  and  C_103 
REMARK   53  A    between atoms: CA_102  and  CB_105 
REMARK   54  A    between atoms: CB_105  and  CG_106 
ROOT
ATOM      1  C   PRO d   1      11.263  -3.762   3.759  0.00  0.00     0.243 C 
ATOM      2  O   PRO d   1      11.475  -4.358   2.698  0.00  0.00    -0.271 OA
ATOM      3  N   PRO d   1      10.980  -2.447   3.764  0.00  0.00    -0.337 N 
ATOM      4  CA  PRO d   1      10.947  -1.662   2.536  0.00  0.00     0.092 C 
ATOM      5  CB  PRO d   1      10.491  -0.266   2.943  0.00  0.00    -0.036 C 
ATOM      6  CG  PRO d   1      10.833  -0.178   4.426  0.00  0.00    -0.048 C 
ATOM      7  CD  PRO d   1      10.701  -1.611   4.922  0.00  0.00    -0.001 C 
ATOM      8  H58 PRO d   1      10.204  -2.093   1.849  0.00  0.00     0.087 H 
ATOM      9  H59 PRO d   1       9.409  -0.147   2.785  0.00  0.00     0.036 H 
ATOM     10  H60 PRO d   1      11.032   0.503   2.372  0.00  0.00     0.036 H 
ATOM     11  H61 PRO d   1      10.128   0.483   4.951  0.00  0.00     0.035 H 
ATOM     12  H62 PRO d   1      11.859   0.192   4.569  0.00  0.00     0.035 H 
ATOM     13  H63 PRO d   1      11.427  -1.809   5.724  0.00  0.00     0.064 H 
ATOM     14  H64 PRO d   1       9.683  -1.797   5.295  0.00  0.00     0.064 H 
ENDROOT
BRANCH   4  15
ATOM     15  C   PRO d   1      12.312  -1.673   1.823  0.00  0.00     0.243 C 
ATOM     16  O   PRO d   1      13.336  -1.941   2.458  0.00  0.00    -0.271 OA
ATOM     17  N   PRO d   1      12.355  -1.355   0.516  0.00  0.00    -0.337 N 
ATOM     18  CA  PRO d   1      13.580  -1.371  -0.262  0.00  0.00     0.091 C 
ATOM     19  CD  PRO d   1      11.219  -1.016  -0.326  0.00  0.00    -0.001 C 
ATOM     20  CB  PRO d   1      13.119  -1.461  -1.720  0.00  0.00    -0.036 C 
ATOM     21  H65 PRO d   1      14.143  -2.282  -0.012  0.00  0.00     0.087 H 
ATOM     22  CG  PRO d   1      11.771  -0.756  -1.726  0.00  0.00    -0.048 C 
ATOM     23  H66 PRO d   1      13.012  -2.510  -2.032  0.00  0.00     0.036 H 
ATOM     24  H67 PRO d   1      13.830  -0.951  -2.387  0.00  0.00     0.036 H 
ATOM     25  H68 PRO d   1      11.109  -1.183  -2.494  0.00  0.00     0.035 H 
ATOM     26  H69 PRO d   1      11.893   0.322  -1.905  0.00  0.00     0.035 H 
ATOM     27  H70 PRO d   1      10.719  -0.115   0.058  0.00  0.00     0.064 H 
ATOM     28  H71 PRO d   1      10.503  -1.851  -0.350  0.00  0.00     0.064 H 
BRANCH  18  29
ATOM     29  C   PRO d   1      14.508  -0.183   0.009  0.00  0.00     0.241 C 
ATOM     30  O   PRO d   1      15.642  -0.402   0.440  0.00  0.00    -0.271 OA
ATOM     31  N   ILE d   1      14.075   1.055  -0.249  0.00  0.00    -0.346 N 
ATOM     32  H72 ILE d   1      13.141   1.161  -0.591  0.00  0.00     0.163 HD
BRANCH  31  33
ATOM     33  CA  ILE d   1      14.876   2.266  -0.065  0.00  0.00     0.092 C 
ATOM     34  H73 ILE d   1      15.658   2.050   0.678  0.00  0.00     0.088 H 
BRANCH  33  35
ATOM     35  C   ILE d   1      13.995   3.389   0.531  0.00  0.00     0.241 C 
ATOM     36  O   ILE d   1      13.174   3.108   1.405  0.00  0.00    -0.271 OA
ATOM     37  N   LEU d   1      14.204   4.640   0.094  0.00  0.00    -0.346 N 
ATOM     38  H83 LEU d   1      14.938   4.738  -0.578  0.00  0.00     0.163 HD
BRANCH  37  39
ATOM     39  CA  LEU d   1      13.519   5.886   0.453  0.00  0.00     0.089 C 
ATOM     40  H84 LEU d   1      14.236   6.700   0.269  0.00  0.00     0.087 H 
BRANCH  39  41
ATOM     41  C   LEU d   1      13.148   5.989   1.943  0.00  0.00     0.241 C 
ATOM     42  O   LEU d   1      11.987   5.833   2.326  0.00  0.00    -0.271 OA
ATOM     43  N   LYS d   1      14.144   6.241   2.801  0.00  0.00    -0.346 N 
ATOM     44  H94 LYS d   1      15.069   6.334   2.434  0.00  0.00     0.163 HD
BRANCH  43  45
ATOM     45  CA  LYS d   1      13.957   6.388   4.247  0.00  0.00     0.089 C 
ATOM     46  H95 LYS d   1      13.016   6.940   4.392  0.00  0.00     0.087 H 
BRANCH  45  47
ATOM     47  C   LYS d   1      15.059   7.231   4.890  0.00  0.00     0.241 C 
ATOM     48  O   LYS d   1      14.818   8.373   5.278  0.00  0.00    -0.271 OA
ATOM     49  N   VAL d   1      16.271   6.682   4.965  0.00  0.00    -0.346 N 
ATOM     50 7H10 VAL d   1      16.367   5.772   4.563  0.00  0.00     0.163 HD
BRANCH  49  51
ATOM     51  CA  VAL d   1      17.473   7.249   5.563  0.00  0.00     0.092 C 
ATOM     52 8H10 VAL d   1      17.246   7.455   6.619  0.00  0.00     0.088 H 
BRANCH  51  53
ATOM     53  C   VAL d   1      17.904   8.572   4.952  0.00  0.00     0.241 C 
ATOM     54  O   VAL d   1      18.466   9.398   5.671  0.00  0.00    -0.271 OA
ATOM     55  N   TRP d   1      17.562   8.792   3.683  0.00  0.00    -0.344 N 
ATOM     56 6H11 TRP d   1      17.033   8.091   3.206  0.00  0.00     0.163 HD
BRANCH  55  57
ATOM     57  CA  TRP d   1      17.921  10.006   2.953  0.00  0.00     0.100 C 
ATOM     58 7H11 TRP d   1      17.662   9.866   1.893  0.00  0.00     0.090 H 
BRANCH  57  59
ATOM     59  C   TRP d   1      19.434  10.179   3.040  0.00  0.00     0.197 C 
ATOM     60  O   TRP d   1      20.131   9.239   2.602  0.00  0.00    -0.646 OA
ATOM     61  OXT TRP d   1      19.847  11.246   3.542  0.00  0.00    -0.646 OA
ENDBRANCH  57  59
BRANCH  57  62
ATOM     62  CB  TRP d   1      17.105  11.206   3.466  0.00  0.00    -0.011 C 
ATOM     63 8H11 TRP d   1      17.488  11.474   4.462  0.00  0.00     0.044 H 
ATOM     64 9H11 TRP d   1      16.055  10.890   3.550  0.00  0.00     0.044 H 
BRANCH  62  65
ATOM     65  CG  TRP d   1      17.149  12.433   2.611  0.00  0.00    -0.028 A 
ATOM     66  CD1 TRP d   1      17.865  13.552   2.861  0.00  0.00    -0.015 A 
ATOM     67  NE1 TRP d   1      17.625  14.486   1.871  0.00  0.00    -0.365 N 
ATOM     68 0H12 TRP d   1      18.529  13.695   3.712  0.00  0.00     0.112 H 
ATOM     69  CE2 TRP d   1      16.734  14.009   0.931  0.00  0.00     0.042 A 
ATOM     70 1H12 TRP d   1      18.057  15.421   1.839  0.00  0.00     0.165 HD
ATOM     71  CD2 TRP d   1      16.451  12.680   1.358  0.00  0.00    -0.002 A 
ATOM     72  CZ2 TRP d   1      16.176  14.545  -0.238  0.00  0.00    -0.056 A 
ATOM     73  CE3 TRP d   1      15.612  11.903   0.537  0.00  0.00    -0.070 A 
ATOM     74  CZ3 TRP d   1      15.040  12.432  -0.634  0.00  0.00    -0.082 A 
ATOM     75 2H12 TRP d   1      15.402  10.876   0.813  0.00  0.00     0.084 H 
ATOM     76  CH2 TRP d   1      15.314  13.756  -1.016  0.00  0.00    -0.081 A 
ATOM     77 4H12 TRP d   1      14.387  11.817  -1.243  0.00  0.00     0.083 H 
ATOM     78 5H12 TRP d   1      14.860  14.168  -1.910  0.00  0.00     0.083 H 
ATOM     79 3H12 TRP d   1      16.408  15.560  -0.539  0.00  0.00     0.086 H 
ENDBRANCH  62  65
ENDBRANCH  57  62
ENDBRANCH  55  57
ENDBRANCH  51  53
BRANCH  51  80
ATOM     80  CB  VAL d   1      18.585   6.176   5.528  0.00  0.00    -0.033 C 
ATOM     81 9H10 VAL d   1      18.156   5.274   5.988  0.00  0.00     0.042 H 
BRANCH  80  82
ATOM     82  CG1 VAL d   1      19.038   5.788   4.113  0.00  0.00    -0.071 C 
ATOM     83 0H11 VAL d   1      19.827   5.024   4.177  0.00  0.00     0.028 H 
ATOM     84 1H11 VAL d   1      19.430   6.677   3.597  0.00  0.00     0.028 H 
ATOM     85 2H11 VAL d   1      18.182   5.385   3.551  0.00  0.00     0.028 H 
ENDBRANCH  80  82
BRANCH  80  86
ATOM     86  CG2 VAL d   1      19.819   6.561   6.348  0.00  0.00    -0.071 C 
ATOM     87 3H11 VAL d   1      19.510   6.842   7.366  0.00  0.00     0.028 H 
ATOM     88 4H11 VAL d   1      20.326   7.413   5.870  0.00  0.00     0.028 H 
ATOM     89 5H11 VAL d   1      20.508   5.705   6.397  0.00  0.00     0.028 H 
ENDBRANCH  80  86
ENDBRANCH  51  80
ENDBRANCH  49  51
ENDBRANCH  45  47
BRANCH  45  90
ATOM     90  CB  LYS d   1      13.776   5.011   4.933  0.00  0.00    -0.038 C 
ATOM     91  H96 LYS d   1      12.863   4.551   4.527  0.00  0.00     0.036 H 
ATOM     92  H97 LYS d   1      13.649   5.188   6.011  0.00  0.00     0.036 H 
BRANCH  90  93
ATOM     93  CG  LYS d   1      14.927   4.004   4.755  0.00  0.00    -0.061 C 
ATOM     94  H98 LYS d   1      15.797   4.366   5.322  0.00  0.00     0.033 H 
ATOM     95  H99 LYS d   1      15.182   3.952   3.686  0.00  0.00     0.033 H 
BRANCH  93  96
ATOM     96  CD  LYS d   1      14.588   2.599   5.238  0.00  0.00    -0.043 C 
ATOM     97 0H10 LYS d   1      13.936   2.092   4.511  0.00  0.00     0.035 H 
ATOM     98 1H10 LYS d   1      14.084   2.643   6.215  0.00  0.00     0.035 H 
BRANCH  96  99
ATOM     99  CE  LYS d   1      15.917   1.861   5.361  0.00  0.00     0.080 C 
ATOM    100 2H10 LYS d   1      16.496   2.305   6.184  0.00  0.00     0.075 H 
ATOM    101 3H10 LYS d   1      16.474   1.972   4.419  0.00  0.00     0.075 H 
BRANCH  99 102
ATOM    102  NZ  LYS d   1      15.723   0.419   5.635  0.00  0.00    -0.079 N 
ATOM    103 4H10 LYS d   1      16.621  -0.033   5.709  0.00  0.00     0.274 HD
ATOM    104 5H10 LYS d   1      15.198   0.002   4.882  0.00  0.00     0.274 HD
ATOM    105 6H10 LYS d   1      15.218   0.306   6.500  0.00  0.00     0.274 HD
ENDBRANCH  99 102
ENDBRANCH  96  99
ENDBRANCH  93  96
ENDBRANCH  90  93
ENDBRANCH  45  90
ENDBRANCH  43  45
ENDBRANCH  39  41
BRANCH  39 106
ATOM    106  CB  LEU d   1      12.326   6.125  -0.508  0.00  0.00    -0.035 C 
ATOM    107  H85 LEU d   1      11.544   6.654   0.056  0.00  0.00     0.037 H 
ATOM    108  H86 LEU d   1      11.949   5.141  -0.824  0.00  0.00     0.037 H 
BRANCH 106 109
ATOM    109  CG  LEU d   1      12.622   6.945  -1.783  0.00  0.00    -0.059 C 
ATOM    110  H87 LEU d   1      12.810   7.981  -1.464  0.00  0.00     0.038 H 
BRANCH 109 111
ATOM    111  CD1 LEU d   1      13.821   6.497  -2.627  0.00  0.00    -0.073 C 
ATOM    112  H88 LEU d   1      13.922   7.159  -3.500  0.00  0.00     0.028 H 
ATOM    113  H89 LEU d   1      13.664   5.463  -2.967  0.00  0.00     0.028 H 
ATOM    114  H90 LEU d   1      14.737   6.548  -2.020  0.00  0.00     0.028 H 
ENDBRANCH 109 111
BRANCH 109 115
ATOM    115  CD2 LEU d   1      11.394   6.919  -2.701  0.00  0.00    -0.073 C 
ATOM    116  H91 LEU d   1      10.506   7.235  -2.134  0.00  0.00     0.028 H 
ATOM    117  H92 LEU d   1      11.242   5.898  -3.081  0.00  0.00     0.028 H 
ATOM    118  H93 LEU d   1      11.553   7.605  -3.546  0.00  0.00     0.028 H 
ENDBRANCH 109 115
ENDBRANCH 106 109
ENDBRANCH  39 106
ENDBRANCH  37  39
ENDBRANCH  33  35
BRANCH  33 119
ATOM    119  CB  ILE d   1      15.607   2.599  -1.407  0.00  0.00    -0.030 C 
ATOM    120  H74 ILE d   1      16.181   3.520  -1.228  0.00  0.00     0.043 H 
BRANCH 119 121
ATOM    121  CG1 ILE d   1      14.648   2.891  -2.590  0.00  0.00    -0.063 C 
ATOM    122  H75 ILE d   1      13.887   3.609  -2.252  0.00  0.00     0.033 H 
ATOM    123  H76 ILE d   1      14.160   1.950  -2.882  0.00  0.00     0.033 H 
BRANCH 121 124
ATOM    124  CD1 ILE d   1      15.352   3.475  -3.822  0.00  0.00    -0.076 C 
ATOM    125  H80 ILE d   1      14.612   3.655  -4.616  0.00  0.00     0.027 H 
ATOM    126  H81 ILE d   1      16.111   2.764  -4.182  0.00  0.00     0.027 H 
ATOM    127  H82 ILE d   1      15.838   4.424  -3.551  0.00  0.00     0.027 H 
ENDBRANCH 121 124
ENDBRANCH 119 121
BRANCH 119 128
ATOM    128  CG2 ILE d   1      16.616   1.504  -1.800  0.00  0.00    -0.071 C 
ATOM    129  H77 ILE d   1      17.290   1.306  -0.954  0.00  0.00     0.028 H 
ATOM    130  H78 ILE d   1      17.204   1.841  -2.666  0.00  0.00     0.028 H 
ATOM    131  H79 ILE d   1      16.074   0.583  -2.061  0.00  0.00     0.028 H 
ENDBRANCH 119 128
ENDBRANCH  33 119
ENDBRANCH  31  33
ENDBRANCH  18  29
ENDBRANCH   4  15
BRANCH   1 132
ATOM    132  CA  PRO d   1      11.291  -4.540   5.093  0.00  0.00     0.092 C 
ATOM    133  N   PRO d   1      11.334  -5.984   4.879  0.00  0.00    -0.337 N 
ATOM    134  C   ASN d   1      10.372  -6.765   4.350  0.00  0.00     0.243 C 
ATOM    135  CD  PRO d   1      12.586  -6.538   5.364  0.00  0.00    -0.001 C 
ATOM    136  O   ASN d   1      10.523  -7.989   4.252  0.00  0.00    -0.271 OA
ATOM    137  CG  PRO d   1      13.511  -5.353   5.608  0.00  0.00    -0.048 C 
ATOM    138  H56 PRO d   1      13.021  -7.212   4.612  0.00  0.00     0.064 H 
ATOM    139  H57 PRO d   1      12.421  -7.091   6.300  0.00  0.00     0.064 H 
ATOM    140  CB  PRO d   1      12.543  -4.222   5.930  0.00  0.00    -0.036 C 
ATOM    141  H54 PRO d   1      14.187  -5.547   6.454  0.00  0.00     0.035 H 
ATOM    142  H55 PRO d   1      14.103  -5.123   4.710  0.00  0.00     0.035 H 
ATOM    143  H52 PRO d   1      12.301  -4.210   7.003  0.00  0.00     0.036 H 
ATOM    144  H53 PRO d   1      12.969  -3.250   5.639  0.00  0.00     0.036 H 
ATOM    145  H51 PRO d   1      10.389  -4.277   5.665  0.00  0.00     0.087 H 
BRANCH 134 146
ATOM    146  CA  ASN d   1       9.037  -6.130   3.907  0.00  0.00     0.097 C 
ATOM    147  H46 ASN d   1       9.245  -5.125   3.510  0.00  0.00     0.088 H 
BRANCH 146 148
ATOM    148  N   ASN d   1       8.400  -6.915   2.853  0.00  0.00    -0.346 N 
ATOM    149  C   PRO d   1       8.918  -7.384   1.727  0.00  0.00     0.241 C 
ATOM    150  O   PRO d   1      10.079  -7.178   1.363  0.00  0.00    -0.271 OA
ATOM    151  H45 ASN d   1       7.435  -7.129   3.002  0.00  0.00     0.163 HD
BRANCH 149 152
ATOM    152  CA  PRO d   1       7.932  -8.185   0.873  0.00  0.00     0.091 C 
ATOM    153  N   PRO d   1       6.668  -8.449   1.570  0.00  0.00    -0.337 N 
ATOM    154  C   ALA d   1       6.556  -9.348   2.571  0.00  0.00     0.243 C 
ATOM    155  CD  PRO d   1       5.584  -7.634   1.009  0.00  0.00    -0.001 C 
ATOM    156  O   ALA d   1       7.534  -9.985   2.972  0.00  0.00    -0.271 OA
ATOM    157  CG  PRO d   1       6.212  -6.707  -0.025  0.00  0.00    -0.048 C 
ATOM    158  H43 PRO d   1       5.105  -7.044   1.804  0.00  0.00     0.064 H 
ATOM    159  H44 PRO d   1       4.834  -8.281   0.530  0.00  0.00     0.064 H 
ATOM    160  CB  PRO d   1       7.531  -7.381  -0.348  0.00  0.00    -0.036 C 
ATOM    161  H41 PRO d   1       5.579  -6.631  -0.921  0.00  0.00     0.035 H 
ATOM    162  H42 PRO d   1       6.375  -5.703   0.394  0.00  0.00     0.035 H 
ATOM    163  H39 PRO d   1       7.412  -8.047  -1.216  0.00  0.00     0.036 H 
ATOM    164  H40 PRO d   1       8.297  -6.624  -0.569  0.00  0.00     0.036 H 
ATOM    165  H38 PRO d   1       8.404  -9.133   0.575  0.00  0.00     0.087 H 
BRANCH 154 166
ATOM    166  CA  ALA d   1       5.176  -9.497   3.245  0.00  0.00     0.086 C 
ATOM    167  H34 ALA d   1       4.425  -9.584   2.446  0.00  0.00     0.086 H 
BRANCH 166 168
ATOM    168  N   ALA d   1       5.042 -10.650   4.123  0.00  0.00    -0.346 N 
ATOM    169  C   PRO d   1       5.364 -11.919   3.880  0.00  0.00     0.241 C 
ATOM    170  O   PRO d   1       5.871 -12.306   2.827  0.00  0.00    -0.271 OA
ATOM    171  H33 ALA d   1       4.658 -10.465   5.027  0.00  0.00     0.163 HD
BRANCH 169 172
ATOM    172  CA  PRO d   1       5.086 -12.888   5.030  0.00  0.00     0.091 C 
ATOM    173  N   PRO d   1       3.894 -13.680   4.758  0.00  0.00    -0.337 N 
ATOM    174  C   GLY d   1       2.653 -13.168   4.745  0.00  0.00     0.238 C 
ATOM    175  CD  PRO d   1       4.244 -15.078   4.554  0.00  0.00    -0.001 C 
ATOM    176  O   GLY d   1       2.442 -11.966   4.928  0.00  0.00    -0.272 OA
ATOM    177  CG  PRO d   1       5.765 -15.118   4.437  0.00  0.00    -0.048 C 
ATOM    178  H31 PRO d   1       3.780 -15.458   3.632  0.00  0.00     0.064 H 
ATOM    179  H32 PRO d   1       3.910 -15.684   5.409  0.00  0.00     0.064 H 
ATOM    180  CB  PRO d   1       6.210 -13.902   5.243  0.00  0.00    -0.036 C 
ATOM    181  H29 PRO d   1       6.169 -16.046   4.868  0.00  0.00     0.035 H 
ATOM    182  H30 PRO d   1       6.082 -15.033   3.387  0.00  0.00     0.035 H 
ATOM    183  H27 PRO d   1       6.312 -14.155   6.309  0.00  0.00     0.036 H 
ATOM    184  H28 PRO d   1       7.166 -13.511   4.866  0.00  0.00     0.036 H 
ATOM    185  H26 PRO d   1       4.944 -12.302   5.950  0.00  0.00     0.087 H 
BRANCH 174 186
ATOM    186  CA  GLY d   1       1.475 -14.095   4.457  0.00  0.00     0.069 C 
ATOM    187  H24 GLY d   1       1.409 -14.263   3.372  0.00  0.00     0.078 H 
ATOM    188  H25 GLY d   1       1.643 -15.055   4.967  0.00  0.00     0.078 H 
BRANCH 186 189
ATOM    189  N   GLY d   1       0.221 -13.524   4.924  0.00  0.00    -0.351 N 
ATOM    190  C   LYS d   1      -0.751 -14.209   5.535  0.00  0.00     0.240 C 
ATOM    191  O   LYS d   1      -0.671 -15.404   5.830  0.00  0.00    -0.271 OA
ATOM    192  H23 GLY d   1       0.075 -12.546   4.777  0.00  0.00     0.163 HD
BRANCH 190 193
ATOM    193  CA  LYS d   1      -1.994 -13.434   5.966  0.00  0.00     0.089 C 
ATOM    194  H11 LYS d   1      -2.697 -14.149   6.420  0.00  0.00     0.087 H 
BRANCH 193 195
ATOM    195  N   LYS d   1      -1.608 -12.466   6.993  0.00  0.00    -0.346 N 
ATOM    196  C   THR d   1      -1.124 -12.841   8.188  0.00  0.00     0.251 C 
ATOM    197  O   THR d   1      -1.006 -14.024   8.508  0.00  0.00    -0.271 OA
ATOM    198  H10 LYS d   1      -1.708 -11.490   6.798  0.00  0.00     0.163 HD
BRANCH 196 199
ATOM    199  CA  THR d   1      -0.712 -11.752   9.188  0.00  0.00     0.199 C 
ATOM    200  H4  THR d   1      -1.602 -11.147   9.415  0.00  0.00     0.103 H 
BRANCH 199 201
ATOM    201  N   THR d   1      -0.247 -12.384  10.430  0.00  0.00    -0.064 N 
ATOM    202  H1  THR d   1      -0.962 -13.002  10.781  0.00  0.00     0.275 HD
ATOM    203  H2  THR d   1      -0.051 -11.672  11.116  0.00  0.00     0.275 HD
ATOM    204  H3  THR d   1       0.592 -12.912  10.245  0.00  0.00     0.275 HD
ENDBRANCH 199 201
BRANCH 199 205
ATOM    205  CB  THR d   1       0.375 -10.805   8.643  0.00  0.00     0.068 C 
ATOM    206  H5  THR d   1       0.748 -10.203   9.485  0.00  0.00     0.086 H 
BRANCH 205 207
ATOM    207  OG1 THR d   1      -0.160  -9.935   7.671  0.00  0.00    -0.393 OA
ATOM    208  H6  THR d   1       0.526  -9.361   7.349  0.00  0.00     0.210 HD
ENDBRANCH 205 207
BRANCH 205 209
ATOM    209  CG2 THR d   1       1.567 -11.560   8.029  0.00  0.00    -0.050 C 
ATOM    210  H7  THR d   1       2.308 -10.836   7.658  0.00  0.00     0.031 H 
ATOM    211  H8  THR d   1       1.215 -12.184   7.195  0.00  0.00     0.031 H 
ATOM    212  H9  THR d   1       2.030 -12.199   8.795  0.00  0.00     0.031 H 
ENDBRANCH 205 209
ENDBRANCH 199 205
ENDBRANCH 196 199
ENDBRANCH 193 195
BRANCH 193 213
ATOM    213  CB  LYS d   1      -2.724 -12.767   4.782  0.00  0.00    -0.038 C 
ATOM    214  H12 LYS d   1      -2.109 -12.873   3.876  0.00  0.00     0.036 H 
ATOM    215  H13 LYS d   1      -2.867 -11.700   5.005  0.00  0.00     0.036 H 
BRANCH 213 216
ATOM    216  CG  LYS d   1      -4.092 -13.413   4.534  0.00  0.00    -0.061 C 
ATOM    217  H14 LYS d   1      -3.964 -14.504   4.480  0.00  0.00     0.033 H 
ATOM    218  H15 LYS d   1      -4.491 -13.043   3.578  0.00  0.00     0.033 H 
BRANCH 216 219
ATOM    219  CD  LYS d   1      -5.092 -13.088   5.644  0.00  0.00    -0.043 C 
ATOM    220  H16 LYS d   1      -5.256 -12.001   5.690  0.00  0.00     0.035 H 
ATOM    221  H17 LYS d   1      -4.703 -13.441   6.610  0.00  0.00     0.035 H 
BRANCH 219 222
ATOM    222  CE  LYS d   1      -6.407 -13.795   5.328  0.00  0.00     0.080 C 
ATOM    223  H18 LYS d   1      -6.187 -14.809   4.962  0.00  0.00     0.075 H 
ATOM    224  H19 LYS d   1      -6.937 -13.230   4.547  0.00  0.00     0.075 H 
BRANCH 222 225
ATOM    225  NZ  LYS d   1      -7.273 -13.894   6.516  0.00  0.00    -0.079 N 
ATOM    226  H20 LYS d   1      -8.129 -14.365   6.269  0.00  0.00     0.274 HD
ATOM    227  H21 LYS d   1      -7.484 -12.969   6.856  0.00  0.00     0.274 HD
ATOM    228  H22 LYS d   1      -6.798 -14.416   7.236  0.00  0.00     0.274 HD
ENDBRANCH 222 225
ENDBRANCH 219 222
ENDBRANCH 216 219
ENDBRANCH 213 216
ENDBRANCH 193 213
ENDBRANCH 190 193
ENDBRANCH 186 189
ENDBRANCH 174 186
ENDBRANCH 169 172
ENDBRANCH 166 168
BRANCH 166 229
ATOM    229  CB  ALA d   1       4.865  -8.253   4.100  0.00  0.00    -0.049 C 
ATOM    230  H35 ALA d   1       4.953  -7.350   3.479  0.00  0.00     0.030 H 
ATOM    231  H36 ALA d   1       5.578  -8.194   4.935  0.00  0.00     0.030 H 
ATOM    232  H37 ALA d   1       3.841  -8.327   4.496  0.00  0.00     0.030 H 
ENDBRANCH 166 229
ENDBRANCH 154 166
ENDBRANCH 149 152
ENDBRANCH 146 148
BRANCH 146 233
ATOM    233  CB  ASN d   1       8.098  -5.992   5.124  0.00  0.00     0.036 C 
ATOM    234  H47 ASN d   1       7.072  -5.835   4.759  0.00  0.00     0.051 H 
ATOM    235  H48 ASN d   1       8.415  -5.120   5.714  0.00  0.00     0.051 H 
BRANCH 233 236
ATOM    236  CG  ASN d   1       8.109  -7.221   6.029  0.00  0.00     0.217 C 
ATOM    237  OD1 ASN d   1       7.584  -8.263   5.662  0.00  0.00    -0.274 OA
ATOM    238  ND2 ASN d   1       8.701  -7.148   7.207  0.00  0.00    -0.370 N 
ATOM    239  H49 ASN d   1       8.715  -7.946   7.810  0.00  0.00     0.159 HD
ATOM    240  H50 ASN d   1       9.135  -6.295   7.497  0.00  0.00     0.159 HD
ENDBRANCH 233 236
ENDBRANCH 146 233
ENDBRANCH 134 146
ENDBRANCH   1 132
TORSDOF 54
