REMARK  11 active torsions:
REMARK  status: ('A' for Active; 'I' for Inactive)
REMARK    1  A    between atoms: C16_5  and  C17_6 
REMARK       I    between atoms: N4_15  and  C16_5 
REMARK    2  A    between atoms: C17_6  and  C18_7 
REMARK    3  A    between atoms: C18_7  and  C25_8 
REMARK    4  A    between atoms: C18_7  and  C19_9 
REMARK    5  A    between atoms: C5_20  and  O1_21 
REMARK    6  A    between atoms: C4_22  and  C5_20 
REMARK    7  A    between atoms: N1_23  and  C4_22 
REMARK    8  A    between atoms: C1_26  and  N2_27 
REMARK    9  A    between atoms: N2_27  and  C6_28 
REMARK   10  A    between atoms: C6_28  and  C7_29 
REMARK   11  A    between atoms: C7_29  and  N3_30 
ROOT
ATOM      1  O2  CQ5 d   1      26.096  14.052 -12.157  0.00  0.00    -0.273 OA
ATOM      2  C16 CQ5 d   1      27.265  13.815 -12.348  0.00  0.00     0.220 C 
ATOM      3  N4  CQ5 d   1      28.098  13.811 -11.233  0.00  0.00    -0.352 N 
ATOM      4  C13 CQ5 d   1      29.548  14.105 -11.348  0.00  0.00     0.000 C 
ATOM      5  C12 CQ5 d   1      30.423  13.241 -10.451  0.00  0.00    -0.020 C 
ATOM      6  C14 CQ5 d   1      27.587  13.597  -9.845  0.00  0.00     0.000 C 
ATOM      7  C15 CQ5 d   1      28.491  12.746  -8.941  0.00  0.00    -0.020 C 
ATOM      8  C5  CQ5 d   1      29.947  13.220  -8.976  0.00  0.00     0.077 C 
ATOM      9  H13 CQ5 d   1      29.710  15.159 -11.079  0.00  0.00     0.064 H 
ATOM     10  H14 CQ5 d   1      29.853  13.941 -12.392  0.00  0.00     0.064 H 
ATOM     11  H15 CQ5 d   1      31.451  13.633 -10.482  0.00  0.00     0.040 H 
ATOM     12  H16 CQ5 d   1      30.411  12.211 -10.837  0.00  0.00     0.040 H 
ATOM     13  H17 CQ5 d   1      26.609  13.098  -9.915  0.00  0.00     0.064 H 
ATOM     14  H18 CQ5 d   1      27.463  14.582  -9.372  0.00  0.00     0.064 H 
ATOM     15  H19 CQ5 d   1      28.450  11.700  -9.280  0.00  0.00     0.040 H 
ATOM     16  H20 CQ5 d   1      28.121  12.811  -7.907  0.00  0.00     0.040 H 
ENDROOT
BRANCH   8  17
ATOM     17  O1  CQ5 d   1      29.971  14.555  -8.492  0.00  0.00    -0.388 OA
ATOM     18  H21 CQ5 d   1      30.864  14.878  -8.502  0.00  0.00     0.210 HD
ENDBRANCH   8  17
BRANCH   8  19
ATOM     19  C4  CQ5 d   1      30.835  12.319  -8.088  0.00  0.00     0.032 C 
ATOM     20  H22 CQ5 d   1      30.836  11.291  -8.480  0.00  0.00     0.069 H 
ATOM     21  H23 CQ5 d   1      30.453  12.318  -7.056  0.00  0.00     0.069 H 
BRANCH  19  22
ATOM     22  N1  CQ5 d   1      32.204  12.867  -8.115  0.00  0.00    -0.306 N 
ATOM     23  C3  CQ5 d   1      33.143  12.453  -9.053  0.00  0.00     0.252 A 
ATOM     24  C   CQ5 d   1      34.462  13.084  -9.064  0.00  0.00     0.027 A 
ATOM     25  O   CQ5 d   1      32.899  11.574  -9.852  0.00  0.00    -0.268 OA
ATOM     26  C1  CQ5 d   1      34.732  14.049  -8.165  0.00  0.00     0.130 A 
ATOM     27  H1  CQ5 d   1      35.215  12.778  -9.789  0.00  0.00     0.098 H 
ATOM     28  N   CQ5 d   1      33.678  14.453  -7.212  0.00  0.00    -0.226 NA
ATOM     29  C2  CQ5 d   1      32.514  13.874  -7.230  0.00  0.00     0.071 A 
ATOM     30  H24 CQ5 d   1      31.756  14.198  -6.518  0.00  0.00     0.144 H 
BRANCH  26  31
ATOM     31  N2  CQ5 d   1      35.918  14.764  -8.113  0.00  0.00    -0.373 N 
ATOM     32  H25 CQ5 d   1      36.087  15.328  -7.268  0.00  0.00     0.161 HD
BRANCH  31  33
ATOM     33  C6  CQ5 d   1      36.960  14.793  -9.154  0.00  0.00     0.017 C 
ATOM     34  H26 CQ5 d   1      37.349  13.775  -9.302  0.00  0.00     0.066 H 
ATOM     35  H27 CQ5 d   1      37.777  15.453  -8.826  0.00  0.00     0.066 H 
BRANCH  33  36
ATOM     36  C7  CQ5 d   1      36.394  15.317 -10.495  0.00  0.00     0.098 C 
ATOM     37  H28 CQ5 d   1      35.706  14.552 -10.884  0.00  0.00     0.078 H 
ATOM     38  H29 CQ5 d   1      37.241  15.435 -11.187  0.00  0.00     0.078 H 
BRANCH  36  39
ATOM     39  N3  CQ5 d   1      35.665  16.592 -10.469  0.00  0.00    -0.070 N 
ATOM     40  C11 CQ5 d   1      36.524  17.753 -10.218  0.00  0.00     0.084 C 
ATOM     41  C10 CQ5 d   1      35.744  18.943 -10.789  0.00  0.00    -0.041 C 
ATOM     42  H31 CQ5 d   1      37.490  17.640 -10.732  0.00  0.00     0.076 H 
ATOM     43  H32 CQ5 d   1      36.696  17.883  -9.139  0.00  0.00     0.076 H 
ATOM     44  C9  CQ5 d   1      34.650  18.332 -11.661  0.00  0.00    -0.041 C 
ATOM     45  H33 CQ5 d   1      36.405  19.582 -11.393  0.00  0.00     0.035 H 
ATOM     46  H34 CQ5 d   1      35.301  19.538  -9.977  0.00  0.00     0.035 H 
ATOM     47  C8  CQ5 d   1      35.047  16.867 -11.772  0.00  0.00     0.084 C 
ATOM     48  H35 CQ5 d   1      34.628  18.808 -12.652  0.00  0.00     0.035 H 
ATOM     49  H36 CQ5 d   1      33.665  18.435 -11.183  0.00  0.00     0.035 H 
ATOM     50  H37 CQ5 d   1      34.165  16.230 -11.934  0.00  0.00     0.076 H 
ATOM     51  H38 CQ5 d   1      35.766  16.713 -12.591  0.00  0.00     0.076 H 
ATOM     52  H30 CQ5 d   1      34.956  16.537  -9.755  0.00  0.00     0.279 HD
ENDBRANCH  36  39
ENDBRANCH  33  36
ENDBRANCH  31  33
ENDBRANCH  26  31
ENDBRANCH  19  22
ENDBRANCH   8  19
BRANCH   2  53
ATOM     53  C17 CQ5 d   1      27.711  13.584 -13.801  0.00  0.00     0.016 C 
ATOM     54  H2  CQ5 d   1      28.772  13.861 -13.885  0.00  0.00     0.048 H 
ATOM     55  H3  CQ5 d   1      27.110  14.233 -14.455  0.00  0.00     0.048 H 
BRANCH  53  56
ATOM     56  C18 CQ5 d   1      27.551  12.137 -14.280  0.00  0.00    -0.024 C 
ATOM     57  H4  CQ5 d   1      26.484  11.878 -14.217  0.00  0.00     0.047 H 
BRANCH  56  58
ATOM     58  C25 CQ5 d   1      27.981  12.026 -15.761  0.00  0.00    -0.068 C 
ATOM     59  H5  CQ5 d   1      27.864  10.986 -16.100  0.00  0.00     0.028 H 
ATOM     60  H6  CQ5 d   1      29.034  12.328 -15.861  0.00  0.00     0.028 H 
ATOM     61  H7  CQ5 d   1      27.351  12.685 -16.376  0.00  0.00     0.028 H 
ENDBRANCH  56  58
BRANCH  56  62
ATOM     62  C19 CQ5 d   1      28.314  11.149 -13.398  0.00  0.00    -0.054 A 
ATOM     63  C24 CQ5 d   1      29.686  10.941 -13.483  0.00  0.00    -0.076 A 
ATOM     64  C23 CQ5 d   1      30.307  10.025 -12.656  0.00  0.00    -0.082 A 
ATOM     65  H8  CQ5 d   1      30.272  11.501 -14.203  0.00  0.00     0.084 H 
ATOM     66  C22 CQ5 d   1      29.563   9.314 -11.726  0.00  0.00    -0.083 A 
ATOM     67  H9  CQ5 d   1      31.376   9.862 -12.734  0.00  0.00     0.083 H 
ATOM     68  C21 CQ5 d   1      28.201   9.530 -11.629  0.00  0.00    -0.082 A 
ATOM     69  H10 CQ5 d   1      30.047   8.592 -11.078  0.00  0.00     0.083 H 
ATOM     70  C20 CQ5 d   1      27.579  10.431 -12.458  0.00  0.00    -0.076 A 
ATOM     71  H11 CQ5 d   1      27.620   8.985 -10.894  0.00  0.00     0.083 H 
ATOM     72  H12 CQ5 d   1      26.509  10.584 -12.380  0.00  0.00     0.084 H 
ENDBRANCH  56  62
ENDBRANCH  53  56
ENDBRANCH   2  53
TORSDOF 11
