REMARK  12 active torsions:
REMARK  status: ('A' for Active; 'I' for Inactive)
REMARK    1  A    between atoms: CAO_2  and  CAJ_4 
REMARK    2  A    between atoms: CAJ_4  and  CAK_5 
REMARK    3  A    between atoms: CAK_5  and  CAU_6 
REMARK    4  A    between atoms: CAU_6  and  CAQ_7 
REMARK    5  A    between atoms: CAU_6  and  OAN_10 
REMARK    6  A    between atoms: OAN_10  and  CAR_11 
REMARK       I    between atoms: CAR_11  and  N_13 
REMARK    7  A    between atoms: N_13  and  CA_14 
REMARK    8  A    between atoms: CA_14  and  C_15 
REMARK    9  A    between atoms: CA_14  and  CB_18 
REMARK   10  A    between atoms: CB_18  and  CG_19 
REMARK   11  A    between atoms: CG_19  and  CD2_20 
REMARK   12  A    between atoms: CG_19  and  CD1_21 
ROOT
ATOM      1  CAR CQB d   1      17.858  44.548  42.778  0.00  0.00     0.362 C 
ATOM      2  OAF CQB d   1      18.383  43.536  42.293  0.00  0.00    -0.238 OA
ATOM      3  N   CQB d   1      18.486  45.404  43.590  0.00  0.00    -0.322 N 
ATOM      4  H6  CQB d   1      17.971  46.192  43.928  0.00  0.00     0.165 HD
ENDROOT
BRANCH   3   5
ATOM      5  CA  CQB d   1      19.885  45.263  44.019  0.00  0.00     0.098 C 
ATOM      6  H7  CQB d   1      20.166  44.199  44.025  0.00  0.00     0.089 H 
BRANCH   5   7
ATOM      7  C   CQB d   1      20.044  45.818  45.449  0.00  0.00     0.196 C 
ATOM      8  OXT CQB d   1      19.581  46.970  45.695  0.00  0.00    -0.646 OA
ATOM      9  O   CQB d   1      20.612  45.082  46.294  0.00  0.00    -0.646 OA
ENDBRANCH   5   7
BRANCH   5  10
ATOM     10  CB  CQB d   1      20.757  46.008  42.978  0.00  0.00    -0.034 C 
ATOM     11  H8  CQB d   1      20.334  47.011  42.816  0.00  0.00     0.037 H 
ATOM     12  H9  CQB d   1      20.738  45.445  42.033  0.00  0.00     0.037 H 
BRANCH  10  13
ATOM     13  CG  CQB d   1      22.224  46.157  43.436  0.00  0.00    -0.059 C 
ATOM     14  H10 CQB d   1      22.270  46.646  44.420  0.00  0.00     0.038 H 
BRANCH  13  15
ATOM     15  CD2 CQB d   1      22.974  46.984  42.387  0.00  0.00    -0.073 C 
ATOM     16  H11 CQB d   1      24.023  47.102  42.695  0.00  0.00     0.028 H 
ATOM     17  H12 CQB d   1      22.505  47.975  42.297  0.00  0.00     0.028 H 
ATOM     18  H13 CQB d   1      22.933  46.469  41.416  0.00  0.00     0.028 H 
ENDBRANCH  13  15
BRANCH  13  19
ATOM     19  CD1 CQB d   1      22.884  44.757  43.495  0.00  0.00    -0.073 C 
ATOM     20  H14 CQB d   1      22.365  44.138  44.242  0.00  0.00     0.028 H 
ATOM     21  H15 CQB d   1      23.942  44.862  43.777  0.00  0.00     0.028 H 
ATOM     22  H16 CQB d   1      22.813  44.276  42.508  0.00  0.00     0.028 H 
ENDBRANCH  13  19
ENDBRANCH  10  13
ENDBRANCH   5  10
ENDBRANCH   3   5
BRANCH   1  23
ATOM     23  OAN CQB d   1      16.551  44.803  42.519  0.00  0.00    -0.288 OA
BRANCH  23  24
ATOM     24  CAU CQB d   1      16.037  44.321  41.267  0.00  0.00     0.133 C 
ATOM     25  H5  CQB d   1      15.832  43.244  41.357  0.00  0.00     0.101 H 
BRANCH  24  26
ATOM     26  CAK CQB d   1      14.717  45.073  40.984  0.00  0.00    -0.022 C 
ATOM     27  H3  CQB d   1      14.344  44.789  39.989  0.00  0.00     0.038 H 
ATOM     28  H4  CQB d   1      13.973  44.799  41.746  0.00  0.00     0.038 H 
BRANCH  26  29
ATOM     29  CAJ CQB d   1      14.949  46.607  41.024  0.00  0.00     0.018 C 
ATOM     30  H1  CQB d   1      14.980  46.927  42.076  0.00  0.00     0.049 H 
ATOM     31  H2  CQB d   1      15.915  46.826  40.545  0.00  0.00     0.049 H 
BRANCH  29  32
ATOM     32  CAO CQB d   1      13.851  47.413  40.300  0.00  0.00     0.172 C 
ATOM     33  OAC CQB d   1      13.803  48.640  40.546  0.00  0.00    -0.648 OA
ATOM     34  OAG CQB d   1      13.135  46.843  39.451  0.00  0.00    -0.648 OA
ENDBRANCH  29  32
ENDBRANCH  26  29
ENDBRANCH  24  26
BRANCH  24  35
ATOM     35  CAQ CQB d   1      17.034  44.534  40.098  0.00  0.00     0.203 C 
ATOM     36  OAI CQB d   1      16.871  43.762  39.145  0.00  0.00    -0.646 OA
ATOM     37  OAE CQB d   1      17.935  45.422  40.178  0.00  0.00    -0.646 OA
ENDBRANCH  24  35
ENDBRANCH  23  24
ENDBRANCH   1  23
TORSDOF 12
