REMARK  14 active torsions:
REMARK  status: ('A' for Active; 'I' for Inactive)
REMARK    1  A    between atoms: C13_10  and  C11_1 
REMARK       I    between atoms: C11_1  and  N10_27 
REMARK    2  A    between atoms: C03_3  and  C02_2 
REMARK    3  A    between atoms: C02_2  and  C01_11 
REMARK    4  A    between atoms: C04_4  and  C03_3 
REMARK    5  A    between atoms: N10_27  and  C09_9 
REMARK    6  A    between atoms: C13_10  and  C14_12 
REMARK    7  A    between atoms: N18_28  and  C13_10 
REMARK    8  A    between atoms: C14_12  and  C15_13 
REMARK    9  A    between atoms: C15_13  and  C16_14 
REMARK   10  A    between atoms: C15_13  and  C17_15 
REMARK   11  A    between atoms: C21_17  and  C19_16 
REMARK       I    between atoms: C19_16  and  N18_28 
REMARK   12  A    between atoms: C25_21  and  C24_20 
REMARK   13  A    between atoms: C26_22  and  C25_21 
REMARK   14  A    between atoms: C31_24  and  O32_33 
ROOT
ATOM      1  C13 CQH d   1      40.055  19.446  41.850  0.00  0.00     0.090 C 
ATOM      2  H9  CQH d   1      39.927  18.811  42.739  0.00  0.00     0.087 H 
ENDROOT
BRANCH   1   3
ATOM      3  C11 CQH d   1      41.182  18.853  41.005  0.00  0.00     0.245 C 
ATOM      4  N10 CQH d   1      41.370  17.411  41.020  0.00  0.00    -0.325 N 
ATOM      5  H29 CQH d   1      40.770  16.843  41.583  0.00  0.00     0.169 HD
ATOM      6  O12 CQH d   1      41.883  19.551  40.351  0.00  0.00    -0.271 OA
BRANCH   4   7
ATOM      7  C09 CQH d   1      42.415  16.783  40.230  0.00  0.00     0.041 A 
ATOM      8  C04 CQH d   1      42.047  15.955  39.181  0.00  0.00    -0.031 A 
ATOM      9  C05 CQH d   1      43.017  15.344  38.404  0.00  0.00    -0.075 A 
ATOM     10  C06 CQH d   1      44.359  15.556  38.689  0.00  0.00    -0.082 A 
ATOM     11  H5  CQH d   1      42.730  14.704  37.578  0.00  0.00     0.084 H 
ATOM     12  C07 CQH d   1      44.726  16.381  39.744  0.00  0.00    -0.081 A 
ATOM     13  H6  CQH d   1      45.122  15.076  38.087  0.00  0.00     0.083 H 
ATOM     14  C08 CQH d   1      43.753  16.998  40.517  0.00  0.00    -0.057 A 
ATOM     15  H7  CQH d   1      45.775  16.543  39.964  0.00  0.00     0.083 H 
ATOM     16  H8  CQH d   1      44.038  17.644  41.340  0.00  0.00     0.086 H 
BRANCH   8  17
ATOM     17  C03 CQH d   1      40.560  15.745  38.889  0.00  0.00    -0.039 C 
ATOM     18  H3  CQH d   1      40.414  14.732  38.486  0.00  0.00     0.040 H 
ATOM     19  H4  CQH d   1      39.993  15.852  39.826  0.00  0.00     0.040 H 
BRANCH  17  20
ATOM     20  C02 CQH d   1      40.039  16.762  37.874  0.00  0.00    -0.065 C 
ATOM     21  H1  CQH d   1      40.183  16.356  36.862  0.00  0.00     0.032 H 
ATOM     22  H2  CQH d   1      40.615  17.693  37.981  0.00  0.00     0.032 H 
BRANCH  20  23
ATOM     23  C01 CQH d   1      38.557  17.078  38.068  0.00  0.00    -0.076 C 
ATOM     24  H10 CQH d   1      38.237  17.812  37.314  0.00  0.00     0.027 H 
ATOM     25  H11 CQH d   1      38.399  17.494  39.074  0.00  0.00     0.027 H 
ATOM     26  H12 CQH d   1      37.968  16.156  37.956  0.00  0.00     0.027 H 
ENDBRANCH  20  23
ENDBRANCH  17  20
ENDBRANCH   8  17
ENDBRANCH   4   7
ENDBRANCH   1   3
BRANCH   1  27
ATOM     27  C14 CQH d   1      38.740  19.457  41.073  0.00  0.00    -0.035 C 
ATOM     28  H13 CQH d   1      38.620  18.485  40.572  0.00  0.00     0.037 H 
ATOM     29  H14 CQH d   1      38.784  20.256  40.318  0.00  0.00     0.037 H 
BRANCH  27  30
ATOM     30  C15 CQH d   1      37.529  19.697  41.965  0.00  0.00    -0.059 C 
ATOM     31  H15 CQH d   1      37.771  20.522  42.652  0.00  0.00     0.038 H 
BRANCH  30  32
ATOM     32  C16 CQH d   1      37.217  18.457  42.806  0.00  0.00    -0.073 C 
ATOM     33  H16 CQH d   1      36.340  18.655  43.440  0.00  0.00     0.028 H 
ATOM     34  H17 CQH d   1      38.083  18.218  43.441  0.00  0.00     0.028 H 
ATOM     35  H18 CQH d   1      37.004  17.607  42.141  0.00  0.00     0.028 H 
ENDBRANCH  30  32
BRANCH  30  36
ATOM     36  C17 CQH d   1      36.314  20.113  41.138  0.00  0.00    -0.073 C 
ATOM     37  H19 CQH d   1      36.563  21.004  40.544  0.00  0.00     0.028 H 
ATOM     38  H20 CQH d   1      35.474  20.343  41.810  0.00  0.00     0.028 H 
ATOM     39  H21 CQH d   1      36.030  19.291  40.465  0.00  0.00     0.028 H 
ENDBRANCH  30  36
ENDBRANCH  27  30
ENDBRANCH   1  27
BRANCH   1  40
ATOM     40  N18 CQH d   1      40.369  20.793  42.295  0.00  0.00    -0.344 N 
ATOM     41  C19 CQH d   1      41.399  20.978  43.301  0.00  0.00     0.252 C 
ATOM     42  O20 CQH d   1      41.965  20.027  43.723  0.00  0.00    -0.268 OA
ATOM     43  H30 CQH d   1      39.883  21.580  41.914  0.00  0.00     0.163 HD
BRANCH  41  44
ATOM     44  C21 CQH d   1      41.753  22.376  43.820  0.00  0.00     0.032 A 
ATOM     45  C22 CQH d   1      42.969  22.582  44.448  0.00  0.00    -0.067 A 
ATOM     46  C23 CQH d   1      43.301  23.840  44.932  0.00  0.00    -0.076 A 
ATOM     47  H22 CQH d   1      43.664  21.758  44.562  0.00  0.00     0.085 H 
ATOM     48  C24 CQH d   1      42.418  24.899  44.797  0.00  0.00    -0.056 A 
ATOM     49  H23 CQH d   1      44.257  23.995  45.419  0.00  0.00     0.084 H 
ATOM     50  C33 CQH d   1      41.195  24.697  44.171  0.00  0.00    -0.076 A 
ATOM     51  C34 CQH d   1      40.865  23.436  43.686  0.00  0.00    -0.067 A 
ATOM     52  H27 CQH d   1      40.499  25.521  44.061  0.00  0.00     0.084 H 
ATOM     53  H28 CQH d   1      39.909  23.279  43.200  0.00  0.00     0.085 H 
BRANCH  48  54
ATOM     54  C25 CQH d   1      42.827  26.270  45.348  0.00  0.00    -0.019 C 
ATOM     55  H24 CQH d   1      43.881  26.451  45.092  0.00  0.00     0.042 H 
ATOM     56  H25 CQH d   1      42.713  26.257  46.442  0.00  0.00     0.042 H 
BRANCH  54  57
ATOM     57  C26 CQH d   1      41.983  27.414  44.782  0.00  0.00     0.086 A 
ATOM     58  C31 CQH d   1      42.100  28.045  43.347  0.00  0.00     0.122 A 
ATOM     59  N30 CQH d   1      40.976  29.260  43.217  0.00  0.00    -0.324 N 
ATOM     60  H26 CQH d   1      42.866  28.755  43.693  0.00  0.00     0.120 H 
ATOM     61  C28 CQH d   1      40.200  29.367  44.547  0.00  0.00     0.282 A 
ATOM     62  H31 CQH d   1      40.826  29.830  42.409  0.00  0.00     0.165 HD
ATOM     63  O29 CQH d   1      39.328  30.134  44.788  0.00  0.00    -0.260 OA
ATOM     64  S27 CQH d   1      40.803  28.215  45.582  0.00  0.00    -0.053 SA
BRANCH  58  65
ATOM     65  O32 CQH d   1      42.994  27.647  42.347  0.00  0.00    -0.375 OA
ATOM     66  H32 CQH d   1      43.531  26.933  42.670  0.00  0.00     0.212 HD
ENDBRANCH  58  65
ENDBRANCH  54  57
ENDBRANCH  48  54
ENDBRANCH  41  44
ENDBRANCH   1  40
TORSDOF 14
