REMARK  12 active torsions:
REMARK  status: ('A' for Active; 'I' for Inactive)
REMARK    1  A    between atoms: C1_1  and  C2_12 
REMARK    2  A    between atoms: O1_27  and  C1_1 
REMARK    3  A    between atoms: C12_4  and  C13_5 
REMARK    4  A    between atoms: N3_26  and  C12_4 
REMARK    5  A    between atoms: N3_26  and  C19_11 
REMARK    6  A    between atoms: C2_12  and  C3_18 
REMARK    7  A    between atoms: C2_12  and  N2_25 
REMARK    8  A    between atoms: C3_18  and  N3_26 
REMARK    9  A    between atoms: C4_19  and  C5_20 
REMARK   10  A    between atoms: C4_19  and  O1_27 
REMARK   11  A    between atoms: C5_20  and  C6_21 
REMARK   12  A    between atoms: C5_20  and  C7_22 
ROOT
ATOM      1  C2  CQN d   1     -44.804  12.455  -5.546  0.00  0.00     0.140 C 
ATOM      2  H13 CQN d   1     -44.143  11.854  -6.188  0.00  0.00     0.090 H 
ENDROOT
BRANCH   1   3
ATOM      3  C1  CQN d   1     -45.576  11.518  -4.506  0.00  0.00     0.048 C 
ATOM      4  H1  CQN d   1     -45.177  11.710  -3.499  0.00  0.00     0.077 H 
ATOM      5  H2  CQN d   1     -45.394  10.468  -4.779  0.00  0.00     0.077 H 
BRANCH   3   6
ATOM      6  O1  CQN d   1     -46.981  11.745  -4.488  0.00  0.00    -0.389 OA
BRANCH   6   7
ATOM      7  C4  CQN d   1     -47.628  11.054  -3.402  0.00  0.00     0.022 C 
ATOM      8  H21 CQN d   1     -46.858  10.640  -2.735  0.00  0.00     0.074 H 
ATOM      9  H22 CQN d   1     -48.249  11.771  -2.844  0.00  0.00     0.074 H 
BRANCH   7  10
ATOM     10  C5  CQN d   1     -48.531   9.894  -3.909  0.00  0.00    -0.041 C 
ATOM     11  H23 CQN d   1     -48.285   8.993  -3.328  0.00  0.00     0.042 H 
BRANCH  10  12
ATOM     12  C6  CQN d   1     -48.304   9.588  -5.377  0.00  0.00    -0.071 C 
ATOM     13  H24 CQN d   1     -48.964   8.764  -5.686  0.00  0.00     0.028 H 
ATOM     14  H25 CQN d   1     -47.255   9.296  -5.533  0.00  0.00     0.028 H 
ATOM     15  H26 CQN d   1     -48.529  10.482  -5.977  0.00  0.00     0.028 H 
ENDBRANCH  10  12
BRANCH  10  16
ATOM     16  C7  CQN d   1     -50.009  10.231  -3.684  0.00  0.00    -0.071 C 
ATOM     17  H27 CQN d   1     -50.176  10.453  -2.620  0.00  0.00     0.028 H 
ATOM     18  H28 CQN d   1     -50.630   9.373  -3.981  0.00  0.00     0.028 H 
ATOM     19  H29 CQN d   1     -50.281  11.108  -4.289  0.00  0.00     0.028 H 
ENDBRANCH  10  16
ENDBRANCH   7  10
ENDBRANCH   6   7
ENDBRANCH   3   6
ENDBRANCH   1   3
BRANCH   1  20
ATOM     20  C3  CQN d   1     -45.887  13.190  -6.491  0.00  0.00     0.024 C 
ATOM     21  H19 CQN d   1     -45.914  14.255  -6.217  0.00  0.00     0.067 H 
ATOM     22  H20 CQN d   1     -46.871  12.737  -6.301  0.00  0.00     0.067 H 
BRANCH  20  23
ATOM     23  N3  CQN d   1     -45.602  13.092  -7.965  0.00  0.00    -0.374 N 
BRANCH  23  24
ATOM     24  C12 CQN d   1     -44.366  13.625  -8.563  0.00  0.00     0.019 C 
ATOM     25  H6  CQN d   1     -43.506  13.409  -7.912  0.00  0.00     0.071 H 
ATOM     26  H7  CQN d   1     -44.199  13.175  -9.553  0.00  0.00     0.071 H 
BRANCH  24  27
ATOM     27  C13 CQN d   1     -44.561  15.153  -8.698  0.00  0.00    -0.040 A 
ATOM     28  C14 CQN d   1     -43.552  15.977  -8.542  0.00  0.00    -0.075 A 
ATOM     29  C15 CQN d   1     -43.782  17.487  -8.678  0.00  0.00    -0.082 A 
ATOM     30  H8  CQN d   1     -42.563  15.593  -8.319  0.00  0.00     0.084 H 
ATOM     31  C16 CQN d   1     -44.991  17.958  -8.950  0.00  0.00    -0.083 A 
ATOM     32  H9  CQN d   1     -42.952  18.173  -8.551  0.00  0.00     0.083 H 
ATOM     33  C17 CQN d   1     -46.161  17.000  -9.127  0.00  0.00    -0.082 A 
ATOM     34  H10 CQN d   1     -45.147  19.026  -9.046  0.00  0.00     0.083 H 
ATOM     35  C18 CQN d   1     -45.962  15.702  -9.011  0.00  0.00    -0.075 A 
ATOM     36  H11 CQN d   1     -47.151  17.383  -9.347  0.00  0.00     0.083 H 
ATOM     37  H12 CQN d   1     -46.792  15.017  -9.137  0.00  0.00     0.084 H 
ENDBRANCH  24  27
ENDBRANCH  23  24
BRANCH  23  38
ATOM     38  C19 CQN d   1     -46.539  12.512  -8.927  0.00  0.00     0.030 A 
ATOM     39  C20 CQN d   1     -47.692  11.983  -8.565  0.00  0.00    -0.057 A 
ATOM     40  C21 CQN d   1     -48.607  11.408  -9.649  0.00  0.00    -0.081 A 
ATOM     41  H14 CQN d   1     -47.985  11.956  -7.522  0.00  0.00     0.086 H 
ATOM     42  C22 CQN d   1     -48.263  11.434 -10.924  0.00  0.00    -0.083 A 
ATOM     43  H15 CQN d   1     -49.557  10.970  -9.364  0.00  0.00     0.083 H 
ATOM     44  C23 CQN d   1     -46.927  12.051 -11.337  0.00  0.00    -0.081 A 
ATOM     45  H16 CQN d   1     -48.926  11.019 -11.675  0.00  0.00     0.083 H 
ATOM     46  C24 CQN d   1     -46.137  12.549 -10.409  0.00  0.00    -0.057 A 
ATOM     47  H17 CQN d   1     -46.634  12.078 -12.380  0.00  0.00     0.083 H 
ATOM     48  H18 CQN d   1     -45.190  12.991 -10.695  0.00  0.00     0.086 H 
ENDBRANCH  23  38
ENDBRANCH  20  23
ENDBRANCH   1  20
BRANCH   1  49
ATOM     49  N2  CQN d   1     -44.070  13.235  -4.791  0.00  0.00    -0.057 N 
ATOM     50  C11 CQN d   1     -43.332  14.164  -5.468  0.00  0.00     0.099 C 
ATOM     51  C10 CQN d   1     -42.037  13.504  -5.765  0.00  0.00    -0.080 C 
ATOM     52  H4  CQN d   1     -43.839  14.452  -6.401  0.00  0.00     0.082 H 
ATOM     53  H5  CQN d   1     -43.174  15.057  -4.846  0.00  0.00     0.082 H 
ATOM     54  C9  CQN d   1     -41.954  12.416  -4.905  0.00  0.00    -0.080 C 
ATOM     55  H3  CQN d   1     -41.301  13.810  -6.507  0.00  0.00     0.079 H 
ATOM     56  C8  CQN d   1     -43.205  12.472  -4.083  0.00  0.00     0.099 C 
ATOM     57  H32 CQN d   1     -41.153  11.681  -4.842  0.00  0.00     0.079 H 
ATOM     58  H30 CQN d   1     -43.001  12.930  -3.104  0.00  0.00     0.082 H 
ATOM     59  H31 CQN d   1     -43.614  11.462  -3.937  0.00  0.00     0.082 H 
ATOM     60  H33 CQN d   1     -44.685  13.721  -4.157  0.00  0.00     0.281 HD
ENDBRANCH   1  49
TORSDOF 12
