REMARK  7 active torsions:
REMARK  status: ('A' for Active; 'I' for Inactive)
REMARK    1  A    between atoms: O4_1  and  C4_2 
REMARK    2  A    between atoms: C5_3  and  C6_4 
REMARK    3  A    between atoms: C3_6  and  O3_7 
REMARK    4  A    between atoms: C2_8  and  O2_9 
REMARK    5  A    between atoms: C1_10  and  O1_11 
REMARK    6  A    between atoms: O1_11  and  CM_12 
REMARK    7  A    between atoms: CM_12  and  C7_13 
ROOT
ATOM      1  C7  KG1 d   1      20.891 -42.924  48.313  0.00  0.00    -0.091 C 
ATOM      2  C8  KG1 d   1      20.713 -44.151  48.056  0.00  0.00    -0.152 C 
ATOM      3  H14 KG1 d   1      20.564 -45.174  47.842  0.00  0.00     0.166 H 
ENDROOT
BRANCH   1   4
ATOM      4  CM  KG1 d   1      21.114 -41.704  48.528  0.00  0.00     0.076 C 
ATOM      5  H12 KG1 d   1      21.115 -41.194  47.554  0.00  0.00     0.094 H 
ATOM      6  H13 KG1 d   1      20.285 -41.322  49.141  0.00  0.00     0.094 H 
BRANCH   4   7
ATOM      7  O1  KG1 d   1      22.345 -41.354  49.200  0.00  0.00    -0.347 OA
BRANCH   7   8
ATOM      8  C1  KG1 d   1      22.537 -40.020  49.653  0.00  0.00     0.159 C 
ATOM      9  O5  KG1 d   1      22.630 -39.110  48.562  0.00  0.00    -0.351 OA
ATOM     10  C5  KG1 d   1      23.688 -39.409  47.650  0.00  0.00     0.065 C 
ATOM     11  C4  KG1 d   1      25.043 -39.327  48.384  0.00  0.00     0.087 C 
ATOM     12  H3  KG1 d   1      23.562 -40.435  47.273  0.00  0.00     0.086 H 
ATOM     13  C3  KG1 d   1      25.035 -40.268  49.581  0.00  0.00     0.092 C 
ATOM     14  H2  KG1 d   1      25.838 -39.628  47.686  0.00  0.00     0.091 H 
ATOM     15  C2  KG1 d   1      23.827 -39.965  50.455  0.00  0.00     0.110 C 
ATOM     16  H7  KG1 d   1      25.018 -41.315  49.245  0.00  0.00     0.091 H 
ATOM     17  H9  KG1 d   1      23.934 -38.957  50.882  0.00  0.00     0.094 H 
ATOM     18  H11 KG1 d   1      21.691 -39.730  50.293  0.00  0.00     0.133 H 
BRANCH  10  19
ATOM     19  C6  KG1 d   1      23.587 -38.451  46.481  0.00  0.00    -0.050 C 
ATOM     20  H4  KG1 d   1      22.602 -38.559  46.003  0.00  0.00     0.031 H 
ATOM     21  H5  KG1 d   1      24.376 -38.680  45.750  0.00  0.00     0.031 H 
ATOM     22  H6  KG1 d   1      23.709 -37.419  46.841  0.00  0.00     0.031 H 
ENDBRANCH  10  19
BRANCH  11  23
ATOM     23  O4  KG1 d   1      25.325 -38.009  48.868  0.00  0.00    -0.390 OA
ATOM     24  H1  KG1 d   1      25.351 -37.403  48.137  0.00  0.00     0.210 HD
ENDBRANCH  11  23
BRANCH  13  25
ATOM     25  O3  KG1 d   1      26.188 -40.006  50.363  0.00  0.00    -0.390 OA
ATOM     26  H8  KG1 d   1      26.171 -39.103  50.658  0.00  0.00     0.210 HD
ENDBRANCH  13  25
BRANCH  15  27
ATOM     27  O2  KG1 d   1      23.795 -40.913  51.497  0.00  0.00    -0.388 OA
ATOM     28  H10 KG1 d   1      23.723 -41.785  51.128  0.00  0.00     0.210 HD
ENDBRANCH  15  27
ENDBRANCH   7   8
ENDBRANCH   4   7
ENDBRANCH   1   4
TORSDOF 7
