REMARK WARNING: 32 MAX_TORS EXCEEDED!!!
REMARK  78 active torsions:
REMARK  status: ('A' for Active; 'I' for Inactive)
REMARK    1  A    between atoms: N_1  and  CA_2 
REMARK    2  A    between atoms: CA_2  and  C_3 
REMARK    3  A    between atoms: CA_2  and  CB_5 
REMARK       I    between atoms: C_3  and  N_12 
REMARK    4  A    between atoms: CB_5  and  CG_6 
REMARK    5  A    between atoms: CG_6  and  CD_7 
REMARK    6  A    between atoms: CD_7  and  NE_8 
REMARK       I    between atoms: NE_8  and  CZ_9 
REMARK       I    between atoms: CZ_9  and  NH1_10 
REMARK       I    between atoms: CZ_9  and  NH2_11 
REMARK    7  A    between atoms: N_12  and  CA_13 
REMARK    8  A    between atoms: CA_13  and  C_14 
REMARK    9  A    between atoms: CA_13  and  CB_16 
REMARK       I    between atoms: C_14  and  N_20 
REMARK   10  A    between atoms: CB_16  and  CG1_17 
REMARK   11  A    between atoms: CB_16  and  CG2_18 
REMARK   12  A    between atoms: CG1_17  and  CD1_19 
REMARK   13  A    between atoms: N_20  and  CA_21 
REMARK   14  A    between atoms: CA_21  and  C_22 
REMARK   15  A    between atoms: CA_21  and  CB_24 
REMARK       I    between atoms: C_22  and  N_29 
REMARK   16  A    between atoms: CB_24  and  CG_25 
REMARK   17  A    between atoms: CG_25  and  CD_26 
REMARK       I    between atoms: CD_26  and  NE2_28 
REMARK   18  A    between atoms: N_29  and  CA_30 
REMARK   19  A    between atoms: CA_30  and  C_31 
REMARK   20  A    between atoms: CA_30  and  CB_33 
REMARK       I    between atoms: C_31  and  N_37 
REMARK   21  A    between atoms: CB_33  and  CG_34 
REMARK   22  A    between atoms: CG_34  and  CD1_35 
REMARK   23  A    between atoms: CG_34  and  CD2_36 
REMARK   24  A    between atoms: N_37  and  CA_38 
REMARK   25  A    between atoms: CA_38  and  C_39 
REMARK   26  A    between atoms: CA_38  and  CB_41 
REMARK       I    between atoms: C_39  and  N_45 
REMARK   27  A    between atoms: CB_41  and  CG_42 
REMARK   28  A    between atoms: CG_42  and  SD_43 
REMARK   29  A    between atoms: SD_43  and  CE_44 
REMARK   30  A    between atoms: N_45  and  CA_46 
REMARK   31  A    between atoms: CA_46  and  C_47 
REMARK   32  A    between atoms: CA_46  and  CB_49 
REMARK       I    between atoms: C_47  and  N_52 
REMARK   33  A    between atoms: CB_49  and  OG1_50 
REMARK   34  A    between atoms: CB_49  and  CG2_51 
REMARK   35  A    between atoms: N_52  and  CA_53 
REMARK   36  A    between atoms: CA_53  and  C_54 
REMARK   37  A    between atoms: CA_53  and  CB_56 
REMARK       I    between atoms: C_54  and  N_61 
REMARK   38  A    between atoms: CB_56  and  CG_57 
REMARK   39  A    between atoms: CG_57  and  CD_58 
REMARK   40  A    between atoms: CD_58  and  CE_59 
REMARK   41  A    between atoms: CE_59  and  NZ_60 
REMARK   42  A    between atoms: N_61  and  CA_62 
REMARK   43  A    between atoms: CA_62  and  C_63 
REMARK   44  A    between atoms: CA_62  and  CB_65 
REMARK       I    between atoms: C_63  and  N_66 
REMARK   45  A    between atoms: N_66  and  CA_67 
REMARK   46  A    between atoms: CA_67  and  C_68 
REMARK   47  A    between atoms: CA_67  and  CB_70 
REMARK       I    between atoms: C_68  and  N_71 
REMARK   48  A    between atoms: N_71  and  CA_72 
REMARK   49  A    between atoms: CA_72  and  C_73 
REMARK   50  A    between atoms: CA_72  and  CB_75 
REMARK       I    between atoms: C_73  and  N_82 
REMARK   51  A    between atoms: CB_75  and  CG_76 
REMARK   52  A    between atoms: CG_76  and  CD_77 
REMARK   53  A    between atoms: CD_77  and  NE_78 
REMARK       I    between atoms: NE_78  and  CZ_79 
REMARK       I    between atoms: CZ_79  and  NH1_80 
REMARK   54  A    between atoms: N_82  and  CA_83 
REMARK   55  A    between atoms: CA_83  and  C_84 
REMARK   56  A    between atoms: CA_83  and  CB_86 
REMARK       I    between atoms: C_84  and  N_91 
REMARK   57  A    between atoms: CB_86  and  CG_87 
REMARK   58  A    between atoms: CG_87  and  CD_88 
REMARK   59  A    between atoms: CD_88  and  CE_89 
REMARK   60  A    between atoms: CE_89  and  NZ_90 
REMARK   61  A    between atoms: N_91  and  CA_92 
REMARK   62  A    between atoms: CA_92  and  C_93 
REMARK   63  A    between atoms: CA_92  and  CB_95 
REMARK       I    between atoms: C_93  and  N_97 
REMARK   64  A    between atoms: CB_95  and  OG_96 
REMARK   65  A    between atoms: N_97  and  CA_98 
REMARK   66  A    between atoms: CA_98  and  C_99 
REMARK   67  A    between atoms: CA_98  and  CB_101 
REMARK       I    between atoms: C_99  and  N_102 
REMARK   68  A    between atoms: CA_103  and  C_104 
REMARK       I    between atoms: C_104  and  N_109 
REMARK   69  A    between atoms: N_109  and  CA_110 
REMARK   70  A    between atoms: CA_110  and  C_111 
REMARK   71  A    between atoms: CA_110  and  CB_113 
REMARK       I    between atoms: C_111  and  N_114 
REMARK   72  A    between atoms: N_114  and  CA_115 
REMARK   73  A    between atoms: CA_115  and  C_116 
REMARK   74  A    between atoms: CA_115  and  CB_118 
REMARK       I    between atoms: C_116  and  N_121 
REMARK   75  A    between atoms: CB_118  and  OG1_119 
REMARK   76  A    between atoms: CB_118  and  CG2_120 
REMARK   77  A    between atoms: N_121  and  CA_122 
REMARK   78  A    between atoms: CA_122  and  C_123 
ROOT
ATOM      1  C   LYS d   1      96.190 -19.018  23.171  0.00  0.00     0.241 C 
ATOM      2  O   LYS d   1      96.343 -18.204  22.258  0.00  0.00    -0.271 OA
ATOM      3  N   ALA d   1      95.161 -19.850  23.208  0.00  0.00    -0.346 N 
ATOM      4  H75 ALA d   1      95.059 -20.492  23.968  0.00  0.00     0.163 HD
ENDROOT
BRANCH   1   5
ATOM      5  CA  LYS d   1      97.175 -19.096  24.328  0.00  0.00     0.089 C 
ATOM      6  H63 LYS d   1      97.021 -20.044  24.864  0.00  0.00     0.087 H 
BRANCH   5   7
ATOM      7  N   LYS d   1      98.549 -19.058  23.828  0.00  0.00    -0.346 N 
ATOM      8  C   THR d   1      99.142 -20.152  23.373  0.00  0.00     0.243 C 
ATOM      9  O   THR d   1      98.649 -21.282  23.467  0.00  0.00    -0.271 OA
ATOM     10  H62 LYS d   1      99.049 -18.192  23.830  0.00  0.00     0.163 HD
BRANCH   8  11
ATOM     11  CA  THR d   1     100.499 -19.948  22.722  0.00  0.00     0.113 C 
ATOM     12  H56 THR d   1     101.004 -19.091  23.190  0.00  0.00     0.091 H 
BRANCH  11  13
ATOM     13  N   THR d   1     101.311 -21.145  22.927  0.00  0.00    -0.344 N 
ATOM     14  C   MET d   1     102.594 -21.081  23.292  0.00  0.00     0.241 C 
ATOM     15  O   MET d   1     103.192 -20.020  23.474  0.00  0.00    -0.271 OA
ATOM     16  H55 THR d   1     100.892 -22.043  22.789  0.00  0.00     0.163 HD
BRANCH  14  17
ATOM     17  CA  MET d   1     103.297 -22.419  23.458  0.00  0.00     0.090 C 
ATOM     18  H47 MET d   1     102.849 -23.149  22.767  0.00  0.00     0.087 H 
BRANCH  17  19
ATOM     19  N   MET d   1     104.704 -22.266  23.120  0.00  0.00    -0.346 N 
ATOM     20  C   LEU d   1     105.133 -22.536  21.899  0.00  0.00     0.241 C 
ATOM     21  O   LEU d   1     104.392 -22.889  20.981  0.00  0.00    -0.271 OA
ATOM     22  H46 MET d   1     105.351 -21.954  23.816  0.00  0.00     0.163 HD
BRANCH  20  23
ATOM     23  CA  LEU d   1     106.627 -22.418  21.663  0.00  0.00     0.089 C 
ATOM     24  H36 LEU d   1     107.152 -22.373  22.629  0.00  0.00     0.087 H 
BRANCH  23  25
ATOM     25  N   LEU d   1     107.061 -23.599  20.934  0.00  0.00    -0.346 N 
ATOM     26  C   GLN d   1     107.645 -24.643  21.520  0.00  0.00     0.241 C 
ATOM     27  O   GLN d   1     107.899 -24.684  22.733  0.00  0.00    -0.271 OA
ATOM     28  H35 LEU d   1     106.914 -23.629  19.945  0.00  0.00     0.163 HD
BRANCH  26  29
ATOM     29  CA  GLN d   1     108.029 -25.794  20.599  0.00  0.00     0.090 C 
ATOM     30  H28 GLN d   1     107.678 -25.558  19.583  0.00  0.00     0.087 H 
BRANCH  29  31
ATOM     31  N   GLN d   1     109.482 -25.945  20.567  0.00  0.00    -0.346 N 
ATOM     32  C   ILE d   1     110.262 -25.254  19.733  0.00  0.00     0.241 C 
ATOM     33  O   ILE d   1     109.829 -24.366  18.983  0.00  0.00    -0.271 OA
ATOM     34  H27 GLN d   1     109.910 -26.593  21.197  0.00  0.00     0.163 HD
BRANCH  32  35
ATOM     35  CA  ILE d   1     111.740 -25.644  19.756  0.00  0.00     0.092 C 
ATOM     36  H17 ILE d   1     111.804 -26.715  19.997  0.00  0.00     0.088 H 
BRANCH  35  37
ATOM     37  N   ILE d   1     112.322 -25.444  18.438  0.00  0.00    -0.346 N 
ATOM     38  C   ARG d   1     112.469 -26.446  17.588  0.00  0.00     0.249 C 
ATOM     39  O   ARG d   1     112.019 -27.571  17.812  0.00  0.00    -0.271 OA
ATOM     40  H16 ILE d   1     112.618 -24.527  18.169  0.00  0.00     0.163 HD
BRANCH  38  41
ATOM     41  CA  ARG d   1     113.253 -26.151  16.309  0.00  0.00     0.176 C 
ATOM     42  H4  ARG d   1     114.130 -25.542  16.575  0.00  0.00     0.099 H 
BRANCH  41  43
ATOM     43  N   ARG d   1     113.720 -27.398  15.713  0.00  0.00    -0.067 N 
ATOM     44  H1  ARG d   1     114.236 -27.195  14.871  0.00  0.00     0.275 HD
ATOM     45  H2  ARG d   1     112.928 -27.981  15.490  0.00  0.00     0.275 HD
ATOM     46  H3  ARG d   1     114.319 -27.879  16.366  0.00  0.00     0.275 HD
ENDBRANCH  41  43
BRANCH  41  47
ATOM     47  CB  ARG d   1     112.410 -25.361  15.304  0.00  0.00    -0.029 C 
ATOM     48  H5  ARG d   1     113.044 -25.118  14.439  0.00  0.00     0.036 H 
ATOM     49  H6  ARG d   1     112.078 -24.431  15.789  0.00  0.00     0.036 H 
BRANCH  47  50
ATOM     50  CG  ARG d   1     111.197 -26.090  14.807  0.00  0.00    -0.047 C 
ATOM     51  H7  ARG d   1     110.353 -25.872  15.478  0.00  0.00     0.035 H 
ATOM     52  H8  ARG d   1     111.404 -27.170  14.818  0.00  0.00     0.035 H 
BRANCH  50  53
ATOM     53  CD  ARG d   1     110.812 -25.676  13.381  0.00  0.00     0.009 C 
ATOM     54  H9  ARG d   1     109.922 -26.250  13.084  0.00  0.00     0.064 H 
ATOM     55  H10 ARG d   1     111.649 -25.925  12.712  0.00  0.00     0.064 H 
BRANCH  53  56
ATOM     56  NE  ARG d   1     110.509 -24.245  13.227  0.00  0.00    -0.227 N 
ATOM     57  CZ  ARG d   1     109.338 -23.681  13.505  0.00  0.00     0.665 C 
ATOM     58  NH1 ARG d   1     108.331 -24.409  13.983  0.00  0.00    -0.235 N 
ATOM     59  NH2 ARG d   1     109.173 -22.375  13.312  0.00  0.00    -0.235 N 
ATOM     60  H12 ARG d   1     107.428 -23.962  14.195  0.00  0.00     0.174 HD
ATOM     61  H13 ARG d   1     108.455 -25.419  14.141  0.00  0.00     0.174 HD
ATOM     62  H14 ARG d   1     109.949 -21.807  12.942  0.00  0.00     0.174 HD
ATOM     63  H15 ARG d   1     108.270 -21.932  13.532  0.00  0.00     0.174 HD
ATOM     64  H11 ARG d   1     111.261 -23.634  12.877  0.00  0.00     0.177 HD
ENDBRANCH  53  56
ENDBRANCH  50  53
ENDBRANCH  47  50
ENDBRANCH  41  47
ENDBRANCH  38  41
ENDBRANCH  35  37
BRANCH  35  65
ATOM     65  CB  ILE d   1     112.518 -24.876  20.838  0.00  0.00    -0.030 C 
ATOM     66  H18 ILE d   1     111.967 -24.958  21.787  0.00  0.00     0.043 H 
BRANCH  65  67
ATOM     67  CG1 ILE d   1     112.672 -23.404  20.484  0.00  0.00    -0.063 C 
ATOM     68  H19 ILE d   1     111.709 -23.026  20.109  0.00  0.00     0.033 H 
ATOM     69  H20 ILE d   1     113.436 -23.305  19.698  0.00  0.00     0.033 H 
BRANCH  67  70
ATOM     70  CD1 ILE d   1     113.092 -22.573  21.683  0.00  0.00    -0.076 C 
ATOM     71  H24 ILE d   1     113.191 -21.520  21.382  0.00  0.00     0.027 H 
ATOM     72  H25 ILE d   1     114.058 -22.938  22.062  0.00  0.00     0.027 H 
ATOM     73  H26 ILE d   1     112.332 -22.659  22.473  0.00  0.00     0.027 H 
ENDBRANCH  67  70
ENDBRANCH  65  67
BRANCH  65  74
ATOM     74  CG2 ILE d   1     113.905 -25.472  21.014  0.00  0.00    -0.071 C 
ATOM     75  H21 ILE d   1     113.816 -26.538  21.271  0.00  0.00     0.028 H 
ATOM     76  H22 ILE d   1     114.432 -24.943  21.822  0.00  0.00     0.028 H 
ATOM     77  H23 ILE d   1     114.471 -25.367  20.077  0.00  0.00     0.028 H 
ENDBRANCH  65  74
ENDBRANCH  35  65
ENDBRANCH  32  35
ENDBRANCH  29  31
BRANCH  29  78
ATOM     78  CB  GLN d   1     107.369 -27.105  21.047  0.00  0.00    -0.030 C 
ATOM     79  H29 GLN d   1     107.714 -27.344  22.064  0.00  0.00     0.037 H 
ATOM     80  H30 GLN d   1     107.674 -27.907  20.358  0.00  0.00     0.037 H 
BRANCH  78  81
ATOM     81  CG  GLN d   1     105.864 -27.023  21.055  0.00  0.00     0.011 C 
ATOM     82  H31 GLN d   1     105.522 -26.767  20.041  0.00  0.00     0.047 H 
ATOM     83  H32 GLN d   1     105.561 -26.231  21.755  0.00  0.00     0.047 H 
BRANCH  81  84
ATOM     84  CD  GLN d   1     105.193 -28.330  21.479  0.00  0.00     0.215 C 
ATOM     85  OE1 GLN d   1     105.849 -29.268  21.889  0.00  0.00    -0.274 OA
ATOM     86  NE2 GLN d   1     103.870 -28.386  21.350  0.00  0.00    -0.370 N 
ATOM     87  H33 GLN d   1     103.377 -29.216  21.611  0.00  0.00     0.159 HD
ATOM     88  H34 GLN d   1     103.369 -27.598  20.991  0.00  0.00     0.159 HD
ENDBRANCH  81  84
ENDBRANCH  78  81
ENDBRANCH  29  78
ENDBRANCH  26  29
ENDBRANCH  23  25
BRANCH  23  89
ATOM     89  CB  LEU d   1     106.921 -21.143  20.878  0.00  0.00    -0.035 C 
ATOM     90  H37 LEU d   1     106.677 -20.282  21.518  0.00  0.00     0.037 H 
ATOM     91  H38 LEU d   1     106.276 -21.132  19.987  0.00  0.00     0.037 H 
BRANCH  89  92
ATOM     92  CG  LEU d   1     108.369 -21.000  20.420  0.00  0.00    -0.059 C 
ATOM     93  H39 LEU d   1     108.592 -21.816  19.716  0.00  0.00     0.038 H 
BRANCH  92  94
ATOM     94  CD1 LEU d   1     108.589 -19.691  19.712  0.00  0.00    -0.073 C 
ATOM     95  H40 LEU d   1     109.640 -19.618  19.395  0.00  0.00     0.028 H 
ATOM     96  H41 LEU d   1     108.353 -18.861  20.394  0.00  0.00     0.028 H 
ATOM     97  H42 LEU d   1     107.935 -19.637  18.829  0.00  0.00     0.028 H 
ENDBRANCH  92  94
BRANCH  92  98
ATOM     98  CD2 LEU d   1     109.325 -21.120  21.631  0.00  0.00    -0.073 C 
ATOM     99  H43 LEU d   1     109.154 -22.080  22.139  0.00  0.00     0.028 H 
ATOM    100  H44 LEU d   1     109.133 -20.295  22.333  0.00  0.00     0.028 H 
ATOM    101  H45 LEU d   1     110.367 -21.070  21.282  0.00  0.00     0.028 H 
ENDBRANCH  92  98
ENDBRANCH  89  92
ENDBRANCH  23  89
ENDBRANCH  20  23
ENDBRANCH  17  19
BRANCH  17 102
ATOM    102  CB  MET d   1     103.099 -22.920  24.887  0.00  0.00    -0.030 C 
ATOM    103  H48 MET d   1     102.018 -23.044  25.048  0.00  0.00     0.037 H 
ATOM    104  H49 MET d   1     103.484 -22.145  25.566  0.00  0.00     0.037 H 
BRANCH 102 105
ATOM    105  CG  MET d   1     103.776 -24.243  25.265  0.00  0.00    -0.021 C 
ATOM    106  H50 MET d   1     103.316 -24.592  26.201  0.00  0.00     0.049 H 
ATOM    107  H51 MET d   1     104.841 -24.029  25.438  0.00  0.00     0.049 H 
BRANCH 105 108
ATOM    108  SD  MET d   1     103.685 -25.603  24.081  0.00  0.00    -0.173 SA
BRANCH 108 109
ATOM    109  CE  MET d   1     101.925 -26.041  24.097  0.00  0.00    -0.035 C 
ATOM    110  H52 MET d   1     101.748 -26.873  23.400  0.00  0.00     0.041 H 
ATOM    111  H53 MET d   1     101.328 -25.171  23.788  0.00  0.00     0.041 H 
ATOM    112  H54 MET d   1     101.632 -26.345  25.113  0.00  0.00     0.041 H 
ENDBRANCH 108 109
ENDBRANCH 105 108
ENDBRANCH 102 105
ENDBRANCH  17 102
ENDBRANCH  14  17
ENDBRANCH  11  13
BRANCH  11 113
ATOM    113  CB  THR d   1     100.295 -19.651  21.232  0.00  0.00     0.060 C 
ATOM    114  H57 THR d   1      99.695 -18.735  21.125  0.00  0.00     0.086 H 
BRANCH 113 115
ATOM    115  OG1 THR d   1      99.609 -20.753  20.618  0.00  0.00    -0.393 OA
ATOM    116  H58 THR d   1      98.765 -20.872  21.038  0.00  0.00     0.210 HD
ENDBRANCH 113 115
BRANCH 113 117
ATOM    117  CG2 THR d   1     101.617 -19.465  20.534  0.00  0.00    -0.050 C 
ATOM    118  H59 THR d   1     101.443 -19.254  19.469  0.00  0.00     0.031 H 
ATOM    119  H60 THR d   1     102.216 -20.382  20.633  0.00  0.00     0.031 H 
ATOM    120  H61 THR d   1     102.158 -18.623  20.991  0.00  0.00     0.031 H 
ENDBRANCH 113 117
ENDBRANCH  11 113
ENDBRANCH   8  11
ENDBRANCH   5   7
BRANCH   5 121
ATOM    121  CB  LYS d   1      96.921 -17.939  25.290  0.00  0.00    -0.038 C 
ATOM    122  H64 LYS d   1      95.879 -18.001  25.636  0.00  0.00     0.036 H 
ATOM    123  H65 LYS d   1      97.070 -16.996  24.743  0.00  0.00     0.036 H 
BRANCH 121 124
ATOM    124  CG  LYS d   1      97.822 -17.932  26.500  0.00  0.00    -0.061 C 
ATOM    125  H66 LYS d   1      98.862 -17.769  26.179  0.00  0.00     0.033 H 
ATOM    126  H67 LYS d   1      97.745 -18.900  27.017  0.00  0.00     0.033 H 
BRANCH 124 127
ATOM    127  CD  LYS d   1      97.409 -16.820  27.450  0.00  0.00    -0.043 C 
ATOM    128  H68 LYS d   1      96.378 -16.999  27.790  0.00  0.00     0.035 H 
ATOM    129  H69 LYS d   1      97.459 -15.856  26.922  0.00  0.00     0.035 H 
BRANCH 127 130
ATOM    130  CE  LYS d   1      98.327 -16.777  28.649  0.00  0.00     0.080 C 
ATOM    131  H70 LYS d   1      99.362 -16.910  28.299  0.00  0.00     0.075 H 
ATOM    132  H71 LYS d   1      98.058 -17.605  29.322  0.00  0.00     0.075 H 
BRANCH 130 133
ATOM    133  NZ  LYS d   1      98.249 -15.490  29.424  0.00  0.00    -0.079 N 
ATOM    134  H72 LYS d   1      98.884 -15.530  30.206  0.00  0.00     0.274 HD
ATOM    135  H73 LYS d   1      97.308 -15.357  29.761  0.00  0.00     0.274 HD
ATOM    136  H74 LYS d   1      98.503 -14.721  28.824  0.00  0.00     0.274 HD
ENDBRANCH 130 133
ENDBRANCH 127 130
ENDBRANCH 124 127
ENDBRANCH 121 124
ENDBRANCH   5 121
ENDBRANCH   1   5
BRANCH   3 137
ATOM    137  CA  ALA d   1      94.181 -19.822  22.136  0.00  0.00     0.086 C 
ATOM    138  H76 ALA d   1      94.704 -19.909  21.172  0.00  0.00     0.086 H 
BRANCH 137 139
ATOM    139  C   ALA d   1      93.443 -18.495  22.179  0.00  0.00     0.240 C 
ATOM    140  O   ALA d   1      93.140 -17.983  23.253  0.00  0.00    -0.271 OA
ATOM    141  N   ALA d   1      93.201 -17.919  21.004  0.00  0.00    -0.346 N 
ATOM    142  H80 ALA d   1      93.539 -18.364  20.175  0.00  0.00     0.163 HD
BRANCH 141 143
ATOM    143  CA  ALA d   1      92.464 -16.666  20.871  0.00  0.00     0.086 C 
ATOM    144  H81 ALA d   1      92.478 -16.139  21.836  0.00  0.00     0.086 H 
BRANCH 143 145
ATOM    145  C   ALA d   1      91.013 -16.962  20.488  0.00  0.00     0.240 C 
ATOM    146  O   ALA d   1      90.757 -17.709  19.538  0.00  0.00    -0.271 OA
ATOM    147  N   ARG d   1      90.071 -16.392  21.233  0.00  0.00    -0.346 N 
ATOM    148  H85 ARG d   1      90.325 -15.777  21.980  0.00  0.00     0.163 HD
BRANCH 147 149
ATOM    149  CA  ARG d   1      88.668 -16.667  20.957  0.00  0.00     0.089 C 
ATOM    150  H86 ARG d   1      88.552 -16.815  19.873  0.00  0.00     0.087 H 
BRANCH 149 151
ATOM    151  C   ARG d   1      87.805 -15.489  21.375  0.00  0.00     0.241 C 
ATOM    152  O   ARG d   1      87.980 -14.931  22.469  0.00  0.00    -0.271 OA
ATOM    153  N   LYS d   1      86.869 -15.113  20.500  0.00  0.00    -0.346 N 
ATOM    154  H98 LYS d   1      86.872 -15.498  19.577  0.00  0.00     0.163 HD
BRANCH 153 155
ATOM    155  CA  LYS d   1      85.846 -14.151  20.874  0.00  0.00     0.089 C 
ATOM    156  H99 LYS d   1      86.321 -13.327  21.427  0.00  0.00     0.087 H 
BRANCH 155 157
ATOM    157  C   LYS d   1      84.813 -14.818  21.766  0.00  0.00     0.241 C 
ATOM    158  O   LYS d   1      84.317 -15.896  21.447  0.00  0.00    -0.271 OA
ATOM    159  N   SER d   1      84.437 -14.146  22.848  0.00  0.00    -0.344 N 
ATOM    160 1H11 SER d   1      84.822 -13.237  23.008  0.00  0.00     0.163 HD
BRANCH 159 161
ATOM    161  CA  SER d   1      83.485 -14.683  23.809  0.00  0.00     0.109 C 
ATOM    162 2H11 SER d   1      82.756 -15.319  23.285  0.00  0.00     0.090 H 
BRANCH 161 163
ATOM    163  C   SER d   1      82.775 -13.489  24.426  0.00  0.00     0.243 C 
ATOM    164  O   SER d   1      83.424 -12.504  24.764  0.00  0.00    -0.271 OA
ATOM    165  N   ALA d   1      81.458 -13.591  24.599  0.00  0.00    -0.346 N 
ATOM    166 6H11 ALA d   1      80.987 -14.440  24.360  0.00  0.00     0.163 HD
BRANCH 165 167
ATOM    167  CA  ALA d   1      80.710 -12.478  25.131  0.00  0.00     0.086 C 
ATOM    168 7H11 ALA d   1      80.896 -11.597  24.499  0.00  0.00     0.086 H 
BRANCH 167 169
ATOM    169  C   ALA d   1      81.160 -12.161  26.557  0.00  0.00     0.243 C 
ATOM    170  O   ALA d   1      81.628 -13.042  27.291  0.00  0.00    -0.271 OA
ATOM    171  N   PRO d   1      80.965 -10.924  27.008  0.00  0.00    -0.337 N 
ATOM    172  CA  PRO d   1      81.221 -10.637  28.418  0.00  0.00     0.091 C 
ATOM    173  CD  PRO d   1      80.427  -9.752  26.300  0.00  0.00    -0.001 C 
ATOM    174  CB  PRO d   1      80.879  -9.147  28.562  0.00  0.00    -0.036 C 
ATOM    175 1H12 PRO d   1      82.277 -10.818  28.667  0.00  0.00     0.087 H 
ATOM    176  CG  PRO d   1      80.110  -8.818  27.406  0.00  0.00    -0.048 C 
ATOM    177 2H12 PRO d   1      81.798  -8.543  28.597  0.00  0.00     0.036 H 
ATOM    178 3H12 PRO d   1      80.292  -8.974  29.476  0.00  0.00     0.036 H 
ATOM    179 4H12 PRO d   1      80.346  -7.790  27.093  0.00  0.00     0.035 H 
ATOM    180 5H12 PRO d   1      79.040  -8.891  27.648  0.00  0.00     0.035 H 
ATOM    181 6H12 PRO d   1      79.523 -10.014  25.731  0.00  0.00     0.064 H 
ATOM    182 7H12 PRO d   1      81.177  -9.321  25.620  0.00  0.00     0.064 H 
BRANCH 172 183
ATOM    183  C   PRO d   1      80.339 -11.498  29.311  0.00  0.00     0.241 C 
ATOM    184  O   PRO d   1      79.289 -11.996  28.906  0.00  0.00    -0.271 OA
ATOM    185  N   ALA d   1      80.804 -11.689  30.537  0.00  0.00    -0.346 N 
ATOM    186 8H12 ALA d   1      81.698 -11.307  30.770  0.00  0.00     0.163 HD
BRANCH 185 187
ATOM    187  CA  ALA d   1      80.081 -12.424  31.559  0.00  0.00     0.086 C 
ATOM    188 9H12 ALA d   1      79.016 -12.453  31.285  0.00  0.00     0.086 H 
BRANCH 187 189
ATOM    189  C   ALA d   1      80.233 -11.722  32.898  0.00  0.00     0.240 C 
ATOM    190  O   ALA d   1      81.321 -11.240  33.245  0.00  0.00    -0.271 OA
ATOM    191  N   THR d   1      79.143 -11.688  33.657  0.00  0.00    -0.344 N 
ATOM    192 3H13 THR d   1      78.299 -12.097  33.310  0.00  0.00     0.163 HD
BRANCH 191 193
ATOM    193  CA  THR d   1      79.137 -11.076  34.974  0.00  0.00     0.113 C 
ATOM    194 4H13 THR d   1      80.010 -10.412  35.061  0.00  0.00     0.091 H 
BRANCH 193 195
ATOM    195  C   THR d   1      79.226 -12.156  36.051  0.00  0.00     0.243 C 
ATOM    196  O   THR d   1      79.036 -13.348  35.795  0.00  0.00    -0.271 OA
ATOM    197  N   GLY d   1      79.496 -11.713  37.275  0.00  0.00    -0.349 N 
ATOM    198 0H14 GLY d   1      79.712 -10.745  37.399  0.00  0.00     0.163 HD
BRANCH 197 199
ATOM    199  CA  GLY d   1      79.489 -12.581  38.440  0.00  0.00     0.075 C 
ATOM    200 1H14 GLY d   1      78.447 -12.848  38.671  0.00  0.00     0.080 H 
ATOM    201 2H14 GLY d   1      79.924 -12.032  39.288  0.00  0.00     0.080 H 
BRANCH 199 202
ATOM    202  C   GLY d   1      80.277 -13.854  38.238  0.00  0.00     0.191 C 
ATOM    203  O   GLY d   1      79.706 -14.875  37.859  0.00  0.00    -0.647 OA
ATOM    204  OXT GLY d   1      81.488 -13.866  38.453  0.00  0.00    -0.647 OA
ENDBRANCH 199 202
ENDBRANCH 197 199
ENDBRANCH 193 195
BRANCH 193 205
ATOM    205  CB  THR d   1      77.862 -10.246  35.173  0.00  0.00     0.060 C 
ATOM    206 5H13 THR d   1      77.838  -9.876  36.209  0.00  0.00     0.086 H 
BRANCH 205 207
ATOM    207  OG1 THR d   1      76.722 -11.082  34.944  0.00  0.00    -0.393 OA
ATOM    208 6H13 THR d   1      76.751 -11.419  34.056  0.00  0.00     0.210 HD
ENDBRANCH 205 207
BRANCH 205 209
ATOM    209  CG2 THR d   1      77.817  -9.035  34.212  0.00  0.00    -0.050 C 
ATOM    210 7H13 THR d   1      76.892  -8.465  34.383  0.00  0.00     0.031 H 
ATOM    211 8H13 THR d   1      77.841  -9.391  33.172  0.00  0.00     0.031 H 
ATOM    212 9H13 THR d   1      78.686  -8.387  34.398  0.00  0.00     0.031 H 
ENDBRANCH 205 209
ENDBRANCH 193 205
ENDBRANCH 191 193
ENDBRANCH 187 189
BRANCH 187 213
ATOM    213  CB  ALA d   1      80.599 -13.865  31.686  0.00  0.00    -0.049 C 
ATOM    214 0H13 ALA d   1      80.031 -14.391  32.467  0.00  0.00     0.030 H 
ATOM    215 1H13 ALA d   1      81.665 -13.849  31.956  0.00  0.00     0.030 H 
ATOM    216 2H13 ALA d   1      80.472 -14.386  30.726  0.00  0.00     0.030 H 
ENDBRANCH 187 213
ENDBRANCH 185 187
ENDBRANCH 172 183
ENDBRANCH 167 169
BRANCH 167 217
ATOM    217  CB  ALA d   1      79.206 -12.785  25.116  0.00  0.00    -0.049 C 
ATOM    218 8H11 ALA d   1      78.653 -11.927  25.524  0.00  0.00     0.030 H 
ATOM    219 9H11 ALA d   1      79.007 -13.675  25.731  0.00  0.00     0.030 H 
ATOM    220 0H12 ALA d   1      78.880 -12.973  24.082  0.00  0.00     0.030 H 
ENDBRANCH 167 217
ENDBRANCH 165 167
ENDBRANCH 161 163
BRANCH 161 221
ATOM    221  CB  SER d   1      84.172 -15.518  24.896  0.00  0.00     0.044 C 
ATOM    222 3H11 SER d   1      84.840 -14.866  25.479  0.00  0.00     0.077 H 
ATOM    223 4H11 SER d   1      84.762 -16.313  24.416  0.00  0.00     0.077 H 
BRANCH 221 224
ATOM    224  OG  SER d   1      83.219 -16.117  25.781  0.00  0.00    -0.398 OA
ATOM    225 5H11 SER d   1      82.642 -16.686  25.285  0.00  0.00     0.209 HD
ENDBRANCH 221 224
ENDBRANCH 161 221
ENDBRANCH 159 161
ENDBRANCH 155 157
BRANCH 155 226
ATOM    226  CB  LYS d   1      85.152 -13.578  19.633  0.00  0.00    -0.038 C 
ATOM    227 0H10 LYS d   1      84.718 -14.410  19.059  0.00  0.00     0.036 H 
ATOM    228 1H10 LYS d   1      85.904 -13.061  19.019  0.00  0.00     0.036 H 
BRANCH 226 229
ATOM    229  CG  LYS d   1      84.020 -12.573  19.978  0.00  0.00    -0.061 C 
ATOM    230 2H10 LYS d   1      84.469 -11.585  20.159  0.00  0.00     0.033 H 
ATOM    231 3H10 LYS d   1      83.509 -12.916  20.890  0.00  0.00     0.033 H 
BRANCH 229 232
ATOM    232  CD  LYS d   1      82.994 -12.445  18.864  0.00  0.00    -0.043 C 
ATOM    233 4H10 LYS d   1      82.256 -11.677  19.137  0.00  0.00     0.035 H 
ATOM    234 5H10 LYS d   1      82.485 -13.411  18.727  0.00  0.00     0.035 H 
BRANCH 232 235
ATOM    235  CE  LYS d   1      83.659 -12.055  17.588  0.00  0.00     0.080 C 
ATOM    236 6H10 LYS d   1      84.137 -12.943  17.149  0.00  0.00     0.075 H 
ATOM    237 7H10 LYS d   1      84.424 -11.295  17.803  0.00  0.00     0.075 H 
BRANCH 235 238
ATOM    238  NZ  LYS d   1      82.684 -11.496  16.606  0.00  0.00    -0.079 N 
ATOM    239 8H10 LYS d   1      83.168 -11.244  15.758  0.00  0.00     0.274 HD
ATOM    240 9H10 LYS d   1      82.244 -10.678  16.998  0.00  0.00     0.274 HD
ATOM    241 0H11 LYS d   1      81.981 -12.188  16.399  0.00  0.00     0.274 HD
ENDBRANCH 235 238
ENDBRANCH 232 235
ENDBRANCH 229 232
ENDBRANCH 226 229
ENDBRANCH 155 226
ENDBRANCH 153 155
ENDBRANCH 149 151
BRANCH 149 242
ATOM    242  CB  ARG d   1      88.208 -17.953  21.674  0.00  0.00    -0.036 C 
ATOM    243  H87 ARG d   1      88.319 -17.811  22.759  0.00  0.00     0.036 H 
ATOM    244  H88 ARG d   1      88.846 -18.787  21.346  0.00  0.00     0.036 H 
BRANCH 242 245
ATOM    245  CG  ARG d   1      86.746 -18.305  21.372  0.00  0.00    -0.048 C 
ATOM    246  H89 ARG d   1      86.599 -18.306  20.282  0.00  0.00     0.035 H 
ATOM    247  H90 ARG d   1      86.096 -17.545  21.829  0.00  0.00     0.035 H 
BRANCH 245 248
ATOM    248  CD  ARG d   1      86.369 -19.660  21.916  0.00  0.00     0.009 C 
ATOM    249  H91 ARG d   1      86.692 -19.733  22.965  0.00  0.00     0.064 H 
ATOM    250  H92 ARG d   1      86.868 -20.441  21.324  0.00  0.00     0.064 H 
BRANCH 248 251
ATOM    251  NE  ARG d   1      84.927 -19.850  21.843  0.00  0.00    -0.227 N 
ATOM    252  CZ  ARG d   1      84.083 -19.497  22.798  0.00  0.00     0.665 C 
ATOM    253  NH1 ARG d   1      84.516 -18.953  23.933  0.00  0.00    -0.235 N 
ATOM    254  NH2 ARG d   1      82.788 -19.690  22.626  0.00  0.00    -0.235 N 
ATOM    255  H94 ARG d   1      83.843 -18.685  24.665  0.00  0.00     0.174 HD
ATOM    256  H95 ARG d   1      85.524 -18.800  24.079  0.00  0.00     0.174 HD
ATOM    257  H96 ARG d   1      82.442 -20.110  21.752  0.00  0.00     0.174 HD
ATOM    258  H97 ARG d   1      82.124 -19.420  23.366  0.00  0.00     0.174 HD
ATOM    259  H93 ARG d   1      84.540 -20.287  20.994  0.00  0.00     0.177 HD
ENDBRANCH 248 251
ENDBRANCH 245 248
ENDBRANCH 242 245
ENDBRANCH 149 242
ENDBRANCH 147 149
ENDBRANCH 143 145
BRANCH 143 260
ATOM    260  CB  ALA d   1      93.123 -15.777  19.813  0.00  0.00    -0.049 C 
ATOM    261  H82 ALA d   1      92.560 -14.837  19.722  0.00  0.00     0.030 H 
ATOM    262  H83 ALA d   1      93.125 -16.299  18.845  0.00  0.00     0.030 H 
ATOM    263  H84 ALA d   1      94.158 -15.556  20.113  0.00  0.00     0.030 H 
ENDBRANCH 143 260
ENDBRANCH 141 143
ENDBRANCH 137 139
BRANCH 137 264
ATOM    264  CB  ALA d   1      93.200 -20.988  22.263  0.00  0.00    -0.049 C 
ATOM    265  H77 ALA d   1      92.470 -20.944  21.441  0.00  0.00     0.030 H 
ATOM    266  H78 ALA d   1      92.673 -20.920  23.226  0.00  0.00     0.030 H 
ATOM    267  H79 ALA d   1      93.752 -21.938  22.213  0.00  0.00     0.030 H 
ENDBRANCH 137 264
ENDBRANCH   3 137
TORSDOF 78
