REMARK  4 active torsions:
REMARK  status: ('A' for Active; 'I' for Inactive)
REMARK    1  A    between atoms: CAM_13  and  OAO_15 
REMARK    2  A    between atoms: CAW_23  and  CAM_13 
REMARK    3  A    between atoms: OAO_15  and  CAS_19 
REMARK    4  A    between atoms: CAT_20  and  CAX_24 
ROOT
ATOM      1  CAI 8PR d   1     -41.946  14.936  -4.163  0.00  0.00     0.082 C 
ATOM      2  CAJ 8PR d   1     -42.787  15.782  -5.123  0.00  0.00    -0.035 C 
ATOM      3  CAK 8PR d   1     -42.081  12.993  -5.686  0.00  0.00     0.087 C 
ATOM      4  NAN 8PR d   1     -41.167  13.887  -4.906  0.00  0.00    -0.075 N 
ATOM      5  CAW 8PR d   1     -43.011  13.764  -6.633  0.00  0.00    -0.002 C 
ATOM      6  CAX 8PR d   1     -43.690  14.962  -6.005  0.00  0.00    -0.020 C 
ATOM      7  H8  8PR d   1     -42.613  14.443  -3.440  0.00  0.00     0.075 H 
ATOM      8  H9  8PR d   1     -41.244  15.592  -3.627  0.00  0.00     0.075 H 
ATOM      9  H10 8PR d   1     -42.107  16.363  -5.763  0.00  0.00     0.036 H 
ATOM     10  H11 8PR d   1     -43.408  16.469  -4.530  0.00  0.00     0.036 H 
ATOM     11  H12 8PR d   1     -42.698  12.420  -4.979  0.00  0.00     0.076 H 
ATOM     12  H13 8PR d   1     -41.469  12.301  -6.283  0.00  0.00     0.076 H 
ATOM     13  H18 8PR d   1     -40.648  13.331  -4.244  0.00  0.00     0.277 HD
ATOM     14  H19 8PR d   1     -40.527  14.339  -5.540  0.00  0.00     0.277 HD
ATOM     15  H20 8PR d   1     -42.425  14.110  -7.497  0.00  0.00     0.046 H 
ATOM     16  H21 8PR d   1     -44.537  14.604  -5.401  0.00  0.00     0.048 H 
ENDROOT
BRANCH   5  17
ATOM     17  CAM 8PR d   1     -44.110  12.778  -7.102  0.00  0.00     0.032 C 
ATOM     18  H16 8PR d   1     -43.718  11.751  -7.067  0.00  0.00     0.075 H 
ATOM     19  H17 8PR d   1     -44.982  12.860  -6.436  0.00  0.00     0.075 H 
BRANCH  17  20
ATOM     20  OAO 8PR d   1     -44.495  13.083  -8.410  0.00  0.00    -0.351 OA
BRANCH  20  21
ATOM     21  CAS 8PR d   1     -45.734  12.546  -8.777  0.00  0.00     0.071 A 
ATOM     22  CAD 8PR d   1     -46.870  12.175  -8.069  0.00  0.00    -0.048 A 
ATOM     23  CAG 8PR d   1     -47.964  11.660  -8.749  0.00  0.00    -0.045 A 
ATOM     24  H3  8PR d   1     -46.901  12.287  -6.991  0.00  0.00     0.087 H 
ATOM     25  CAU 8PR d   1     -47.920  11.518 -10.146  0.00  0.00     0.105 A 
ATOM     26  H6  8PR d   1     -48.853  11.367  -8.202  0.00  0.00     0.088 H 
ATOM     27  OAP 8PR d   1     -48.867  11.032 -11.078  0.00  0.00    -0.323 OA
ATOM     28  CAV 8PR d   1     -46.793  11.886 -10.841  0.00  0.00     0.107 A 
ATOM     29  CAL 8PR d   1     -48.364  11.246 -12.373  0.00  0.00     0.115 C 
ATOM     30  OAQ 8PR d   1     -47.021  11.637 -12.216  0.00  0.00    -0.323 OA
ATOM     31  H14 8PR d   1     -48.935  12.040 -12.877  0.00  0.00     0.118 H 
ATOM     32  H15 8PR d   1     -48.424  10.319 -12.963  0.00  0.00     0.118 H 
ATOM     33  CAH 8PR d   1     -45.686  12.407 -10.155  0.00  0.00    -0.016 A 
ATOM     34  H7  8PR d   1     -44.796  12.700 -10.701  0.00  0.00     0.092 H 
ENDBRANCH  20  21
ENDBRANCH  17  20
ENDBRANCH   5  17
BRANCH   6  35
ATOM     35  CAT 8PR d   1     -44.220  15.898  -7.156  0.00  0.00    -0.053 A 
ATOM     36  CAE 8PR d   1     -45.593  15.798  -7.315  0.00  0.00    -0.074 A 
ATOM     37  CAB 8PR d   1     -46.235  16.548  -8.287  0.00  0.00    -0.045 A 
ATOM     38  H4  8PR d   1     -46.165  15.133  -6.678  0.00  0.00     0.084 H 
ATOM     39  CAR 8PR d   1     -45.505  17.404  -9.094  0.00  0.00     0.116 A 
ATOM     40  H1  8PR d   1     -47.308  16.465  -8.416  0.00  0.00     0.088 H 
ATOM     41  FAA 8PR d   1     -46.090  18.167 -10.061  0.00  0.00    -0.206 F 
ATOM     42  CAC 8PR d   1     -44.132  17.509  -8.933  0.00  0.00    -0.045 A 
ATOM     43  CAF 8PR d   1     -43.490  16.755  -7.965  0.00  0.00    -0.074 A 
ATOM     44  H2  8PR d   1     -43.562  18.181  -9.564  0.00  0.00     0.088 H 
ATOM     45  H5  8PR d   1     -42.416  16.835  -7.840  0.00  0.00     0.084 H 
ENDBRANCH   6  35
TORSDOF 4
