REMARK  3 active torsions:
REMARK  status: ('A' for Active; 'I' for Inactive)
REMARK    1  A    between atoms: C13_7  and  C4_9 
REMARK    2  A    between atoms: C1_16  and  N11_17 
REMARK    3  A    between atoms: N11_17  and  C12_18 
ROOT
ATOM      1  C4  SRE d   1     -45.892  12.329  -7.495  0.00  0.00    -0.002 C 
ATOM      2  C5  SRE d   1     -46.280  13.822  -7.943  0.00  0.00    -0.041 A 
ATOM      3  C6  SRE d   1     -47.611  14.208  -8.050  0.00  0.00    -0.076 A 
ATOM      4  C7  SRE d   1     -47.927  15.509  -8.442  0.00  0.00    -0.082 A 
ATOM      5  C8  SRE d   1     -46.909  16.431  -8.730  0.00  0.00    -0.082 A 
ATOM      6  C9  SRE d   1     -45.576  16.044  -8.623  0.00  0.00    -0.074 A 
ATOM      7  C10 SRE d   1     -45.259  14.747  -8.234  0.00  0.00    -0.021 A 
ATOM      8  C1  SRE d   1     -43.738  14.306  -8.111  0.00  0.00     0.127 C 
ATOM      9  C2  SRE d   1     -43.389  12.886  -7.722  0.00  0.00    -0.034 C 
ATOM     10  C3  SRE d   1     -44.477  12.017  -7.117  0.00  0.00    -0.052 C 
ATOM     11  H4  SRE d   1     -46.165  11.666  -8.329  0.00  0.00     0.054 H 
ATOM     12  H5  SRE d   1     -48.401  13.500  -7.829  0.00  0.00     0.084 H 
ATOM     13  H6  SRE d   1     -48.965  15.810  -8.525  0.00  0.00     0.083 H 
ATOM     14  H7  SRE d   1     -47.160  17.441  -9.035  0.00  0.00     0.083 H 
ATOM     15  H8  SRE d   1     -44.786  16.753  -8.843  0.00  0.00     0.084 H 
ATOM     16  H9  SRE d   1     -43.279  14.482  -9.095  0.00  0.00     0.091 H 
ATOM     17  H15 SRE d   1     -42.571  12.941  -6.989  0.00  0.00     0.036 H 
ATOM     18  H16 SRE d   1     -43.034  12.377  -8.630  0.00  0.00     0.036 H 
ATOM     19  H17 SRE d   1     -44.276  10.978  -7.417  0.00  0.00     0.034 H 
ATOM     20  H18 SRE d   1     -44.400  12.104  -6.023  0.00  0.00     0.034 H 
ENDROOT
BRANCH   1  21
ATOM     21  C13 SRE d   1     -46.732  11.957  -6.227  0.00  0.00    -0.048 A 
ATOM     22  C18 SRE d   1     -46.689  12.777  -5.111  0.00  0.00    -0.074 A 
ATOM     23  C17 SRE d   1     -47.424  12.442  -3.988  0.00  0.00    -0.060 A 
ATOM     24  H2  SRE d   1     -46.083  13.676  -5.118  0.00  0.00     0.084 H 
ATOM     25  C16 SRE d   1     -48.196  11.293  -3.976  0.00  0.00     0.055 A 
ATOM     26  H1  SRE d   1     -47.395  13.082  -3.114  0.00  0.00     0.086 H 
ATOM     27 CL19 SRE d   1     -49.142  10.870  -2.526  0.00  0.00    -0.083 Cl
ATOM     28  C15 SRE d   1     -48.236  10.469  -5.088  0.00  0.00     0.056 A 
ATOM     29 CL20 SRE d   1     -49.234   8.987  -5.056  0.00  0.00    -0.083 Cl
ATOM     30  C14 SRE d   1     -47.499  10.801  -6.216  0.00  0.00    -0.053 A 
ATOM     31  H3  SRE d   1     -47.523  10.158  -7.088  0.00  0.00     0.087 H 
ENDBRANCH   1  21
BRANCH   8  32
ATOM     32  N11 SRE d   1     -43.107  15.208  -7.107  0.00  0.00    -0.071 N 
ATOM     33  H10 SRE d   1     -43.136  14.772  -6.199  0.00  0.00     0.277 HD
ATOM     34  H11 SRE d   1     -43.609  16.081  -7.077  0.00  0.00     0.277 HD
BRANCH  32  35
ATOM     35  C12 SRE d   1     -41.725  15.457  -7.480  0.00  0.00     0.065 C 
ATOM     36  H12 SRE d   1     -41.259  16.123  -6.739  0.00  0.00     0.067 H 
ATOM     37  H13 SRE d   1     -41.693  15.933  -8.471  0.00  0.00     0.067 H 
ATOM     38  H14 SRE d   1     -41.176  14.504  -7.512  0.00  0.00     0.067 H 
ENDBRANCH  32  35
ENDBRANCH   8  32
TORSDOF 3
