REMARK  13 active torsions:
REMARK  status: ('A' for Active; 'I' for Inactive)
REMARK    1  A    between atoms: N1_3  and  C14_8 
REMARK    2  A    between atoms: C9_4  and  C10_5 
REMARK    3  A    between atoms: C11_6  and  C9_4 
REMARK    4  A    between atoms: C9_4  and  N5_12 
REMARK       I    between atoms: N12_13  and  C11_6 
REMARK    5  A    between atoms: C3_11  and  N15_15 
REMARK    6  A    between atoms: C35_35  and  N12_13 
REMARK       I    between atoms: N15_15  and  C16_16 
REMARK    7  A    between atoms: C16_16  and  C17_17 
REMARK    8  A    between atoms: C21_21  and  N24_24 
REMARK    9  A    between atoms: N24_24  and  C25_25 
REMARK   10  A    between atoms: C35_35  and  C36_36 
REMARK   11  A    between atoms: C39_39  and  C35_35 
REMARK   12  A    between atoms: C36_36  and  O41_41 
REMARK   13  A    between atoms: C38_38  and  C39_39 
ROOT
ATOM      1  C4  CVE d   1      -0.461  31.748   7.206  0.00  0.00     0.280 C 
ATOM      2  C6  CVE d   1      -2.378  30.338   7.976  0.00  0.00     0.332 C 
ATOM      3  N1  CVE d   1      -2.936  31.482   8.500  0.00  0.00    -0.312 N 
ATOM      4  O7  CVE d   1      -2.992  29.287   7.924  0.00  0.00    -0.246 OA
ATOM      5  O8  CVE d   1       0.574  31.857   6.543  0.00  0.00    -0.265 OA
ATOM      6  C2  CVE d   1      -2.304  32.691   8.453  0.00  0.00     0.015 C 
ATOM      7  C3  CVE d   1      -1.123  32.925   7.817  0.00  0.00     0.120 C 
ATOM      8  N5  CVE d   1      -1.102  30.476   7.440  0.00  0.00    -0.251 N 
ATOM      9  H8  CVE d   1      -2.779  33.529   8.961  0.00  0.00     0.115 H 
ENDROOT
BRANCH   7  10
ATOM     10  N15 CVE d   1      -0.265  34.041   7.875  0.00  0.00    -0.317 N 
ATOM     11  C16 CVE d   1      -0.248  34.966   8.893  0.00  0.00     0.256 C 
ATOM     12  O18 CVE d   1      -0.825  34.776   9.962  0.00  0.00    -0.267 OA
ATOM     13  H10 CVE d   1       0.379  34.170   7.121  0.00  0.00     0.169 HD
BRANCH  11  14
ATOM     14  C17 CVE d   1       0.627  36.158   8.694  0.00  0.00     0.032 A 
ATOM     15  C19 CVE d   1       0.433  37.286   9.491  0.00  0.00    -0.066 A 
ATOM     16  C20 CVE d   1       1.287  38.373   9.400  0.00  0.00    -0.056 A 
ATOM     17  H11 CVE d   1      -0.395  37.312  10.190  0.00  0.00     0.085 H 
ATOM     18  C21 CVE d   1       2.355  38.353   8.508  0.00  0.00     0.033 A 
ATOM     19  H12 CVE d   1       1.123  39.242  10.026  0.00  0.00     0.086 H 
ATOM     20  C22 CVE d   1       2.557  37.229   7.710  0.00  0.00    -0.056 A 
ATOM     21  C23 CVE d   1       1.693  36.150   7.792  0.00  0.00    -0.066 A 
ATOM     22  H13 CVE d   1       3.394  37.199   7.022  0.00  0.00     0.086 H 
ATOM     23  H14 CVE d   1       1.846  35.290   7.149  0.00  0.00     0.085 H 
BRANCH  18  24
ATOM     24  N24 CVE d   1       3.197  39.484   8.458  0.00  0.00    -0.340 N 
ATOM     25  H15 CVE d   1       3.189  40.060   9.312  0.00  0.00     0.167 HD
BRANCH  24  26
ATOM     26  C25 CVE d   1       4.032  39.952   7.459  0.00  0.00     0.146 A 
ATOM     27  C26 CVE d   1       4.806  41.117   7.733  0.00  0.00     0.047 A 
ATOM     28  N27 CVE d   1       5.641  41.629   6.853  0.00  0.00    -0.255 NA
ATOM     29  H16 CVE d   1       4.704  41.598   8.699  0.00  0.00     0.120 H 
ATOM     30  C30 CVE d   1       5.737  40.984   5.644  0.00  0.00     0.085 A 
ATOM     31  C29 CVE d   1       4.970  39.829   5.369  0.00  0.00     0.087 A 
ATOM     32  C31 CVE d   1       6.603  41.492   4.646  0.00  0.00    -0.053 A 
ATOM     33  N28 CVE d   1       4.109  39.313   6.301  0.00  0.00    -0.228 NA
ATOM     34  C34 CVE d   1       5.084  39.210   4.102  0.00  0.00    -0.053 A 
ATOM     35  C33 CVE d   1       5.935  39.728   3.158  0.00  0.00    -0.081 A 
ATOM     36  H20 CVE d   1       4.499  38.326   3.877  0.00  0.00     0.087 H 
ATOM     37  C32 CVE d   1       6.690  40.865   3.428  0.00  0.00    -0.081 A 
ATOM     38  H19 CVE d   1       6.020  39.246   2.191  0.00  0.00     0.083 H 
ATOM     39  H18 CVE d   1       7.354  41.260   2.668  0.00  0.00     0.083 H 
ATOM     40  H17 CVE d   1       7.198  42.377   4.844  0.00  0.00     0.087 H 
ENDBRANCH  24  26
ENDBRANCH  18  24
ENDBRANCH  11  14
ENDBRANCH   7  10
BRANCH   8  41
ATOM     41  C9  CVE d   1      -0.395  29.256   7.013  0.00  0.00     0.098 C 
ATOM     42  H1  CVE d   1      -1.041  28.408   7.285  0.00  0.00     0.088 H 
BRANCH  41  43
ATOM     43  C10 CVE d   1       0.909  29.027   7.771  0.00  0.00    -0.049 C 
ATOM     44  H2  CVE d   1       1.387  28.105   7.408  0.00  0.00     0.030 H 
ATOM     45  H3  CVE d   1       0.696  28.931   8.846  0.00  0.00     0.030 H 
ATOM     46  H4  CVE d   1       1.584  29.880   7.605  0.00  0.00     0.030 H 
ENDBRANCH  41  43
BRANCH  41  47
ATOM     47  C11 CVE d   1      -0.296  29.237   5.481  0.00  0.00     0.241 C 
ATOM     48  N12 CVE d   1       0.879  28.864   4.951  0.00  0.00    -0.352 N 
ATOM     49  H9  CVE d   1       1.676  28.802   5.551  0.00  0.00     0.163 HD
ATOM     50  O13 CVE d   1      -1.274  29.532   4.794  0.00  0.00    -0.271 OA
BRANCH  48  51
ATOM     51  C35 CVE d   1       1.044  28.544   3.533  0.00  0.00     0.041 C 
ATOM     52  H21 CVE d   1       0.039  28.485   3.089  0.00  0.00     0.076 H 
BRANCH  51  53
ATOM     53  C36 CVE d   1       1.701  27.192   3.334  0.00  0.00     0.036 C 
ATOM     54  H22 CVE d   1       1.147  26.444   3.921  0.00  0.00     0.077 H 
ATOM     55  H23 CVE d   1       2.737  27.250   3.698  0.00  0.00     0.077 H 
BRANCH  53  56
ATOM     56  O41 CVE d   1       1.722  26.773   1.970  0.00  0.00    -0.399 OA
ATOM     57  H26 CVE d   1       2.205  27.407   1.453  0.00  0.00     0.209 HD
ENDBRANCH  53  56
ENDBRANCH  51  53
BRANCH  51  58
ATOM     58  C39 CVE d   1       1.796  29.660   2.814  0.00  0.00     0.036 C 
ATOM     59  H24 CVE d   1       2.877  29.503   2.948  0.00  0.00     0.052 H 
ATOM     60  H25 CVE d   1       1.508  30.625   3.257  0.00  0.00     0.052 H 
BRANCH  58  61
ATOM     61  C38 CVE d   1       1.485  29.693   1.320  0.00  0.00     0.174 C 
ATOM     62  O37 CVE d   1       0.286  29.596   0.963  0.00  0.00    -0.648 OA
ATOM     63  O40 CVE d   1       2.455  29.806   0.539  0.00  0.00    -0.648 OA
ENDBRANCH  58  61
ENDBRANCH  51  58
ENDBRANCH  48  51
ENDBRANCH  41  47
ENDBRANCH   8  41
BRANCH   3  64
ATOM     64  C14 CVE d   1      -4.272  31.376   9.086  0.00  0.00    -0.010 C 
ATOM     65  H5  CVE d   1      -4.587  32.361   9.461  0.00  0.00     0.057 H 
ATOM     66  H6  CVE d   1      -4.252  30.656   9.917  0.00  0.00     0.057 H 
ATOM     67  H7  CVE d   1      -4.982  31.032   8.320  0.00  0.00     0.057 H 
ENDBRANCH   3  64
TORSDOF 13
