REMARK  5 active torsions:
REMARK  status: ('A' for Active; 'I' for Inactive)
REMARK    1  A    between atoms: N1_2  and  C17_1 
REMARK    2  A    between atoms: O1_10  and  C6_8 
REMARK    3  A    between atoms: C1_11  and  O1_10 
REMARK    4  A    between atoms: C1_11  and  C5_12 
REMARK    5  A    between atoms: C4_23  and  C1_11 
ROOT
ATOM      1  O1  CXQ d   1     -40.984  16.285  -7.195  0.00  0.00    -0.371 OA
ENDROOT
BRANCH   1   2
ATOM      2  C6  CXQ d   1     -40.051  15.973  -8.053  0.00  0.00     0.043 C 
ATOM      3  C8  CXQ d   1     -39.338  14.585  -7.608  0.00  0.00    -0.014 C 
ATOM      4  C3  CXQ d   1     -37.815  14.752  -7.428  0.00  0.00     0.106 C 
ATOM      5  H11 CXQ d   1     -39.774  14.251  -6.655  0.00  0.00     0.039 H 
ATOM      6  H12 CXQ d   1     -39.523  13.826  -8.382  0.00  0.00     0.039 H 
ATOM      7  N1  CXQ d   1     -37.326  15.625  -8.215  0.00  0.00    -0.066 N 
ATOM      8  C12 CXQ d   1     -37.549  15.323  -5.919  0.00  0.00    -0.036 C 
ATOM      9  H5  CXQ d   1     -37.315  13.784  -7.579  0.00  0.00     0.084 H 
ATOM     10  C2  CXQ d   1     -37.576  16.847  -7.822  0.00  0.00     0.106 C 
ATOM     11  H4  CXQ d   1     -37.751  15.498  -9.120  0.00  0.00     0.280 HD
ATOM     12  C13 CXQ d   1     -37.335  16.838  -6.214  0.00  0.00    -0.036 C 
ATOM     13  C7  CXQ d   1     -39.021  17.257  -8.064  0.00  0.00    -0.014 C 
ATOM     14  H10 CXQ d   1     -36.899  17.554  -8.324  0.00  0.00     0.084 H 
ATOM     15  H8  CXQ d   1     -36.318  17.166  -5.952  0.00  0.00     0.036 H 
ATOM     16  H9  CXQ d   1     -38.070  17.465  -5.687  0.00  0.00     0.036 H 
ATOM     17  H14 CXQ d   1     -39.087  17.754  -9.043  0.00  0.00     0.039 H 
ATOM     18  H15 CXQ d   1     -39.325  17.960  -7.274  0.00  0.00     0.039 H 
ATOM     19  H6  CXQ d   1     -36.656  14.869  -5.466  0.00  0.00     0.036 H 
ATOM     20  H7  CXQ d   1     -38.417  15.157  -5.264  0.00  0.00     0.036 H 
ATOM     21  H13 CXQ d   1     -40.485  15.841  -9.055  0.00  0.00     0.083 H 
BRANCH   7  22
ATOM     22  C17 CXQ d   1     -35.996  15.439  -8.340  0.00  0.00     0.067 C 
ATOM     23  H1  CXQ d   1     -35.799  14.409  -8.671  0.00  0.00     0.068 H 
ATOM     24  H2  CXQ d   1     -35.509  15.612  -7.369  0.00  0.00     0.068 H 
ATOM     25  H3  CXQ d   1     -35.595  16.145  -9.082  0.00  0.00     0.068 H 
ENDBRANCH   7  22
ENDBRANCH   1   2
BRANCH   1  26
ATOM     26  C1  CXQ d   1     -41.995  15.316  -6.942  0.00  0.00     0.089 C 
ATOM     27  H16 CXQ d   1     -41.753  14.324  -7.352  0.00  0.00     0.098 H 
BRANCH  26  28
ATOM     28  C5  CXQ d   1     -42.092  15.290  -5.339  0.00  0.00    -0.025 A 
ATOM     29  C19 CXQ d   1     -41.029  15.853  -4.597  0.00  0.00    -0.074 A 
ATOM     30  C23 CXQ d   1     -41.062  15.866  -3.161  0.00  0.00    -0.082 A 
ATOM     31  H17 CXQ d   1     -40.179  16.280  -5.117  0.00  0.00     0.084 H 
ATOM     32  C26 CXQ d   1     -42.150  15.318  -2.518  0.00  0.00    -0.083 A 
ATOM     33  H18 CXQ d   1     -40.246  16.299  -2.594  0.00  0.00     0.083 H 
ATOM     34  C21 CXQ d   1     -43.229  14.750  -3.264  0.00  0.00    -0.082 A 
ATOM     35  H19 CXQ d   1     -42.188  15.318  -1.435  0.00  0.00     0.083 H 
ATOM     36  C9  CXQ d   1     -43.190  14.736  -4.684  0.00  0.00    -0.074 A 
ATOM     37  H20 CXQ d   1     -44.081  14.328  -2.744  0.00  0.00     0.083 H 
ATOM     38  H21 CXQ d   1     -44.004  14.300  -5.251  0.00  0.00     0.084 H 
ENDBRANCH  26  28
BRANCH  26  39
ATOM     39  C4  CXQ d   1     -43.291  15.895  -7.584  0.00  0.00    -0.025 A 
ATOM     40  C10 CXQ d   1     -43.576  17.258  -7.469  0.00  0.00    -0.074 A 
ATOM     41  C22 CXQ d   1     -44.728  17.781  -8.042  0.00  0.00    -0.082 A 
ATOM     42  H22 CXQ d   1     -42.896  17.909  -6.931  0.00  0.00     0.084 H 
ATOM     43  C25 CXQ d   1     -45.606  16.929  -8.736  0.00  0.00    -0.083 A 
ATOM     44  H23 CXQ d   1     -44.949  18.839  -7.955  0.00  0.00     0.083 H 
ATOM     45  C24 CXQ d   1     -45.322  15.577  -8.857  0.00  0.00    -0.082 A 
ATOM     46  H24 CXQ d   1     -46.510  17.331  -9.179  0.00  0.00     0.083 H 
ATOM     47  C18 CXQ d   1     -44.174  15.053  -8.289  0.00  0.00    -0.074 A 
ATOM     48  H25 CXQ d   1     -46.001  14.929  -9.398  0.00  0.00     0.083 H 
ATOM     49  H26 CXQ d   1     -43.954  13.996  -8.386  0.00  0.00     0.084 H 
ENDBRANCH  26  39
ENDBRANCH   1  26
TORSDOF 5
