REMARK  10 active torsions:
REMARK  status: ('A' for Active; 'I' for Inactive)
REMARK    1  A    between atoms: O03_23  and  C15_3 
REMARK    2  A    between atoms: C19_27  and  C20_5 
REMARK    3  A    between atoms: C01_7  and  C21_6 
REMARK       I    between atoms: N01_9  and  C03_10 
REMARK    4  A    between atoms: C03_10  and  C04_11 
REMARK    5  A    between atoms: C04_11  and  O01_12 
REMARK    6  A    between atoms: O01_12  and  N02_13 
REMARK    7  A    between atoms: C05_14  and  C06_15 
REMARK    8  A    between atoms: C08_17  and  O02_18 
REMARK    9  A    between atoms: O02_18  and  C09_19 
REMARK   10  A    between atoms: C14_22  and  O03_23 
ROOT
ATOM      1  C17 CV8 d   1      30.977 131.182 144.889  0.00  0.00    -0.069 A 
ATOM      2  C06 CV8 d   1      30.539 131.001 146.124  0.00  0.00    -0.014 A 
ATOM      3  C07 CV8 d   1      31.102 131.698 147.112  0.00  0.00    -0.037 A 
ATOM      4  C08 CV8 d   1      32.101 132.623 146.900  0.00  0.00     0.103 A 
ATOM      5  C14 CV8 d   1      32.556 132.807 145.598  0.00  0.00     0.101 A 
ATOM      6  C16 CV8 d   1      31.988 132.090 144.612  0.00  0.00    -0.047 A 
ATOM      7  H8  CV8 d   1      30.538 130.611 144.079  0.00  0.00     0.085 H 
ATOM      8  H21 CV8 d   1      30.759 131.529 148.126  0.00  0.00     0.089 H 
ATOM      9  H27 CV8 d   1      32.324 132.223 143.590  0.00  0.00     0.087 H 
ENDROOT
BRANCH   2  10
ATOM     10  C05 CV8 d   1      29.431 130.010 146.484  0.00  0.00     0.038 C 
ATOM     11  N02 CV8 d   1      29.434 129.571 147.643  0.00  0.00    -0.145 NA
ATOM     12  H20 CV8 d   1      28.678 129.706 145.759  0.00  0.00     0.119 H 
BRANCH  11  13
ATOM     13  O01 CV8 d   1      28.527 128.661 148.174  0.00  0.00    -0.247 OA
BRANCH  13  14
ATOM     14  C04 CV8 d   1      28.068 128.995 149.554  0.00  0.00     0.121 C 
ATOM     15  H18 CV8 d   1      27.840 128.038 150.046  0.00  0.00     0.093 H 
ATOM     16  H19 CV8 d   1      28.921 129.472 150.058  0.00  0.00     0.093 H 
BRANCH  14  17
ATOM     17  C03 CV8 d   1      26.862 129.902 149.795  0.00  0.00     0.246 C 
ATOM     18  N01 CV8 d   1      26.496 130.310 151.052  0.00  0.00    -0.345 N 
ATOM     19  C02 CV8 d   1      27.282 129.887 152.224  0.00  0.00     0.021 C 
ATOM     20  C18 CV8 d   1      25.325 131.189 151.214  0.00  0.00     0.021 C 
ATOM     21  C01 CV8 d   1      26.798 130.539 153.531  0.00  0.00     0.051 C 
ATOM     22  H16 CV8 d   1      27.202 128.795 152.325  0.00  0.00     0.068 H 
ATOM     23  H17 CV8 d   1      28.334 130.165 152.061  0.00  0.00     0.068 H 
ATOM     24  O05 CV8 d   1      26.441 131.909 153.280  0.00  0.00    -0.378 OA
ATOM     25  H15 CV8 d   1      25.919 129.987 153.894  0.00  0.00     0.085 H 
ATOM     26  C19 CV8 d   1      25.200 131.926 152.564  0.00  0.00     0.051 C 
ATOM     27  H30 CV8 d   1      24.434 131.411 153.162  0.00  0.00     0.085 H 
ATOM     28  H28 CV8 d   1      24.423 130.572 151.085  0.00  0.00     0.068 H 
ATOM     29  H29 CV8 d   1      25.365 131.950 150.420  0.00  0.00     0.068 H 
ATOM     30  O04 CV8 d   1      26.329 130.168 148.713  0.00  0.00    -0.271 OA
BRANCH  21  31
ATOM     31  C21 CV8 d   1      27.865 130.544 154.617  0.00  0.00    -0.051 C 
ATOM     32  H12 CV8 d   1      28.167 129.510 154.839  0.00  0.00     0.030 H 
ATOM     33  H13 CV8 d   1      27.460 131.011 155.527  0.00  0.00     0.030 H 
ATOM     34  H14 CV8 d   1      28.739 131.114 154.270  0.00  0.00     0.030 H 
ENDBRANCH  21  31
BRANCH  26  35
ATOM     35  C20 CV8 d   1      24.793 133.385 152.401  0.00  0.00    -0.051 C 
ATOM     36  H9  CV8 d   1      23.840 133.441 151.854  0.00  0.00     0.030 H 
ATOM     37  H10 CV8 d   1      25.571 133.922 151.839  0.00  0.00     0.030 H 
ATOM     38  H11 CV8 d   1      24.673 133.845 153.393  0.00  0.00     0.030 H 
ENDBRANCH  26  35
ENDBRANCH  14  17
ENDBRANCH  13  14
ENDBRANCH  11  13
ENDBRANCH   2  10
BRANCH   4  39
ATOM     39  O02 CV8 d   1      32.727 133.384 147.929  0.00  0.00    -0.343 OA
BRANCH  39  40
ATOM     40  C09 CV8 d   1      32.565 132.926 149.236  0.00  0.00     0.045 C 
ATOM     41  C10 CV8 d   1      33.819 133.124 150.183  0.00  0.00    -0.040 C 
ATOM     42  C11 CV8 d   1      33.661 134.281 150.677  0.00  0.00    -0.063 C 
ATOM     43  H1  CV8 d   1      34.754 133.071 149.607  0.00  0.00     0.036 H 
ATOM     44  H2  CV8 d   1      33.833 132.361 150.975  0.00  0.00     0.036 H 
ATOM     45  C12 CV8 d   1      32.431 134.937 150.102  0.00  0.00    -0.063 C 
ATOM     46  H23 CV8 d   1      34.542 134.897 150.445  0.00  0.00     0.033 H 
ATOM     47  H24 CV8 d   1      33.550 134.197 151.768  0.00  0.00     0.033 H 
ATOM     48  C13 CV8 d   1      31.711 133.630 149.795  0.00  0.00    -0.040 C 
ATOM     49  H25 CV8 d   1      31.896 135.560 150.834  0.00  0.00     0.033 H 
ATOM     50  H26 CV8 d   1      32.644 135.531 149.201  0.00  0.00     0.033 H 
ATOM     51  H3  CV8 d   1      31.361 133.153 150.722  0.00  0.00     0.036 H 
ATOM     52  H4  CV8 d   1      30.855 133.806 149.127  0.00  0.00     0.036 H 
ATOM     53  H22 CV8 d   1      32.268 131.867 149.211  0.00  0.00     0.084 H 
ENDBRANCH  39  40
ENDBRANCH   4  39
BRANCH   5  54
ATOM     54  O03 CV8 d   1      33.579 133.721 145.390  0.00  0.00    -0.353 OA
BRANCH  54  55
ATOM     55  C15 CV8 d   1      33.974 134.223 144.248  0.00  0.00     0.010 C 
ATOM     56  H5  CV8 d   1      34.807 134.919 144.422  0.00  0.00     0.066 H 
ATOM     57  H6  CV8 d   1      33.139 134.761 143.776  0.00  0.00     0.066 H 
ATOM     58  H7  CV8 d   1      34.308 133.410 143.586  0.00  0.00     0.066 H 
ENDBRANCH  54  55
ENDBRANCH   5  54
TORSDOF 10
