REMARK  13 active torsions:
REMARK  status: ('A' for Active; 'I' for Inactive)
REMARK    1  A    between atoms: N29_19  and  C4_1 
REMARK    2  A    between atoms: C6_3  and  C7_5 
REMARK    3  A    between atoms: C3_10  and  O38_21 
REMARK    4  A    between atoms: O36_12  and  C37_11 
REMARK    5  A    between atoms: C31_13  and  O36_12 
REMARK    6  A    between atoms: C30_18  and  N29_19 
REMARK    7  A    between atoms: O38_21  and  C39_22 
REMARK    8  A    between atoms: N9_26  and  C16_27 
REMARK    9  A    between atoms: C16_27  and  C17_28 
REMARK   10  A    between atoms: C20_35  and  O24_36 
REMARK   11  A    between atoms: O24_36  and  C25_37 
REMARK   12  A    between atoms: C25_37  and  C26_38 
REMARK   13  A    between atoms: C26_38  and  O27_39 
ROOT
ATOM      1  C14 CVQ d   1      19.778 -35.135 -11.817  0.00  0.00    -0.081 A 
ATOM      2  C11 CVQ d   1      18.438 -33.475 -13.600  0.00  0.00     0.027 A 
ATOM      3  C7  CVQ d   1      18.128 -32.580 -14.619  0.00  0.00     0.137 A 
ATOM      4  C10 CVQ d   1      19.804 -33.583 -13.640  0.00  0.00     0.066 A 
ATOM      5  C12 CVQ d   1      17.703 -34.211 -12.649  0.00  0.00    -0.068 A 
ATOM      6  C13 CVQ d   1      18.391 -35.046 -11.768  0.00  0.00    -0.082 A 
ATOM      7  N8  CVQ d   1      19.267 -32.215 -15.207  0.00  0.00    -0.167 NA
ATOM      8  C15 CVQ d   1      20.489 -34.411 -12.764  0.00  0.00    -0.055 A 
ATOM      9  N9  CVQ d   1      20.205 -32.794 -14.636  0.00  0.00    -0.264 N 
ATOM     10  H1  CVQ d   1      20.305 -35.771 -11.114  0.00  0.00     0.083 H 
ATOM     11  H2  CVQ d   1      16.623 -34.130 -12.603  0.00  0.00     0.085 H 
ATOM     12  H3  CVQ d   1      17.840 -35.630 -11.040  0.00  0.00     0.083 H 
ATOM     13  H15 CVQ d   1      21.569 -34.492 -12.818  0.00  0.00     0.087 H 
ENDROOT
BRANCH   3  14
ATOM     14  C6  CVQ d   1      16.841 -32.193 -14.986  0.00  0.00     0.183 A 
ATOM     15  N1  CVQ d   1      16.572 -31.991 -16.311  0.00  0.00    -0.236 NA
ATOM     16  C2  CVQ d   1      15.362 -31.624 -16.748  0.00  0.00     0.040 A 
ATOM     17  C3  CVQ d   1      14.360 -31.464 -15.799  0.00  0.00     0.132 A 
ATOM     18  H14 CVQ d   1      15.171 -31.458 -17.802  0.00  0.00     0.119 H 
ATOM     19  C4  CVQ d   1      14.664 -31.638 -14.431  0.00  0.00     0.165 A 
ATOM     20  N5  CVQ d   1      15.890 -32.040 -14.084  0.00  0.00    -0.206 NA
BRANCH  17  21
ATOM     21  O38 CVQ d   1      13.097 -31.085 -16.125  0.00  0.00    -0.351 OA
BRANCH  21  22
ATOM     22  C39 CVQ d   1      12.836 -30.656 -17.514  0.00  0.00     0.011 C 
ATOM     23  H11 CVQ d   1      11.776 -30.382 -17.620  0.00  0.00     0.067 H 
ATOM     24  H12 CVQ d   1      13.073 -31.480 -18.203  0.00  0.00     0.067 H 
ATOM     25  H13 CVQ d   1      13.465 -29.786 -17.753  0.00  0.00     0.067 H 
ENDBRANCH  21  22
ENDBRANCH  17  21
BRANCH  19  26
ATOM     26  N29 CVQ d   1      13.660 -31.453 -13.558  0.00  0.00    -0.336 N 
ATOM     27  H10 CVQ d   1      12.721 -31.385 -13.976  0.00  0.00     0.168 HD
BRANCH  26  28
ATOM     28  C30 CVQ d   1      13.700 -31.342 -12.202  0.00  0.00     0.070 A 
ATOM     29  C31 CVQ d   1      12.485 -31.003 -11.622  0.00  0.00     0.112 A 
ATOM     30  C32 CVQ d   1      12.375 -30.914 -10.242  0.00  0.00     0.036 A 
ATOM     31  N33 CVQ d   1      13.443 -31.125  -9.456  0.00  0.00    -0.270 NA
ATOM     32  H7  CVQ d   1      11.418 -30.672  -9.794  0.00  0.00     0.119 H 
ATOM     33  C34 CVQ d   1      14.618 -31.490  -9.971  0.00  0.00     0.004 A 
ATOM     34  C35 CVQ d   1      14.785 -31.621 -11.356  0.00  0.00    -0.037 A 
ATOM     35  H8  CVQ d   1      15.454 -31.688  -9.310  0.00  0.00     0.114 H 
ATOM     36  H9  CVQ d   1      15.738 -31.933 -11.768  0.00  0.00     0.089 H 
BRANCH  29  37
ATOM     37  O36 CVQ d   1      11.461 -30.805 -12.506  0.00  0.00    -0.352 OA
BRANCH  37  38
ATOM     38  C37 CVQ d   1      10.233 -30.241 -12.109  0.00  0.00     0.011 C 
ATOM     39  H4  CVQ d   1       9.562 -30.176 -12.978  0.00  0.00     0.067 H 
ATOM     40  H5  CVQ d   1      10.406 -29.233 -11.703  0.00  0.00     0.067 H 
ATOM     41  H6  CVQ d   1       9.772 -30.873 -11.336  0.00  0.00     0.067 H 
ENDBRANCH  37  38
ENDBRANCH  29  37
ENDBRANCH  26  28
ENDBRANCH  19  26
ENDBRANCH   3  14
BRANCH   9  42
ATOM     42  C16 CVQ d   1      21.608 -32.642 -14.987  0.00  0.00     0.047 C 
ATOM     43  H16 CVQ d   1      21.675 -32.093 -15.938  0.00  0.00     0.075 H 
ATOM     44  H17 CVQ d   1      22.051 -33.642 -15.108  0.00  0.00     0.075 H 
BRANCH  42  45
ATOM     45  C17 CVQ d   1      22.403 -31.881 -13.926  0.00  0.00     0.039 A 
ATOM     46  C22 CVQ d   1      23.480 -32.506 -13.295  0.00  0.00     0.130 A 
ATOM     47  C21 CVQ d   1      24.260 -31.827 -12.356  0.00  0.00    -0.013 A 
ATOM     48  F23 CVQ d   1      23.861 -33.760 -13.628  0.00  0.00    -0.205 F 
ATOM     49  C20 CVQ d   1      23.944 -30.531 -12.001  0.00  0.00     0.074 A 
ATOM     50  H18 CVQ d   1      25.115 -32.319 -11.905  0.00  0.00     0.092 H 
ATOM     51  C19 CVQ d   1      22.841 -29.916 -12.585  0.00  0.00    -0.013 A 
ATOM     52  C18 CVQ d   1      22.091 -30.586 -13.539  0.00  0.00     0.130 A 
ATOM     53  H19 CVQ d   1      22.567 -28.909 -12.293  0.00  0.00     0.092 H 
ATOM     54  F28 CVQ d   1      21.074 -29.911 -14.101  0.00  0.00    -0.205 F 
BRANCH  49  55
ATOM     55  O24 CVQ d   1      24.723 -29.946 -11.054  0.00  0.00    -0.349 OA
BRANCH  55  56
ATOM     56  C25 CVQ d   1      25.174 -28.609 -11.248  0.00  0.00     0.045 C 
ATOM     57  H20 CVQ d   1      24.731 -28.167 -12.153  0.00  0.00     0.078 H 
ATOM     58  H21 CVQ d   1      26.271 -28.566 -11.318  0.00  0.00     0.078 H 
BRANCH  56  59
ATOM     59  C26 CVQ d   1      24.683 -27.920 -10.014  0.00  0.00     0.037 C 
ATOM     60  H22 CVQ d   1      24.913 -26.845 -10.052  0.00  0.00     0.077 H 
ATOM     61  H23 CVQ d   1      25.138 -28.361  -9.115  0.00  0.00     0.077 H 
BRANCH  59  62
ATOM     62  O27 CVQ d   1      23.280 -28.134 -10.022  0.00  0.00    -0.399 OA
ATOM     63  H24 CVQ d   1      23.103 -29.067 -10.002  0.00  0.00     0.209 HD
ENDBRANCH  59  62
ENDBRANCH  56  59
ENDBRANCH  55  56
ENDBRANCH  49  55
ENDBRANCH  42  45
ENDBRANCH   9  42
TORSDOF 13
