REMARK  7 active torsions:
REMARK  status: ('A' for Active; 'I' for Inactive)
REMARK    1  A    between atoms: C1_1  and  N11_23 
REMARK    2  A    between atoms: N25_29  and  C12_4 
REMARK    3  A    between atoms: C13_5  and  C22_10 
REMARK    4  A    between atoms: C22_10  and  C24_11 
REMARK    5  A    between atoms: C22_10  and  O23_28 
REMARK       I    between atoms: N11_23  and  C26_12 
REMARK       I    between atoms: C26_12  and  N25_29 
REMARK    6  A    between atoms: O23_28  and  C28_13 
REMARK    7  A    between atoms: C8_20  and  C4_16 
REMARK       I    between atoms: C8_20  and  N10_22 
ROOT
ATOM      1  C26 CW5 d   1       9.058  -2.858  23.905  0.00  0.00     0.325 C 
ATOM      2  N11 CW5 d   1       8.599  -3.807  23.075  0.00  0.00    -0.307 N 
ATOM      3  N25 CW5 d   1      10.378  -2.946  24.207  0.00  0.00    -0.305 N 
ATOM      4  O27 CW5 d   1       8.313  -1.996  24.359  0.00  0.00    -0.247 OA
ATOM      5  H16 CW5 d   1       9.264  -4.503  22.806  0.00  0.00     0.170 HD
ATOM      6  H17 CW5 d   1      10.892  -3.674  23.753  0.00  0.00     0.171 HD
ENDROOT
BRANCH   2   7
ATOM      7  C1  CW5 d   1       7.306  -3.958  22.529  0.00  0.00     0.055 A 
ATOM      8  C2  CW5 d   1       6.177  -3.154  22.812  0.00  0.00    -0.032 A 
ATOM      9  C3  CW5 d   1       4.957  -3.468  22.199  0.00  0.00     0.070 A 
ATOM     10  H1  CW5 d   1       6.254  -2.312  23.490  0.00  0.00     0.089 H 
ATOM     11  C4  CW5 d   1       4.893  -4.582  21.343  0.00  0.00     0.145 A 
ATOM     12 CL7  CW5 d   1       3.539  -2.497  22.491  0.00  0.00    -0.082 Cl
ATOM     13  N5  CW5 d   1       6.001  -5.304  21.081  0.00  0.00    -0.251 NA
ATOM     14  C6  CW5 d   1       7.196  -5.030  21.633  0.00  0.00     0.029 A 
ATOM     15  H15 CW5 d   1       8.064  -5.631  21.388  0.00  0.00     0.118 H 
BRANCH  11  16
ATOM     16  C8  CW5 d   1       3.689  -4.943  20.524  0.00  0.00     0.274 C 
ATOM     17  O9  CW5 d   1       2.832  -5.655  21.042  0.00  0.00    -0.266 OA
ATOM     18  N10 CW5 d   1       3.625  -4.521  19.227  0.00  0.00    -0.347 N 
ATOM     19  C29 CW5 d   1       2.510  -4.923  18.370  0.00  0.00    -0.002 C 
ATOM     20  C32 CW5 d   1       4.647  -3.688  18.578  0.00  0.00    -0.002 C 
ATOM     21  C30 CW5 d   1       3.240  -4.883  16.996  0.00  0.00    -0.049 C 
ATOM     22  H11 CW5 d   1       2.143  -5.931  18.614  0.00  0.00     0.064 H 
ATOM     23  H12 CW5 d   1       1.675  -4.208  18.416  0.00  0.00     0.064 H 
ATOM     24  C31 CW5 d   1       4.158  -3.639  17.102  0.00  0.00    -0.049 C 
ATOM     25  H13 CW5 d   1       2.520  -4.769  16.172  0.00  0.00     0.035 H 
ATOM     26  H14 CW5 d   1       3.833  -5.796  16.841  0.00  0.00     0.035 H 
ATOM     27  H18 CW5 d   1       3.596  -2.715  16.903  0.00  0.00     0.035 H 
ATOM     28  H19 CW5 d   1       5.004  -3.712  16.403  0.00  0.00     0.035 H 
ATOM     29  H20 CW5 d   1       5.642  -4.151  18.651  0.00  0.00     0.064 H 
ATOM     30  H21 CW5 d   1       4.678  -2.681  19.020  0.00  0.00     0.064 H 
ENDBRANCH  11  16
ENDBRANCH   2   7
BRANCH   3  31
ATOM     31  C12 CW5 d   1      11.075  -2.153  25.058  0.00  0.00     0.081 A 
ATOM     32  C13 CW5 d   1      12.205  -1.473  24.669  0.00  0.00     0.095 A 
ATOM     33  N17 CW5 d   1      12.783  -0.654  25.536  0.00  0.00    -0.213 N 
ATOM     34  C16 CW5 d   1      12.295  -0.433  26.741  0.00  0.00     0.154 A 
ATOM     35  N18 CW5 d   1      13.858   0.153  25.415  0.00  0.00    -0.153 NA
ATOM     36  C20 CW5 d   1      12.988   0.471  27.437  0.00  0.00     0.004 A 
ATOM     37  N14 CW5 d   1      11.114  -1.103  27.199  0.00  0.00    -0.239 NA
ATOM     38  C19 CW5 d   1      14.015   0.848  26.456  0.00  0.00     0.150 A 
ATOM     39  H3  CW5 d   1      12.834   0.831  28.453  0.00  0.00     0.094 H 
ATOM     40 CL2  CW5 d   1      15.314   1.954  26.733  0.00  0.00    -0.060 Cl
ATOM     41  C15 CW5 d   1      10.522  -1.916  26.433  0.00  0.00     0.032 A 
ATOM     42  H2  CW5 d   1       9.625  -2.436  26.766  0.00  0.00     0.118 H 
BRANCH  32  43
ATOM     43  C22 CW5 d   1      12.902  -1.576  23.281  0.00  0.00     0.078 C 
ATOM     44  H4  CW5 d   1      13.883  -1.085  23.358  0.00  0.00     0.092 H 
BRANCH  43  45
ATOM     45  C24 CW5 d   1      12.060  -0.880  22.164  0.00  0.00    -0.047 C 
ATOM     46  H5  CW5 d   1      12.582  -0.973  21.200  0.00  0.00     0.031 H 
ATOM     47  H6  CW5 d   1      11.932   0.184  22.411  0.00  0.00     0.031 H 
ATOM     48  H7  CW5 d   1      11.073  -1.362  22.095  0.00  0.00     0.031 H 
ENDBRANCH  43  45
BRANCH  43  49
ATOM     49  O23 CW5 d   1      13.092  -2.950  22.830  0.00  0.00    -0.385 OA
BRANCH  49  50
ATOM     50  C28 CW5 d   1      13.928  -3.799  23.647  0.00  0.00     0.005 C 
ATOM     51  H8  CW5 d   1      13.986  -4.800  23.195  0.00  0.00     0.066 H 
ATOM     52  H9  CW5 d   1      13.497  -3.876  24.656  0.00  0.00     0.066 H 
ATOM     53  H10 CW5 d   1      14.938  -3.367  23.711  0.00  0.00     0.066 H 
ENDBRANCH  49  50
ENDBRANCH  43  49
ENDBRANCH  32  43
ENDBRANCH   3  31
TORSDOF 7
