REMARK  10 active torsions:
REMARK  status: ('A' for Active; 'I' for Inactive)
REMARK    1  A    between atoms: NAB_30  and  CAA_1 
REMARK    2  A    between atoms: CAD_3  and  CAC_2 
REMARK    3  A    between atoms: CAC_2  and  NAB_30 
REMARK    4  A    between atoms: NAE_31  and  CAD_3 
REMARK    5  A    between atoms: CAF_4  and  CAG_5 
REMARK    6  A    between atoms: NAE_31  and  CAF_4 
REMARK    7  A    between atoms: NAK_32  and  CAL_9 
REMARK    8  A    between atoms: NAB_30  and  CAV_19 
REMARK    9  A    between atoms: CAX_21  and  CAW_20 
REMARK       I    between atoms: CAW_20  and  NAE_31 
REMARK   10  A    between atoms: CBE_26  and  OBI_35 
ROOT
ATOM      1  CAF CWQ d   1     -41.373 -10.810  37.554  0.00  0.00     0.003 C 
ATOM      2  H8  CWQ d   1     -42.452 -10.599  37.527  0.00  0.00     0.065 H 
ATOM      3  H9  CWQ d   1     -40.820  -9.874  37.723  0.00  0.00     0.065 H 
ENDROOT
BRANCH   1   4
ATOM      4  CAG CWQ d   1     -40.994 -11.281  36.137  0.00  0.00    -0.015 C 
ATOM      5  CAH CWQ d   1     -40.014 -12.452  36.069  0.00  0.00    -0.057 C 
ATOM      6  CAI CWQ d   1     -38.882 -12.164  35.045  0.00  0.00    -0.042 C 
ATOM      7  H11 CWQ d   1     -40.556 -13.359  35.762  0.00  0.00     0.033 H 
ATOM      8  H12 CWQ d   1     -39.570 -12.609  37.063  0.00  0.00     0.033 H 
ATOM      9  CAJ CWQ d   1     -39.374 -11.483  33.754  0.00  0.00     0.084 C 
ATOM     10  H13 CWQ d   1     -38.407 -13.119  34.775  0.00  0.00     0.035 H 
ATOM     11  H14 CWQ d   1     -38.140 -11.508  35.523  0.00  0.00     0.035 H 
ATOM     12  NAK CWQ d   1     -40.197 -10.283  34.021  0.00  0.00    -0.066 N 
ATOM     13  H15 CWQ d   1     -39.978 -12.204  33.184  0.00  0.00     0.076 H 
ATOM     14  H16 CWQ d   1     -38.499 -11.184  33.158  0.00  0.00     0.076 H 
ATOM     15  CAU CWQ d   1     -40.407 -10.071  35.455  0.00  0.00     0.089 C 
ATOM     16  H37 CWQ d   1     -41.098 -10.462  33.606  0.00  0.00     0.280 HD
ATOM     17  H26 CWQ d   1     -39.439  -9.837  35.923  0.00  0.00     0.076 H 
ATOM     18  H27 CWQ d   1     -41.094  -9.222  35.589  0.00  0.00     0.076 H 
ATOM     19  H10 CWQ d   1     -41.913 -11.588  35.615  0.00  0.00     0.045 H 
BRANCH  12  20
ATOM     20  CAL CWQ d   1     -39.695  -9.036  33.426  0.00  0.00     0.111 C 
ATOM     21  CAM CWQ d   1     -40.797  -8.055  33.262  0.00  0.00    -0.013 C 
ATOM     22  CAN CWQ d   1     -40.306  -7.199  32.272  0.00  0.00    -0.050 A 
ATOM     23  H18 CWQ d   1     -40.985  -7.510  34.199  0.00  0.00     0.043 H 
ATOM     24  H19 CWQ d   1     -41.723  -8.550  32.934  0.00  0.00     0.043 H 
ATOM     25  CAO CWQ d   1     -40.602  -5.923  31.998  0.00  0.00    -0.076 A 
ATOM     26  CAS CWQ d   1     -39.409  -7.873  31.523  0.00  0.00    -0.050 A 
ATOM     27  CAP CWQ d   1     -40.015  -5.248  30.926  0.00  0.00    -0.082 A 
ATOM     28  H20 CWQ d   1     -41.316  -5.400  32.624  0.00  0.00     0.084 H 
ATOM     29  CAQ CWQ d   1     -39.089  -5.936  30.158  0.00  0.00    -0.082 A 
ATOM     30  H21 CWQ d   1     -40.275  -4.220  30.702  0.00  0.00     0.083 H 
ATOM     31  CAR CWQ d   1     -38.810  -7.259  30.497  0.00  0.00    -0.076 A 
ATOM     32  H22 CWQ d   1     -38.596  -5.459  29.318  0.00  0.00     0.083 H 
ATOM     33  H23 CWQ d   1     -38.083  -7.808  29.910  0.00  0.00     0.084 H 
ATOM     34  CAT CWQ d   1     -39.296  -9.195  32.005  0.00  0.00    -0.013 C 
ATOM     35  H24 CWQ d   1     -39.977  -9.875  31.472  0.00  0.00     0.043 H 
ATOM     36  H25 CWQ d   1     -38.264  -9.566  31.918  0.00  0.00     0.043 H 
ATOM     37  H17 CWQ d   1     -38.872  -8.640  34.039  0.00  0.00     0.085 H 
ENDBRANCH  12  20
ENDBRANCH   1   4
BRANCH   1  38
ATOM     38  NAE CWQ d   1     -41.147 -11.644  38.756  0.00  0.00    -0.345 N 
ATOM     39  CAW CWQ d   1     -42.094 -12.515  39.242  0.00  0.00     0.272 C 
ATOM     40  OAY CWQ d   1     -43.185 -12.714  38.691  0.00  0.00    -0.266 OA
BRANCH  38  41
ATOM     41  CAD CWQ d   1     -39.886 -11.336  39.443  0.00  0.00     0.021 C 
ATOM     42  H6  CWQ d   1     -39.790 -11.966  40.340  0.00  0.00     0.067 H 
ATOM     43  H7  CWQ d   1     -39.040 -11.529  38.767  0.00  0.00     0.067 H 
BRANCH  41  44
ATOM     44  CAC CWQ d   1     -39.893  -9.867  39.848  0.00  0.00     0.097 C 
ATOM     45  H4  CWQ d   1     -40.419  -9.290  39.073  0.00  0.00     0.078 H 
ATOM     46  H5  CWQ d   1     -38.853  -9.517  39.924  0.00  0.00     0.078 H 
BRANCH  44  47
ATOM     47  NAB CWQ d   1     -40.563  -9.644  41.140  0.00  0.00    -0.077 N 
ATOM     48  H36 CWQ d   1     -40.530 -10.474  41.711  0.00  0.00     0.279 HD
BRANCH  47  49
ATOM     49  CAA CWQ d   1     -39.840  -8.537  41.780  0.00  0.00     0.066 C 
ATOM     50  H1  CWQ d   1     -40.295  -8.319  42.758  0.00  0.00     0.068 H 
ATOM     51  H2  CWQ d   1     -39.898  -7.643  41.141  0.00  0.00     0.068 H 
ATOM     52  H3  CWQ d   1     -38.786  -8.820  41.921  0.00  0.00     0.068 H 
ENDBRANCH  47  49
BRANCH  47  53
ATOM     53  CAV CWQ d   1     -41.963  -9.241  40.908  0.00  0.00     0.066 C 
ATOM     54  H28 CWQ d   1     -42.462  -9.075  41.874  0.00  0.00     0.068 H 
ATOM     55  H29 CWQ d   1     -42.487 -10.036  40.357  0.00  0.00     0.068 H 
ATOM     56  H30 CWQ d   1     -41.984  -8.312  40.320  0.00  0.00     0.068 H 
ENDBRANCH  47  53
ENDBRANCH  44  47
ENDBRANCH  41  44
ENDBRANCH  38  41
BRANCH  39  57
ATOM     57  CAX CWQ d   1     -41.891 -13.129  40.485  0.00  0.00     0.125 A 
ATOM     58  CBD CWQ d   1     -42.083 -14.492  40.643  0.00  0.00    -0.049 A 
ATOM     59  CBC CWQ d   1     -41.936 -15.072  41.902  0.00  0.00    -0.068 A 
ATOM     60  H32 CWQ d   1     -42.347 -15.106  39.789  0.00  0.00     0.087 H 
ATOM     61  CBB CWQ d   1     -41.632 -14.261  42.990  0.00  0.00    -0.004 A 
ATOM     62  H31 CWQ d   1     -42.057 -16.141  42.031  0.00  0.00     0.085 H 
ATOM     63  CBA CWQ d   1     -41.472 -12.898  42.790  0.00  0.00     0.101 A 
ATOM     64  CBH CWQ d   1     -41.485 -14.804  44.265  0.00  0.00    -0.071 A 
ATOM     65  CBE CWQ d   1     -41.165 -12.078  43.865  0.00  0.00     0.095 A 
ATOM     66  NAZ CWQ d   1     -41.620 -12.378  41.571  0.00  0.00    -0.240 NA
ATOM     67  CBF CWQ d   1     -41.018 -12.620  45.140  0.00  0.00    -0.049 A 
ATOM     68  CBG CWQ d   1     -41.187 -13.988  45.346  0.00  0.00    -0.079 A 
ATOM     69  H33 CWQ d   1     -40.771 -11.975  45.975  0.00  0.00     0.087 H 
ATOM     70  H34 CWQ d   1     -41.087 -14.409  46.340  0.00  0.00     0.083 H 
ATOM     71  H35 CWQ d   1     -41.604 -15.871  44.413  0.00  0.00     0.084 H 
BRANCH  65  72
ATOM     72  OBI CWQ d   1     -41.028 -10.735  43.606  0.00  0.00    -0.358 OA
ATOM     73  H38 CWQ d   1     -41.167 -10.576  42.680  0.00  0.00     0.217 HD
ENDBRANCH  65  72
ENDBRANCH  39  57
ENDBRANCH   1  38
TORSDOF 10
