REMARK WARNING: 32 MAX_TORS EXCEEDED!!!
REMARK  64 active torsions:
REMARK  status: ('A' for Active; 'I' for Inactive)
REMARK    1  A    between atoms: N_1  and  CA_2 
REMARK    2  A    between atoms: CA_2  and  C_3 
REMARK    3  A    between atoms: CA_2  and  CB_5 
REMARK       I    between atoms: C_3  and  N_10 
REMARK    4  A    between atoms: CB_5  and  CG_6 
REMARK    5  A    between atoms: CG_6  and  CD_7 
REMARK    6  A    between atoms: N_10  and  CA_11 
REMARK    7  A    between atoms: CA_11  and  C_12 
REMARK    8  A    between atoms: CA_11  and  CB_14 
REMARK       I    between atoms: C_12  and  N_21 
REMARK    9  A    between atoms: CB_14  and  CG_15 
REMARK   10  A    between atoms: CG_15  and  CD_16 
REMARK   11  A    between atoms: CD_16  and  NE_17 
REMARK       I    between atoms: NE_17  and  CZ_18 
REMARK       I    between atoms: CZ_18  and  NH1_19 
REMARK       I    between atoms: CZ_18  and  NH2_20 
REMARK   12  A    between atoms: N_21  and  CA_22 
REMARK   13  A    between atoms: CA_22  and  C_23 
REMARK   14  A    between atoms: CA_22  and  CB_25 
REMARK       I    between atoms: C_23  and  N_32 
REMARK   15  A    between atoms: CB_25  and  CG_26 
REMARK   16  A    between atoms: CG_26  and  CD_27 
REMARK   17  A    between atoms: CD_27  and  NE_28 
REMARK       I    between atoms: NE_28  and  CZ_29 
REMARK       I    between atoms: CZ_29  and  NH1_30 
REMARK       I    between atoms: CZ_29  and  NH2_31 
REMARK   18  A    between atoms: N_32  and  CA_33 
REMARK   19  A    between atoms: CA_33  and  C_34 
REMARK   20  A    between atoms: CA_33  and  CB_36 
REMARK       I    between atoms: C_34  and  N_40 
REMARK   21  A    between atoms: CB_36  and  CG_37 
REMARK       I    between atoms: CG_37  and  ND2_39 
REMARK   22  A    between atoms: N_40  and  CA_41 
REMARK   23  A    between atoms: CA_41  and  C_42 
REMARK   24  A    between atoms: CA_41  and  CB_44 
REMARK       I    between atoms: C_42  and  N_49 
REMARK   25  A    between atoms: CB_44  and  CG_45 
REMARK   26  A    between atoms: CG_45  and  CD_46 
REMARK   27  A    between atoms: N_49  and  CA_50 
REMARK   28  A    between atoms: CA_50  and  C_51 
REMARK   29  A    between atoms: CA_50  and  CB_53 
REMARK       I    between atoms: C_51  and  N_57 
REMARK   30  A    between atoms: CB_53  and  CG_54 
REMARK   31  A    between atoms: CG_54  and  CD1_55 
REMARK   32  A    between atoms: CG_54  and  CD2_56 
REMARK   33  A    between atoms: N_57  and  CA_58 
REMARK   34  A    between atoms: CA_58  and  C_59 
REMARK   35  A    between atoms: CA_58  and  CB_61 
REMARK       I    between atoms: C_59  and  N_66 
REMARK   36  A    between atoms: CB_61  and  CG_62 
REMARK   37  A    between atoms: CG_62  and  CD_63 
REMARK       I    between atoms: CD_63  and  NE2_65 
REMARK   38  A    between atoms: N_66  and  CA_67 
REMARK   39  A    between atoms: CA_67  and  C_68 
REMARK   40  A    between atoms: CA_67  and  CB_70 
REMARK       I    between atoms: C_68  and  N_75 
REMARK   41  A    between atoms: CB_70  and  CG_71 
REMARK   42  A    between atoms: CG_71  and  CD_72 
REMARK   43  A    between atoms: CD_72  and  CE_73 
REMARK   44  A    between atoms: CE_73  and  NZ_74 
REMARK   45  A    between atoms: N_75  and  CA_76 
REMARK   46  A    between atoms: CA_76  and  C_77 
REMARK   47  A    between atoms: CA_76  and  CB_79 
REMARK       I    between atoms: C_77  and  N_84 
REMARK   48  A    between atoms: CB_79  and  CG_80 
REMARK   49  A    between atoms: CG_80  and  CD_81 
REMARK       I    between atoms: CD_81  and  NE2_83 
REMARK   50  A    between atoms: N_84  and  CA_85 
REMARK   51  A    between atoms: CA_85  and  C_86 
REMARK   52  A    between atoms: CA_85  and  CB_88 
REMARK       I    between atoms: C_86  and  N_93 
REMARK   53  A    between atoms: CB_88  and  CG_89 
REMARK   54  A    between atoms: CG_89  and  CD_90 
REMARK   55  A    between atoms: N_93  and  CA_94 
REMARK   56  A    between atoms: CA_94  and  C_95 
REMARK   57  A    between atoms: CA_94  and  CB_97 
REMARK       I    between atoms: C_95  and  N_101 
REMARK   58  A    between atoms: CB_97  and  CG_98 
REMARK       I    between atoms: CG_98  and  ND2_100 
REMARK   59  A    between atoms: N_101  and  CA_102 
REMARK   60  A    between atoms: CA_102  and  C_103 
REMARK   61  A    between atoms: CA_102  and  CB_105 
REMARK   62  A    between atoms: CB_105  and  CG_106 
REMARK   63  A    between atoms: CG_106  and  CD_107 
REMARK   64  A    between atoms: CD_107  and  NE_108 
REMARK       I    between atoms: NE_108  and  CZ_109 
REMARK       I    between atoms: CZ_109  and  NH1_110 
ROOT
ATOM      1  C   LEU d   1     -13.793 -11.717 -73.827  0.00  0.00     0.241 C 
ATOM      2  O   LEU d   1     -12.782 -12.372 -73.570  0.00  0.00    -0.271 OA
ATOM      3  N   GLN d   1     -14.131 -11.321 -75.070  0.00  0.00    -0.346 N 
ATOM      4  H58 GLN d   1     -14.990 -10.822 -75.186  0.00  0.00     0.163 HD
ENDROOT
BRANCH   1   5
ATOM      5  CA  LEU d   1     -14.731 -11.337 -72.719  0.00  0.00     0.089 C 
ATOM      6  H48 LEU d   1     -14.126 -10.986 -71.870  0.00  0.00     0.087 H 
BRANCH   5   7
ATOM      7  N   LEU d   1     -15.620 -10.261 -73.104  0.00  0.00    -0.346 N 
ATOM      8  C   GLU d   1     -15.267  -8.960 -73.209  0.00  0.00     0.241 C 
ATOM      9  O   GLU d   1     -14.115  -8.553 -73.009  0.00  0.00    -0.271 OA
ATOM     10  H47 LEU d   1     -16.570 -10.499 -73.308  0.00  0.00     0.163 HD
BRANCH   8  11
ATOM     11  CA  GLU d   1     -16.399  -7.975 -73.620  0.00  0.00     0.090 C 
ATOM     12  H42 GLU d   1     -15.969  -7.159 -74.219  0.00  0.00     0.087 H 
BRANCH  11  13
ATOM     13  N   GLU d   1     -17.429  -8.671 -74.400  0.00  0.00    -0.346 N 
ATOM     14  C   ASN d   1     -17.195  -9.364 -75.523  0.00  0.00     0.241 C 
ATOM     15  O   ASN d   1     -16.086  -9.431 -76.042  0.00  0.00    -0.271 OA
ATOM     16  H41 GLU d   1     -18.372  -8.625 -74.070  0.00  0.00     0.163 HD
BRANCH  14  17
ATOM     17  CA  ASN d   1     -18.395 -10.047 -76.195  0.00  0.00     0.097 C 
ATOM     18  H36 ASN d   1     -19.325  -9.775 -75.674  0.00  0.00     0.088 H 
BRANCH  17  19
ATOM     19  N   ASN d   1     -18.417  -9.540 -77.530  0.00  0.00    -0.346 N 
ATOM     20  C   ARG d   1     -18.934  -8.337 -77.787  0.00  0.00     0.241 C 
ATOM     21  O   ARG d   1     -19.510  -7.640 -76.930  0.00  0.00    -0.271 OA
ATOM     22  H35 ASN d   1     -18.043 -10.090 -78.277  0.00  0.00     0.163 HD
BRANCH  20  23
ATOM     23  CA  ARG d   1     -18.769  -7.848 -79.228  0.00  0.00     0.089 C 
ATOM     24  H23 ARG d   1     -19.284  -8.553 -79.897  0.00  0.00     0.087 H 
BRANCH  23  25
ATOM     25  N   ARG d   1     -19.400  -6.537 -79.373  0.00  0.00    -0.346 N 
ATOM     26  C   ARG d   1     -19.524  -5.839 -80.522  0.00  0.00     0.241 C 
ATOM     27  O   ARG d   1     -19.088  -6.242 -81.616  0.00  0.00    -0.271 OA
ATOM     28  H22 ARG d   1     -19.774  -6.119 -78.545  0.00  0.00     0.163 HD
BRANCH  26  29
ATOM     29  CA  ARG d   1     -20.282  -4.487 -80.414  0.00  0.00     0.089 C 
ATOM     30  H10 ARG d   1     -20.172  -4.127 -79.380  0.00  0.00     0.087 H 
BRANCH  29  31
ATOM     31  N   ARG d   1     -19.719  -3.452 -81.296  0.00  0.00    -0.346 N 
ATOM     32  C   GLU d   1     -18.502  -2.884 -81.165  0.00  0.00     0.249 C 
ATOM     33  O   GLU d   1     -17.722  -3.155 -80.249  0.00  0.00    -0.271 OA
ATOM     34  H9  ARG d   1     -20.288  -3.143 -82.058  0.00  0.00     0.163 HD
BRANCH  32  35
ATOM     35  CA  GLU d   1     -18.105  -1.845 -82.228  0.00  0.00     0.176 C 
ATOM     36  H4  GLU d   1     -17.031  -1.642 -82.101  0.00  0.00     0.099 H 
BRANCH  35  37
ATOM     37  N   GLU d   1     -18.294  -2.338 -83.599  0.00  0.00    -0.066 N 
ATOM     38  H1  GLU d   1     -18.020  -1.622 -84.254  0.00  0.00     0.275 HD
ATOM     39  H2  GLU d   1     -19.264  -2.571 -83.742  0.00  0.00     0.275 HD
ATOM     40  H3  GLU d   1     -17.727  -3.159 -83.742  0.00  0.00     0.275 HD
ENDBRANCH  35  37
BRANCH  35  41
ATOM     41  CB  GLU d   1     -18.858  -0.520 -82.002  0.00  0.00    -0.021 C 
ATOM     42  H5  GLU d   1     -19.560  -0.657 -81.166  0.00  0.00     0.037 H 
ATOM     43  H6  GLU d   1     -19.419  -0.278 -82.917  0.00  0.00     0.037 H 
BRANCH  41  44
ATOM     44  CG  GLU d   1     -17.945   0.649 -81.676  0.00  0.00     0.018 C 
ATOM     45  H7  GLU d   1     -17.315   0.853 -82.555  0.00  0.00     0.049 H 
ATOM     46  H8  GLU d   1     -17.307   0.365 -80.826  0.00  0.00     0.049 H 
BRANCH  44  47
ATOM     47  CD  GLU d   1     -18.689   1.922 -81.313  0.00  0.00     0.172 C 
ATOM     48  OE1 GLU d   1     -19.583   1.828 -80.439  0.00  0.00    -0.648 OA
ATOM     49  OE2 GLU d   1     -18.396   3.000 -81.894  0.00  0.00    -0.648 OA
ENDBRANCH  44  47
ENDBRANCH  41  44
ENDBRANCH  35  41
ENDBRANCH  32  35
ENDBRANCH  29  31
BRANCH  29  50
ATOM     50  CB  ARG d   1     -21.798  -4.708 -80.679  0.00  0.00    -0.036 C 
ATOM     51  H11 ARG d   1     -22.297  -3.728 -80.691  0.00  0.00     0.036 H 
ATOM     52  H12 ARG d   1     -22.210  -5.319 -79.863  0.00  0.00     0.036 H 
BRANCH  50  53
ATOM     53  CG  ARG d   1     -22.082  -5.415 -82.007  0.00  0.00    -0.048 C 
ATOM     54  H13 ARG d   1     -21.420  -6.291 -82.080  0.00  0.00     0.035 H 
ATOM     55  H14 ARG d   1     -21.856  -4.716 -82.825  0.00  0.00     0.035 H 
BRANCH  53  56
ATOM     56  CD  ARG d   1     -23.494  -5.880 -82.165  0.00  0.00     0.009 C 
ATOM     57  H15 ARG d   1     -24.132  -5.025 -82.434  0.00  0.00     0.064 H 
ATOM     58  H16 ARG d   1     -23.844  -6.315 -81.217  0.00  0.00     0.064 H 
BRANCH  56  59
ATOM     59  NE  ARG d   1     -23.567  -6.892 -83.220  0.00  0.00    -0.227 N 
ATOM     60  CZ  ARG d   1     -23.678  -6.645 -84.529  0.00  0.00     0.665 C 
ATOM     61  NH1 ARG d   1     -23.745  -7.642 -85.394  0.00  0.00    -0.235 N 
ATOM     62  NH2 ARG d   1     -23.723  -5.397 -84.977  0.00  0.00    -0.235 N 
ATOM     63  H18 ARG d   1     -23.831  -7.445 -86.401  0.00  0.00     0.174 HD
ATOM     64  H19 ARG d   1     -23.712  -8.616 -85.061  0.00  0.00     0.174 HD
ATOM     65  H20 ARG d   1     -23.672  -4.610 -84.315  0.00  0.00     0.174 HD
ATOM     66  H21 ARG d   1     -23.809  -5.215 -85.987  0.00  0.00     0.174 HD
ATOM     67  H17 ARG d   1     -23.530  -7.879 -82.929  0.00  0.00     0.177 HD
ENDBRANCH  56  59
ENDBRANCH  53  56
ENDBRANCH  50  53
ENDBRANCH  29  50
ENDBRANCH  26  29
ENDBRANCH  23  25
BRANCH  23  68
ATOM     68  CB  ARG d   1     -17.261  -7.821 -79.625  0.00  0.00    -0.036 C 
ATOM     69  H24 ARG d   1     -17.193  -7.862 -80.722  0.00  0.00     0.036 H 
ATOM     70  H25 ARG d   1     -16.776  -8.709 -79.194  0.00  0.00     0.036 H 
BRANCH  68  71
ATOM     71  CG  ARG d   1     -16.503  -6.580 -79.144  0.00  0.00    -0.048 C 
ATOM     72  H26 ARG d   1     -16.831  -6.359 -78.118  0.00  0.00     0.035 H 
ATOM     73  H27 ARG d   1     -16.771  -5.742 -79.804  0.00  0.00     0.035 H 
BRANCH  71  74
ATOM     74  CD  ARG d   1     -14.985  -6.705 -79.136  0.00  0.00     0.009 C 
ATOM     75  H28 ARG d   1     -14.548  -5.789 -79.561  0.00  0.00     0.064 H 
ATOM     76  H29 ARG d   1     -14.694  -7.569 -79.751  0.00  0.00     0.064 H 
BRANCH  74  77
ATOM     77  NE  ARG d   1     -14.467  -6.893 -77.769  0.00  0.00    -0.227 N 
ATOM     78  CZ  ARG d   1     -14.394  -5.952 -76.820  0.00  0.00     0.665 C 
ATOM     79  NH1 ARG d   1     -14.804  -4.709 -77.069  0.00  0.00    -0.235 N 
ATOM     80  NH2 ARG d   1     -13.892  -6.239 -75.627  0.00  0.00    -0.235 N 
ATOM     81  H31 ARG d   1     -14.745  -3.990 -76.334  0.00  0.00     0.174 HD
ATOM     82  H32 ARG d   1     -15.180  -4.467 -77.997  0.00  0.00     0.174 HD
ATOM     83  H33 ARG d   1     -13.571  -7.196 -75.420  0.00  0.00     0.174 HD
ATOM     84  H34 ARG d   1     -13.823  -5.505 -74.907  0.00  0.00     0.174 HD
ATOM     85  H30 ARG d   1     -14.130  -7.835 -77.521  0.00  0.00     0.177 HD
ENDBRANCH  74  77
ENDBRANCH  71  74
ENDBRANCH  68  71
ENDBRANCH  23  68
ENDBRANCH  20  23
ENDBRANCH  17  19
BRANCH  17  86
ATOM     86  CB  ASN d   1     -18.245 -11.562 -76.173  0.00  0.00     0.036 C 
ATOM     87  H37 ASN d   1     -17.191 -11.817 -76.358  0.00  0.00     0.051 H 
ATOM     88  H38 ASN d   1     -18.872 -11.993 -76.968  0.00  0.00     0.051 H 
BRANCH  86  89
ATOM     89  CG  ASN d   1     -18.662 -12.149 -74.855  0.00  0.00     0.217 C 
ATOM     90  OD1 ASN d   1     -18.625 -11.495 -73.794  0.00  0.00    -0.274 OA
ATOM     91  ND2 ASN d   1     -19.097 -13.382 -74.890  0.00  0.00    -0.370 N 
ATOM     92  H39 ASN d   1     -19.391 -13.833 -74.047  0.00  0.00     0.159 HD
ATOM     93  H40 ASN d   1     -19.136 -13.874 -75.760  0.00  0.00     0.159 HD
ENDBRANCH  86  89
ENDBRANCH  17  86
ENDBRANCH  14  17
ENDBRANCH  11  13
BRANCH  11  94
ATOM     94  CB  GLU d   1     -17.069  -7.405 -72.378  0.00  0.00    -0.029 C 
ATOM     95  H43 GLU d   1     -17.212  -8.226 -71.659  0.00  0.00     0.037 H 
ATOM     96  H44 GLU d   1     -18.048  -7.000 -72.673  0.00  0.00     0.037 H 
BRANCH  94  97
ATOM     97  CG  GLU d   1     -16.300  -6.314 -71.693  0.00  0.00     0.018 C 
ATOM     98  H45 GLU d   1     -16.094  -5.526 -72.432  0.00  0.00     0.049 H 
ATOM     99  H46 GLU d   1     -15.350  -6.739 -71.335  0.00  0.00     0.049 H 
BRANCH  97 100
ATOM    100  CD  GLU d   1     -17.006  -5.677 -70.510  0.00  0.00     0.172 C 
ATOM    101  OE1 GLU d   1     -17.949  -6.281 -69.939  0.00  0.00    -0.648 OA
ATOM    102  OE2 GLU d   1     -16.576  -4.564 -70.133  0.00  0.00    -0.648 OA
ENDBRANCH  97 100
ENDBRANCH  94  97
ENDBRANCH  11  94
ENDBRANCH   8  11
ENDBRANCH   5   7
BRANCH   5 103
ATOM    103  CB  LEU d   1     -15.533 -12.561 -72.263  0.00  0.00    -0.035 C 
ATOM    104  H49 LEU d   1     -14.830 -13.401 -72.164  0.00  0.00     0.037 H 
ATOM    105  H50 LEU d   1     -16.268 -12.789 -73.049  0.00  0.00     0.037 H 
BRANCH 103 106
ATOM    106  CG  LEU d   1     -16.297 -12.438 -70.937  0.00  0.00    -0.059 C 
ATOM    107  H51 LEU d   1     -17.067 -11.660 -71.048  0.00  0.00     0.038 H 
BRANCH 106 108
ATOM    108  CD1 LEU d   1     -16.967 -13.750 -70.586  0.00  0.00    -0.073 C 
ATOM    109  H52 LEU d   1     -17.508 -13.642 -69.635  0.00  0.00     0.028 H 
ATOM    110  H53 LEU d   1     -16.204 -14.536 -70.487  0.00  0.00     0.028 H 
ATOM    111  H54 LEU d   1     -17.675 -14.024 -71.382  0.00  0.00     0.028 H 
ENDBRANCH 106 108
BRANCH 106 112
ATOM    112  CD2 LEU d   1     -15.379 -12.056 -69.816  0.00  0.00    -0.073 C 
ATOM    113  H55 LEU d   1     -14.884 -11.104 -70.056  0.00  0.00     0.028 H 
ATOM    114  H56 LEU d   1     -14.620 -12.840 -69.681  0.00  0.00     0.028 H 
ATOM    115  H57 LEU d   1     -15.960 -11.944 -68.888  0.00  0.00     0.028 H 
ENDBRANCH 106 112
ENDBRANCH 103 106
ENDBRANCH   5 103
ENDBRANCH   1   5
BRANCH   3 116
ATOM    116  CA  GLN d   1     -13.325 -11.575 -76.250  0.00  0.00     0.090 C 
ATOM    117  H59 GLN d   1     -12.925 -12.596 -76.163  0.00  0.00     0.087 H 
BRANCH 116 118
ATOM    118  C   GLN d   1     -12.118 -10.619 -76.339  0.00  0.00     0.241 C 
ATOM    119  O   GLN d   1     -12.266  -9.392 -76.477  0.00  0.00    -0.271 OA
ATOM    120  N   LYS d   1     -10.918 -11.223 -76.237  0.00  0.00    -0.346 N 
ATOM    121  H66 LYS d   1     -10.917 -12.217 -76.128  0.00  0.00     0.163 HD
BRANCH 120 122
ATOM    122  CA  LYS d   1      -9.614 -10.554 -76.272  0.00  0.00     0.089 C 
ATOM    123  H67 LYS d   1      -9.766  -9.465 -76.258  0.00  0.00     0.087 H 
BRANCH 122 124
ATOM    124  C   LYS d   1      -8.920 -10.942 -77.564  0.00  0.00     0.241 C 
ATOM    125  O   LYS d   1      -8.781 -12.138 -77.829  0.00  0.00    -0.271 OA
ATOM    126  N   GLN d   1      -8.509  -9.941 -78.380  0.00  0.00    -0.346 N 
ATOM    127  H79 GLN d   1      -8.641  -9.000 -78.068  0.00  0.00     0.163 HD
BRANCH 126 128
ATOM    128  CA  GLN d   1      -7.879 -10.147 -79.700  0.00  0.00     0.090 C 
ATOM    129  H80 GLN d   1      -8.619 -10.687 -80.309  0.00  0.00     0.087 H 
BRANCH 128 130
ATOM    130  C   GLN d   1      -6.606 -11.037 -79.678  0.00  0.00     0.241 C 
ATOM    131  O   GLN d   1      -6.378 -11.808 -80.617  0.00  0.00    -0.271 OA
ATOM    132  N   GLU d   1      -5.824 -10.955 -78.598  0.00  0.00    -0.346 N 
ATOM    133  H87 GLU d   1      -6.101 -10.316 -77.880  0.00  0.00     0.163 HD
BRANCH 132 134
ATOM    134  CA  GLU d   1      -4.597 -11.720 -78.376  0.00  0.00     0.090 C 
ATOM    135  H88 GLU d   1      -3.965 -11.606 -79.269  0.00  0.00     0.087 H 
BRANCH 134 136
ATOM    136  C   GLU d   1      -4.855 -13.231 -78.180  0.00  0.00     0.241 C 
ATOM    137  O   GLU d   1      -3.902 -14.015 -78.198  0.00  0.00    -0.271 OA
ATOM    138  N   ASN d   1      -6.131 -13.627 -77.958  0.00  0.00    -0.346 N 
ATOM    139  H93 ASN d   1      -6.843 -12.926 -77.981  0.00  0.00     0.163 HD
BRANCH 138 140
ATOM    140  CA  ASN d   1      -6.548 -15.013 -77.685  0.00  0.00     0.097 C 
ATOM    141  H94 ASN d   1      -5.646 -15.588 -77.429  0.00  0.00     0.088 H 
BRANCH 140 142
ATOM    142  C   ASN d   1      -7.193 -15.686 -78.897  0.00  0.00     0.241 C 
ATOM    143  O   ASN d   1      -8.354 -16.097 -78.831  0.00  0.00    -0.271 OA
ATOM    144  N   ARG d   1      -6.434 -15.803 -80.001  0.00  0.00    -0.345 N 
ATOM    145  H99 ARG d   1      -5.492 -15.469 -79.958  0.00  0.00     0.163 HD
BRANCH 144 146
ATOM    146  CA  ARG d   1      -6.899 -16.392 -81.271  0.00  0.00     0.096 C 
ATOM    147 0H10 ARG d   1      -7.925 -16.756 -81.116  0.00  0.00     0.089 H 
BRANCH 146 148
ATOM    148  C   ARG d   1      -6.038 -17.576 -81.688  0.00  0.00     0.196 C 
ATOM    149  O   ARG d   1      -4.829 -17.549 -81.484  0.00  0.00    -0.646 OA
ATOM    150  OXT ARG d   1      -6.560 -18.547 -82.225  0.00  0.00    -0.646 OA
ENDBRANCH 146 148
BRANCH 146 151
ATOM    151  CB  ARG d   1      -6.930 -15.342 -82.397  0.00  0.00    -0.035 C 
ATOM    152 1H10 ARG d   1      -7.168 -15.855 -83.341  0.00  0.00     0.036 H 
ATOM    153 2H10 ARG d   1      -5.932 -14.885 -82.470  0.00  0.00     0.036 H 
BRANCH 151 154
ATOM    154  CG  ARG d   1      -7.947 -14.235 -82.186  0.00  0.00    -0.047 C 
ATOM    155 3H10 ARG d   1      -7.622 -13.603 -81.346  0.00  0.00     0.035 H 
ATOM    156 4H10 ARG d   1      -8.924 -14.683 -81.952  0.00  0.00     0.035 H 
BRANCH 154 157
ATOM    157  CD  ARG d   1      -8.079 -13.384 -83.420  0.00  0.00     0.009 C 
ATOM    158 5H10 ARG d   1      -8.572 -13.968 -84.211  0.00  0.00     0.064 H 
ATOM    159 6H10 ARG d   1      -7.077 -13.081 -83.759  0.00  0.00     0.064 H 
BRANCH 157 160
ATOM    160  NE  ARG d   1      -8.869 -12.194 -83.142  0.00  0.00    -0.227 N 
ATOM    161  CZ  ARG d   1      -9.223 -11.301 -84.057  0.00  0.00     0.665 C 
ATOM    162  NH1 ARG d   1      -8.865 -11.462 -85.327  0.00  0.00    -0.235 N 
ATOM    163  NH2 ARG d   1      -9.943 -10.242 -83.714  0.00  0.00    -0.235 N 
ATOM    164 8H10 ARG d   1      -9.143 -10.765 -86.033  0.00  0.00     0.174 HD
ATOM    165 9H10 ARG d   1      -8.310 -12.284 -85.605  0.00  0.00     0.174 HD
ATOM    166 0H11 ARG d   1     -10.226 -10.107 -82.733  0.00  0.00     0.174 HD
ATOM    167 1H11 ARG d   1     -10.220  -9.554 -84.429  0.00  0.00     0.174 HD
ATOM    168 7H10 ARG d   1      -9.173 -12.034 -82.171  0.00  0.00     0.177 HD
ENDBRANCH 157 160
ENDBRANCH 154 157
ENDBRANCH 151 154
ENDBRANCH 146 151
ENDBRANCH 144 146
ENDBRANCH 140 142
BRANCH 140 169
ATOM    169  CB  ASN d   1      -7.496 -15.050 -76.473  0.00  0.00     0.036 C 
ATOM    170  H95 ASN d   1      -7.920 -16.063 -76.405  0.00  0.00     0.051 H 
ATOM    171  H96 ASN d   1      -8.304 -14.326 -76.652  0.00  0.00     0.051 H 
BRANCH 169 172
ATOM    172  CG  ASN d   1      -6.866 -14.722 -75.151  0.00  0.00     0.217 C 
ATOM    173  OD1 ASN d   1      -5.838 -14.043 -75.052  0.00  0.00    -0.274 OA
ATOM    174  ND2 ASN d   1      -7.487 -15.201 -74.095  0.00  0.00    -0.370 N 
ATOM    175  H97 ASN d   1      -7.126 -15.024 -73.179  0.00  0.00     0.159 HD
ATOM    176  H98 ASN d   1      -8.320 -15.743 -74.208  0.00  0.00     0.159 HD
ENDBRANCH 169 172
ENDBRANCH 140 169
ENDBRANCH 138 140
ENDBRANCH 134 136
BRANCH 134 177
ATOM    177  CB  GLU d   1      -3.832 -11.132 -77.164  0.00  0.00    -0.029 C 
ATOM    178  H89 GLU d   1      -3.474 -10.130 -77.442  0.00  0.00     0.037 H 
ATOM    179  H90 GLU d   1      -2.971 -11.784 -76.957  0.00  0.00     0.037 H 
BRANCH 177 180
ATOM    180  CG  GLU d   1      -4.646 -11.002 -75.874  0.00  0.00     0.018 C 
ATOM    181  H91 GLU d   1      -3.973 -11.238 -75.037  0.00  0.00     0.049 H 
ATOM    182  H92 GLU d   1      -5.452 -11.749 -75.919  0.00  0.00     0.049 H 
BRANCH 180 183
ATOM    183  CD  GLU d   1      -5.290  -9.658 -75.572  0.00  0.00     0.172 C 
ATOM    184  OE1 GLU d   1      -5.763  -8.993 -76.522  0.00  0.00    -0.648 OA
ATOM    185  OE2 GLU d   1      -5.341  -9.274 -74.380  0.00  0.00    -0.648 OA
ENDBRANCH 180 183
ENDBRANCH 177 180
ENDBRANCH 134 177
ENDBRANCH 132 134
ENDBRANCH 128 130
BRANCH 128 186
ATOM    186  CB  GLN d   1      -7.607  -8.809 -80.415  0.00  0.00    -0.030 C 
ATOM    187  H81 GLN d   1      -8.576  -8.342 -80.643  0.00  0.00     0.037 H 
ATOM    188  H82 GLN d   1      -7.075  -9.026 -81.353  0.00  0.00     0.037 H 
BRANCH 186 189
ATOM    189  CG  GLN d   1      -6.770  -7.801 -79.618  0.00  0.00     0.011 C 
ATOM    190  H83 GLN d   1      -5.872  -8.304 -79.231  0.00  0.00     0.047 H 
ATOM    191  H84 GLN d   1      -7.368  -7.420 -78.777  0.00  0.00     0.047 H 
BRANCH 189 192
ATOM    192  CD  GLN d   1      -6.354  -6.651 -80.487  0.00  0.00     0.215 C 
ATOM    193  OE1 GLN d   1      -5.778  -6.826 -81.566  0.00  0.00    -0.274 OA
ATOM    194  NE2 GLN d   1      -6.638  -5.443 -80.037  0.00  0.00    -0.370 N 
ATOM    195  H85 GLN d   1      -6.385  -4.638 -80.573  0.00  0.00     0.159 HD
ATOM    196  H86 GLN d   1      -7.106  -5.333 -79.160  0.00  0.00     0.159 HD
ENDBRANCH 189 192
ENDBRANCH 186 189
ENDBRANCH 128 186
ENDBRANCH 126 128
ENDBRANCH 122 124
BRANCH 122 197
ATOM    197  CB  LYS d   1      -8.761 -10.950 -75.036  0.00  0.00    -0.038 C 
ATOM    198  H68 LYS d   1      -7.880 -10.291 -75.003  0.00  0.00     0.036 H 
ATOM    199  H69 LYS d   1      -8.435 -11.992 -75.165  0.00  0.00     0.036 H 
BRANCH 197 200
ATOM    200  CG  LYS d   1      -9.492 -10.841 -73.685  0.00  0.00    -0.061 C 
ATOM    201  H70 LYS d   1      -8.988 -11.500 -72.963  0.00  0.00     0.033 H 
ATOM    202  H71 LYS d   1     -10.530 -11.176 -73.824  0.00  0.00     0.033 H 
BRANCH 200 203
ATOM    203  CD  LYS d   1      -9.515  -9.428 -73.112  0.00  0.00    -0.043 C 
ATOM    204  H72 LYS d   1      -9.511  -8.710 -73.945  0.00  0.00     0.035 H 
ATOM    205  H73 LYS d   1      -8.614  -9.282 -72.499  0.00  0.00     0.035 H 
BRANCH 203 206
ATOM    206  CE  LYS d   1     -10.738  -9.165 -72.249  0.00  0.00     0.080 C 
ATOM    207  H74 LYS d   1     -11.452  -9.991 -72.383  0.00  0.00     0.075 H 
ATOM    208  H75 LYS d   1     -11.204  -8.222 -72.570  0.00  0.00     0.075 H 
BRANCH 206 209
ATOM    209  NZ  LYS d   1     -10.385  -9.062 -70.806  0.00  0.00    -0.079 N 
ATOM    210  H76 LYS d   1     -11.219  -8.888 -70.268  0.00  0.00     0.274 HD
ATOM    211  H77 LYS d   1      -9.735  -8.304 -70.672  0.00  0.00     0.274 HD
ATOM    212  H78 LYS d   1      -9.962  -9.925 -70.501  0.00  0.00     0.274 HD
ENDBRANCH 206 209
ENDBRANCH 203 206
ENDBRANCH 200 203
ENDBRANCH 197 200
ENDBRANCH 122 197
ENDBRANCH 120 122
ENDBRANCH 116 118
BRANCH 116 213
ATOM    213  CB  GLN d   1     -14.188 -11.528 -77.503  0.00  0.00    -0.030 C 
ATOM    214  H60 GLN d   1     -14.503 -10.487 -77.669  0.00  0.00     0.037 H 
ATOM    215  H61 GLN d   1     -15.075 -12.157 -77.338  0.00  0.00     0.037 H 
BRANCH 213 216
ATOM    216  CG  GLN d   1     -13.478 -12.019 -78.751  0.00  0.00     0.011 C 
ATOM    217  H62 GLN d   1     -12.797 -12.839 -78.478  0.00  0.00     0.047 H 
ATOM    218  H63 GLN d   1     -12.899 -11.190 -79.185  0.00  0.00     0.047 H 
BRANCH 216 219
ATOM    219  CD  GLN d   1     -14.453 -12.512 -79.761  0.00  0.00     0.215 C 
ATOM    220  OE1 GLN d   1     -15.652 -12.212 -79.685  0.00  0.00    -0.274 OA
ATOM    221  NE2 GLN d   1     -13.951 -13.272 -80.736  0.00  0.00    -0.370 N 
ATOM    222  H64 GLN d   1     -14.553 -13.636 -81.447  0.00  0.00     0.159 HD
ATOM    223  H65 GLN d   1     -12.973 -13.478 -80.756  0.00  0.00     0.159 HD
ENDBRANCH 216 219
ENDBRANCH 213 216
ENDBRANCH 116 213
ENDBRANCH   3 116
TORSDOF 64
