REMARK WARNING: 32 MAX_TORS EXCEEDED!!!
REMARK  43 active torsions:
REMARK  status: ('A' for Active; 'I' for Inactive)
REMARK    1  A    between atoms: CA_2  and  C_3 
REMARK       I    between atoms: C_3  and  N_8 
REMARK    2  A    between atoms: N_8  and  CA_9 
REMARK    3  A    between atoms: CA_9  and  C_10 
REMARK    4  A    between atoms: CA_9  and  CB_12 
REMARK       I    between atoms: C_10  and  N_17 
REMARK    5  A    between atoms: CB_12  and  CG_13 
REMARK    6  A    between atoms: CG_13  and  CD_14 
REMARK    7  A    between atoms: N_17  and  CA_18 
REMARK    8  A    between atoms: CA_18  and  C_19 
REMARK    9  A    between atoms: CA_18  and  CB_21 
REMARK       I    between atoms: C_19  and  N_26 
REMARK   10  A    between atoms: CB_21  and  CG_22 
REMARK   11  A    between atoms: CG_22  and  CD_23 
REMARK       I    between atoms: CD_23  and  NE2_25 
REMARK   12  A    between atoms: N_26  and  CA_27 
REMARK   13  A    between atoms: CA_27  and  C_28 
REMARK   14  A    between atoms: CA_27  and  CB_30 
REMARK       I    between atoms: C_28  and  N_34 
REMARK   15  A    between atoms: CB_30  and  CG_31 
REMARK   16  A    between atoms: N_34  and  CA_35 
REMARK   17  A    between atoms: CA_35  and  C_36 
REMARK   18  A    between atoms: CA_35  and  CB_38 
REMARK       I    between atoms: C_36  and  N_40 
REMARK   19  A    between atoms: CB_38  and  OG_39 
REMARK   20  A    between atoms: N_40  and  CA_41 
REMARK   21  A    between atoms: CA_41  and  C_42 
REMARK   22  A    between atoms: CA_41  and  CB_44 
REMARK       I    between atoms: C_42  and  N_45 
REMARK   23  A    between atoms: N_45  and  CA_46 
REMARK   24  A    between atoms: CA_46  and  C_47 
REMARK   25  A    between atoms: CA_46  and  CB_49 
REMARK       I    between atoms: C_47  and  N_52 
REMARK   26  A    between atoms: CB_49  and  CG1_50 
REMARK   27  A    between atoms: CB_49  and  CG2_51 
REMARK   28  A    between atoms: N_52  and  CA_53 
REMARK   29  A    between atoms: CA_53  and  C_54 
REMARK   30  A    between atoms: CA_53  and  CB_56 
REMARK       I    between atoms: C_54  and  N_59 
REMARK   31  A    between atoms: CB_56  and  OG1_57 
REMARK   32  A    between atoms: CB_56  and  CG2_58 
REMARK   33  A    between atoms: N_59  and  CA_60 
REMARK   34  A    between atoms: CA_60  and  C_61 
REMARK   35  A    between atoms: CA_60  and  CB_63 
REMARK       I    between atoms: C_61  and  N_65 
REMARK   36  A    between atoms: CB_63  and  OG_64 
REMARK   37  A    between atoms: N_65  and  CA_66 
REMARK   38  A    between atoms: CA_66  and  C_67 
REMARK       I    between atoms: C_67  and  N_69 
REMARK   39  A    between atoms: N_69  and  CA_70 
REMARK   40  A    between atoms: CA_70  and  C_71 
REMARK   41  A    between atoms: CA_70  and  CB_73 
REMARK   42  A    between atoms: CB_73  and  CG_74 
REMARK   43  A    between atoms: CG_74  and  CD_75 
ROOT
ATOM      1  C   SER d   1      -2.401 -19.987 -19.131  0.00  0.00     0.243 C 
ATOM      2  O   SER d   1      -3.249 -19.314 -18.579  0.00  0.00    -0.271 OA
ATOM      3  N   ALA d   1      -2.230 -21.276 -18.851  0.00  0.00    -0.346 N 
ATOM      4  H33 ALA d   1      -1.515 -21.791 -19.325  0.00  0.00     0.163 HD
ENDROOT
BRANCH   3   5
ATOM      5  CA  ALA d   1      -3.067 -21.954 -17.864  0.00  0.00     0.086 C 
ATOM      6  H34 ALA d   1      -4.123 -21.764 -18.107  0.00  0.00     0.086 H 
BRANCH   5   7
ATOM      7  C   ALA d   1      -2.781 -21.374 -16.430  0.00  0.00     0.240 C 
ATOM      8  O   ALA d   1      -1.622 -21.152 -16.038  0.00  0.00    -0.271 OA
ATOM      9  N   VAL d   1      -3.861 -21.077 -15.709  0.00  0.00    -0.346 N 
ATOM     10  H38 VAL d   1      -4.764 -21.228 -16.112  0.00  0.00     0.163 HD
BRANCH   9  11
ATOM     11  CA  VAL d   1      -3.779 -20.547 -14.371  0.00  0.00     0.092 C 
ATOM     12  H39 VAL d   1      -2.749 -20.211 -14.183  0.00  0.00     0.088 H 
BRANCH  11  13
ATOM     13  C   VAL d   1      -4.140 -21.628 -13.396  0.00  0.00     0.241 C 
ATOM     14  O   VAL d   1      -5.191 -22.246 -13.515  0.00  0.00    -0.271 OA
ATOM     15  N   THR d   1      -3.268 -21.785 -12.407  0.00  0.00    -0.344 N 
ATOM     16  H47 THR d   1      -2.425 -21.248 -12.434  0.00  0.00     0.163 HD
BRANCH  15  17
ATOM     17  CA  THR d   1      -3.463 -22.678 -11.304  0.00  0.00     0.113 C 
ATOM     18  H48 THR d   1      -4.527 -22.953 -11.258  0.00  0.00     0.091 H 
BRANCH  17  19
ATOM     19  C   THR d   1      -3.062 -22.019  -9.989  0.00  0.00     0.243 C 
ATOM     20  O   THR d   1      -2.359 -20.966  -9.970  0.00  0.00    -0.271 OA
ATOM     21  N   SER d   1      -3.557 -22.628  -8.902  0.00  0.00    -0.344 N 
ATOM     22  H54 SER d   1      -4.205 -23.377  -9.037  0.00  0.00     0.163 HD
BRANCH  21  23
ATOM     23  CA  SER d   1      -3.204 -22.261  -7.523  0.00  0.00     0.109 C 
ATOM     24  H55 SER d   1      -2.900 -21.204  -7.503  0.00  0.00     0.090 H 
BRANCH  23  25
ATOM     25  C   SER d   1      -2.041 -23.117  -7.054  0.00  0.00     0.242 C 
ATOM     26  O   SER d   1      -1.634 -24.073  -7.725  0.00  0.00    -0.271 OA
ATOM     27  N   GLY d   1      -1.487 -22.766  -5.909  0.00  0.00    -0.350 N 
ATOM     28  H59 GLY d   1      -1.960 -22.113  -5.318  0.00  0.00     0.163 HD
BRANCH  27  29
ATOM     29  CA  GLY d   1      -0.194 -23.310  -5.483  0.00  0.00     0.069 C 
ATOM     30  H60 GLY d   1       0.172 -22.725  -4.626  0.00  0.00     0.078 H 
ATOM     31  H61 GLY d   1       0.519 -23.224  -6.316  0.00  0.00     0.078 H 
BRANCH  29  32
ATOM     32  C   GLY d   1      -0.292 -24.747  -5.079  0.00  0.00     0.236 C 
ATOM     33  O   GLY d   1      -0.919 -25.055  -4.072  0.00  0.00    -0.272 OA
ATOM     34  N   GLU d   1       0.355 -25.609  -5.865  0.00  0.00    -0.345 N 
ATOM     35  H62 GLU d   1       1.088 -25.256  -6.446  0.00  0.00     0.163 HD
BRANCH  34  36
ATOM     36  CA  GLU d   1       0.056 -27.047  -5.929  0.00  0.00     0.097 C 
ATOM     37  H63 GLU d   1      -0.720 -27.275  -5.184  0.00  0.00     0.089 H 
BRANCH  36  38
ATOM     38  C   GLU d   1       1.290 -27.897  -5.614  0.00  0.00     0.196 C 
ATOM     39  O   GLU d   1       2.211 -27.459  -4.915  0.00  0.00    -0.646 OA
ATOM     40  OXT GLU d   1       1.405 -29.049  -6.048  0.00  0.00    -0.646 OA
ENDBRANCH  36  38
BRANCH  36  41
ATOM     41  CB  GLU d   1      -0.485 -27.394  -7.333  0.00  0.00    -0.028 C 
ATOM     42  H64 GLU d   1      -0.264 -28.453  -7.531  0.00  0.00     0.037 H 
ATOM     43  H65 GLU d   1       0.043 -26.766  -8.066  0.00  0.00     0.037 H 
BRANCH  41  44
ATOM     44  CG  GLU d   1      -1.993 -27.180  -7.522  0.00  0.00     0.018 C 
ATOM     45  H66 GLU d   1      -2.258 -26.193  -7.116  0.00  0.00     0.049 H 
ATOM     46  H67 GLU d   1      -2.528 -27.962  -6.964  0.00  0.00     0.049 H 
BRANCH  44  47
ATOM     47  CD  GLU d   1      -2.439 -27.238  -8.986  0.00  0.00     0.172 C 
ATOM     48  OE1 GLU d   1      -1.701 -27.813  -9.831  0.00  0.00    -0.648 OA
ATOM     49  OE2 GLU d   1      -3.547 -26.734  -9.299  0.00  0.00    -0.648 OA
ENDBRANCH  44  47
ENDBRANCH  41  44
ENDBRANCH  36  41
ENDBRANCH  34  36
ENDBRANCH  29  32
ENDBRANCH  27  29
ENDBRANCH  23  25
BRANCH  23  50
ATOM     50  CB  SER d   1      -4.400 -22.443  -6.599  0.00  0.00     0.044 C 
ATOM     51  H56 SER d   1      -4.786 -23.466  -6.715  0.00  0.00     0.077 H 
ATOM     52  H57 SER d   1      -5.181 -21.722  -6.882  0.00  0.00     0.077 H 
BRANCH  50  53
ATOM     53  OG  SER d   1      -4.054 -22.234  -5.238  0.00  0.00    -0.398 OA
ATOM     54  H58 SER d   1      -3.724 -21.350  -5.128  0.00  0.00     0.209 HD
ENDBRANCH  50  53
ENDBRANCH  23  50
ENDBRANCH  21  23
ENDBRANCH  17  19
BRANCH  17  55
ATOM     55  CB  THR d   1      -2.617 -23.958 -11.484  0.00  0.00     0.060 C 
ATOM     56  H49 THR d   1      -2.704 -24.571 -10.575  0.00  0.00     0.086 H 
BRANCH  55  57
ATOM     57  OG1 THR d   1      -1.238 -23.613 -11.681  0.00  0.00    -0.393 OA
ATOM     58  H50 THR d   1      -1.156 -23.072 -12.458  0.00  0.00     0.210 HD
ENDBRANCH  55  57
BRANCH  55  59
ATOM     59  CG2 THR d   1      -3.129 -24.766 -12.674  0.00  0.00    -0.050 C 
ATOM     60  H51 THR d   1      -2.519 -25.674 -12.791  0.00  0.00     0.031 H 
ATOM     61  H52 THR d   1      -3.059 -24.157 -13.588  0.00  0.00     0.031 H 
ATOM     62  H53 THR d   1      -4.178 -25.049 -12.501  0.00  0.00     0.031 H 
ENDBRANCH  55  59
ENDBRANCH  17  55
ENDBRANCH  15  17
ENDBRANCH  11  13
BRANCH  11  63
ATOM     63  CB  VAL d   1      -4.735 -19.362 -14.170  0.00  0.00    -0.033 C 
ATOM     64  H40 VAL d   1      -5.737 -19.669 -14.503  0.00  0.00     0.042 H 
BRANCH  63  65
ATOM     65  CG1 VAL d   1      -4.829 -18.998 -12.684  0.00  0.00    -0.071 C 
ATOM     66  H41 VAL d   1      -5.517 -18.149 -12.557  0.00  0.00     0.028 H 
ATOM     67  H42 VAL d   1      -3.832 -18.721 -12.310  0.00  0.00     0.028 H 
ATOM     68  H43 VAL d   1      -5.206 -19.863 -12.118  0.00  0.00     0.028 H 
ENDBRANCH  63  65
BRANCH  63  69
ATOM     69  CG2 VAL d   1      -4.302 -18.195 -15.029  0.00  0.00    -0.071 C 
ATOM     70  H44 VAL d   1      -4.252 -18.513 -16.081  0.00  0.00     0.028 H 
ATOM     71  H45 VAL d   1      -3.310 -17.848 -14.703  0.00  0.00     0.028 H 
ATOM     72  H46 VAL d   1      -5.029 -17.375 -14.928  0.00  0.00     0.028 H 
ENDBRANCH  63  69
ENDBRANCH  11  63
ENDBRANCH   9  11
ENDBRANCH   5   7
BRANCH   5  73
ATOM     73  CB  ALA d   1      -2.825 -23.453 -17.932  0.00  0.00    -0.049 C 
ATOM     74  H35 ALA d   1      -3.457 -23.960 -17.188  0.00  0.00     0.030 H 
ATOM     75  H36 ALA d   1      -1.766 -23.664 -17.719  0.00  0.00     0.030 H 
ATOM     76  H37 ALA d   1      -3.077 -23.820 -18.938  0.00  0.00     0.030 H 
ENDBRANCH   5  73
ENDBRANCH   3   5
BRANCH   1  77
ATOM     77  CA  SER d   1      -1.528 -19.370 -20.197  0.00  0.00     0.109 C 
ATOM     78  H29 SER d   1      -0.979 -18.537 -19.734  0.00  0.00     0.090 H 
BRANCH  77  79
ATOM     79  N   SER d   1      -0.535 -20.260 -20.807  0.00  0.00    -0.344 N 
ATOM     80  C   ASP d   1       0.684 -20.428 -20.302  0.00  0.00     0.241 C 
ATOM     81  O   ASP d   1       1.009 -20.068 -19.183  0.00  0.00    -0.271 OA
ATOM     82  H28 SER d   1      -0.784 -20.761 -21.636  0.00  0.00     0.163 HD
BRANCH  80  83
ATOM     83  CA  ASP d   1       1.687 -21.163 -21.185  0.00  0.00     0.098 C 
ATOM     84  H25 ASP d   1       1.300 -21.166 -22.215  0.00  0.00     0.088 H 
BRANCH  83  85
ATOM     85  N   ASP d   1       2.967 -20.493 -21.196  0.00  0.00    -0.346 N 
ATOM     86  C   GLN d   1       3.502 -20.030 -22.330  0.00  0.00     0.241 C 
ATOM     87  O   GLN d   1       3.003 -20.262 -23.451  0.00  0.00    -0.271 OA
ATOM     88  H24 ASP d   1       3.464 -20.373 -20.336  0.00  0.00     0.163 HD
BRANCH  86  89
ATOM     89  CA  GLN d   1       4.768 -19.184 -22.208  0.00  0.00     0.090 C 
ATOM     90  H17 GLN d   1       5.285 -19.419 -21.266  0.00  0.00     0.087 H 
BRANCH  89  91
ATOM     91  N   GLN d   1       5.662 -19.456 -23.339  0.00  0.00    -0.346 N 
ATOM     92  C   GLU d   1       6.974 -19.737 -23.229  0.00  0.00     0.241 C 
ATOM     93  O   GLU d   1       7.610 -19.682 -22.175  0.00  0.00    -0.271 OA
ATOM     94  H16 GLN d   1       5.268 -19.431 -24.258  0.00  0.00     0.163 HD
BRANCH  92  95
ATOM     95  CA  GLU d   1       7.716 -20.086 -24.531  0.00  0.00     0.090 C 
ATOM     96  H11 GLU d   1       8.461 -20.862 -24.302  0.00  0.00     0.087 H 
BRANCH  95  97
ATOM     97  N   GLU d   1       6.814 -20.624 -25.557  0.00  0.00    -0.346 N 
ATOM     98  C   PRO d   1       6.325 -21.855 -25.480  0.00  0.00     0.249 C 
ATOM     99  O   PRO d   1       6.774 -22.692 -24.698  0.00  0.00    -0.271 OA
ATOM    100  H10 GLU d   1       6.562 -20.047 -26.334  0.00  0.00     0.163 HD
BRANCH  98 101
ATOM    101  CA  PRO d   1       5.148 -22.203 -26.417  0.00  0.00     0.178 C 
ATOM    102  N   PRO d   1       5.209 -21.590 -27.759  0.00  0.00    -0.062 N 
ATOM    103  CD  PRO d   1       4.684 -22.501 -28.796  0.00  0.00     0.083 C 
ATOM    104  H1  PRO d   1       6.168 -21.368 -27.974  0.00  0.00     0.278 HD
ATOM    105  H2  PRO d   1       4.660 -20.744 -27.758  0.00  0.00     0.278 HD
ATOM    106  CG  PRO d   1       4.300 -23.740 -28.017  0.00  0.00    -0.040 C 
ATOM    107  H8  PRO d   1       5.456 -22.731 -29.545  0.00  0.00     0.075 H 
ATOM    108  H9  PRO d   1       3.807 -22.064 -29.296  0.00  0.00     0.075 H 
ATOM    109  CB  PRO d   1       5.097 -23.703 -26.742  0.00  0.00    -0.028 C 
ATOM    110  H6  PRO d   1       3.223 -23.730 -27.793  0.00  0.00     0.035 H 
ATOM    111  H7  PRO d   1       4.546 -24.644 -28.594  0.00  0.00     0.035 H 
ATOM    112  H4  PRO d   1       4.592 -24.265 -25.942  0.00  0.00     0.036 H 
ATOM    113  H5  PRO d   1       6.107 -24.110 -26.894  0.00  0.00     0.036 H 
ATOM    114  H3  PRO d   1       4.220 -21.893 -25.915  0.00  0.00     0.099 H 
ENDBRANCH  98 101
ENDBRANCH  95  97
BRANCH  95 115
ATOM    115  CB  GLU d   1       8.452 -18.851 -25.034  0.00  0.00    -0.029 C 
ATOM    116  H12 GLU d   1       8.918 -19.096 -26.000  0.00  0.00     0.037 H 
ATOM    117  H13 GLU d   1       9.234 -18.594 -24.304  0.00  0.00     0.037 H 
BRANCH 115 118
ATOM    118  CG  GLU d   1       7.570 -17.643 -25.227  0.00  0.00     0.018 C 
ATOM    119  H14 GLU d   1       7.753 -16.940 -24.401  0.00  0.00     0.049 H 
ATOM    120  H15 GLU d   1       6.520 -17.969 -25.205  0.00  0.00     0.049 H 
BRANCH 118 121
ATOM    121  CD  GLU d   1       7.823 -16.932 -26.524  0.00  0.00     0.172 C 
ATOM    122  OE1 GLU d   1       7.466 -17.503 -27.569  0.00  0.00    -0.648 OA
ATOM    123  OE2 GLU d   1       8.346 -15.802 -26.492  0.00  0.00    -0.648 OA
ENDBRANCH 118 121
ENDBRANCH 115 118
ENDBRANCH  95 115
ENDBRANCH  92  95
ENDBRANCH  89  91
BRANCH  89 124
ATOM    124  CB  GLN d   1       4.358 -17.716 -22.222  0.00  0.00    -0.030 C 
ATOM    125  H18 GLN d   1       3.753 -17.533 -21.322  0.00  0.00     0.037 H 
ATOM    126  H19 GLN d   1       3.740 -17.554 -23.118  0.00  0.00     0.037 H 
BRANCH 124 127
ATOM    127  CG  GLN d   1       5.474 -16.681 -22.242  0.00  0.00     0.011 C 
ATOM    128  H20 GLN d   1       5.919 -16.660 -23.248  0.00  0.00     0.047 H 
ATOM    129  H21 GLN d   1       6.240 -16.973 -21.509  0.00  0.00     0.047 H 
BRANCH 127 130
ATOM    130  CD  GLN d   1       4.979 -15.301 -21.902  0.00  0.00     0.215 C 
ATOM    131  OE1 GLN d   1       4.501 -14.558 -22.774  0.00  0.00    -0.274 OA
ATOM    132  NE2 GLN d   1       5.047 -14.941 -20.620  0.00  0.00    -0.370 N 
ATOM    133  H22 GLN d   1       4.732 -14.035 -20.338  0.00  0.00     0.159 HD
ATOM    134  H23 GLN d   1       5.413 -15.577 -19.941  0.00  0.00     0.159 HD
ENDBRANCH 127 130
ENDBRANCH 124 127
ENDBRANCH  89 124
ENDBRANCH  86  89
ENDBRANCH  83  85
BRANCH  83 135
ATOM    135  CB  ASP d   1       1.813 -22.605 -20.724  0.00  0.00     0.043 C 
ATOM    136  H26 ASP d   1       1.891 -22.623 -19.627  0.00  0.00     0.052 H 
ATOM    137  H27 ASP d   1       2.722 -23.041 -21.163  0.00  0.00     0.052 H 
BRANCH 135 138
ATOM    138  CG  ASP d   1       0.634 -23.423 -21.139  0.00  0.00     0.175 C 
ATOM    139  OD1 ASP d   1      -0.492 -23.209 -20.609  0.00  0.00    -0.648 OA
ATOM    140  OD2 ASP d   1       0.831 -24.267 -22.037  0.00  0.00    -0.648 OA
ENDBRANCH 135 138
ENDBRANCH  83 135
ENDBRANCH  80  83
ENDBRANCH  77  79
BRANCH  77 141
ATOM    141  CB  SER d   1      -2.438 -18.815 -21.285  0.00  0.00     0.044 C 
ATOM    142  H30 SER d   1      -1.816 -18.458 -22.119  0.00  0.00     0.077 H 
ATOM    143  H31 SER d   1      -3.013 -17.974 -20.870  0.00  0.00     0.077 H 
BRANCH 141 144
ATOM    144  OG  SER d   1      -3.353 -19.799 -21.782  0.00  0.00    -0.398 OA
ATOM    145  H32 SER d   1      -3.899 -19.411 -22.456  0.00  0.00     0.209 HD
ENDBRANCH 141 144
ENDBRANCH  77 141
ENDBRANCH   1  77
TORSDOF 43
