REMARK  10 active torsions:
REMARK  status: ('A' for Active; 'I' for Inactive)
REMARK    1  A    between atoms: C13_2  and  C10_1 
REMARK    2  A    between atoms: C15_3  and  C14_23 
REMARK    3  A    between atoms: C15_3  and  O03_24 
REMARK    4  A    between atoms: C16_25  and  C15_3 
REMARK    5  A    between atoms: O01_9  and  C01_8 
REMARK    6  A    between atoms: C02_10  and  O01_9 
REMARK    7  A    between atoms: C03_11  and  O02_12 
REMARK    8  A    between atoms: O02_12  and  C04_13 
REMARK    9  A    between atoms: C14_23  and  N02_22 
REMARK   10  A    between atoms: C16_25  and  N03_26 
ROOT
ATOM      1  C13 CZK d   1      28.967 228.077 147.221  0.00  0.00     0.088 A 
ATOM      2  C21 CZK d   1      27.012 227.037 147.006  0.00  0.00     0.001 A 
ATOM      3  C22 CZK d   1      28.018 227.592 146.287  0.00  0.00    -0.036 A 
ATOM      4  N01 CZK d   1      28.506 227.851 148.427  0.00  0.00    -0.172 NA
ATOM      5  N02 CZK d   1      27.347 227.205 148.283  0.00  0.00    -0.278 N 
ATOM      6  H6  CZK d   1      26.116 226.554 146.619  0.00  0.00     0.114 H 
ATOM      7  H7  CZK d   1      28.084 227.653 145.202  0.00  0.00     0.089 H 
ENDROOT
BRANCH   1   8
ATOM      8  C10 CZK d   1      30.174 228.817 146.941  0.00  0.00    -0.003 A 
ATOM      9  C09 CZK d   1      30.936 229.442 147.935  0.00  0.00    -0.036 A 
ATOM     10  C03 CZK d   1      32.078 230.211 147.569  0.00  0.00     0.103 A 
ATOM     11  H20 CZK d   1      30.659 229.341 148.978  0.00  0.00     0.089 H 
ATOM     12  C02 CZK d   1      32.429 230.339 146.227  0.00  0.00     0.101 A 
ATOM     13  C12 CZK d   1      31.666 229.735 145.277  0.00  0.00    -0.047 A 
ATOM     14  C11 CZK d   1      30.546 228.992 145.616  0.00  0.00    -0.068 A 
ATOM     15  H22 CZK d   1      31.939 229.837 144.233  0.00  0.00     0.087 H 
ATOM     16  H21 CZK d   1      29.950 228.540 144.832  0.00  0.00     0.085 H 
BRANCH  10  17
ATOM     17  O02 CZK d   1      32.653 230.707 148.693  0.00  0.00    -0.343 OA
BRANCH  17  18
ATOM     18  C04 CZK d   1      32.044 231.055 149.915  0.00  0.00     0.045 C 
ATOM     19  C05 CZK d   1      32.608 232.365 150.428  0.00  0.00    -0.040 C 
ATOM     20  C06 CZK d   1      33.518 231.973 151.507  0.00  0.00    -0.063 C 
ATOM     21  H12 CZK d   1      31.805 233.011 150.812  0.00  0.00     0.036 H 
ATOM     22  H13 CZK d   1      33.153 232.892 149.631  0.00  0.00     0.036 H 
ATOM     23  C07 CZK d   1      33.726 230.500 151.339  0.00  0.00    -0.063 C 
ATOM     24  H14 CZK d   1      33.068 232.188 152.487  0.00  0.00     0.033 H 
ATOM     25  H15 CZK d   1      34.474 232.509 151.417  0.00  0.00     0.033 H 
ATOM     26  C08 CZK d   1      32.389 230.024 150.857  0.00  0.00    -0.040 C 
ATOM     27  H16 CZK d   1      33.993 230.027 152.295  0.00  0.00     0.033 H 
ATOM     28  H17 CZK d   1      34.511 230.294 150.596  0.00  0.00     0.033 H 
ATOM     29  H18 CZK d   1      32.464 229.041 150.369  0.00  0.00     0.036 H 
ATOM     30  H19 CZK d   1      31.661 229.970 151.679  0.00  0.00     0.036 H 
ATOM     31  H11 CZK d   1      30.953 231.130 149.795  0.00  0.00     0.084 H 
ENDBRANCH  17  18
ENDBRANCH  10  17
BRANCH  12  32
ATOM     32  O01 CZK d   1      33.526 231.079 145.969  0.00  0.00    -0.353 OA
BRANCH  32  33
ATOM     33  C01 CZK d   1      33.687 231.669 144.730  0.00  0.00     0.010 C 
ATOM     34  H8  CZK d   1      34.635 232.227 144.710  0.00  0.00     0.066 H 
ATOM     35  H9  CZK d   1      32.851 232.359 144.541  0.00  0.00     0.066 H 
ATOM     36  H10 CZK d   1      33.703 230.891 143.953  0.00  0.00     0.066 H 
ENDBRANCH  32  33
ENDBRANCH  12  32
ENDBRANCH   1   8
BRANCH   5  37
ATOM     37  C14 CZK d   1      26.548 226.798 149.421  0.00  0.00     0.042 C 
ATOM     38  H23 CZK d   1      25.887 225.976 149.111  0.00  0.00     0.071 H 
ATOM     39  H24 CZK d   1      27.221 226.447 150.216  0.00  0.00     0.071 H 
BRANCH  37  40
ATOM     40  C15 CZK d   1      25.681 227.946 149.979  0.00  0.00     0.076 C 
ATOM     41  H1  CZK d   1      26.327 228.830 150.087  0.00  0.00     0.088 H 
BRANCH  40  42
ATOM     42  O03 CZK d   1      24.639 228.257 149.007  0.00  0.00    -0.392 OA
ATOM     43  H25 CZK d   1      24.102 227.487 148.862  0.00  0.00     0.210 HD
ENDBRANCH  40  42
BRANCH  40  44
ATOM     44  C16 CZK d   1      25.065 227.654 151.375  0.00  0.00     0.108 C 
ATOM     45  H26 CZK d   1      25.126 226.573 151.572  0.00  0.00     0.080 H 
ATOM     46  H27 CZK d   1      24.011 227.967 151.371  0.00  0.00     0.080 H 
BRANCH  44  47
ATOM     47  N03 CZK d   1      25.782 228.385 152.464  0.00  0.00    -0.065 N 
ATOM     48  C17 CZK d   1      25.794 227.612 153.721  0.00  0.00     0.103 C 
ATOM     49  C18 CZK d   1      26.479 228.360 154.889  0.00  0.00     0.042 C 
ATOM     50  H2  CZK d   1      26.332 226.669 153.546  0.00  0.00     0.079 H 
ATOM     51  H3  CZK d   1      24.755 227.394 154.007  0.00  0.00     0.079 H 
ATOM     52  O04 CZK d   1      26.736 229.760 154.678  0.00  0.00    -0.388 OA
ATOM     53  H29 CZK d   1      27.442 227.867 155.085  0.00  0.00     0.076 H 
ATOM     54  H30 CZK d   1      25.832 228.266 155.774  0.00  0.00     0.076 H 
ATOM     55  C19 CZK d   1      25.625 230.400 154.063  0.00  0.00     0.042 C 
ATOM     56  C20 CZK d   1      25.278 229.768 152.699  0.00  0.00     0.103 C 
ATOM     57  H31 CZK d   1      24.753 230.313 154.727  0.00  0.00     0.076 H 
ATOM     58  H32 CZK d   1      25.866 231.463 153.911  0.00  0.00     0.076 H 
ATOM     59  H4  CZK d   1      24.182 229.745 152.610  0.00  0.00     0.079 H 
ATOM     60  H5  CZK d   1      25.696 230.415 151.914  0.00  0.00     0.079 H 
ATOM     61  H28 CZK d   1      26.740 228.475 152.163  0.00  0.00     0.280 HD
ENDBRANCH  44  47
ENDBRANCH  40  44
ENDBRANCH  37  40
ENDBRANCH   5  37
TORSDOF 10
