REMARK  13 active torsions:
REMARK  status: ('A' for Active; 'I' for Inactive)
REMARK    1  A    between atoms: O02_20  and  C10_1 
REMARK    2  A    between atoms: C15_3  and  O03_24 
REMARK    3  A    between atoms: C20_5  and  C21_6 
REMARK    4  A    between atoms: C22_7  and  N01_11 
REMARK    5  A    between atoms: C04_12  and  C22_7 
REMARK    6  A    between atoms: C02_9  and  C01_8 
REMARK    7  A    between atoms: C05_13  and  C04_12 
REMARK    8  A    between atoms: C04_12  and  O04_27 
REMARK    9  A    between atoms: O01_14  and  C05_13 
REMARK   10  A    between atoms: N02_15  and  O01_14 
REMARK   11  A    between atoms: C07_17  and  C06_16 
REMARK   12  A    between atoms: C09_19  and  O02_20 
REMARK   13  A    between atoms: O03_24  and  C16_25 
ROOT
ATOM      1  O01 CZT d   1      27.135 228.078 147.154  0.00  0.00    -0.254 OA
ENDROOT
BRANCH   1   2
ATOM      2  C05 CZT d   1      26.569 228.130 148.528  0.00  0.00     0.073 C 
ATOM      3  H19 CZT d   1      26.925 227.224 149.039  0.00  0.00     0.082 H 
ATOM      4  H20 CZT d   1      27.010 229.018 149.006  0.00  0.00     0.082 H 
BRANCH   2   5
ATOM      5  C04 CZT d   1      25.056 228.206 148.800  0.00  0.00     0.081 C 
ATOM      6  H18 CZT d   1      24.566 227.305 148.401  0.00  0.00     0.088 H 
BRANCH   5   7
ATOM      7  C22 CZT d   1      24.880 228.276 150.364  0.00  0.00     0.109 C 
ATOM      8  H9  CZT d   1      24.010 228.925 150.542  0.00  0.00     0.080 H 
ATOM      9  H10 CZT d   1      24.645 227.251 150.688  0.00  0.00     0.080 H 
BRANCH   7  10
ATOM     10  N01 CZT d   1      25.943 228.759 151.276  0.00  0.00    -0.064 N 
ATOM     11  C03 CZT d   1      25.569 230.117 151.762  0.00  0.00     0.107 C 
ATOM     12  C02 CZT d   1      26.382 230.625 152.952  0.00  0.00     0.059 C 
ATOM     13  H15 CZT d   1      25.702 230.825 150.931  0.00  0.00     0.080 H 
ATOM     14  H16 CZT d   1      24.510 230.094 152.058  0.00  0.00     0.080 H 
ATOM     15  O05 CZT d   1      26.275 229.732 154.064  0.00  0.00    -0.378 OA
ATOM     16  H14 CZT d   1      27.438 230.653 152.644  0.00  0.00     0.085 H 
ATOM     17  C20 CZT d   1      26.692 228.392 153.754  0.00  0.00     0.059 C 
ATOM     18  C19 CZT d   1      26.132 227.824 152.425  0.00  0.00     0.107 C 
ATOM     19  H5  CZT d   1      27.790 228.372 153.692  0.00  0.00     0.085 H 
ATOM     20  H34 CZT d   1      25.150 227.381 152.649  0.00  0.00     0.080 H 
ATOM     21  H35 CZT d   1      26.823 227.035 152.092  0.00  0.00     0.080 H 
ATOM     22  H17 CZT d   1      26.810 228.819 150.766  0.00  0.00     0.280 HD
BRANCH  12  23
ATOM     23  C01 CZT d   1      25.985 232.035 153.356  0.00  0.00    -0.051 C 
ATOM     24  H11 CZT d   1      26.074 232.704 152.488  0.00  0.00     0.030 H 
ATOM     25  H12 CZT d   1      26.649 232.387 154.160  0.00  0.00     0.030 H 
ATOM     26  H13 CZT d   1      24.945 232.035 153.713  0.00  0.00     0.030 H 
ENDBRANCH  12  23
BRANCH  17  27
ATOM     27  C21 CZT d   1      26.231 227.531 154.920  0.00  0.00    -0.051 C 
ATOM     28  H6  CZT d   1      26.523 226.486 154.742  0.00  0.00     0.030 H 
ATOM     29  H7  CZT d   1      25.137 227.596 155.013  0.00  0.00     0.030 H 
ATOM     30  H8  CZT d   1      26.700 227.889 155.848  0.00  0.00     0.030 H 
ENDBRANCH  17  27
ENDBRANCH   7  10
ENDBRANCH   5   7
BRANCH   5  31
ATOM     31  O04 CZT d   1      24.448 229.369 148.216  0.00  0.00    -0.392 OA
ATOM     32  H33 CZT d   1      23.518 229.370 148.411  0.00  0.00     0.210 HD
ENDBRANCH   5  31
ENDBRANCH   2   5
ENDBRANCH   1   2
BRANCH   1  33
ATOM     33  N02 CZT d   1      28.249 228.876 147.054  0.00  0.00    -0.146 NA
ATOM     34  C06 CZT d   1      29.105 228.845 146.100  0.00  0.00     0.038 C 
ATOM     35  H21 CZT d   1      28.945 228.119 145.304  0.00  0.00     0.119 H 
BRANCH  34  36
ATOM     36  C07 CZT d   1      30.322 229.742 145.997  0.00  0.00    -0.014 A 
ATOM     37  C08 CZT d   1      30.891 230.282 147.036  0.00  0.00    -0.037 A 
ATOM     38  C09 CZT d   1      32.010 231.117 146.957  0.00  0.00     0.103 A 
ATOM     39  H22 CZT d   1      30.475 230.073 148.015  0.00  0.00     0.089 H 
ATOM     40  C15 CZT d   1      32.519 231.354 145.667  0.00  0.00     0.101 A 
ATOM     41  C17 CZT d   1      31.913 230.781 144.660  0.00  0.00    -0.047 A 
ATOM     42  C18 CZT d   1      30.825 229.981 144.823  0.00  0.00    -0.069 A 
ATOM     43  H4  CZT d   1      32.292 230.950 143.658  0.00  0.00     0.087 H 
ATOM     44  H32 CZT d   1      30.365 229.531 143.950  0.00  0.00     0.085 H 
BRANCH  38  45
ATOM     45  O02 CZT d   1      32.644 231.726 148.059  0.00  0.00    -0.343 OA
BRANCH  45  46
ATOM     46  C10 CZT d   1      32.197 231.392 149.332  0.00  0.00     0.045 C 
ATOM     47  C11 CZT d   1      33.170 230.949 150.512  0.00  0.00    -0.040 C 
ATOM     48  C12 CZT d   1      33.796 232.071 150.600  0.00  0.00    -0.063 C 
ATOM     49  H23 CZT d   1      33.830 230.116 150.228  0.00  0.00     0.036 H 
ATOM     50  H24 CZT d   1      32.629 230.691 151.434  0.00  0.00     0.036 H 
ATOM     51  C13 CZT d   1      32.779 233.155 150.309  0.00  0.00    -0.063 C 
ATOM     52  H25 CZT d   1      34.208 232.198 151.612  0.00  0.00     0.033 H 
ATOM     53  H26 CZT d   1      34.613 232.109 149.864  0.00  0.00     0.033 H 
ATOM     54  C14 CZT d   1      31.660 232.375 149.791  0.00  0.00    -0.040 C 
ATOM     55  H2  CZT d   1      33.154 233.866 149.559  0.00  0.00     0.033 H 
ATOM     56  H3  CZT d   1      32.500 233.700 151.223  0.00  0.00     0.033 H 
ATOM     57  H27 CZT d   1      30.962 232.103 150.597  0.00  0.00     0.036 H 
ATOM     58  H28 CZT d   1      31.120 232.930 149.010  0.00  0.00     0.036 H 
ATOM     59  H1  CZT d   1      31.465 230.582 149.197  0.00  0.00     0.084 H 
ENDBRANCH  45  46
ENDBRANCH  38  45
BRANCH  40  60
ATOM     60  O03 CZT d   1      33.599 232.142 145.475  0.00  0.00    -0.353 OA
BRANCH  60  61
ATOM     61  C16 CZT d   1      33.980 232.718 144.432  0.00  0.00     0.010 C 
ATOM     62  H29 CZT d   1      34.904 233.278 144.639  0.00  0.00     0.066 H 
ATOM     63  H30 CZT d   1      33.199 233.413 144.090  0.00  0.00     0.066 H 
ATOM     64  H31 CZT d   1      34.173 231.970 143.649  0.00  0.00     0.066 H 
ENDBRANCH  60  61
ENDBRANCH  40  60
ENDBRANCH  34  36
ENDBRANCH   1  33
TORSDOF 13
