REMARK  10 active torsions:
REMARK  status: ('A' for Active; 'I' for Inactive)
REMARK    1  A    between atoms: O03_14  and  C17_4 
REMARK    2  A    between atoms: C05_17  and  C20_5 
REMARK    3  A    between atoms: C08_21  and  C21_6 
REMARK       I    between atoms: C01_7  and  N01_8 
REMARK    4  A    between atoms: C02_10  and  C01_7 
REMARK    5  A    between atoms: O01_9  and  C02_10 
REMARK    6  A    between atoms: N02_11  and  O01_9 
REMARK    7  A    between atoms: C09_22  and  O02_12 
REMARK    8  A    between atoms: O02_12  and  C11_23 
REMARK    9  A    between atoms: C16_26  and  O03_14 
REMARK   10  A    between atoms: C06_19  and  C04_15 
ROOT
ATOM      1  C06 CZQ d   1      30.505 229.526 146.295  0.00  0.00    -0.014 A 
ATOM      2  C07 CZQ d   1      31.066 230.226 147.308  0.00  0.00    -0.037 A 
ATOM      3  C09 CZQ d   1      32.117 231.165 147.101  0.00  0.00     0.103 A 
ATOM      4  C16 CZQ d   1      32.591 231.377 145.780  0.00  0.00     0.108 A 
ATOM      5  C18 CZQ d   1      32.000 230.653 144.780  0.00  0.00    -0.047 A 
ATOM      6  C19 CZQ d   1      30.963 229.749 145.057  0.00  0.00    -0.069 A 
ATOM      7  H20 CZQ d   1      30.701 230.066 148.316  0.00  0.00     0.089 H 
ATOM      8  H27 CZQ d   1      32.338 230.780 143.758  0.00  0.00     0.087 H 
ATOM      9  H28 CZQ d   1      30.513 229.208 144.233  0.00  0.00     0.085 H 
ENDROOT
BRANCH   1  10
ATOM     10  C04 CZQ d   1      29.380 228.520 146.467  0.00  0.00     0.038 C 
ATOM     11  N02 CZQ d   1      28.864 228.308 147.584  0.00  0.00    -0.145 NA
ATOM     12  H18 CZQ d   1      29.016 227.973 145.599  0.00  0.00     0.119 H 
BRANCH  11  13
ATOM     13  O01 CZQ d   1      27.926 227.550 148.070  0.00  0.00    -0.247 OA
BRANCH  13  14
ATOM     14  C02 CZQ d   1      26.884 227.972 148.967  0.00  0.00     0.121 C 
ATOM     15  H14 CZQ d   1      26.476 228.940 148.639  0.00  0.00     0.093 H 
ATOM     16  H15 CZQ d   1      26.079 227.222 148.986  0.00  0.00     0.093 H 
BRANCH  14  17
ATOM     17  C01 CZQ d   1      27.498 228.111 150.359  0.00  0.00     0.246 C 
ATOM     18  N01 CZQ d   1      26.826 228.969 151.479  0.00  0.00    -0.345 N 
ATOM     19  C10 CZQ d   1      27.442 229.084 152.824  0.00  0.00     0.021 C 
ATOM     20  C03 CZQ d   1      25.598 229.711 151.244  0.00  0.00     0.021 C 
ATOM     21  C08 CZQ d   1      26.574 229.766 153.912  0.00  0.00     0.051 C 
ATOM     22  H1  CZQ d   1      28.370 229.665 152.721  0.00  0.00     0.068 H 
ATOM     23  H2  CZQ d   1      27.682 228.069 153.172  0.00  0.00     0.068 H 
ATOM     24  O04 CZQ d   1      25.391 230.359 153.473  0.00  0.00    -0.378 OA
ATOM     25  H21 CZQ d   1      26.331 228.989 154.651  0.00  0.00     0.085 H 
ATOM     26  C05 CZQ d   1      25.551 230.884 152.191  0.00  0.00     0.051 C 
ATOM     27  H19 CZQ d   1      26.476 231.472 152.102  0.00  0.00     0.085 H 
ATOM     28  H16 CZQ d   1      24.731 229.057 151.422  0.00  0.00     0.068 H 
ATOM     29  H17 CZQ d   1      25.578 230.073 150.206  0.00  0.00     0.068 H 
ATOM     30  O05 CZQ d   1      28.502 227.507 150.532  0.00  0.00    -0.271 OA
BRANCH  21  31
ATOM     31  C21 CZQ d   1      27.250 230.923 154.606  0.00  0.00    -0.051 C 
ATOM     32  H11 CZQ d   1      26.569 231.347 155.359  0.00  0.00     0.030 H 
ATOM     33  H12 CZQ d   1      27.506 231.696 153.866  0.00  0.00     0.030 H 
ATOM     34  H13 CZQ d   1      28.167 230.569 155.099  0.00  0.00     0.030 H 
ENDBRANCH  21  31
BRANCH  26  35
ATOM     35  C20 CZQ d   1      24.343 231.773 152.010  0.00  0.00    -0.051 C 
ATOM     36  H8  CZQ d   1      24.377 232.240 151.015  0.00  0.00     0.030 H 
ATOM     37  H9  CZQ d   1      24.345 232.556 152.783  0.00  0.00     0.030 H 
ATOM     38  H10 CZQ d   1      23.427 231.170 152.101  0.00  0.00     0.030 H 
ENDBRANCH  26  35
ENDBRANCH  14  17
ENDBRANCH  13  14
ENDBRANCH  11  13
ENDBRANCH   1  10
BRANCH   3  39
ATOM     39  O02 CZQ d   1      32.736 231.912 148.172  0.00  0.00    -0.343 OA
BRANCH  39  40
ATOM     40  C11 CZQ d   1      32.603 231.274 149.435  0.00  0.00     0.045 C 
ATOM     41  C15 CZQ d   1      31.677 231.879 150.040  0.00  0.00    -0.040 C 
ATOM     42  C14 CZQ d   1      32.312 233.148 150.645  0.00  0.00    -0.063 C 
ATOM     43  H5  CZQ d   1      31.264 231.243 150.837  0.00  0.00     0.036 H 
ATOM     44  H6  CZQ d   1      30.877 232.152 149.336  0.00  0.00     0.036 H 
ATOM     45  C13 CZQ d   1      33.745 232.631 150.833  0.00  0.00    -0.063 C 
ATOM     46  H25 CZQ d   1      32.269 234.001 149.952  0.00  0.00     0.033 H 
ATOM     47  H26 CZQ d   1      31.845 233.427 151.601  0.00  0.00     0.033 H 
ATOM     48  C12 CZQ d   1      33.805 231.409 150.464  0.00  0.00    -0.040 C 
ATOM     49  H3  CZQ d   1      34.436 233.233 150.224  0.00  0.00     0.033 H 
ATOM     50  H4  CZQ d   1      34.028 232.709 151.893  0.00  0.00     0.033 H 
ATOM     51  H23 CZQ d   1      33.667 230.732 151.320  0.00  0.00     0.036 H 
ATOM     52  H24 CZQ d   1      34.767 231.192 149.976  0.00  0.00     0.036 H 
ATOM     53  H22 CZQ d   1      32.369 230.211 149.274  0.00  0.00     0.084 H 
ENDBRANCH  39  40
ENDBRANCH   3  39
BRANCH   4  54
ATOM     54  O03 CZQ d   1      33.637 232.322 145.604  0.00  0.00    -0.287 OA
BRANCH  54  55
ATOM     55  C17 CZQ d   1      34.122 232.624 144.320  0.00  0.00     0.310 C 
ATOM     56  F01 CZQ d   1      34.736 231.513 143.868  0.00  0.00    -0.184 F 
ATOM     57  F02 CZQ d   1      33.386 232.927 143.718  0.00  0.00    -0.184 F 
ATOM     58  H7  CZQ d   1      34.860 233.436 144.393  0.00  0.00     0.195 H 
ENDBRANCH  54  55
ENDBRANCH   4  54
TORSDOF 10
