REMARK  10 active torsions:
REMARK  status: ('A' for Active; 'I' for Inactive)
REMARK    1  A    between atoms: C13_2  and  C10_1 
REMARK    2  A    between atoms: C15_3  and  C14_24 
REMARK    3  A    between atoms: C16_25  and  C15_3 
REMARK    4  A    between atoms: C19_29  and  C24_8 
REMARK    5  A    between atoms: O01_10  and  C01_9 
REMARK    6  A    between atoms: C02_11  and  O01_10 
REMARK    7  A    between atoms: C03_12  and  O02_13 
REMARK    8  A    between atoms: O02_13  and  C04_14 
REMARK    9  A    between atoms: C14_24  and  N02_23 
REMARK       I    between atoms: C16_25  and  N03_26 
REMARK   10  A    between atoms: C18_27  and  C23_31 
ROOT
ATOM      1  C13 D0B d   1      30.321 226.808 147.157  0.00  0.00     0.088 A 
ATOM      2  C21 D0B d   1      29.685 224.964 148.168  0.00  0.00     0.001 A 
ATOM      3  C22 D0B d   1      30.381 226.081 148.373  0.00  0.00    -0.036 A 
ATOM      4  N01 D0B d   1      29.700 226.083 146.327  0.00  0.00    -0.172 NA
ATOM      5  N02 D0B d   1      29.304 225.033 146.915  0.00  0.00    -0.280 N 
ATOM      6  H7  D0B d   1      29.478 224.169 148.883  0.00  0.00     0.114 H 
ATOM      7  H8  D0B d   1      30.892 226.376 149.288  0.00  0.00     0.089 H 
ENDROOT
BRANCH   1   8
ATOM      8  C10 D0B d   1      30.988 228.036 146.797  0.00  0.00    -0.003 A 
ATOM      9  C09 D0B d   1      31.554 228.880 147.760  0.00  0.00    -0.036 A 
ATOM     10  C03 D0B d   1      32.282 230.032 147.417  0.00  0.00     0.103 A 
ATOM     11  H24 D0B d   1      31.426 228.636 148.808  0.00  0.00     0.089 H 
ATOM     12  C02 D0B d   1      32.447 230.269 146.091  0.00  0.00     0.101 A 
ATOM     13  C12 D0B d   1      31.912 229.430 145.173  0.00  0.00    -0.047 A 
ATOM     14  C11 D0B d   1      31.209 228.318 145.508  0.00  0.00    -0.068 A 
ATOM     15  H26 D0B d   1      32.051 229.657 144.122  0.00  0.00     0.087 H 
ATOM     16  H25 D0B d   1      30.828 227.661 144.734  0.00  0.00     0.085 H 
BRANCH  10  17
ATOM     17  O02 D0B d   1      32.737 230.720 148.481  0.00  0.00    -0.343 OA
BRANCH  17  18
ATOM     18  C04 D0B d   1      32.512 230.453 149.845  0.00  0.00     0.045 C 
ATOM     19  C05 D0B d   1      31.187 230.974 150.347  0.00  0.00    -0.040 C 
ATOM     20  C06 D0B d   1      31.561 232.190 151.050  0.00  0.00    -0.063 C 
ATOM     21  H16 D0B d   1      30.711 230.254 151.028  0.00  0.00     0.036 H 
ATOM     22  H17 D0B d   1      30.506 231.194 149.512  0.00  0.00     0.036 H 
ATOM     23  C07 D0B d   1      32.958 232.448 150.651  0.00  0.00    -0.063 C 
ATOM     24  H18 D0B d   1      31.490 232.045 152.138  0.00  0.00     0.033 H 
ATOM     25  H19 D0B d   1      30.912 233.026 150.749  0.00  0.00     0.033 H 
ATOM     26  C08 D0B d   1      33.548 231.086 150.561  0.00  0.00    -0.040 C 
ATOM     27  H20 D0B d   1      33.478 233.053 151.408  0.00  0.00     0.033 H 
ATOM     28  H21 D0B d   1      33.001 232.961 149.679  0.00  0.00     0.033 H 
ATOM     29  H22 D0B d   1      34.497 231.082 150.006  0.00  0.00     0.036 H 
ATOM     30  H23 D0B d   1      33.701 230.635 151.553  0.00  0.00     0.036 H 
ATOM     31  H15 D0B d   1      32.549 229.366 150.010  0.00  0.00     0.084 H 
ENDBRANCH  17  18
ENDBRANCH  10  17
BRANCH  12  32
ATOM     32  O01 D0B d   1      33.150 231.366 145.870  0.00  0.00    -0.353 OA
BRANCH  32  33
ATOM     33  C01 D0B d   1      33.629 231.763 144.662  0.00  0.00     0.010 C 
ATOM     34  H12 D0B d   1      34.175 232.711 144.778  0.00  0.00     0.066 H 
ATOM     35  H13 D0B d   1      32.791 231.906 143.964  0.00  0.00     0.066 H 
ATOM     36  H14 D0B d   1      34.309 230.994 144.266  0.00  0.00     0.066 H 
ENDBRANCH  32  33
ENDBRANCH  12  32
ENDBRANCH   1   8
BRANCH   5  37
ATOM     37  C14 D0B d   1      28.523 223.921 146.337  0.00  0.00     0.024 C 
ATOM     38  H27 D0B d   1      28.988 223.671 145.372  0.00  0.00     0.068 H 
ATOM     39  H28 D0B d   1      28.623 223.068 147.024  0.00  0.00     0.068 H 
BRANCH  37  40
ATOM     40  C15 D0B d   1      27.021 224.111 146.075  0.00  0.00     0.026 C 
ATOM     41  H1  D0B d   1      26.622 223.261 145.502  0.00  0.00     0.049 H 
ATOM     42  H2  D0B d   1      26.844 225.044 145.519  0.00  0.00     0.049 H 
BRANCH  40  43
ATOM     43  C16 D0B d   1      26.371 224.179 147.434  0.00  0.00     0.221 C 
ATOM     44  N03 D0B d   1      26.106 225.406 148.029  0.00  0.00    -0.347 N 
ATOM     45  C17 D0B d   1      26.378 226.736 147.464  0.00  0.00     0.021 C 
ATOM     46  C20 D0B d   1      25.494 225.382 149.371  0.00  0.00     0.021 C 
ATOM     47  C18 D0B d   1      27.191 227.512 148.489  0.00  0.00     0.051 C 
ATOM     48  H3  D0B d   1      25.431 227.259 147.262  0.00  0.00     0.068 H 
ATOM     49  H4  D0B d   1      26.949 226.637 146.529  0.00  0.00     0.068 H 
ATOM     50  O03 D0B d   1      26.431 227.746 149.684  0.00  0.00    -0.378 OA
ATOM     51  H29 D0B d   1      28.067 226.905 148.759  0.00  0.00     0.085 H 
ATOM     52  C19 D0B d   1      25.688 226.643 150.246  0.00  0.00     0.051 C 
ATOM     53  H30 D0B d   1      24.677 227.021 150.458  0.00  0.00     0.085 H 
ATOM     54  H5  D0B d   1      25.922 224.528 149.917  0.00  0.00     0.068 H 
ATOM     55  H6  D0B d   1      24.412 225.230 149.241  0.00  0.00     0.068 H 
ATOM     56  O04 D0B d   1      26.097 223.110 147.983  0.00  0.00    -0.273 OA
BRANCH  47  57
ATOM     57  C23 D0B d   1      27.689 228.820 147.896  0.00  0.00    -0.051 C 
ATOM     58  H31 D0B d   1      28.274 229.366 148.651  0.00  0.00     0.030 H 
ATOM     59  H32 D0B d   1      26.830 229.432 147.585  0.00  0.00     0.030 H 
ATOM     60  H33 D0B d   1      28.324 228.609 147.023  0.00  0.00     0.030 H 
ENDBRANCH  47  57
BRANCH  52  61
ATOM     61  C24 D0B d   1      26.346 226.283 151.576  0.00  0.00    -0.051 C 
ATOM     62  H9  D0B d   1      26.474 227.193 152.180  0.00  0.00     0.030 H 
ATOM     63  H10 D0B d   1      27.329 225.827 151.387  0.00  0.00     0.030 H 
ATOM     64  H11 D0B d   1      25.709 225.569 152.119  0.00  0.00     0.030 H 
ENDBRANCH  52  61
ENDBRANCH  40  43
ENDBRANCH  37  40
ENDBRANCH   5  37
TORSDOF 10
