REMARK  8 active torsions:
REMARK  status: ('A' for Active; 'I' for Inactive)
REMARK    1  A    between atoms: C13_2  and  C10_1 
REMARK    2  A    between atoms: C15_3  and  C14_23 
REMARK    3  A    between atoms: C16_24  and  C15_3 
REMARK    4  A    between atoms: O01_9  and  C01_8 
REMARK    5  A    between atoms: C02_10  and  O01_9 
REMARK    6  A    between atoms: C03_11  and  O02_12 
REMARK    7  A    between atoms: O02_12  and  C04_13 
REMARK    8  A    between atoms: C14_23  and  N02_22 
REMARK       I    between atoms: C16_24  and  N03_25 
ROOT
ATOM      1  C10 D0E d   1     -31.755  -1.361 -25.749  0.00  0.00    -0.003 A 
ATOM      2  C02 D0E d   1     -33.891  -3.060 -25.320  0.00  0.00     0.101 A 
ATOM      3  C03 D0E d   1     -33.064  -3.345 -26.339  0.00  0.00     0.103 A 
ATOM      4  C09 D0E d   1     -31.973  -2.488 -26.540  0.00  0.00    -0.036 A 
ATOM      5  C11 D0E d   1     -32.607  -1.142 -24.736  0.00  0.00    -0.068 A 
ATOM      6  C12 D0E d   1     -33.658  -1.981 -24.547  0.00  0.00    -0.047 A 
ATOM      7  H21 D0E d   1     -31.274  -2.709 -27.339  0.00  0.00     0.089 H 
ATOM      8  H22 D0E d   1     -32.457  -0.299 -24.071  0.00  0.00     0.085 H 
ATOM      9  H23 D0E d   1     -34.344  -1.772 -23.734  0.00  0.00     0.087 H 
ENDROOT
BRANCH   1  10
ATOM     10  C13 D0E d   1     -30.579  -0.556 -25.953  0.00  0.00     0.088 A 
ATOM     11  C22 D0E d   1     -29.482  -0.800 -26.802  0.00  0.00    -0.036 A 
ATOM     12  C21 D0E d   1     -28.615   0.193 -26.571  0.00  0.00     0.001 A 
ATOM     13  H8  D0E d   1     -29.364  -1.626 -27.502  0.00  0.00     0.089 H 
ATOM     14  N02 D0E d   1     -29.128   0.940 -25.631  0.00  0.00    -0.280 N 
ATOM     15  H7  D0E d   1     -27.661   0.349 -27.073  0.00  0.00     0.114 H 
ATOM     16  N01 D0E d   1     -30.298   0.466 -25.261  0.00  0.00    -0.172 NA
BRANCH  14  17
ATOM     17  C14 D0E d   1     -28.477   2.085 -25.085  0.00  0.00     0.024 C 
ATOM     18  H24 D0E d   1     -28.641   2.068 -23.997  0.00  0.00     0.068 H 
ATOM     19  H25 D0E d   1     -27.402   1.982 -25.295  0.00  0.00     0.068 H 
BRANCH  17  20
ATOM     20  C15 D0E d   1     -28.907   3.451 -25.586  0.00  0.00     0.026 C 
ATOM     21  H1  D0E d   1     -28.416   4.238 -24.994  0.00  0.00     0.049 H 
ATOM     22  H2  D0E d   1     -29.999   3.554 -25.500  0.00  0.00     0.049 H 
BRANCH  20  23
ATOM     23  C16 D0E d   1     -28.488   3.568 -27.055  0.00  0.00     0.221 C 
ATOM     24  N03 D0E d   1     -29.252   3.113 -28.112  0.00  0.00    -0.348 N 
ATOM     25  C17 D0E d   1     -30.596   2.524 -28.034  0.00  0.00     0.017 C 
ATOM     26  C20 D0E d   1     -28.712   3.280 -29.473  0.00  0.00     0.017 C 
ATOM     27  C18 D0E d   1     -30.912   1.432 -29.058  0.00  0.00     0.034 C 
ATOM     28  H3  D0E d   1     -31.327   3.335 -28.171  0.00  0.00     0.067 H 
ATOM     29  H4  D0E d   1     -30.715   2.089 -27.031  0.00  0.00     0.067 H 
ATOM     30  O03 D0E d   1     -30.481   1.797 -30.368  0.00  0.00    -0.388 OA
ATOM     31  H26 D0E d   1     -31.999   1.262 -29.075  0.00  0.00     0.076 H 
ATOM     32  H27 D0E d   1     -30.401   0.505 -28.760  0.00  0.00     0.076 H 
ATOM     33  C19 D0E d   1     -29.094   2.127 -30.411  0.00  0.00     0.034 C 
ATOM     34  H28 D0E d   1     -28.515   1.237 -30.123  0.00  0.00     0.076 H 
ATOM     35  H29 D0E d   1     -28.836   2.415 -31.441  0.00  0.00     0.076 H 
ATOM     36  H5  D0E d   1     -27.615   3.334 -29.412  0.00  0.00     0.067 H 
ATOM     37  H6  D0E d   1     -29.102   4.219 -29.893  0.00  0.00     0.067 H 
ATOM     38  O04 D0E d   1     -27.386   4.080 -27.270  0.00  0.00    -0.273 OA
ENDBRANCH  20  23
ENDBRANCH  17  20
ENDBRANCH  14  17
ENDBRANCH   1  10
BRANCH   3  39
ATOM     39  O02 D0E d   1     -33.116  -4.351 -27.210  0.00  0.00    -0.343 OA
BRANCH  39  40
ATOM     40  C04 D0E d   1     -32.943  -4.181 -28.590  0.00  0.00     0.045 C 
ATOM     41  C05 D0E d   1     -34.079  -4.640 -29.495  0.00  0.00    -0.040 C 
ATOM     42  C06 D0E d   1     -33.508  -5.825 -30.077  0.00  0.00    -0.063 C 
ATOM     43  H13 D0E d   1     -34.314  -3.887 -30.262  0.00  0.00     0.036 H 
ATOM     44  H14 D0E d   1     -34.986  -4.871 -28.918  0.00  0.00     0.036 H 
ATOM     45  C07 D0E d   1     -32.532  -6.242 -29.048  0.00  0.00    -0.063 C 
ATOM     46  H15 D0E d   1     -33.009  -5.600 -31.031  0.00  0.00     0.033 H 
ATOM     47  H16 D0E d   1     -34.273  -6.599 -30.237  0.00  0.00     0.033 H 
ATOM     48  C08 D0E d   1     -31.809  -4.973 -28.797  0.00  0.00    -0.040 C 
ATOM     49  H17 D0E d   1     -31.855  -7.022 -29.428  0.00  0.00     0.033 H 
ATOM     50  H18 D0E d   1     -33.035  -6.604 -28.140  0.00  0.00     0.033 H 
ATOM     51  H19 D0E d   1     -31.161  -5.024 -27.909  0.00  0.00     0.036 H 
ATOM     52  H20 D0E d   1     -31.217  -4.645 -29.664  0.00  0.00     0.036 H 
ATOM     53  H12 D0E d   1     -32.738  -3.123 -28.813  0.00  0.00     0.084 H 
ENDBRANCH  39  40
ENDBRANCH   3  39
BRANCH   2  54
ATOM     54  O01 D0E d   1     -34.865  -3.971 -25.241  0.00  0.00    -0.353 OA
BRANCH  54  55
ATOM     55  C01 D0E d   1     -35.706  -4.055 -24.185  0.00  0.00     0.010 C 
ATOM     56  H9  D0E d   1     -36.418  -4.878 -24.348  0.00  0.00     0.066 H 
ATOM     57  H10 D0E d   1     -36.257  -3.109 -24.079  0.00  0.00     0.066 H 
ATOM     58  H11 D0E d   1     -35.127  -4.247 -23.270  0.00  0.00     0.066 H 
ENDBRANCH  54  55
ENDBRANCH   2  54
TORSDOF 8
