REMARK  13 active torsions:
REMARK  status: ('A' for Active; 'I' for Inactive)
REMARK    1  A    between atoms: C13_2  and  C10_1 
REMARK    2  A    between atoms: C16_21  and  C15_3 
REMARK    3  A    between atoms: C17_4  and  C16_21 
REMARK       I    between atoms: N01_23  and  C17_4 
REMARK    4  A    between atoms: C19_27  and  C20_5 
REMARK    5  A    between atoms: C20_5  and  O05_28 
REMARK    6  A    between atoms: C18_26  and  C21_6 
REMARK    7  A    between atoms: C21_6  and  O06_29 
REMARK    8  A    between atoms: O01_8  and  C01_7 
REMARK    9  A    between atoms: C02_9  and  O01_8 
REMARK   10  A    between atoms: C03_10  and  O02_11 
REMARK   11  A    between atoms: O02_11  and  C04_12 
REMARK   12  A    between atoms: N01_23  and  C18_26 
REMARK   13  A    between atoms: N01_23  and  C19_27 
ROOT
ATOM      1  C13 D08 d   1      30.984 -27.132 -29.543  0.00  0.00     0.074 C 
ATOM      2  C15 D08 d   1      29.589 -27.302 -27.750  0.00  0.00     0.081 C 
ATOM      3  C14 D08 d   1      30.324 -26.259 -28.565  0.00  0.00     0.005 C 
ATOM      4  O04 D08 d   1      29.479 -28.467 -28.577  0.00  0.00    -0.250 OA
ATOM      5  N02 D08 d   1      30.605 -28.411 -29.444  0.00  0.00    -0.137 NA
ATOM      6  H1  D08 d   1      28.600 -26.917 -27.460  0.00  0.00     0.088 H 
ATOM      7  H21 D08 d   1      29.632 -25.553 -29.047  0.00  0.00     0.046 H 
ATOM      8  H22 D08 d   1      31.051 -25.701 -27.957  0.00  0.00     0.046 H 
ENDROOT
BRANCH   1   9
ATOM      9  C10 D08 d   1      32.000 -26.695 -30.498  0.00  0.00    -0.006 A 
ATOM     10  C09 D08 d   1      32.732 -27.667 -31.165  0.00  0.00    -0.036 A 
ATOM     11  C03 D08 d   1      33.704 -27.325 -32.102  0.00  0.00     0.103 A 
ATOM     12  H18 D08 d   1      32.544 -28.713 -30.953  0.00  0.00     0.089 H 
ATOM     13  C02 D08 d   1      33.971 -25.982 -32.391  0.00  0.00     0.101 A 
ATOM     14  C12 D08 d   1      33.237 -25.000 -31.722  0.00  0.00    -0.047 A 
ATOM     15  C11 D08 d   1      32.255 -25.356 -30.790  0.00  0.00    -0.068 A 
ATOM     16  H20 D08 d   1      33.429 -23.953 -31.926  0.00  0.00     0.087 H 
ATOM     17  H19 D08 d   1      31.686 -24.581 -30.289  0.00  0.00     0.085 H 
BRANCH  11  18
ATOM     18  O02 D08 d   1      34.445 -28.262 -32.748  0.00  0.00    -0.343 OA
BRANCH  18  19
ATOM     19  C04 D08 d   1      34.660 -29.448 -31.996  0.00  0.00     0.045 C 
ATOM     20  C05 D08 d   1      36.122 -29.864 -32.222  0.00  0.00    -0.040 C 
ATOM     21  C06 D08 d   1      36.036 -31.215 -32.895  0.00  0.00    -0.063 C 
ATOM     22  H10 D08 d   1      36.656 -29.941 -31.264  0.00  0.00     0.036 H 
ATOM     23  H11 D08 d   1      36.636 -29.139 -32.871  0.00  0.00     0.036 H 
ATOM     24  C07 D08 d   1      34.702 -31.145 -33.625  0.00  0.00    -0.063 C 
ATOM     25  H12 D08 d   1      36.040 -32.028 -32.154  0.00  0.00     0.033 H 
ATOM     26  H13 D08 d   1      36.867 -31.359 -33.601  0.00  0.00     0.033 H 
ATOM     27  C08 D08 d   1      33.799 -30.579 -32.547  0.00  0.00    -0.040 C 
ATOM     28  H14 D08 d   1      34.367 -32.142 -33.947  0.00  0.00     0.033 H 
ATOM     29  H15 D08 d   1      34.755 -30.476 -34.497  0.00  0.00     0.033 H 
ATOM     30  H16 D08 d   1      32.858 -30.198 -32.970  0.00  0.00     0.036 H 
ATOM     31  H17 D08 d   1      33.577 -31.329 -31.774  0.00  0.00     0.036 H 
ATOM     32  H9  D08 d   1      34.449 -29.278 -30.930  0.00  0.00     0.084 H 
ENDBRANCH  18  19
ENDBRANCH  11  18
BRANCH  13  33
ATOM     33  O01 D08 d   1      34.950 -25.750 -33.325  0.00  0.00    -0.353 OA
BRANCH  33  34
ATOM     34  C01 D08 d   1      35.353 -24.410 -33.563  0.00  0.00     0.010 C 
ATOM     35  H6  D08 d   1      36.139 -24.395 -34.333  0.00  0.00     0.066 H 
ATOM     36  H7  D08 d   1      35.743 -23.974 -32.632  0.00  0.00     0.066 H 
ATOM     37  H8  D08 d   1      34.489 -23.823 -33.909  0.00  0.00     0.066 H 
ENDBRANCH  33  34
ENDBRANCH  13  33
ENDBRANCH   1   9
BRANCH   2  38
ATOM     38  C16 D08 d   1      30.349 -27.768 -26.519  0.00  0.00     0.036 C 
ATOM     39  H23 D08 d   1      30.633 -26.898 -25.910  0.00  0.00     0.051 H 
ATOM     40  H24 D08 d   1      31.255 -28.311 -26.828  0.00  0.00     0.051 H 
BRANCH  38  41
ATOM     41  C17 D08 d   1      29.462 -28.683 -25.711  0.00  0.00     0.222 C 
ATOM     42  O03 D08 d   1      28.296 -28.312 -25.478  0.00  0.00    -0.273 OA
ATOM     43  N01 D08 d   1      29.934 -29.899 -25.244  0.00  0.00    -0.348 N 
BRANCH  43  44
ATOM     44  C18 D08 d   1      31.307 -30.393 -25.460  0.00  0.00     0.017 C 
ATOM     45  H25 D08 d   1      31.304 -31.491 -25.390  0.00  0.00     0.067 H 
ATOM     46  H26 D08 d   1      31.638 -30.091 -26.464  0.00  0.00     0.067 H 
BRANCH  44  47
ATOM     47  C21 D08 d   1      32.292 -29.835 -24.426  0.00  0.00     0.032 C 
ATOM     48  H4  D08 d   1      33.315 -30.090 -24.740  0.00  0.00     0.076 H 
ATOM     49  H5  D08 d   1      32.081 -30.300 -23.452  0.00  0.00     0.076 H 
BRANCH  47  50
ATOM     50  O06 D08 d   1      32.195 -28.415 -24.287  0.00  0.00    -0.399 OA
ATOM     51  H30 D08 d   1      32.822 -28.118 -23.638  0.00  0.00     0.209 HD
ENDBRANCH  47  50
ENDBRANCH  44  47
ENDBRANCH  43  44
BRANCH  43  52
ATOM     52  C19 D08 d   1      29.042 -30.751 -24.450  0.00  0.00     0.017 C 
ATOM     53  H27 D08 d   1      28.083 -30.838 -24.983  0.00  0.00     0.067 H 
ATOM     54  H28 D08 d   1      29.503 -31.745 -24.361  0.00  0.00     0.067 H 
BRANCH  52  55
ATOM     55  C20 D08 d   1      28.762 -30.222 -23.038  0.00  0.00     0.032 C 
ATOM     56  H2  D08 d   1      27.757 -29.776 -23.019  0.00  0.00     0.076 H 
ATOM     57  H3  D08 d   1      29.509 -29.453 -22.793  0.00  0.00     0.076 H 
BRANCH  55  58
ATOM     58  O05 D08 d   1      28.825 -31.242 -22.069  0.00  0.00    -0.399 OA
ATOM     59  H29 D08 d   1      28.178 -31.908 -22.270  0.00  0.00     0.209 HD
ENDBRANCH  55  58
ENDBRANCH  52  55
ENDBRANCH  43  52
ENDBRANCH  38  41
ENDBRANCH   2  38
TORSDOF 13
