REMARK  16 active torsions:
REMARK  status: ('A' for Active; 'I' for Inactive)
REMARK       I    between atoms: C10_1  and  N12_2 
REMARK    1  A    between atoms: C05_13  and  C10_1 
REMARK    2  A    between atoms: N12_2  and  C13_3 
REMARK    3  A    between atoms: C13_3  and  C14_16 
REMARK    4  A    between atoms: C14_16  and  C15_4 
REMARK    5  A    between atoms: C15_4  and  C16_17 
REMARK    6  A    between atoms: C16_17  and  C21_7 
REMARK       I    between atoms: C21_7  and  N23_28 
REMARK    7  A    between atoms: C24_8  and  C25_20 
REMARK    8  A    between atoms: C24_8  and  C33_25 
REMARK    9  A    between atoms: N23_28  and  C24_8 
REMARK   10  A    between atoms: C25_20  and  C26_9 
REMARK   11  A    between atoms: C02_12  and  C01_11 
REMARK       I    between atoms: N04_27  and  C02_12 
REMARK   12  A    between atoms: C05_13  and  C06_14 
REMARK   13  A    between atoms: C05_13  and  N04_27 
REMARK   14  A    between atoms: C06_14  and  C07_15 
REMARK   15  A    between atoms: C14_16  and  C36_26 
REMARK   16  A    between atoms: C29_22  and  O32_34 
ROOT
ATOM      1  C17 D0W d   1       1.738  19.063  21.265  0.00  0.00    -0.050 C 
ATOM      2  C20 D0W d   1      -0.364  18.066  21.920  0.00  0.00    -0.050 C 
ATOM      3  C16 D0W d   1       0.939  17.694  21.604  0.00  0.00     0.042 C 
ATOM      4  C18 D0W d   1       0.664  20.209  21.411  0.00  0.00    -0.064 C 
ATOM      5  C19 D0W d   1      -0.586  19.598  21.299  0.00  0.00    -0.064 C 
ATOM      6  H6  D0W d   1       2.136  19.035  20.240  0.00  0.00     0.034 H 
ATOM      7  H7  D0W d   1       2.564  19.215  21.975  0.00  0.00     0.034 H 
ATOM      8  H8  D0W d   1      -0.502  18.075  23.011  0.00  0.00     0.034 H 
ATOM      9  H9  D0W d   1      -1.080  17.365  21.466  0.00  0.00     0.034 H 
ATOM     10  H19 D0W d   1       0.794  20.956  20.614  0.00  0.00     0.033 H 
ATOM     11  H20 D0W d   1       0.761  20.698  22.391  0.00  0.00     0.033 H 
ATOM     12  H21 D0W d   1      -1.340  20.147  21.882  0.00  0.00     0.033 H 
ATOM     13  H22 D0W d   1      -0.901  19.548  20.246  0.00  0.00     0.033 H 
ENDROOT
BRANCH   3  14
ATOM     14  C15 D0W d   1       1.667  17.060  22.792  0.00  0.00    -0.036 C 
ATOM     15  H4  D0W d   1       2.737  17.007  22.542  0.00  0.00     0.036 H 
ATOM     16  H5  D0W d   1       1.526  17.716  23.663  0.00  0.00     0.036 H 
BRANCH  14  17
ATOM     17  C14 D0W d   1       1.207  15.655  23.184  0.00  0.00     0.047 C 
ATOM     18  H18 D0W d   1       1.357  14.963  22.342  0.00  0.00     0.059 H 
BRANCH  17  19
ATOM     19  C13 D0W d   1       2.090  15.239  24.373  0.00  0.00     0.008 C 
ATOM     20  H2  D0W d   1       3.127  15.125  24.023  0.00  0.00     0.065 H 
ATOM     21  H3  D0W d   1       2.046  16.026  25.140  0.00  0.00     0.065 H 
BRANCH  19  22
ATOM     22  N12 D0W d   1       1.653  13.986  24.961  0.00  0.00    -0.358 N 
ATOM     23  C10 D0W d   1       1.180  13.972  26.345  0.00  0.00     0.240 C 
ATOM     24  O11 D0W d   1       1.138  14.981  26.956  0.00  0.00    -0.271 OA
ATOM     25  H1  D0W d   1       1.675  13.142  24.426  0.00  0.00     0.162 HD
BRANCH  23  26
ATOM     26  C05 D0W d   1       0.713  12.695  27.043  0.00  0.00     0.098 C 
ATOM     27  H15 D0W d   1       0.943  11.816  26.423  0.00  0.00     0.088 H 
BRANCH  26  28
ATOM     28  C06 D0W d   1      -0.795  12.786  27.290  0.00  0.00     0.043 C 
ATOM     29  H16 D0W d   1      -1.298  12.986  26.333  0.00  0.00     0.052 H 
ATOM     30  H17 D0W d   1      -0.990  13.614  27.987  0.00  0.00     0.052 H 
BRANCH  28  31
ATOM     31  C07 D0W d   1      -1.364  11.503  27.883  0.00  0.00     0.175 C 
ATOM     32  O08 D0W d   1      -2.083  11.555  28.919  0.00  0.00    -0.648 OA
ATOM     33  O09 D0W d   1      -1.111  10.401  27.330  0.00  0.00    -0.648 OA
ENDBRANCH  28  31
ENDBRANCH  26  28
BRANCH  26  34
ATOM     34  N04 D0W d   1       1.392  12.602  28.320  0.00  0.00    -0.348 N 
ATOM     35  C02 D0W d   1       2.825  12.377  28.375  0.00  0.00     0.214 C 
ATOM     36  O03 D0W d   1       3.442  12.255  27.369  0.00  0.00    -0.274 OA
ATOM     37  H28 D0W d   1       0.870  12.693  29.168  0.00  0.00     0.163 HD
BRANCH  35  38
ATOM     38  C01 D0W d   1       3.520  12.295  29.737  0.00  0.00    -0.003 C 
ATOM     39  H12 D0W d   1       4.596  12.122  29.590  0.00  0.00     0.040 H 
ATOM     40  H13 D0W d   1       3.092  11.465  30.318  0.00  0.00     0.040 H 
ATOM     41  H14 D0W d   1       3.372  13.239  30.282  0.00  0.00     0.040 H 
ENDBRANCH  35  38
ENDBRANCH  26  34
ENDBRANCH  23  26
ENDBRANCH  19  22
ENDBRANCH  17  19
BRANCH  17  42
ATOM     42  C36 D0W d   1      -0.270  15.642  23.581  0.00  0.00     0.178 C 
ATOM     43  O37 D0W d   1      -0.711  16.314  24.558  0.00  0.00    -0.648 OA
ATOM     44  O38 D0W d   1      -1.095  14.947  22.937  0.00  0.00    -0.648 OA
ENDBRANCH  17  42
ENDBRANCH  14  17
ENDBRANCH   3  14
BRANCH   3  45
ATOM     45  C21 D0W d   1       1.068  16.886  20.300  0.00  0.00     0.227 C 
ATOM     46  N23 D0W d   1       0.015  17.014  19.351  0.00  0.00    -0.346 N 
ATOM     47  H29 D0W d   1      -0.786  17.567  19.578  0.00  0.00     0.163 HD
ATOM     48  O22 D0W d   1       2.042  16.218  20.085  0.00  0.00    -0.273 OA
BRANCH  46  49
ATOM     49  C24 D0W d   1       0.085  16.355  18.060  0.00  0.00     0.100 C 
ATOM     50  H10 D0W d   1       0.355  15.297  18.194  0.00  0.00     0.090 H 
BRANCH  49  51
ATOM     51  C25 D0W d   1      -1.231  16.437  17.293  0.00  0.00    -0.013 C 
ATOM     52  H23 D0W d   1      -1.793  15.511  17.484  0.00  0.00     0.043 H 
ATOM     53  H24 D0W d   1      -0.995  16.508  16.221  0.00  0.00     0.043 H 
BRANCH  51  54
ATOM     54  C26 D0W d   1      -2.134  17.622  17.657  0.00  0.00    -0.056 A 
ATOM     55  C27 D0W d   1      -3.066  17.473  18.659  0.00  0.00    -0.074 A 
ATOM     56  C28 D0W d   1      -3.887  18.535  18.995  0.00  0.00    -0.051 A 
ATOM     57  H25 D0W d   1      -3.156  16.528  19.182  0.00  0.00     0.084 H 
ATOM     58  C29 D0W d   1      -3.784  19.742  18.324  0.00  0.00     0.065 A 
ATOM     59  H11 D0W d   1      -4.616  18.421  19.789  0.00  0.00     0.087 H 
ATOM     60  C30 D0W d   1      -2.850  19.897  17.306  0.00  0.00    -0.051 A 
ATOM     61  C31 D0W d   1      -2.017  18.831  16.979  0.00  0.00    -0.074 A 
ATOM     62  H26 D0W d   1      -2.771  20.838  16.773  0.00  0.00     0.087 H 
ATOM     63  H27 D0W d   1      -1.276  18.943  16.195  0.00  0.00     0.084 H 
BRANCH  58  64
ATOM     64  O32 D0W d   1      -4.644  20.790  18.694  0.00  0.00    -0.361 OA
ATOM     65  H30 D0W d   1      -4.129  21.534  18.982  0.00  0.00     0.217 HD
ENDBRANCH  58  64
ENDBRANCH  51  54
ENDBRANCH  49  51
BRANCH  49  66
ATOM     66  C33 D0W d   1       1.177  17.088  17.301  0.00  0.00     0.197 C 
ATOM     67  O34 D0W d   1       1.481  18.279  17.615  0.00  0.00    -0.646 OA
ATOM     68  O35 D0W d   1       1.778  16.507  16.361  0.00  0.00    -0.646 OA
ENDBRANCH  49  66
ENDBRANCH  46  49
ENDBRANCH   3  45
TORSDOF 16
