REMARK  20 active torsions:
REMARK  status: ('A' for Active; 'I' for Inactive)
REMARK    1  A    between atoms: S02_40  and  C01_1 
REMARK    2  A    between atoms: C06_2  and  C07_3 
REMARK    3  A    between atoms: C06_2  and  C12_7 
REMARK    4  A    between atoms: N05_27  and  C06_2 
REMARK    5  A    between atoms: C07_3  and  C08_4 
REMARK    6  A    between atoms: C08_4  and  C09_5 
REMARK    7  A    between atoms: C09_5  and  C10_6 
REMARK    8  A    between atoms: C10_6  and  N11_28 
REMARK       I    between atoms: C12_7  and  N14_29 
REMARK    9  A    between atoms: C15_8  and  C16_9 
REMARK   10  A    between atoms: N14_29  and  C15_8 
REMARK   11  A    between atoms: C16_9  and  C17_10 
REMARK   12  A    between atoms: C16_9  and  C38_26 
REMARK   13  A    between atoms: C17_10  and  C18_11 
REMARK   14  A    between atoms: C18_11  and  C23_16 
REMARK       I    between atoms: C23_16  and  N25_30 
REMARK   15  A    between atoms: C26_17  and  C27_18 
REMARK   16  A    between atoms: C26_17  and  C35_25 
REMARK   17  A    between atoms: N25_30  and  C26_17 
REMARK   18  A    between atoms: C27_18  and  C28_19 
REMARK   19  A    between atoms: C31_22  and  O34_35 
REMARK   20  A    between atoms: N05_27  and  S02_40 
ROOT
ATOM      1  C17 D0Z d   1     -14.228  -8.573  19.037  0.00  0.00    -0.036 C 
ATOM      2  H16 D0Z d   1     -13.371  -9.209  18.769  0.00  0.00     0.036 H 
ATOM      3  H17 D0Z d   1     -15.126  -8.925  18.507  0.00  0.00     0.036 H 
ENDROOT
BRANCH   1   4
ATOM      4  C16 D0Z d   1     -13.921  -7.147  18.525  0.00  0.00     0.047 C 
ATOM      5  H15 D0Z d   1     -12.947  -6.830  18.927  0.00  0.00     0.059 H 
BRANCH   4   6
ATOM      6  C15 D0Z d   1     -13.847  -7.217  16.976  0.00  0.00     0.008 C 
ATOM      7  H13 D0Z d   1     -14.769  -7.668  16.581  0.00  0.00     0.065 H 
ATOM      8  H14 D0Z d   1     -12.982  -7.826  16.674  0.00  0.00     0.065 H 
BRANCH   6   9
ATOM      9  N14 D0Z d   1     -13.701  -5.867  16.455  0.00  0.00    -0.358 N 
ATOM     10  C12 D0Z d   1     -14.578  -5.382  15.409  0.00  0.00     0.241 C 
ATOM     11  O13 D0Z d   1     -15.398  -6.070  14.925  0.00  0.00    -0.271 OA
ATOM     12  H37 D0Z d   1     -12.989  -5.268  16.822  0.00  0.00     0.162 HD
BRANCH  10  13
ATOM     13  C06 D0Z d   1     -14.378  -3.926  14.959  0.00  0.00     0.096 C 
ATOM     14  H4  D0Z d   1     -13.362  -3.569  15.183  0.00  0.00     0.088 H 
BRANCH  13  15
ATOM     15  C07 D0Z d   1     -15.436  -3.127  15.740  0.00  0.00    -0.037 C 
ATOM     16  H5  D0Z d   1     -15.141  -3.117  16.800  0.00  0.00     0.036 H 
ATOM     17  H6  D0Z d   1     -16.401  -3.644  15.633  0.00  0.00     0.036 H 
BRANCH  15  18
ATOM     18  C08 D0Z d   1     -15.626  -1.659  15.282  0.00  0.00    -0.061 C 
ATOM     19  H7  D0Z d   1     -16.482  -1.226  15.820  0.00  0.00     0.033 H 
ATOM     20  H8  D0Z d   1     -15.828  -1.647  14.201  0.00  0.00     0.033 H 
BRANCH  18  21
ATOM     21  C09 D0Z d   1     -14.384  -0.811  15.563  0.00  0.00    -0.043 C 
ATOM     22  H9  D0Z d   1     -13.555  -1.147  14.922  0.00  0.00     0.035 H 
ATOM     23  H10 D0Z d   1     -14.097  -0.916  16.620  0.00  0.00     0.035 H 
BRANCH  21  24
ATOM     24  C10 D0Z d   1     -14.705   0.657  15.261  0.00  0.00     0.080 C 
ATOM     25  H11 D0Z d   1     -15.139   1.119  16.160  0.00  0.00     0.075 H 
ATOM     26  H12 D0Z d   1     -15.434   0.700  14.438  0.00  0.00     0.075 H 
BRANCH  24  27
ATOM     27  N11 D0Z d   1     -13.519   1.399  14.877  0.00  0.00    -0.079 N 
ATOM     28  H34 D0Z d   1     -13.769   2.357  14.687  0.00  0.00     0.274 HD
ATOM     29  H35 D0Z d   1     -13.117   0.986  14.050  0.00  0.00     0.274 HD
ATOM     30  H36 D0Z d   1     -12.847   1.370  15.627  0.00  0.00     0.274 HD
ENDBRANCH  24  27
ENDBRANCH  21  24
ENDBRANCH  18  21
ENDBRANCH  15  18
ENDBRANCH  13  15
BRANCH  13  31
ATOM     31  N05 D0Z d   1     -14.640  -3.845  13.552  0.00  0.00    -0.306 N 
ATOM     32  H33 D0Z d   1     -15.560  -3.643  13.215  0.00  0.00     0.173 HD
BRANCH  31  33
ATOM     33  S02 D0Z d   1     -13.368  -4.096  12.479  0.00  0.00     0.223 S 
ATOM     34  O03 D0Z d   1     -12.172  -3.532  13.070  0.00  0.00    -0.206 OA
ATOM     35  O04 D0Z d   1     -13.720  -3.418  11.233  0.00  0.00    -0.206 OA
BRANCH  33  36
ATOM     36  C01 D0Z d   1     -13.255  -5.866  12.143  0.00  0.00     0.032 C 
ATOM     37  H1  D0Z d   1     -12.428  -6.054  11.442  0.00  0.00     0.051 H 
ATOM     38  H2  D0Z d   1     -14.199  -6.216  11.699  0.00  0.00     0.051 H 
ATOM     39  H3  D0Z d   1     -13.069  -6.407  13.083  0.00  0.00     0.051 H 
ENDBRANCH  33  36
ENDBRANCH  31  33
ENDBRANCH  13  31
ENDBRANCH  10  13
ENDBRANCH   6   9
ENDBRANCH   4   6
BRANCH   4  40
ATOM     40  C38 D0Z d   1     -14.953  -6.128  18.925  0.00  0.00     0.178 C 
ATOM     41  O39 D0Z d   1     -14.640  -5.186  19.706  0.00  0.00    -0.648 OA
ATOM     42  O40 D0Z d   1     -16.147  -6.225  18.469  0.00  0.00    -0.648 OA
ENDBRANCH   4  40
ENDBRANCH   1   4
BRANCH   1  43
ATOM     43  C18 D0Z d   1     -14.484  -8.760  20.550  0.00  0.00     0.042 C 
ATOM     44  C19 D0Z d   1     -14.819 -10.379  20.834  0.00  0.00    -0.050 C 
ATOM     45  C20 D0Z d   1     -16.165 -10.405  21.213  0.00  0.00    -0.064 C 
ATOM     46  H18 D0Z d   1     -14.182 -10.771  21.641  0.00  0.00     0.034 H 
ATOM     47  H19 D0Z d   1     -14.662 -10.973  19.922  0.00  0.00     0.034 H 
ATOM     48  C21 D0Z d   1     -16.436  -9.041  21.979  0.00  0.00    -0.064 C 
ATOM     49  H20 D0Z d   1     -16.358 -11.260  21.878  0.00  0.00     0.033 H 
ATOM     50  H21 D0Z d   1     -16.810 -10.478  20.325  0.00  0.00     0.033 H 
ATOM     51  C22 D0Z d   1     -15.595  -8.052  21.042  0.00  0.00    -0.050 C 
ATOM     52  H22 D0Z d   1     -16.048  -9.062  23.008  0.00  0.00     0.033 H 
ATOM     53  H23 D0Z d   1     -17.505  -8.783  21.995  0.00  0.00     0.033 H 
ATOM     54  H24 D0Z d   1     -16.220  -7.710  20.204  0.00  0.00     0.034 H 
ATOM     55  H25 D0Z d   1     -15.256  -7.183  21.625  0.00  0.00     0.034 H 
BRANCH  43  56
ATOM     56  C23 D0Z d   1     -13.178  -8.517  21.278  0.00  0.00     0.227 C 
ATOM     57  N25 D0Z d   1     -13.367  -8.225  22.672  0.00  0.00    -0.346 N 
ATOM     58  H38 D0Z d   1     -14.295  -8.132  23.033  0.00  0.00     0.163 HD
ATOM     59  O24 D0Z d   1     -12.075  -8.627  20.760  0.00  0.00    -0.273 OA
BRANCH  57  60
ATOM     60  C26 D0Z d   1     -12.227  -8.061  23.572  0.00  0.00     0.100 C 
ATOM     61  H26 D0Z d   1     -11.414  -7.546  23.039  0.00  0.00     0.090 H 
BRANCH  60  62
ATOM     62  C27 D0Z d   1     -12.634  -7.218  24.780  0.00  0.00    -0.013 C 
ATOM     63  H27 D0Z d   1     -12.654  -6.163  24.469  0.00  0.00     0.043 H 
ATOM     64  H28 D0Z d   1     -11.874  -7.355  25.563  0.00  0.00     0.043 H 
BRANCH  62  65
ATOM     65  C28 D0Z d   1     -13.995  -7.562  25.376  0.00  0.00    -0.056 A 
ATOM     66  C29 D0Z d   1     -15.095  -6.838  24.937  0.00  0.00    -0.074 A 
ATOM     67  C30 D0Z d   1     -16.340  -7.119  25.462  0.00  0.00    -0.051 A 
ATOM     68  H29 D0Z d   1     -14.977  -6.061  24.190  0.00  0.00     0.084 H 
ATOM     69  C31 D0Z d   1     -16.453  -8.081  26.440  0.00  0.00     0.065 A 
ATOM     70  H30 D0Z d   1     -17.217  -6.589  25.109  0.00  0.00     0.087 H 
ATOM     71  C32 D0Z d   1     -15.355  -8.792  26.897  0.00  0.00    -0.051 A 
ATOM     72  C33 D0Z d   1     -14.109  -8.515  26.363  0.00  0.00    -0.074 A 
ATOM     73  H31 D0Z d   1     -15.470  -9.553  27.660  0.00  0.00     0.087 H 
ATOM     74  H32 D0Z d   1     -13.231  -9.043  26.718  0.00  0.00     0.084 H 
BRANCH  69  75
ATOM     75  O34 D0Z d   1     -17.718  -8.347  26.973  0.00  0.00    -0.361 OA
ATOM     76  H39 D0Z d   1     -18.360  -7.782  26.560  0.00  0.00     0.217 HD
ENDBRANCH  69  75
ENDBRANCH  62  65
ENDBRANCH  60  62
BRANCH  60  77
ATOM     77  C35 D0Z d   1     -11.746  -9.435  24.001  0.00  0.00     0.197 C 
ATOM     78  O36 D0Z d   1     -10.681  -9.512  24.698  0.00  0.00    -0.646 OA
ATOM     79  O37 D0Z d   1     -12.394 -10.479  23.675  0.00  0.00    -0.646 OA
ENDBRANCH  60  77
ENDBRANCH  57  60
ENDBRANCH  43  56
ENDBRANCH   1  43
TORSDOF 20
