REMARK  12 active torsions:
REMARK  status: ('A' for Active; 'I' for Inactive)
REMARK    1  A    between atoms: C13_2  and  C15_3 
REMARK       I    between atoms: C13_2  and  N12_15 
REMARK    2  A    between atoms: C26_6  and  O29_7 
REMARK    3  A    between atoms: O29_7  and  C30_8 
REMARK    4  A    between atoms: C30_8  and  C31_9 
REMARK    5  A    between atoms: C31_9  and  N32_10 
REMARK    6  A    between atoms: N32_10  and  C34_11 
REMARK    7  A    between atoms: N32_10  and  C33_12 
REMARK    8  A    between atoms: N12_15  and  C11_16 
REMARK    9  A    between atoms: C11_16  and  C9_17 
REMARK   10  A    between atoms: C4_25  and  C16_27 
REMARK   11  A    between atoms: C20_29  and  O22_30 
REMARK   12  A    between atoms: O22_30  and  C23_31 
ROOT
ATOM      1  C11 D2W d   1      75.479  96.710  18.927  0.00  0.00     0.022 C 
ATOM      2  H17 D2W d   1      75.140  97.046  19.918  0.00  0.00     0.068 H 
ATOM      3  H18 D2W d   1      75.948  95.719  19.017  0.00  0.00     0.068 H 
ENDROOT
BRANCH   1   4
ATOM      4  N12 D2W d   1      76.458  97.662  18.404  0.00  0.00    -0.354 N 
ATOM      5  C13 D2W d   1      77.603  97.597  17.865  0.00  0.00     0.251 C 
ATOM      6  O14 D2W d   1      78.155  98.613  17.522  0.00  0.00    -0.268 OA
ATOM      7  H16 D2W d   1      76.143  98.607  18.495  0.00  0.00     0.162 HD
BRANCH   5   8
ATOM      8  C15 D2W d   1      78.301  96.302  17.638  0.00  0.00     0.032 A 
ATOM      9  C28 D2W d   1      79.321  95.919  18.495  0.00  0.00    -0.065 A 
ATOM     10  C27 D2W d   1      79.965  94.709  18.271  0.00  0.00    -0.050 A 
ATOM     11  H1  D2W d   1      79.611  96.553  19.325  0.00  0.00     0.085 H 
ATOM     12  C26 D2W d   1      79.604  93.897  17.194  0.00  0.00     0.068 A 
ATOM     13  H2  D2W d   1      80.757  94.391  18.940  0.00  0.00     0.087 H 
ATOM     14  C25 D2W d   1      78.577  94.281  16.351  0.00  0.00    -0.050 A 
ATOM     15  C24 D2W d   1      77.941  95.491  16.566  0.00  0.00    -0.065 A 
ATOM     16  H14 D2W d   1      78.273  93.641  15.530  0.00  0.00     0.087 H 
ATOM     17  H15 D2W d   1      77.154  95.811  15.892  0.00  0.00     0.085 H 
BRANCH  12  18
ATOM     18  O29 D2W d   1      80.151  92.679  16.955  0.00  0.00    -0.350 OA
BRANCH  18  19
ATOM     19  C30 D2W d   1      79.261  91.600  17.314  0.00  0.00     0.049 C 
ATOM     20  H3  D2W d   1      78.842  91.188  16.384  0.00  0.00     0.077 H 
ATOM     21  H4  D2W d   1      78.451  92.023  17.926  0.00  0.00     0.077 H 
BRANCH  19  22
ATOM     22  C31 D2W d   1      79.878  90.448  18.095  0.00  0.00     0.102 C 
ATOM     23  H5  D2W d   1      79.853  89.549  17.462  0.00  0.00     0.079 H 
ATOM     24  H6  D2W d   1      79.271  90.278  18.997  0.00  0.00     0.079 H 
BRANCH  22  25
ATOM     25  N32 D2W d   1      81.277  90.681  18.514  0.00  0.00    -0.077 N 
ATOM     26  H7  D2W d   1      81.588  89.817  18.931  0.00  0.00     0.279 HD
BRANCH  25  27
ATOM     27  C34 D2W d   1      81.340  91.702  19.584  0.00  0.00     0.066 C 
ATOM     28  H8  D2W d   1      82.388  91.859  19.880  0.00  0.00     0.068 H 
ATOM     29  H9  D2W d   1      80.761  91.358  20.454  0.00  0.00     0.068 H 
ATOM     30  H10 D2W d   1      80.918  92.648  19.214  0.00  0.00     0.068 H 
ENDBRANCH  25  27
BRANCH  25  31
ATOM     31  C33 D2W d   1      82.224  90.944  17.396  0.00  0.00     0.066 C 
ATOM     32  H11 D2W d   1      82.126  90.152  16.639  0.00  0.00     0.068 H 
ATOM     33  H12 D2W d   1      83.254  90.957  17.783  0.00  0.00     0.068 H 
ATOM     34  H13 D2W d   1      81.992  91.918  16.940  0.00  0.00     0.068 H 
ENDBRANCH  25  31
ENDBRANCH  22  25
ENDBRANCH  19  22
ENDBRANCH  18  19
ENDBRANCH  12  18
ENDBRANCH   5   8
ENDBRANCH   1   4
BRANCH   1  35
ATOM     35  C9  D2W d   1      74.253  96.613  17.970  0.00  0.00     0.081 C 
ATOM     36  C8  D2W d   1      74.576  96.294  16.504  0.00  0.00     0.052 C 
ATOM     37  O7  D2W d   1      73.353  95.905  15.848  0.00  0.00    -0.346 OA
ATOM     38  H20 D2W d   1      75.304  95.471  16.454  0.00  0.00     0.079 H 
ATOM     39  H21 D2W d   1      74.995  97.184  16.013  0.00  0.00     0.079 H 
ATOM     40  C6  D2W d   1      72.248  96.679  16.057  0.00  0.00     0.103 A 
ATOM     41  C3  D2W d   1      71.116  96.499  15.288  0.00  0.00    -0.048 A 
ATOM     42  C5  D2W d   1      72.294  97.653  17.055  0.00  0.00     0.115 A 
ATOM     43  C2  D2W d   1      70.022  97.319  15.523  0.00  0.00    -0.079 A 
ATOM     44  H22 D2W d   1      71.083  95.736  14.519  0.00  0.00     0.087 H 
ATOM     45  C1  D2W d   1      70.073  98.301  16.521  0.00  0.00    -0.068 A 
ATOM     46  H23 D2W d   1      69.122  97.199  14.931  0.00  0.00     0.083 H 
ATOM     47  C4  D2W d   1      71.216  98.482  17.289  0.00  0.00     0.029 A 
ATOM     48  H24 D2W d   1      69.207  98.929  16.696  0.00  0.00     0.085 H 
ATOM     49  O10 D2W d   1      73.432  97.778  17.818  0.00  0.00    -0.338 OA
ATOM     50  H19 D2W d   1      73.629  95.803  18.376  0.00  0.00     0.089 H 
BRANCH  47  51
ATOM     51  C16 D2W d   1      71.281  99.507  18.372  0.00  0.00     0.072 A 
ATOM     52  N21 D2W d   1      71.792  99.096  19.593  0.00  0.00    -0.224 NA
ATOM     53  C20 D2W d   1      71.900  99.947  20.657  0.00  0.00     0.164 A 
ATOM     54  C19 D2W d   1      71.443 101.295  20.517  0.00  0.00    -0.032 A 
ATOM     55  C18 D2W d   1      70.896 101.733  19.284  0.00  0.00    -0.077 A 
ATOM     56  H28 D2W d   1      71.515 101.981  21.353  0.00  0.00     0.090 H 
ATOM     57  C17 D2W d   1      70.818 100.836  18.190  0.00  0.00    -0.054 A 
ATOM     58  H29 D2W d   1      70.539 102.751  19.179  0.00  0.00     0.083 H 
ATOM     59  H30 D2W d   1      70.414 101.157  17.237  0.00  0.00     0.087 H 
BRANCH  53  60
ATOM     60  O22 D2W d   1      72.450  99.414  21.812  0.00  0.00    -0.339 OA
BRANCH  60  61
ATOM     61  C23 D2W d   1      73.283 100.174  22.706  0.00  0.00     0.012 C 
ATOM     62  H25 D2W d   1      73.596  99.537  23.546  0.00  0.00     0.067 H 
ATOM     63  H26 D2W d   1      72.718 101.036  23.090  0.00  0.00     0.067 H 
ATOM     64  H27 D2W d   1      74.172 100.531  22.165  0.00  0.00     0.067 H 
ENDBRANCH  60  61
ENDBRANCH  53  60
ENDBRANCH  47  51
ENDBRANCH   1  35
TORSDOF 12
